#------------------------------------------------------------------------------
#$Date: 2016-02-18 17:37:37 +0200 (Thu, 18 Feb 2016) $
#$Revision: 176729 $
#$URL: svn://www.crystallography.net/cod/cif/1/51/39/1513945.cif $
#------------------------------------------------------------------------------
#
# This file is available in the Crystallography Open Database (COD),
# http://www.crystallography.net/
#
# All data on this site have been placed in the public domain by the
# contributors.
#
data_1513945
loop_
_publ_author_name
'Fang, Li-Chao'
'Hsung, Richard P.'
_publ_section_title
;
 Stereoselective Synthesis of Isoquinuclidines through an Aza-[4 + 2]
 Cycloaddition of Chiral Cyclic 2-Amidodienes.
;
_journal_issue                   6
_journal_name_full               'Organic letters'
_journal_page_first              1826
_journal_page_last               1829
_journal_paper_doi               10.1021/ol500390a
_journal_volume                  16
_journal_year                    2014
_chemical_absolute_configuration adrm
_chemical_formula_moiety         'C27 H32 N2 O4 S'
_chemical_formula_sum            'C27 H32 N2 O4 S'
_chemical_formula_weight         480.60
_chemical_name_common            13315a
_chemical_name_systematic
;
 ?
;
_space_group_crystal_system      orthorhombic
_space_group_IT_number           19
_space_group_name_Hall           'P 2ac 2ab'
_space_group_name_H-M_alt        'P 21 21 21'
_symmetry_space_group_name_Hall  'P 2ac 2ab'
_symmetry_space_group_name_H-M   'P 21 21 21'
_atom_sites_solution_hydrogens   geom
_audit_creation_method           SHELXL-2013
_cell_angle_alpha                90
_cell_angle_beta                 90
_cell_angle_gamma                90
_cell_formula_units_Z            4
_cell_length_a                   6.5295(6)
_cell_length_b                   16.1868(15)
_cell_length_c                   22.781(2)
_cell_measurement_reflns_used    2891
_cell_measurement_temperature    123(2)
_cell_measurement_theta_max      67.65
_cell_measurement_theta_min      3.88
_cell_volume                     2407.8(4)
_computing_cell_refinement       'Bruker SAINT'
_computing_data_collection       'Bruker APEX2'
_computing_data_reduction        'Bruker SAINT'
_computing_molecular_graphics    'Bruker SHELXTL'
_computing_publication_material  'Bruker SHELXTL'
_computing_structure_refinement  'SHELXL-2013 (Sheldrick, 2013)'
_computing_structure_solution    'SHELXT (Sheldrick 2013)'
_diffrn_ambient_temperature      123(2)
_diffrn_measured_fraction_theta_full 0.994
_diffrn_measured_fraction_theta_max 0.991
_diffrn_measurement_device_type  'Bruker-AXS D8 Photon-100'
_diffrn_measurement_method       '\f and \w scans'
_diffrn_radiation_type           CuK\a
_diffrn_radiation_wavelength     1.54178
_diffrn_reflns_av_R_equivalents  0.0335
_diffrn_reflns_av_unetI/netI     0.0284
_diffrn_reflns_Laue_measured_fraction_full 0.994
_diffrn_reflns_Laue_measured_fraction_max 0.991
_diffrn_reflns_limit_h_max       6
_diffrn_reflns_limit_h_min       -7
_diffrn_reflns_limit_k_max       17
_diffrn_reflns_limit_k_min       -19
_diffrn_reflns_limit_l_max       26
_diffrn_reflns_limit_l_min       -27
_diffrn_reflns_number            20427
_diffrn_reflns_point_group_measured_fraction_full 0.989
_diffrn_reflns_point_group_measured_fraction_max 0.984
_diffrn_reflns_theta_full        67.679
_diffrn_reflns_theta_max         68.271
_diffrn_reflns_theta_min         3.349
_diffrn_source                   'Cu ImuS Micro-focus'
_exptl_absorpt_coefficient_mu    1.492
_exptl_absorpt_correction_T_max  0.7531
_exptl_absorpt_correction_T_min  0.6298
_exptl_absorpt_correction_type   multi-scan
_exptl_absorpt_process_details   'SADABS 2012/1 (Sheldrick, 2012)'
_exptl_crystal_colour            Colorless
_exptl_crystal_density_diffrn    1.326
_exptl_crystal_description       Plate
_exptl_crystal_F_000             1024
_exptl_crystal_size_max          0.250
_exptl_crystal_size_mid          0.110
_exptl_crystal_size_min          0.040
_exptl_transmission_factor_max   0.7531
_exptl_transmission_factor_min   0.6298
_refine_diff_density_max         0.205
_refine_diff_density_min         -0.226
_refine_diff_density_rms         0.032
_refine_ls_abs_structure_details
;
 Flack x determined using 1679 quotients [(I+)-(I-)]/[(I+)+(I-)]
 (Parsons and Flack (2004), Acta Cryst. A60, s61).
;
_refine_ls_abs_structure_Flack   0.034(6)
_refine_ls_extinction_method     none
_refine_ls_goodness_of_fit_ref   1.048
_refine_ls_hydrogen_treatment    constr
_refine_ls_matrix_type           full
_refine_ls_number_parameters     310
_refine_ls_number_reflns         4326
_refine_ls_number_restraints     0
_refine_ls_restrained_S_all      1.048
_refine_ls_R_factor_all          0.0274
_refine_ls_R_factor_gt           0.0250
_refine_ls_shift/su_max          0.001
_refine_ls_shift/su_mean         0.000
_refine_ls_structure_factor_coef Fsqd
_refine_ls_weighting_details
'w=1/[\s^2^(Fo^2^)+(0.0313P)^2^+0.3887P] where P=(Fo^2^+2Fc^2^)/3'
_refine_ls_weighting_scheme      calc
_refine_ls_wR_factor_gt          0.0626
_refine_ls_wR_factor_ref         0.0638
_reflns_Friedel_coverage         0.720
_reflns_Friedel_fraction_full    0.983
_reflns_Friedel_fraction_max     0.975
_reflns_number_gt                4087
_reflns_number_total             4326
_reflns_threshold_expression     'I > 2\s(I)'
_cod_data_source_file            ol500390a_si_003.cif
_cod_data_source_block           13315a
_cod_database_code               1513945
#BEGIN Tags that were not found in dictionaries:
_shelx_space_group_comment
;
The symmetry employed for this shelxl refinement is uniquely defined
by the following loop, which should always be used as a source of
symmetry information in preference to the above space-group names.
They are only intended as comments.
;
_shelx_estimated_absorpt_t_min   0.707
_shelx_estimated_absorpt_t_max   0.943
_shelxl_version_number           2013-3
_shelx_res_file
;
REM Solution 1  R1  0.087  Rweak  0.024,  Alpha = 0.0080  in P2(1)2(1)2(1)
REM Flack x =  0.051 ( 0.006 ) from Parsons' quotients
REM Formula:  C27 N2 O4 S
TITL 13315_0m in P2(1)2(1)2(1)
CELL  1.54178   6.5295  16.1868  22.7811   90.000   90.000   90.000
ZERR    4.00   0.00060   0.00150   0.00200   0.0000   0.0000   0.0000
LATT -1
SYMM 1/2-X, -Y, 1/2+Z
SYMM -X, 1/2+Y, 1/2-Z
SYMM 1/2+X, 1/2-Y, -Z
SFAC C   H   N O  S
UNIT 108 128 8 16 4
TEMP -150.140
SIZE 0.25 0.11 0.04

L.S. 10
ACTA
CONF
FMAP 2
BOND $H
LIST 4
FMAP 2
PLAN 5

WGHT    0.031300    0.388700
FVAR       0.52830
S1    5    0.534277    0.531719    0.613356    11.00000    0.02091    0.01988 =
         0.02384    0.00109   -0.00402   -0.00437
O1    4    0.745524    0.531448    0.596085    11.00000    0.01871    0.02852 =
         0.04246    0.00609   -0.00416   -0.00544
O2    4    0.474108    0.569168    0.667811    11.00000    0.03910    0.02514 =
         0.02362   -0.00423   -0.00637   -0.00681
O3    4   -0.073084    0.194550    0.638981    11.00000    0.01805    0.02655 =
         0.05021    0.01006   -0.00638   -0.00155
O4    4    0.100085    0.099315    0.690178    11.00000    0.02064    0.02334 =
         0.03208    0.01000    0.00046   -0.00097
N1    3    0.458661    0.436667    0.616052    11.00000    0.02005    0.01837 =
         0.02011    0.00090    0.00117   -0.00224
N2    3    0.282987    0.194837    0.643602    11.00000    0.01684    0.01720 =
         0.02124    0.00443   -0.00111   -0.00032
C1    1    0.398043    0.584002    0.557632    11.00000    0.02176    0.01332 =
         0.02425   -0.00095   -0.00044   -0.00323
C2    1    0.491021    0.601665    0.504046    11.00000    0.02275    0.01789 =
         0.02636   -0.00395    0.00345   -0.00188
AFIX  43
H2A   2    0.629162    0.586002    0.497157    11.00000   -1.20000
AFIX   0
C3    1    0.380716    0.642172    0.460954    11.00000    0.03558    0.01989 =
         0.02016   -0.00038    0.00228   -0.00217
AFIX  43
H3A   2    0.444517    0.654661    0.424542    11.00000   -1.20000
AFIX   0
C4    1    0.177403    0.664952    0.470126    11.00000    0.03270    0.01483 =
         0.02663   -0.00388   -0.00531   -0.00101
C5    1    0.088041    0.647538    0.524168    11.00000    0.02288    0.01839 =
         0.03329   -0.00303   -0.00267    0.00182
AFIX  43
H5A   2   -0.049754    0.663588    0.531177    11.00000   -1.20000
AFIX   0
C6    1    0.195882    0.607353    0.567826    11.00000    0.02409    0.01786 =
         0.02428   -0.00136    0.00343   -0.00254
AFIX  43
H6A   2    0.132704    0.595751    0.604475    11.00000   -1.20000
AFIX   0
C7    1    0.054795    0.705782    0.422275    11.00000    0.04866    0.02917 =
         0.02967   -0.00315   -0.00918    0.01050
AFIX 137
H7A   2    0.131753    0.752800    0.406529    11.00000   -1.50000
H7B   2   -0.075805    0.725238    0.438345    11.00000   -1.50000
H7C   2    0.028619    0.665888    0.390798    11.00000   -1.50000
AFIX   0
C8    1    0.266951    0.413593    0.647610    11.00000    0.01879    0.01898 =
         0.02090    0.00095    0.00188   -0.00144
AFIX  13
H8A   2    0.169095    0.461066    0.646060    11.00000   -1.20000
AFIX   0
C9    1    0.322201    0.395679    0.712372    11.00000    0.02518    0.02862 =
         0.01965    0.00103   -0.00077   -0.00429
AFIX  23
H9A   2    0.447891    0.361491    0.713166    11.00000   -1.20000
H9B   2    0.354533    0.448742    0.731894    11.00000   -1.20000
AFIX   0
C10   1    0.158464    0.352133    0.747741    11.00000    0.02855    0.02502 =
         0.01571   -0.00113    0.00084   -0.00158
C11   1    0.201173    0.276010    0.773347    11.00000    0.03012    0.03052 =
         0.02125    0.00175    0.00340    0.00500
AFIX  43
H11A  2    0.334039    0.252857    0.769091    11.00000   -1.20000
AFIX   0
C12   1    0.054123    0.233322    0.804889    11.00000    0.03916    0.02707 =
         0.02541    0.00464    0.00528    0.00409
AFIX  43
H12A  2    0.086290    0.181183    0.821669    11.00000   -1.20000
AFIX   0
C13   1   -0.139697    0.266449    0.812032    11.00000    0.03563    0.03300 =
         0.02334    0.00094    0.00817   -0.00212
AFIX  43
H13A  2   -0.241765    0.236990    0.833128    11.00000   -1.20000
AFIX   0
C14   1   -0.182963    0.343176    0.788002    11.00000    0.02816    0.03766 =
         0.02674    0.00225    0.00455    0.00555
AFIX  43
H14A  2   -0.314676    0.366925    0.793395    11.00000   -1.20000
AFIX   0
C15   1   -0.035610    0.385523    0.756173    11.00000    0.03448    0.02715 =
         0.02496    0.00303    0.00386    0.00463
AFIX  43
H15A  2   -0.067568    0.438008    0.739913    11.00000   -1.20000
AFIX   0
C16   1    0.173742    0.339628    0.614287    11.00000    0.01638    0.01929 =
         0.01935    0.00207   -0.00070   -0.00052
AFIX  13
H16A  2    0.041716    0.321889    0.632619    11.00000   -1.20000
AFIX   0
C17   1    0.141302    0.365510    0.549785    11.00000    0.02187    0.02205 =
         0.02173    0.00175   -0.00384    0.00105
AFIX  23
H17A  2    0.057636    0.416466    0.548174    11.00000   -1.20000
H17B  2    0.066960    0.321391    0.528529    11.00000   -1.20000
AFIX   0
C18   1    0.350612    0.380954    0.520208    11.00000    0.02845    0.01911 =
         0.01937    0.00240    0.00019    0.00013
AFIX  23
H18A  2    0.377162    0.338366    0.489961    11.00000   -1.20000
H18B  2    0.352097    0.435880    0.501097    11.00000   -1.20000
AFIX   0
C19   1    0.514496    0.376916    0.568364    11.00000    0.01941    0.01932 =
         0.02225    0.00130    0.00340   -0.00076
AFIX  13
H19A  2    0.652794    0.390005    0.551959    11.00000   -1.20000
AFIX   0
C20   1    0.511396    0.291140    0.594378    11.00000    0.01947    0.01769 =
         0.02342    0.00201    0.00039    0.00056
AFIX  43
H20A  2    0.627382    0.255729    0.595263    11.00000   -1.30000
AFIX   0
C21   1    0.329727    0.270417    0.615866    11.00000    0.02097    0.01735 =
         0.01734    0.00145   -0.00244    0.00001
C22   1    0.088781    0.167153    0.655770    11.00000    0.02117    0.02012 =
         0.02707    0.00390   -0.00172   -0.00138
C23   1    0.311702    0.084264    0.705779    11.00000    0.02051    0.02308 =
         0.02387    0.00564   -0.00224    0.00305
AFIX  23
H23A  2    0.344027    0.024610    0.703318    11.00000   -1.20000
H23B  2    0.340136    0.103694    0.746171    11.00000   -1.20000
AFIX   0
C24   1    0.437508    0.133354    0.660981    11.00000    0.01872    0.01777 =
         0.02111    0.00186   -0.00356    0.00096
AFIX  13
H24A  2    0.554920    0.161306    0.680978    11.00000   -1.20000
AFIX   0
C25   1    0.515886    0.080880    0.609645    11.00000    0.02462    0.01953 =
         0.02432    0.00055    0.00341   -0.00185
AFIX  13
H25A  2    0.591673    0.118500    0.582432    11.00000   -1.20000
AFIX   0
C26   1    0.668970    0.016590    0.632450    11.00000    0.02796    0.01950 =
         0.03863   -0.00255    0.00218    0.00169
AFIX 137
H26A  2    0.744889   -0.006999    0.599342    11.00000   -1.50000
H26B  2    0.594885   -0.027442    0.652964    11.00000   -1.50000
H26C  2    0.764959    0.043129    0.659618    11.00000   -1.50000
AFIX   0
C27   1    0.344954    0.039858    0.574412    11.00000    0.03694    0.02937 =
         0.02463   -0.00528   -0.00376   -0.00096
AFIX 137
H27A  2    0.252746    0.082352    0.558907    11.00000   -1.50000
H27B  2    0.267858    0.002324    0.599927    11.00000   -1.50000
H27C  2    0.404538    0.008564    0.541785    11.00000   -1.50000

AFIX   0
HKLF 4

REM  13315_0m in P2(1)2(1)2(1)
REM R1 =  0.0250 for    4087 Fo > 4sig(Fo)  and  0.0274 for all    4326 data
REM    310 parameters refined using      0 restraints

END

WGHT      0.0305      0.4160

REM Highest difference peak  0.205,  deepest hole -0.226,  1-sigma level  0.032
Q1    1   0.4619  0.5610  0.5800  11.00000  0.05    0.20
Q2    1   0.2928  0.3991  0.6799  11.00000  0.05    0.16
Q3    1   0.3813  0.1076  0.6815  11.00000  0.05    0.15
Q4    1   0.1505  0.3450  0.5840  11.00000  0.05    0.14
Q5    1   0.2495  0.3023  0.6145  11.00000  0.05    0.14
;
_shelx_res_checksum              42473
_shelx_hkl_file
;
   1   0   0   -2.10    0.70
  -1   0   0   -1.40    0.60
  -2   0   0 1138.19   47.20
  -3   0   0   -0.80    1.80
  -3   0   0    0.30    2.20
  -4   0   0   72.89    5.80
  -4   0   0   60.09    4.20
  -4   0   0   66.19    5.90
  -4   0   0   66.19    6.30
  -5   0   0    0.40    1.80
  -5   0   0    0.20    3.70
  -5   0   0    5.30    2.80
  -5   0   0    1.20    2.80
  -6   0   0  222.58   10.40
  -6   0   0  208.58   12.80
  -6   0   0  217.08   13.60
  -7   0   0    2.30    4.60
  -7   0   0    0.50    5.40
  -7   0   0   -1.50    3.00
   0   1   0   -0.20    0.20
   0  -1   0   -0.20    0.20
  -1   1   0  640.94   25.20
   1   1   0  611.14   25.30
  -1   1   0  633.84   26.00
  -1  -1   0  630.04   25.30
  -1  -1   0  685.93   26.10
   1   1   0  598.84   26.10
   1  -1   0  601.44   25.20
  -2   1   0  409.66   17.90
   2   1   0  420.06   16.70
  -2  -1   0  407.26   18.00
  -3   1   0   38.90    5.00
  -3   1   0   44.90    5.00
  -3   1   0   39.70    3.00
  -3  -1   0   43.50    4.60
  -3  -1   0   41.80    4.60
  -4  -1   0  156.98    9.40
  -4  -1   0  166.18    9.00
  -4   1   0  146.09    9.20
  -4   1   0  153.08    7.50
  -4   1   0  180.18   10.20
  -4   1   0  166.48    9.60
  -4   1   0  147.49    9.60
  -5  -1   0  333.77   17.60
  -5  -1   0  339.87   14.70
  -5  -1   0  350.66   18.80
  -5   1   0  333.77   17.70
  -5   1   0  345.57   14.70
  -5  -1   0  340.17   16.80
  -5   1   0  324.07   18.50
  -6   1   0  130.59    7.20
  -6   1   0  130.89    9.80
  -6   1   0  115.19    9.70
  -6  -1   0  141.79    9.40
  -6  -1   0  127.69    7.30
  -6  -1   0  136.99   10.30
  -7   1   0    3.90    2.70
  -7   1   0    3.50    5.00
  -7  -1   0   -0.60    4.00
   0  -2   0   71.79    3.70
   0   2   0   73.99    3.70
   1   2   0  388.86   15.90
   1  -2   0  383.26   15.80
   1   2   0  385.56   16.50
  -1   2   0  381.36   15.80
  -1   2   0  377.96   16.10
  -1  -2   0  393.56   15.90
   2  -2   0   91.19    4.20
  -2  -2   0   82.59    4.50
  -2   2   0   91.59    5.10
  -2   2   0   93.59    3.90
   2   2   0   90.99    4.30
  -3   2   0    7.70    2.60
  -3  -2   0    9.10    2.30
  -3   2   0    5.80    2.20
  -3  -2   0    8.80    2.10
  -3   2   0    8.40    1.60
  -4   2   0  505.55   21.10
  -4  -2   0  571.44   25.30
  -4   2   0  503.35   26.30
  -4   2   0  482.65   23.80
  -4  -2   0  519.35   23.30
  -4   2   0  516.05   25.10
  -5   2   0  219.18   12.40
  -5  -2   0  217.78   11.70
  -5  -2   0  213.58   10.00
  -5   2   0  217.68    9.90
  -5  -2   0  209.88   13.10
  -5  -2   0  200.78   12.00
  -5   2   0  192.68   12.60
  -6  -2   0   10.30    4.20
  -6  -2   0   10.60    3.00
  -6   2   0   14.60    4.40
  -6  -2   0   12.10    3.60
  -6   2   0   17.60    4.20
  -6   2   0   11.80    2.70
  -7  -2   0   57.29    6.40
  -7   2   0   71.09    5.00
   0   3   0   -0.60    0.60
   0  -3   0   -0.70    0.70
  -1   3   0 2371.86   97.59
  -1   3   0 2393.56   96.39
   1   3   0 2339.47   96.39
   1   3   0 2497.65   97.99
  -1  -3   0 2356.86   96.49
   1  -3   0 2459.85   96.49
  -2  -3   0    0.70    1.40
  -2   3   0    1.60    1.20
   2  -3   0    0.80    1.00
   2   3   0    2.20    0.90
  -3   3   0  110.49    5.40
  -3  -3   0  114.69    6.70
  -3   3   0  126.89    8.10
  -3   3   0  100.69    6.80
   3   3   0  103.69    5.30
  -3   3   0   88.09    7.20
  -3  -3   0  111.79    6.50
  -4  -3   0   67.89    5.60
  -4   3   0   74.39    4.60
  -4   3   0   77.49    7.20
  -4  -3   0   75.39    5.70
  -4   3   0   65.69    6.00
  -4   3   0   81.19    6.10
  -5  -3   0    2.50    2.80
  -5   3   0    6.10    3.70
  -5  -3   0    2.70    2.20
  -5   3   0   -3.10    2.70
  -5   3   0    1.40    1.70
  -5  -3   0    6.00    3.10
  -5  -3   0    3.00    3.20
  -5   3   0    1.80    2.80
  -6   3   0  355.66   15.80
  -6  -3   0  348.47   15.80
  -6  -3   0  375.56   20.40
  -6   3   0  365.96   19.90
  -6  -3   0  370.26   19.00
  -6  -3   0  356.76   18.20
  -7  -3   0   42.10    5.60
  -7   3   0   36.80    4.00
   0   4   0 4480.55  179.78
   0  -4   0 4501.75  179.88
   1  -4   0 4901.51  194.38
  -1  -4   0 4877.91  194.58
  -1   4   0 4913.81  197.58
   1   4   0 4839.92  197.18
   1   4   0 4753.82  194.38
  -1   4   0 4851.61  194.28
  -2  -4   0  122.19    7.00
  -2   4   0  148.19    8.10
  -2  -4   0  131.29    7.80
  -2   4   0  140.69    6.80
  -2  -4   0  122.29    7.60
   2   4   0  137.79    6.70
  -2   4   0  133.79    6.50
   2  -4   0  134.79    7.00
  -2   4   0  137.09    6.30
  -3  -4   0 1411.56   74.29
  -3  -4   0 1630.44   68.69
  -3   4   0 1851.41   78.39
   3   4   0 1634.44   65.89
   3  -4   0 1676.33   65.59
  -3   4   0 1709.33   63.39
  -3  -4   0 1464.35   63.89
  -3   4   0 1633.84   71.09
  -4  -4   0  356.96   16.50
  -4   4   0  354.66   18.40
  -4   4   0  302.87   17.80
  -4   4   0  337.57   14.60
  -4  -4   0  369.16   17.60
  -5  -4   0    4.90    3.20
  -5  -4   0   -0.20    2.70
  -5   4   0    1.70    2.80
  -5  -4   0   -0.30    2.40
  -5   4   0    0.70    1.70
  -5   4   0    3.90    2.60
  -6  -4   0    8.40    4.80
  -6   4   0   17.50    4.30
  -6  -4   0   19.80    4.00
  -6  -4   0   13.60    4.50
  -6   4   0   11.70    2.40
  -7   4   0   15.50    2.90
  -7  -4   0   15.40    3.80
   0   5   0    0.50    0.70
   0  -5   0   -1.10    1.40
   0   5   0    0.90    1.20
   1   5   0  421.26   18.00
   1  -5   0  422.56   18.30
  -1  -5   0  411.16   18.40
  -1   5   0  404.66   17.90
   1   5   0  412.66   18.60
  -1   5   0  437.06   17.40
  -2   5   0  519.25   23.90
   2   5   0  548.05   22.50
  -2  -5   0  519.85   25.00
   2  -5   0  547.55   22.80
  -2   5   0  525.85   21.00
  -2   5   0  505.75   22.20
  -2  -5   0  505.35   21.80
  -2  -5   0  497.95   23.00
  -2   5   0  536.95   26.30
  -2   5   0  558.44   22.50
  -3   5   0   98.19    6.80
  -3   5   0  110.79    5.60
  -3   5   0  118.49    7.50
  -3  -5   0  117.89    7.10
  -3  -5   0  117.89    6.80
  -3  -5   0  102.39    6.50
   3   5   0  107.39    6.70
  -3  -5   0  118.09    7.90
  -4   5   0    3.40    2.00
  -4   5   0    3.30    2.40
  -4  -5   0    2.20    2.40
  -4  -5   0    4.50    2.40
  -4   5   0    3.10    1.60
  -5   5   0   71.29    4.90
  -5  -5   0   70.09    6.50
  -5  -5   0   66.59    6.30
  -5   5   0   82.79    6.30
  -5   5   0   75.59    6.80
  -6  -5   0    1.00    4.80
  -6  -5   0    2.40    3.70
  -6   5   0    4.60    3.50
  -6   5   0   -0.20    2.10
  -6  -5   0    6.40    3.20
  -7  -5   0    1.40    3.00
  -7   5   0    3.70    2.40
   0  -6   0  338.97   15.90
   0   6   0  344.87   14.20
   0   6   0  338.17   15.20
  -1  -6   0    5.90    3.10
   1  -6   0    7.20    2.50
  -1   6   0    4.70    1.80
  -1   6   0    8.50    1.60
   1   6   0    6.00    1.60
   1   6   0    5.50    2.60
  -2  -6   0  185.38   10.00
  -2  -6   0  190.18    8.60
  -2  -6   0  187.78    9.30
  -2   6   0  193.68    8.10
   2  -6   0  153.78   10.60
  -2  -6   0  182.18    9.30
   2   6   0  187.28    9.40
  -2   6   0  181.98    9.40
  -2   6   0  172.58    9.50
  -2   6   0  187.48   10.20
  -3   6   0  165.28    8.90
  -3  -6   0  153.38    9.30
  -3   6   0  173.58    9.80
  -3  -6   0  180.28    9.70
   3   6   0  162.48    9.40
  -3  -6   0  161.18    8.80
  -3   6   0  164.28    7.70
  -3  -6   0  159.98    8.60
  -4   6   0  106.19    7.30
  -4   6   0  112.19    6.90
  -4  -6   0   94.39    9.10
  -4   6   0   99.39    5.60
  -4  -6   0  101.69    7.00
  -4  -6   0   93.89    6.90
  -5   6   0  200.28   10.10
  -5   6   0  223.28   13.10
  -5   6   0  216.88   11.70
  -5  -6   0  224.08   12.20
  -5  -6   0  226.98   12.50
  -6  -6   0   14.30    3.40
  -6   6   0   14.30    2.50
  -6   6   0   13.70    3.50
  -6  -6   0   11.20    4.10
  -6  -6   0   14.60    5.60
  -7  -6   0   -0.80    2.90
  -7   6   0    1.80    2.20
   0  -7   0   -2.40    3.40
   0   7   0    0.60    1.80
  -1  -7   0   97.79    6.40
  -1   7   0   79.09    4.40
  -1   7   0   82.89    5.80
  -1  -7   0   73.09    5.80
   1  -7   0   72.49    8.60
  -1   7   0   81.49    5.60
   1   7   0   83.09    5.60
  -2  -7   0  101.89    5.70
  -2   7   0  104.89    5.30
  -2  -7   0  103.59    6.50
   2   7   0  109.59    6.80
  -2   7   0  109.99    6.70
   2  -7   0  116.69   10.20
  -2  -7   0  101.79    6.40
  -2   7   0  104.39    7.40
  -2  -7   0  104.19    6.70
  -3   7   0   54.49    3.60
  -3  -7   0   55.49    5.00
  -3   7   0   49.50    4.70
  -3  -7   0   56.99    4.80
  -3  -7   0   63.59    5.10
   3   7   0   49.80    7.40
  -3  -7   0   56.79    6.00
  -4   7   0  674.53   28.10
  -4   7   0  720.23   31.70
  -4  -7   0  658.83   33.20
  -4  -7   0  722.73   31.10
  -4  -7   0  686.13   29.30
  -5   7   0  702.13   31.90
  -5  -7   0  717.53   31.50
  -5   7   0  693.13   28.50
  -5  -7   0  673.83   33.80
  -6   7   0   97.59    7.40
  -6  -7   0   93.49    7.60
  -6  -7   0   92.59    7.30
  -6   7   0   96.69    5.80
  -7  -7   0   14.70    3.70
   0   8   0   21.30    3.30
   0  -8   0   23.60    3.10
  -1   8   0 1040.40   43.00
  -1  -8   0  972.00   47.00
  -1  -8   0  998.90   43.40
   1   8   0 1060.39   43.20
  -1   8   0 1017.80   45.00
  -2  -8   0  113.49    6.70
  -2  -8   0  121.89    7.20
  -2   8   0  121.89    9.30
  -2   8   0  119.59    7.40
  -2  -8   0  136.29    7.40
   2   8   0  127.39    8.20
  -2   8   0  133.19    6.20
  -2  -8   0  116.49    7.50
  -3  -8   0   91.09    6.30
  -3   8   0   88.59    5.10
  -3  -8   0   83.19    6.10
  -3  -8   0   85.69    7.00
   3   8   0   91.59    9.80
  -3  -8   0   93.59    6.50
  -3   8   0   85.59    6.40
  -4   8   0  262.97   12.00
  -4   8   0  265.77   13.80
  -4  -8   0  270.37   13.80
  -4  -8   0  278.17   13.80
  -4  -8   0  270.97   14.60
  -5   8   0   62.99    4.70
  -5  -8   0   80.79    6.30
  -5   8   0   54.39    5.90
  -5  -8   0   69.09    6.30
  -6   8   0   52.59    5.50
  -6  -8   0   46.10    5.50
  -6   8   0   53.09    4.00
  -6  -8   0   48.50    6.20
  -7  -8   0   10.90    3.20
   0   9   0   -0.80    2.80
   0  -9   0    2.50    2.30
   0   9   0   -0.30    2.50
  -1   9   0   68.29    7.30
  -1  -9   0   69.29    5.50
   1   9   0   72.29    7.00
  -1  -9   0   65.49    6.50
   1  -9   0   74.29    6.40
  -1   9   0   75.89    5.70
  -2  -9   0    4.10    2.00
  -2  -9   0    3.10    1.80
  -2   9   0    3.20    1.40
  -2   9   0    4.00    1.90
   2   9   0   -1.10    3.60
  -2  -9   0    1.60    2.00
  -2  -9   0    0.10    2.30
  -3  -9   0  300.27   14.90
  -3   9   0  305.57   15.00
  -3  -9   0  302.07   15.00
  -3  -9   0  297.17   15.70
  -3   9   0  296.57   13.10
  -3  -9   0  304.77   14.20
  -4  -9   0  508.15   22.60
  -4   9   0  505.45   21.30
  -4  -9   0  507.05   23.60
  -4  -9   0  513.85   25.30
  -4   9   0  508.65   24.00
  -5  -9   0   66.59    6.30
  -5  -9   0   61.89    6.30
  -5   9   0   58.39    5.80
  -5   9   0   67.89    4.70
  -6   9   0   11.90    2.90
  -6  -9   0   12.00    3.30
  -6  -9   0    8.60    3.60
   0 -10   0    1.70    2.20
   0  10   0    4.50    2.60
   0  10   0   -2.10    3.90
  -1 -10   0   75.49    5.20
   1  10   0   67.29    8.70
  -1 -10   0   80.99    7.10
  -1  10   0   72.99    6.00
   1 -10   0   76.79    6.60
  -1  10   0   79.99   11.20
  -1 -10   0   76.99    5.90
  -1 -10   0   74.59    5.80
  -2  10   0    1.90    2.10
  -2 -10   0    3.40    2.30
  -2 -10   0    0.80    1.80
  -2 -10   0    4.90    2.30
  -2 -10   0    5.30    2.80
  -3 -10   0    0.10    2.30
  -3 -10   0   -1.10    2.30
  -3 -10   0    1.10    2.70
  -3  10   0    0.60    2.20
  -3 -10   0   -1.80    2.40
  -3  10   0    1.10    1.70
  -4 -10   0  104.19    9.00
  -4 -10   0   96.09    7.80
  -4 -10   0  104.79    7.10
  -4  10   0  100.69    7.10
  -4  10   0   90.99    5.70
  -5  10   0   27.20    3.40
  -5  10   0   24.60    3.40
  -5 -10   0   23.50    4.30
  -5 -10   0   25.70    4.30
  -6  10   0   15.30    2.80
  -6 -10   0   11.90    3.40
  -6 -10   0   15.50    4.10
   0 -11   0   -0.20    2.20
   0  11   0    0.70    6.10
   0  11   0   -1.00    2.90
  -1  11   0    0.70    2.20
  -1  11   0    2.40    7.50
  -1 -11   0   -0.90    2.00
  -1 -11   0    1.80    2.20
  -1 -11   0    1.50    1.70
  -1 -11   0   -3.90    3.80
   1 -11   0    3.50    2.90
  -2 -11   0  259.77   13.30
  -2 -11   0  272.47   12.60
  -2 -11   0  270.77   13.40
  -2 -11   0  256.07   14.60
  -2  11   0  258.27   13.50
  -3 -11   0   16.70    3.30
  -3  11   0   18.90    3.10
  -3 -11   0   19.10    3.90
  -3 -11   0   17.00    3.30
  -3 -11   0   16.40    3.40
  -4 -11   0  121.19    8.50
  -4 -11   0  124.59    9.60
  -4  11   0  137.29    8.30
  -4 -11   0  134.29    9.40
  -5  11   0  266.87   13.30
  -5 -11   0  257.27   14.50
  -5 -11   0  256.67   13.70
  -6 -11   0   69.89    6.60
  -6 -11   0   71.89    6.40
  -6  11   0   76.39    5.50
   0 -12   0   55.19    6.20
   0 -12   0   54.09    5.90
  -1  12   0    3.10    2.50
  -1 -12   0    2.80    2.30
   1 -12   0    0.60    2.70
  -1 -12   0   -0.20    2.20
  -1 -12   0    0.80    1.70
  -2 -12   0  186.68   10.60
  -2 -12   0  194.68   10.20
  -2 -12   0  191.38   12.20
  -2 -12   0  199.88   11.10
  -2  12   0  207.68   11.00
  -3 -12   0  338.17   17.70
  -3  12   0  389.86   18.80
  -3 -12   0  394.06   18.80
  -3 -12   0  400.76   20.20
  -3 -12   0  401.26   18.80
  -4 -12   0  126.89    9.10
  -4 -12   0  115.39    8.20
  -4 -12   0  121.09    9.70
  -4  12   0  124.59    7.90
  -5 -12   0   22.70    4.30
  -5  12   0   34.40    4.30
  -5 -12   0   30.20    4.40
  -6 -12   0    5.30    3.80
  -6  12   0    5.00    2.30
   0 -13   0   -1.00    2.10
   0 -13   0   -1.60    2.30
   0 -13   0   -5.30    3.00
  -1 -13   0  271.67   13.10
   1 -13   0  263.97   14.10
  -1 -13   0  275.27   14.20
  -1  13   0  278.37   14.20
  -1 -13   0  279.67   14.10
  -2 -13   0    3.60    2.40
   2 -13   0    7.20    3.00
  -2 -13   0    4.70    2.70
  -2 -13   0    4.90    2.90
  -2  13   0    4.20    2.40
  -3 -13   0    9.50    3.30
  -3 -13   0   14.80    4.50
  -3 -13   0    8.50    3.30
  -3  13   0    9.30    2.50
  -3 -13   0    6.70    2.90
  -4  13   0  147.89    8.70
  -4 -13   0  147.69    9.20
  -4 -13   0  144.49   10.10
  -4 -13   0  162.28   10.20
  -5 -13   0  115.99    9.00
  -5  13   0  139.49    7.60
  -5 -13   0  120.49    8.00
   0 -14   0   42.30    5.10
   0 -14   0   36.00    4.30
   0 -14   0   49.10    5.10
  -1 -14   0  140.39    9.10
  -1 -14   0  144.99    9.60
  -1 -14   0  151.68    9.60
   1 -14   0  153.88    8.70
  -1 -14   0  148.89    8.70
   1 -14   0  149.09    9.70
  -1  14   0  145.79    9.50
   2 -14   0   -0.90    3.10
  -2 -14   0    3.70    2.80
  -2 -14   0   -0.70    2.80
  -2  14   0   -0.10    2.50
  -2 -14   0   -0.50    2.40
  -3 -14   0   14.20    3.70
  -3 -14   0   16.90    3.90
  -3  14   0   15.30    2.90
  -3 -14   0   16.60    3.50
  -4  14   0   44.80    4.80
  -4 -14   0   54.09    7.90
  -4 -14   0   43.00    5.30
  -4 -14   0   54.29    8.20
  -5 -14   0   47.10    5.20
   5 -14   0   41.70    6.50
  -5  14   0   45.40    4.20
   0 -15   0   -2.60    3.00
   0 -15   0    2.30    2.50
  -1  15   0   28.80    4.00
  -1 -15   0   22.40    3.80
   1 -15   0   25.90    4.30
  -1 -15   0   18.80    3.30
  -1 -15   0   26.10    4.40
  -1 -15   0   24.40    4.20
   1 -15   0   21.40    3.60
  -2 -15   0  126.19    8.40
  -2 -15   0  126.89    8.10
  -2  15   0  127.09    8.20
   2 -15   0  136.29    9.00
  -2 -15   0  116.59    8.60
  -3  15   0  560.74   25.20
  -3 -15   0  522.35   24.90
  -4 -15   0   17.40    5.00
  -4  15   0   17.80    2.80
  -4 -15   0   17.90    3.70
  -5  15   0  138.59    7.50
   0 -16   0  590.84   27.50
   0 -16   0  598.24   26.00
   0 -16   0  624.74   26.20
  -1 -16   0   72.59    6.70
  -1 -16   0   77.19    6.20
   1 -16   0   90.59    6.70
   1 -16   0   61.59    7.90
  -1 -16   0   90.09    8.20
  -2 -16   0   14.40    3.00
  -2 -16   0   20.70    3.60
   2 -16   0   23.50    4.60
  -2  16   0   20.10    3.30
  -2 -16   0   20.30    4.20
  -3 -16   0  218.48   11.30
  -3 -16   0  213.78   11.90
  -3  16   0  237.68   11.70
  -4  16   0    2.10    2.00
  -4 -16   0    5.50    3.40
   4 -16   0    4.50    2.70
   0 -17   0   -1.80    3.00
   0 -17   0    0.30    2.80
   0 -17   0   -2.40    3.10
  -1 -17   0    7.70    2.90
   1 -17   0   10.40    3.50
   1 -17   0   12.50    3.00
  -1 -17   0   10.50    3.10
  -2 -17   0    6.30    4.60
  -3 -17   0   34.30    4.90
   3 -17   0   42.20    4.40
  -3 -17   0   38.90    5.60
  -3  17   0   35.30    4.80
   0 -18   0  151.28    8.70
   0 -18   0  142.29    9.30
   1 -18   0   -2.10    3.90
  -1 -18   0   -2.10    2.80
   1 -18   0    3.70    2.80
   2 -18   0   37.50    4.50
   3 -18   0    5.40    2.50
   1   0  -1  649.64   24.60
   1   0   1  624.24   25.40
   1   0   1  535.15   24.40
  -1   0  -1  634.04   24.40
   2   0  -1   63.09    2.70
   2   0  -1   64.29    2.70
  -2   0   1   62.99    4.00
  -3   0   1  627.64   29.30
  -3   0   1  628.84   27.30
  -3   0  -1  590.14   27.00
  -3   0   1  648.84   27.10
  -3   0  -1  610.14   29.30
  -4   0   1    5.10    2.70
  -4   0  -1    3.30    2.30
  -4   0  -1    3.60    1.70
  -4   0  -1    5.50    2.30
  -4   0   1    6.50    2.10
  -4   0   1    6.60    2.90
  -4   0  -1    4.60    2.50
  -5   0  -1  674.83   31.60
  -5   0  -1  695.83   28.70
  -5   0   1  724.73   35.90
  -5   0   1  685.83   28.80
  -5   0  -1  803.22   34.30
  -5   0  -1  682.43   35.90
  -5   0   1  696.13   34.10
  -6   0  -1   51.99    7.00
  -6   0  -1   46.70    4.80
  -6   0   1   49.50    7.40
  -6   0   1   55.59    4.70
  -6   0   1   67.09    6.80
  -6   0  -1   50.19    6.60
  -7   0  -1   15.20    5.00
  -7   0   1   13.20    3.10
  -7   0   1   11.30    4.60
   0  -1   1  462.05   18.30
   0   1  -1  451.95   18.30
   0   1   1  435.76   18.30
   0  -1  -1  453.65   18.30
   1  -1   1 4885.21  175.18
  -1  -1  -1 4455.95  174.98
   1   1  -1 4759.42  175.88
   1  -1   1 4578.94  177.98
   1   1   1 4166.58  175.28
  -1  -1   1 4258.87  178.18
   1   1   1 4123.09  177.38
  -1  -1   1 3913.61  174.68
   1  -1  -1 4221.18  175.38
   2   1  -1   56.19    2.70
   2   1  -1   55.39    2.60
  -2   1   1   48.80    3.50
   2  -1  -1   53.59    2.40
  -2  -1   1   50.89    3.70
   2   1   1   48.00    2.40
  -3   1   1 1045.90   52.09
  -3   1   1 1158.08   48.00
  -3   1   1 1170.18   55.09
  -3  -1  -1 1126.79   48.20
  -3  -1  -1 1063.39   52.19
  -3  -1   1 1171.08   48.30
  -3   1  -1 1117.89   52.29
  -3   1  -1 1150.08   55.09
  -3  -1   1 1067.99   52.19
  -3   1  -1 1194.38   44.50
  -3  -1   1 1215.58   48.20
  -3   1  -1 1139.39   48.20
  -4  -1  -1   56.59    5.20
  -4   1   1   38.60    5.40
  -4   1   1   49.50    3.70
  -4  -1  -1   49.30    3.90
  -4  -1  -1   41.40    5.10
  -4   1   1   44.10    6.50
  -4   1   1   58.79    5.80
  -4  -1   1   40.90    6.00
  -4   1  -1   42.30    6.10
  -4  -1   1   49.70    5.60
  -4   1  -1   40.70    5.60
  -4  -1   1   58.09    5.30
  -4   1  -1   35.30    5.40
  -4   1  -1   57.79    5.40
  -4   1  -1   53.39    3.80
  -5   1   1   -0.10    1.90
  -5  -1  -1   -1.80    2.70
  -5   1   1    5.20    3.10
  -5   1   1    2.10    2.70
  -5  -1  -1    1.80    2.60
  -5  -1  -1    0.90    3.20
  -5  -1  -1    1.70    2.00
  -5  -1   1    5.10    2.10
  -5  -1   1    2.20    3.20
  -5   1  -1    5.60    3.20
  -5   1  -1    3.00    3.70
  -5  -1   1    0.80    2.60
  -5  -1   1    0.00    3.40
  -5   1  -1    3.10    1.80
  -5   1  -1    2.30    2.70
  -6   1   1   39.50    6.50
  -6   1   1   38.60    4.30
  -6   1   1   50.89    6.70
  -6  -1  -1   40.50    4.80
  -6  -1  -1   43.50    6.20
  -6  -1  -1   48.40    7.10
  -6  -1   1   45.50    7.90
  -6   1  -1   58.59    7.10
  -6   1  -1   47.20    4.50
  -6  -1   1   52.99    4.60
  -6   1  -1   48.60    6.80
  -7   1   1   11.80    2.90
  -7  -1  -1    7.80    4.60
  -7  -1  -1    7.70    5.00
  -7   1  -1   11.50    3.20
  -7   1  -1    7.10    4.80
  -7  -1   1   10.20    3.30
  -7  -1   1   11.30    4.10
   0  -2  -1   29.50    1.90
   0  -2   1   28.90    1.90
   0   2   1   29.40    1.80
   0   2  -1   28.10    1.80
  -1   2   1 3651.13  151.08
   1  -2   1 4044.10  152.28
   1   2  -1 3904.01  152.18
  -1  -2  -1 3849.21  151.78
  -1  -2   1 3706.23  151.28
   1   2   1 3689.53  153.68
   1  -2  -1 3774.12  151.58
   1   2   1 3675.33  151.38
  -1   2  -1 3847.61  152.38
  -1  -2   1 3703.83  153.48
  -2  -2  -1  571.54   23.00
   2  -2   1  564.54   22.90
  -2   2   1  544.65   22.80
  -2   2   1  562.44   24.00
   2   2  -1  544.15   23.00
   2   2   1  565.24   23.00
  -2   2  -1  612.84   22.60
   2  -2  -1  570.24   22.90
  -2   2  -1  543.35   22.60
  -2  -2   1  544.55   24.10
  -3  -2  -1  122.89    7.00
   3   2  -1  123.39    5.20
   3   2  -1  120.29    5.10
  -3   2   1  106.79    7.40
  -3   2   1  109.99    7.50
  -3   2   1  121.89    5.70
  -3   2   1  132.09    7.30
  -3  -2  -1  131.39    6.70
  -3  -2   1  111.09    7.00
  -3  -2   1  110.99    6.60
  -3   2  -1  117.09    7.90
  -3   2  -1  105.49    5.70
  -3   2  -1   95.29    6.90
  -3   2  -1   98.09    7.30
  -4   2   1    9.30    2.60
  -4  -2  -1   13.90    2.90
  -4   2   1   15.90    2.90
  -4   2   1    9.60    1.70
  -4   2   1   11.50    2.80
  -4  -2  -1   13.60    2.80
  -4   2  -1    9.70    1.90
  -4   2  -1   13.20    2.90
  -4   2  -1    8.20    2.30
  -4   2  -1   12.90    3.10
  -4  -2   1   13.10    2.70
  -4  -2   1   14.10    3.00
  -4   2  -1   10.00    2.50
  -5   2   1   62.39    6.40
  -5  -2  -1   50.59    6.20
  -5  -2  -1   48.90    4.50
  -5  -2  -1   50.39    5.60
  -5   2   1   57.39    4.20
  -5  -2  -1   49.20    6.80
  -5   2   1   61.09    6.60
  -5   2  -1   49.20    4.10
  -5  -2   1   47.30    6.40
  -5   2  -1   55.59    6.80
  -5  -2   1   46.90    4.40
  -5   2  -1   55.39    6.30
  -5  -2   1   57.59    5.70
  -5  -2   1   43.60    7.00
  -5   2  -1   58.39    7.10
  -6   2   1  285.97   15.80
  -6   2   1  298.07   12.60
  -6  -2  -1  294.57   15.20
  -6  -2  -1  284.07   12.70
  -6  -2  -1  293.47   15.20
  -6  -2   1  259.87   15.00
  -6  -2   1  254.67   16.50
  -6   2  -1  253.87   12.40
  -6  -2   1  260.57   12.50
  -6   2  -1  256.47   15.70
  -7  -2  -1   27.50    5.80
  -7  -2  -1   23.70    4.50
  -7   2   1   29.30    3.90
  -7   2  -1   29.10    5.10
  -7  -2   1   26.90    4.30
  -7   2  -1   25.00    3.40
   0   3   1    9.10    1.40
   0  -3  -1    7.70    1.20
   0   3  -1    6.00    1.00
   0  -3   1    6.60    1.20
  -1   3   1  769.92   30.60
  -1  -3  -1  793.22   30.80
   1   3  -1  794.32   30.80
   1  -3   1  793.42   30.70
  -1  -3   1  756.72   30.90
   1   3   1  712.73   30.60
   1   3   1  739.13   31.40
  -1   3  -1  681.93   30.50
   1  -3  -1  733.33   30.70
  -1  -3   1  725.83   31.10
  -2  -3  -1   35.00    4.00
   2   3  -1   49.90    3.10
   2  -3   1   52.99    3.20
  -2   3   1   50.89    3.40
  -2  -3  -1   51.19    3.70
   2   3   1   37.70    2.80
  -2  -3   1   47.20    3.80
  -2   3  -1   39.10    2.70
   2  -3  -1   39.40    3.00
  -3  -3  -1   68.49    5.20
  -3  -3  -1   70.99    4.90
   3   3  -1   75.49    4.60
  -3   3   1   68.29    5.70
   3   3  -1   74.29    4.20
  -3   3   1   76.59    4.20
  -3   3   1   83.29    5.80
  -3   3   1   76.79    6.20
  -3   3   1   85.29    5.90
  -3  -3   1   66.99    5.00
  -3   3  -1   61.29    5.70
  -3  -3   1   72.49    5.60
  -3   3  -1   65.79    5.50
  -3   3  -1   70.29    4.20
  -3   3  -1   64.29    5.70
   3   3   1   68.99    4.00
  -4   3   1  184.38    9.80
  -4   3   1  171.78    8.30
  -4  -3  -1  182.98    9.70
  -4   3   1  165.48   10.60
  -4  -3  -1  191.78   10.10
  -4   3   1  191.78   10.80
  -4   3  -1  173.18   10.70
  -4  -3   1  172.08    9.60
  -4  -3   1  166.58   10.10
  -4   3  -1  176.08    8.30
  -4   3  -1  168.58    9.60
  -4   3  -1  173.58   10.80
  -5  -3  -1   40.50    6.80
  -5   3   1   39.20    3.80
  -5  -3  -1   31.30    4.30
  -5   3   1   40.10    5.80
  -5   3   1   39.80    6.10
  -5   3   1   39.10    7.00
  -5  -3  -1   34.70    5.20
  -5  -3  -1   39.30    4.60
  -5   3  -1   46.20    6.20
  -5   3  -1   45.90    3.80
  -5  -3   1   43.40    7.20
  -5  -3   1   46.60    6.30
  -5   3  -1   53.29    7.50
  -5  -3   1   47.40    5.40
  -5   3  -1   45.50    5.90
  -6  -3  -1    1.50    4.00
  -6  -3  -1    3.80    4.10
  -6   3   1    9.90    2.40
  -6  -3  -1   10.80    3.40
  -6   3   1   12.80    4.20
  -6  -3   1   16.70    5.00
  -6  -3   1   13.40    5.50
  -6   3  -1   11.10    3.60
  -6  -3   1    9.10    2.90
  -6  -3   1   16.20    3.60
  -6   3  -1   11.90    2.70
  -7  -3  -1   45.40    6.00
  -7  -3   1   38.50    5.50
  -7   3  -1   42.60    4.30
   0  -4  -1 2586.04  104.89
   0   4   1 2567.34  104.79
   0  -4   1 2685.23  104.99
   0   4  -1 2594.24  104.89
  -1  -4  -1  439.26   19.30
   1   4  -1  454.15   19.10
   1  -4   1  440.06   19.10
  -1   4   1  439.66   19.00
  -1  -4   1  471.25   19.40
   1   4   1  433.16   19.60
  -1   4  -1  474.65   19.10
   1   4   1  463.55   19.10
   1  -4  -1  449.95   19.20
  -2   4   1   18.00    2.70
   2  -4   1   15.30    2.20
   2   4  -1   15.00    2.40
  -2   4   1   16.90    2.50
  -2  -4  -1   20.10    2.50
  -2   4   1   16.30    2.70
  -2  -4  -1   17.60    2.70
  -2   4   1   17.00    2.60
  -2  -4  -1   15.50    2.50
   2  -4  -1   25.20    3.30
  -2  -4   1   23.90    3.60
   2   4   1   18.80    2.40
  -2  -4   1   25.80    3.00
  -2   4  -1   19.80    3.80
  -2  -4   1   24.20    3.10
  -3   4   1   65.29    5.50
  -3   4   1   70.79    6.80
   3   4  -1   69.39    4.80
  -3   4   1   80.29    5.90
  -3  -4  -1   75.29    5.20
  -3   4   1   60.79    5.80
  -3  -4  -1   76.89    5.50
  -3  -4  -1   62.09    7.40
  -3   4   1   74.59    4.20
  -3   4  -1   77.89    5.70
   3   4   1   71.89    4.60
  -3  -4   1   75.49    7.00
  -3  -4   1   74.29    5.40
   3  -4  -1   66.99    4.80
  -3   4  -1   77.99    4.20
  -3   4  -1   71.89    5.70
  -3  -4   1   72.79    5.40
  -3   4  -1   76.39    6.00
  -3  -4   1   74.69    6.30
  -4   4   1  130.49    6.50
  -4   4   1  143.19    8.80
  -4   4   1  120.49    9.10
  -4  -4  -1  138.89    7.80
  -4  -4  -1  131.49    8.30
  -4   4   1  123.59    8.00
  -4   4  -1  134.09    8.80
  -4  -4   1  140.79    8.20
  -4   4  -1  119.49    7.80
  -4  -4   1  135.29    8.20
  -4   4  -1  127.69    6.50
  -5  -4  -1  267.27   13.90
  -5  -4  -1  274.07   14.70
  -5   4   1  265.27   12.20
  -5   4   1  268.17   15.30
  -5   4   1  248.18   13.90
  -5  -4  -1  266.07   12.40
  -5   4   1  279.07   15.50
  -5   4  -1  262.67   13.80
  -5   4  -1  277.17   15.40
  -5  -4   1  285.27   16.30
  -5  -4   1  280.37   14.10
  -5   4  -1  276.67   12.20
  -5  -4   1  267.97   14.80
  -6  -4  -1  274.47   16.90
  -6   4   1  263.67   16.00
  -6   4   1  277.97   12.80
  -6  -4  -1  274.77   15.30
  -6  -4  -1  272.87   14.90
  -6  -4   1  313.27   15.70
  -6   4  -1  293.67   12.80
  -6  -4   1  288.97   17.50
  -6   4  -1  287.97   16.30
  -6  -4   1  276.37   13.10
  -6  -4   1  295.77   15.30
  -7   4   1   31.60    3.70
  -7  -4  -1   32.20    4.60
  -7  -4   1   29.20    4.40
  -7   4  -1   29.10    3.90
   0   5  -1  207.78    9.70
   0  -5   1  210.98   10.10
   0   5   1  208.78    9.60
   0  -5  -1  204.18   10.00
   1   5  -1  283.27   12.10
   1  -5   1  285.47   12.50
  -1  -5  -1  287.07   12.70
  -1   5   1  276.27   11.90
   1   5   1  251.17   11.90
  -1  -5   1  244.48   12.50
   1  -5  -1  248.68   12.20
  -1   5  -1  245.18   11.80
   1   5   1  265.67   12.80
  -2   5   1  388.76   17.60
  -2   5   1  361.86   19.20
  -2   5   1  360.56   16.40
  -2  -5  -1  382.06   16.00
   2  -5   1  374.96   17.00
  -2  -5  -1  371.96   16.90
   2   5  -1  397.96   16.70
  -2   5   1  377.46   15.40
  -2  -5  -1  321.07   18.20
  -2   5   1  367.86   16.50
  -2   5  -1  388.66   19.20
   2   5   1  385.96   16.60
  -2   5  -1  399.26   15.40
  -2  -5   1  384.96   16.00
  -2  -5   1  381.86   18.40
  -2  -5   1  391.66   16.90
   2  -5  -1  391.96   16.90
  -2   5  -1  371.86   16.40
  -2   5  -1  366.56   17.60
  -3   5   1  127.09    7.80
  -3   5   1  131.29    8.30
  -3  -5  -1  123.19    8.10
   3   5  -1  127.89    7.50
  -3   5   1  131.49    6.60
  -3   5   1  111.99    8.30
  -3  -5  -1  113.79    7.50
  -3  -5  -1  140.89    7.80
  -3  -5  -1  138.19    8.90
  -3  -5   1  156.18    8.30
  -3   5  -1  151.08    8.10
  -3   5  -1  138.59    8.60
  -3   5  -1  149.19    6.60
   3   5   1  144.89    7.60
  -3  -5   1  148.29    8.40
  -3  -5   1  156.88    7.70
  -4  -5  -1  256.07   13.80
  -4   5   1  257.77   11.40
  -4   5   1  245.28   14.30
  -4   5   1  253.87   13.10
  -4  -5  -1  265.67   13.10
  -4  -5   1  263.97   13.10
  -4   5  -1  244.48   13.00
  -4   5  -1  259.77   11.40
  -4  -5   1  244.58   13.50
  -4  -5   1  280.47   14.00
  -4   5  -1  268.97   14.50
  -5  -5  -1  161.58   10.10
  -5   5   1  168.58    8.20
  -5   5   1  161.38   10.50
  -5  -5  -1  177.18   10.10
  -5   5   1  169.58    9.80
  -5   5  -1  158.18    8.20
  -5  -5   1  154.88   10.00
  -5   5  -1  159.38    9.70
  -5   5  -1  177.58   10.80
  -5  -5   1  165.98   10.20
  -6   5   1   85.29    5.80
  -6  -5  -1  100.49    9.70
  -6  -5  -1   92.49    7.30
  -6  -5  -1   99.09    7.90
  -6   5  -1   98.29    5.90
  -6   5  -1  103.19    8.00
  -6  -5   1  102.19    8.40
  -6   5  -1  103.09    8.00
  -6  -5   1  100.59    7.80
  -7   5   1   50.29    4.10
  -7  -5  -1   52.89    5.70
  -7   5  -1   51.09    4.10
  -7  -5   1   50.09    5.50
   0   6  -1 1511.45   59.99
   0   6   1 1483.25   59.89
   0  -6   1 1465.75   60.39
   0  -6  -1 1395.56   60.19
  -1   6   1  348.57   15.70
   1   6  -1  349.96   15.80
   1  -6   1  346.07   16.50
  -1  -6  -1  339.37   16.90
  -1   6  -1  358.96   15.80
  -1   6  -1  369.16   14.50
  -1  -6   1  335.17   16.70
   1   6   1  366.36   15.90
   1  -6  -1  367.36   16.70
  -2   6   1  466.35   19.40
  -2  -6  -1  408.26   18.40
  -2   6   1  468.25   17.90
  -2   6   1  469.45   20.40
   2   6  -1  476.95   19.60
   2  -6   1  397.46   20.20
  -2  -6  -1  494.45   21.30
  -2   6   1  480.15   19.30
  -2  -6  -1  465.85   19.80
  -2  -6  -1  468.85   19.70
  -2   6  -1  411.76   19.20
   2   6   1  442.66   19.50
  -2  -6   1  411.66   18.50
  -2   6  -1  422.46   22.20
   2  -6  -1  423.46   20.30
  -2  -6   1  425.66   19.60
  -2   6  -1  433.86   17.80
  -2  -6   1  408.76   19.60
  -2   6  -1  413.66   20.30
  -2  -6   1  419.66   21.20
  -3  -6  -1  246.28   12.10
  -3  -6  -1  243.68   11.70
  -3  -6  -1  267.97   12.70
  -3  -6  -1  224.68   12.70
  -3   6   1  253.17   12.30
  -3   6   1  248.58   13.30
  -3   6   1  242.48   10.70
   3   6  -1  244.08   12.40
  -3   6  -1  262.57   13.70
  -3  -6   1  223.98   11.90
  -3   6  -1  247.18   12.40
   3   6   1  237.38   12.30
  -3  -6   1  227.28   12.80
  -3   6  -1  245.98   10.70
  -3  -6   1  257.97   11.50
  -3  -6   1  246.68   12.60
  -4  -6  -1  137.89    9.00
  -4   6   1  147.19    7.50
  -4   6   1  141.89    9.50
  -4   6   1  150.88    8.90
  -4  -6  -1  159.28    9.10
  -4   6  -1  157.68    8.90
  -4  -6   1  149.19    9.50
  -4  -6   1  158.88    9.00
  -4   6  -1  153.68    9.80
  -4   6  -1  164.88    7.60
  -4  -6   1  158.18    9.90
  -5  -6  -1  318.07   18.20
  -5  -6  -1  344.47   19.60
  -5   6   1  372.16   16.50
  -5   6   1  372.26   18.60
  -5   6  -1  414.46   18.70
  -5  -6   1  426.36   18.90
  -5   6  -1  390.66   16.50
  -5   6  -1  405.96   20.80
  -5  -6   1  404.76   19.90
  -6   6   1   46.30    6.70
  -6  -6  -1   61.99    8.60
  -6   6   1   57.19    4.40
  -6  -6  -1   53.79    6.50
  -6  -6  -1   50.39    5.70
  -6   6  -1   58.59    6.40
  -6  -6   1   44.70    6.90
  -6  -6   1   61.19    5.90
  -6   6  -1   52.49    4.40
  -7  -6  -1   16.00    3.50
  -7   6   1   16.40    2.50
  -7  -6   1   15.80    3.60
   0   7   1  160.28    7.80
   0   7   1  157.88    8.50
   0  -7  -1  158.48   10.60
   0   7  -1  160.38    8.50
   0  -7   1  152.48   10.70
  -1  -7  -1  387.76   18.00
  -1   7   1  416.66   18.20
  -1   7   1  405.46   18.80
  -1   7   1  414.96   16.90
   1  -7   1  416.76   20.20
  -1  -7  -1  377.06   18.20
   1   7  -1  399.26   18.20
  -1   7   1  428.16   16.50
  -1  -7  -1  390.46   19.60
  -1   7  -1  412.96   16.40
  -1   7  -1  410.46   18.40
  -1  -7   1  380.06   18.10
   1  -7  -1  414.26   20.20
  -1   7  -1  390.56   18.70
   1   7   1  421.26   18.30
  -2  -7  -1  203.58   11.10
   2  -7   1  183.68   13.70
  -2   7   1  191.78   10.20
  -2  -7  -1  179.78   10.40
  -2   7   1  193.98   11.10
   2   7  -1  204.58   10.90
  -2  -7  -1  198.08   10.50
  -2   7   1  200.48    9.20
  -2   7   1  197.68   10.60
  -2  -7  -1  210.68    9.90
  -2   7  -1  230.98   11.00
   2   7   1  234.88   11.00
  -2  -7   1  236.48    9.90
  -2   7  -1  233.48    9.40
  -2  -7   1  236.08   10.80
  -2  -7   1  236.48   10.60
  -2   7  -1  224.28   11.30
   2  -7  -1  215.78   14.30
  -3   7   1   46.70    4.90
  -3  -7  -1   43.40    4.80
  -3  -7  -1   34.20    5.60
  -3  -7  -1   51.99    5.10
  -3   7   1   43.90    3.30
   3   7  -1   38.60    4.90
  -3  -7  -1   43.30    4.50
   3   7   1   45.80    7.20
  -3  -7   1   49.40    5.10
  -3   7  -1   52.39    3.60
  -3   7  -1   58.09    4.70
  -3  -7   1   57.29    5.70
  -3   7  -1   54.09    4.90
  -3  -7   1   54.99    4.90
  -3  -7   1   56.19    5.20
  -4  -7  -1  255.37   15.00
  -4  -7  -1  282.57   15.10
  -4   7   1  271.87   12.40
  -4   7   1  288.17   14.40
  -4  -7  -1  272.47   14.00
  -4  -7   1  295.37   14.30
  -4   7  -1  283.97   14.30
  -4  -7   1  276.37   14.20
  -4   7  -1  284.77   15.80
  -4  -7   1  304.97   15.20
  -4   7  -1  284.67   12.50
  -5  -7  -1   99.59    7.70
  -5   7   1  111.49    7.40
  -5  -7  -1  101.29    7.70
  -5   7   1   97.09    6.00
  -5  -7   1  112.89    8.00
  -5   7  -1   95.59    5.90
  -5  -7   1  103.59    7.80
  -5   7  -1   94.19    7.10
  -6   7   1    4.50    2.10
  -6  -7  -1    3.60    3.50
  -6   7   1    4.80    3.10
  -6  -7  -1    5.20    3.10
  -6  -7  -1    0.90    5.10
  -6   7  -1    1.80    2.10
  -6  -7   1    4.00    2.70
  -6   7  -1    3.40    2.80
  -6  -7   1    2.50    3.70
  -7   7   1   16.50    2.50
  -7  -7  -1   19.60    3.80
  -7  -7   1   15.90    3.40
   0   8   1   89.49    6.30
   0  -8  -1   84.39    5.80
   0   8  -1   91.19    6.70
   0  -8   1   80.19    5.90
  -1  -8  -1  270.57   13.70
  -1   8   1  287.97   14.30
  -1  -8  -1  292.77   14.70
   1   8  -1  304.07   14.40
  -1  -8  -1  289.87   13.70
  -1   8   1  276.47   14.00
  -1   8  -1  303.07   14.70
  -1  -8   1  289.67   13.70
   1  -8  -1  295.37   13.90
   1   8   1  308.27   14.40
  -1   8  -1  295.47   14.20
  -1  -8   1  296.67   12.80
  -1  -8   1  278.17   14.90
  -2  -8  -1   81.59    5.00
   2   8  -1   75.09    6.60
  -2  -8  -1   88.29    5.90
  -2  -8  -1   79.99    5.80
  -2   8   1   71.29    7.80
  -2   8   1   88.29    4.50
  -2   8   1   79.79    5.40
  -2  -8  -1   83.59    5.40
  -2   8  -1   64.69    7.90
  -2   8  -1   65.59    4.20
  -2  -8   1   66.59    5.60
  -2  -8   1   62.69    5.30
  -2   8  -1   60.89    5.50
  -2  -8   1   66.89    5.10
  -2  -8   1   67.19    4.70
   2   8   1   66.59    6.40
  -3   8   1   23.80    3.10
  -3  -8  -1   29.10    4.00
  -3  -8  -1   34.30    4.80
  -3   8   1   20.30    2.80
   3   8  -1   26.90    5.70
  -3  -8  -1   23.80    3.20
  -3  -8  -1   23.80    3.50
  -3   8  -1   33.80    4.50
  -3  -8   1   36.10    4.70
   3   8   1   23.90    5.40
  -3  -8   1   36.10    4.70
  -4   8   1  196.68   10.40
  -4  -8  -1  196.88   10.50
  -4  -8  -1  177.88   10.80
  -4  -8  -1  176.98   11.40
  -4   8   1  181.08    8.90
  -4  -8   1  189.88   11.00
  -4  -8   1  171.78   10.60
  -4  -8   1  182.08   10.50
  -4   8  -1  180.28   10.20
  -4   8  -1  181.58    8.80
  -5  -8  -1  194.68   11.60
  -5   8   1  192.88    9.60
  -5  -8  -1  205.58   11.40
  -5   8  -1  165.58   10.80
  -5   8  -1  202.38    9.70
  -5  -8   1  216.68   11.50
  -5  -8   1  221.48   12.00
  -6   8   1    8.30    3.00
  -6   8   1   12.00    2.50
  -6  -8  -1    4.60    3.10
  -6  -8  -1    3.10    6.00
  -6  -8  -1    8.50    3.20
  -6  -8   1    9.70    3.30
  -6   8  -1   10.30    2.30
  -6  -8   1   12.20    3.90
  -6   8  -1    7.00    2.80
  -7  -8  -1   48.20    5.50
  -7  -8   1   46.90    5.40
   0  -9   1  466.45   21.10
   0   9   1  469.35   21.80
   0   9   1  488.45   21.90
   0   9  -1  435.76   21.80
   0  -9  -1  469.55   20.90
   0   9  -1  487.45   22.00
  -1   9   1   36.30    5.20
  -1  -9  -1   37.60    5.20
   1   9  -1   31.20    4.90
  -1  -9  -1   37.60    4.30
   1  -9   1   42.80    4.20
  -1   9   1   36.00    4.60
  -1  -9  -1   31.80    4.50
  -1   9  -1   36.30    4.70
  -1  -9   1   35.50    5.90
  -1   9  -1   35.50    5.10
  -1  -9   1   35.40    3.70
  -1  -9   1   36.60    4.10
   1  -9  -1   41.50    5.30
   1   9   1   37.90    6.00
   2   9  -1  136.89   10.40
  -2  -9  -1  135.59    7.70
  -2  -9  -1  128.09    7.40
  -2   9   1  117.79    7.40
  -2  -9  -1  137.29    6.80
  -2   9   1  125.69    6.10
  -2  -9  -1  119.69    7.40
  -2   9  -1  106.39    7.30
  -2  -9   1  118.59    7.20
   2   9   1  106.59    9.90
  -2   9  -1  106.09    5.90
  -2  -9   1  105.69    6.70
  -2  -9   1  103.89    7.00
  -2  -9   1  104.29    7.80
  -3   9   1  405.16   19.70
  -3   9   1  411.16   17.40
  -3  -9  -1  427.96   19.50
  -3  -9  -1  426.46   18.50
  -3  -9  -1  425.16   20.70
  -3  -9  -1  412.46   19.40
  -3  -9   1  421.16   18.50
  -3   9  -1  395.66   17.30
  -3  -9   1  403.66   20.60
  -3   9  -1  419.46   19.70
  -3  -9   1  410.56   19.50
  -3  -9   1  392.36   19.30
  -4   9   1  252.77   12.30
  -4  -9  -1  264.97   14.40
  -4  -9  -1  273.97   14.90
  -4  -9  -1  260.27   14.10
  -4  -9  -1  287.27   14.80
  -4   9   1  286.07   14.20
  -4   9  -1  265.87   12.30
  -4  -9   1  282.47   15.00
  -4  -9   1  279.77   14.30
  -4   9  -1  289.37   14.20
  -4  -9   1  290.07   14.10
  -5  -9  -1  105.09    8.00
  -5   9   1   98.59    6.10
  -5   9   1  104.29    7.50
  -5  -9  -1  108.19    7.90
  -5  -9   1  114.39    8.10
  -5  -9   1  111.39    8.10
  -5   9  -1  115.69    6.30
  -5   9  -1  117.49    7.50
  -6  -9  -1   85.69    6.80
  -6   9   1   83.49    6.40
  -6  -9  -1   77.09    6.80
  -6   9   1   86.69    5.20
  -6  -9   1   84.49    7.00
  -6   9  -1   89.99    6.40
  -6  -9   1   91.29    7.50
   0  10   1   50.19    6.30
   0  10  -1   55.49    6.60
   0  10   1   50.89    4.60
   0 -10   1   43.60    5.00
   0  10  -1   41.90    6.00
   0 -10  -1   52.69    5.30
   1  10  -1  246.48   14.40
  -1  10   1  241.58   12.20
  -1 -10  -1  249.38   13.30
  -1  10   1  263.47   15.70
  -1 -10  -1  240.78   12.00
   1 -10   1  236.28   12.40
  -1 -10  -1  248.28   11.90
   1  10   1  245.68   14.30
  -1 -10   1  217.58   13.40
   1 -10  -1  227.98   12.10
  -1 -10   1  229.18   11.00
  -1 -10   1  231.08   12.00
  -1  10  -1  224.48   15.50
  -1  10  -1  226.38   12.20
  -2 -10  -1   20.90    2.80
  -2 -10  -1   18.20    3.20
  -2 -10  -1   21.60    3.50
  -2 -10  -1   25.20    4.00
  -2  10   1   18.60    2.80
  -2  10  -1   30.50    4.60
  -2 -10   1   32.90    5.50
  -2 -10   1   25.50    3.40
  -2 -10   1   27.50    4.00
  -2 -10   1   25.30    3.60
  -3 -10  -1  331.17   17.20
  -3  10   1  310.37   14.30
  -3  10   1  314.47   16.40
  -3 -10  -1  328.77   15.50
  -3 -10  -1  311.97   16.30
  -3 -10  -1  313.17   16.30
  -3 -10   1  352.66   16.60
  -3 -10   1  358.66   17.40
  -3 -10   1  320.97   16.30
  -3  10  -1  336.97   14.40
  -3 -10   1  361.36   15.60
  -3  10  -1  352.26   16.50
  -4 -10  -1   39.60    5.20
  -4 -10  -1   40.80    5.90
  -4  10   1   42.90    4.00
  -4  10   1   53.79    5.30
  -4 -10  -1   61.09    8.00
  -4  10  -1   49.30    5.20
  -4 -10   1   47.70    5.80
  -4  10  -1   32.20    3.70
  -4 -10   1   39.70    5.50
  -4 -10   1   40.70    4.90
  -5 -10  -1   74.09    6.30
  -5  10   1   71.39    4.70
  -5  10   1   67.59    5.70
  -5 -10  -1   66.79    6.40
  -5 -10   1   54.69    6.20
  -5  10  -1   49.30    5.40
  -5 -10   1   52.89    6.20
  -6 -10  -1   21.10    3.80
  -6 -10  -1   22.50    4.00
  -6  10   1   15.90    3.10
  -6 -10   1   20.30    4.10
  -6 -10   1   27.30    4.70
  -6  10  -1   26.10    3.90
   0  11  -1    6.40    3.10
   0 -11  -1    1.70    2.50
   0  11  -1   -0.70    6.60
   0 -11  -1    1.80    2.20
   0  11   1    5.00    6.20
   0  11   1    1.30    2.70
   0 -11   1    2.00    2.30
  -1  11   1    8.40    8.20
  -1 -11  -1   12.00    2.60
  -1 -11  -1   13.10    2.70
  -1  11   1   13.00    2.50
   1 -11   1   17.90    3.30
  -1 -11  -1   12.70    2.30
  -1 -11   1   15.20    3.00
  -1 -11   1   16.30    3.10
  -1 -11   1   19.90    2.50
   1 -11  -1   19.30    3.10
  -1  11  -1   20.90    8.70
  -1  11  -1   19.00    2.90
  -2 -11  -1  104.29    7.90
  -2 -11  -1  102.79    7.10
  -2 -11  -1  105.79    7.10
  -2 -11  -1  101.29    6.20
  -2  11   1   97.79    6.80
  -2 -11   1   94.09    6.90
  -2 -11   1   89.59    7.90
  -2 -11   1   75.19    6.10
  -2  11  -1   88.79    6.60
  -2 -11   1   80.79    6.50
  -3 -11  -1   11.40    3.40
  -3 -11  -1   11.50    3.00
  -3 -11  -1   13.10    2.80
  -3  11   1   11.20    2.70
  -3 -11  -1   11.40    3.20
  -3 -11   1    8.10    3.20
  -3 -11   1    6.70    2.60
  -3  11  -1    8.20    2.60
  -3 -11   1    8.20    2.90
  -3 -11   1    7.60    3.00
  -4 -11  -1  176.18   11.50
  -4 -11  -1  177.18   11.20
  -4 -11  -1  169.78   10.30
  -4  11   1  172.68   10.00
  -4 -11   1  191.08   11.00
  -4 -11   1  176.88   10.40
  -4  11  -1  180.68   10.10
  -4 -11   1  174.48   11.30
  -5 -11  -1  227.08   12.60
  -5 -11  -1  213.68   11.60
  -5  11   1  229.88   11.50
  -5 -11   1  208.78   12.40
  -5 -11   1  199.78   11.70
  -5  11  -1  200.48   11.30
  -6 -11  -1    6.30    3.40
  -6 -11  -1   10.00    3.60
  -6  11   1   10.40    2.40
  -6  11  -1    3.60    2.30
  -6 -11   1    2.00    3.70
  -6 -11   1    9.70    3.70
   0 -12   1  822.42   36.90
   0  12   1  861.31   38.60
   0 -12  -1  829.82   36.90
   0 -12  -1  836.82   36.80
   0 -12   1  868.51   35.20
   1 -12   1   92.19    7.80
  -1  12   1   98.29    7.40
  -1 -12  -1  103.19    7.20
  -1 -12  -1  105.29    6.60
  -1 -12  -1  100.59    7.40
  -1 -12   1  108.59    7.20
  -1  12  -1  113.89    7.40
  -1 -12   1  101.19    6.50
   1 -12  -1  108.59    8.00
  -1 -12   1  101.49    7.20
  -2  12   1  113.49    7.60
  -2 -12  -1  100.69    7.60
  -2 -12  -1  108.09    8.60
  -2 -12  -1  111.49    7.00
  -2 -12  -1  104.09    7.60
  -2 -12   1  101.69    9.20
  -2 -12   1  102.29    6.60
  -2 -12   1  101.89    7.60
  -2  12  -1  110.19    7.40
  -2 -12   1  109.39    7.50
  -3 -12  -1   71.59    7.20
  -3 -12  -1   58.19    6.40
  -3 -12  -1   56.19    6.30
  -3 -12  -1   63.39    6.30
  -3  12   1   66.09    5.80
  -3 -12   1   54.49    7.40
  -3 -12   1   59.19    6.00
  -3 -12   1   58.09    5.90
  -3 -12   1   57.69    6.30
  -3  12  -1   55.79    5.60
  -4 -12  -1  131.69    8.60
  -4 -12  -1  124.79   10.20
  -4 -12  -1  126.79    9.40
  -4  12   1  133.09    8.30
  -4 -12   1  144.79    9.70
  -4 -12   1  137.59    8.80
  -4  12  -1  134.99    8.30
  -4 -12   1  135.09    9.50
  -5  12   1   63.79    5.30
  -5 -12  -1   61.89    6.30
  -5 -12  -1   52.69    5.70
  -5  12  -1   60.29    5.10
  -5 -12   1   58.29    6.60
  -5 -12   1   44.00    5.80
  -6 -12  -1   48.50    6.10
  -6  12   1   52.39    4.70
  -6  12  -1   45.10    4.40
   0 -13  -1  198.88    9.90
   0 -13  -1  188.18   11.40
   0 -13   1  199.18   10.10
   0 -13   1  185.98   10.80
   0 -13  -1  193.48   10.70
   0 -13   1  194.68   11.00
  -1 -13  -1  156.28    8.50
   1 -13   1  154.18    8.60
  -1  13   1  155.08    9.40
  -1 -13  -1  148.09    8.90
  -1 -13  -1  146.39    9.50
   1 -13   1  142.09    9.60
   1 -13  -1  155.88    9.50
  -1 -13   1  148.19    9.30
  -1  13  -1  142.59    9.40
  -1 -13   1  161.38    8.50
  -1 -13   1  156.58    9.30
  -1 -13   1  147.39    9.30
  -2 -13  -1  142.09    8.90
  -2  13   1  151.18    8.80
  -2 -13  -1  143.49    8.20
  -2 -13  -1  128.79    8.50
   2 -13   1  132.59    8.50
  -2 -13   1  136.49    8.90
  -2  13  -1  138.09    8.70
  -2 -13   1  134.59    8.90
  -2 -13   1  134.69    8.20
  -3 -13  -1  171.08   11.60
  -3 -13  -1  167.98   10.10
  -3 -13  -1  181.88   10.20
  -3 -13  -1  179.98   10.40
  -3  13   1  169.48    9.90
  -3 -13   1  162.38   10.00
  -3  13  -1  161.68    9.80
  -3 -13   1  176.28   10.00
  -3 -13   1  172.08   10.50
  -3 -13   1  171.58   11.50
  -4  13   1  146.79    8.70
  -4 -13  -1  140.69    9.10
  -4 -13  -1  146.39   10.60
  -4 -13  -1  146.99   10.10
  -4  13  -1  154.68    8.80
  -4 -13   1  147.19    9.30
  -4 -13   1  148.09   10.40
  -4 -13   1  156.78   10.00
   5 -13   1   39.40    4.70
  -5 -13  -1   39.90    6.20
  -5  13   1   44.70    4.30
  -5 -13  -1   29.80    4.90
  -5  13  -1   32.30    4.00
  -5 -13   1   32.40    5.10
  -5 -13   1   31.80    4.90
   0 -14  -1    0.70    4.10
   0 -14  -1    3.20    2.20
   0 -14  -1   -1.40    2.60
   0 -14   1   -1.30    2.80
   0 -14   1   -2.80    3.20
   0 -14   1    4.40    2.40
   1 -14   1   28.40    4.60
   1 -14   1   43.30    5.60
  -1 -14  -1   26.80    4.10
  -1  14   1   32.50    4.00
  -1 -14  -1   30.90    4.30
  -1 -14  -1   40.50    5.00
  -1  14  -1   24.50    3.70
  -1 -14   1   26.10    4.40
  -1 -14   1   25.10    4.00
  -1 -14   1   20.90    3.90
   1 -14  -1   30.70    3.80
   1 -14  -1   22.60    4.00
  -1 -14   1   30.90    4.50
  -2 -14  -1  279.37   13.80
  -2 -14  -1  269.27   13.10
  -2 -14  -1  263.27   13.60
   2 -14   1  258.57   13.10
  -2  14   1  263.67   13.60
  -2 -14   1  254.27   13.70
  -2  14  -1  262.67   13.60
   2 -14  -1  235.58   12.90
  -2 -14   1  254.77   12.80
  -2 -14   1  259.07   13.80
  -3 -14  -1   93.49    7.50
  -3 -14  -1   92.39    7.40
  -3  14   1   89.39    6.70
  -3 -14  -1   81.29    6.90
  -3 -14   1   95.09    7.20
  -3  14  -1   94.69    6.60
  -4 -14  -1   33.60    5.50
  -4 -14  -1   20.70    3.60
  -4  14   1   24.40    4.10
  -4 -14   1   21.00    4.00
  -4  14  -1   33.20    4.30
  -4 -14   1   30.50    5.80
  -4 -14   1   25.80    4.60
  -5 -14  -1   36.10    5.10
  -5  14   1   41.00    4.00
  -5 -14   1   40.40    5.20
  -5  14  -1   48.10    4.00
   5 -14  -1   42.00    6.30
   0 -15   1   61.89    8.40
   0 -15   1   65.99    6.90
   0 -15  -1   67.99    6.80
   0 -15   1   72.99    6.30
   0 -15  -1   83.59    6.00
  -1  15   1   62.29    7.30
  -1 -15  -1   75.09    7.70
  -1 -15  -1   73.29    6.70
   1 -15   1   71.69    6.60
  -1 -15  -1   74.69    6.20
  -1 -15  -1   54.39    8.00
   1 -15   1   59.79    7.80
   1 -15  -1   88.09    7.70
  -1 -15   1   76.19    6.80
   1 -15  -1   74.49    6.30
  -1 -15   1   78.39    7.70
  -1  15  -1   75.09    7.50
  -1 -15   1   88.69    6.40
  -1 -15   1   78.39    7.20
  -2 -15  -1   92.99    7.70
  -2 -15  -1  103.59    7.30
  -2 -15  -1   91.69    7.40
   2 -15   1   99.09    8.40
  -2  15   1   88.69    7.20
   2 -15  -1   99.19    7.80
  -2 -15   1   98.89    7.70
  -2 -15   1  104.69    7.60
  -2 -15   1  103.59    7.40
  -2  15  -1   98.19    7.10
  -3  15   1   35.50    4.80
  -3 -15  -1   23.10    3.60
  -3 -15  -1   25.10    3.90
  -3  15  -1   35.20    4.60
  -3 -15   1   26.60    3.90
  -4 -15  -1   49.99    5.50
   4 -15   1   54.29    5.20
  -4  15   1   61.19    4.90
  -4 -15  -1   61.29    8.70
  -4  15  -1   47.90    4.60
  -4 -15   1   51.19    5.50
  -4 -15   1   50.99    5.70
  -5  15   1    5.20    1.90
  -5  15  -1    6.10    2.20
   0 -16  -1   59.69    6.40
   0 -16  -1   58.39    5.90
   0 -16   1   64.19    6.10
   0 -16   1   63.59    5.90
   0 -16   1   49.00    6.50
  -1 -16  -1    4.50    2.60
   1 -16   1    2.10    3.10
   1 -16   1   -2.00    4.20
  -1 -16  -1    1.40    2.80
  -1 -16  -1   -4.50    4.70
   1 -16  -1    0.10    2.80
  -1 -16   1   -0.40    4.20
   1 -16  -1    1.00    3.60
  -1 -16   1    2.00    2.80
  -1 -16   1    4.30    3.80
  -1 -16   1   -2.10    2.60
  -2 -16  -1   98.09    7.20
  -2 -16  -1  100.19    7.00
  -2 -16  -1   87.39    7.70
  -2  16   1   95.89    7.30
  -2  16  -1  101.39    7.20
   2 -16  -1   97.99    8.20
  -2 -16   1   94.99    7.60
  -2 -16   1  101.09    7.30
  -2 -16   1   98.69    7.00
  -3 -16  -1   61.39    6.20
  -3  16   1   65.09    5.40
  -3 -16   1   67.49    6.20
  -3  16  -1   64.79    5.50
  -3 -16   1   64.99    6.20
  -4  16   1   45.80    4.20
  -4 -16  -1   48.20    5.60
   4 -16   1   49.99    4.80
  -4  16  -1   51.19    4.50
   4 -16  -1   50.69    5.00
  -4 -16   1   48.50    5.50
   0 -17   1  137.89    8.20
   0 -17   1  138.29    8.30
   0 -17  -1  139.99    8.10
   0 -17  -1  132.49    8.40
   0 -17   1  124.29    8.90
   0 -17  -1  117.59    8.60
  -1 -17  -1   35.30    5.20
  -1 -17  -1   31.90    4.90
   1 -17   1   35.40    4.90
   1 -17   1   32.60    4.30
   1 -17  -1   23.20    3.80
   2 -17   1  122.99    7.10
  -2 -17  -1  109.79    7.50
  -2  17   1  114.99    8.00
  -2 -17  -1  110.49    7.40
  -2 -17  -1  105.49    8.80
  -2 -17   1  102.89    8.40
  -3  17   1   59.09    5.10
  -3 -17  -1   58.49    6.90
  -3 -17  -1   50.59    6.30
   3 -17   1   54.89    4.70
  -3 -17   1   44.30    5.90
  -3  17  -1   48.80    5.10
  -3 -17   1   42.30    5.60
   0 -18  -1   -0.40    2.90
   0 -18   1   -2.50    3.00
   0 -18  -1   -0.30    3.20
   0 -18  -1    4.40    3.90
   0 -18   1   -3.50    3.70
   1 -18   1  146.99    9.90
  -1 -18  -1  160.78    8.80
   1 -18   1  167.68    8.40
   1 -18  -1  147.09    8.40
   1 -18  -1  139.79    9.10
   2 -18   1    8.30    2.70
   2 -18  -1   13.50    3.00
  -2 -18   1    7.90    3.20
   3 -18   1   37.80    4.10
   3 -18  -1   25.40    4.00
   0 -19  -1   72.09    6.70
   0   0   2   27.40    1.80
   0   0  -2   28.30    1.80
   1   0  -2 3239.28  130.09
  -1   0   2 3192.58  129.39
   1   0   2 3185.28  129.79
  -1   0  -2 3302.47  129.69
  -2   0   2  365.36   16.10
   2   0  -2  350.26   15.00
   2   0  -2  377.96   15.10
  -3   0   2   55.99    5.80
  -3   0  -2   54.19    3.80
  -3   0  -2   61.19    4.80
  -3   0  -2   54.39    5.10
  -3   0   2   46.50    4.50
  -3   0   2   53.79    4.60
  -4   0  -2    2.50    1.70
  -4   0   2    0.30    2.10
  -4   0  -2    3.80    2.50
  -4   0   2    1.60    2.60
  -4   0  -2    3.70    2.30
  -4   0  -2   -0.20    2.10
  -4   0   2    1.80    3.10
  -5   0   2  541.25   22.00
  -5   0  -2  535.85   27.50
  -5   0   2  530.55   26.10
  -5   0  -2  495.45   25.80
  -5   0   2  503.35   27.30
  -5   0  -2  544.95   24.30
  -5   0  -2  535.65   21.80
  -6   0   2    2.80    2.30
  -6   0  -2    6.30    2.80
  -6   0  -2    4.10    3.70
  -6   0  -2    9.10    3.90
  -6   0   2    4.60    3.30
  -6   0   2    8.70    4.20
  -7   0   2   38.60    4.30
  -7   0   2   43.30    6.80
  -7   0  -2   37.10    6.70
   0   1   2 1718.33   67.49
   0  -1   2 1688.63   67.59
   0   1  -2 1662.13   67.59
   0  -1  -2 1668.03   67.49
  -1  -1  -2  789.32   33.40
   1   1  -2  822.12   33.50
  -1   1   2  819.62   33.50
   1   1  -2  836.42   33.60
   1  -1   2  790.92   34.20
  -1   1  -2  877.31   33.40
   1  -1  -2  869.01   33.50
   1   1   2  837.52   33.50
   2   1  -2  420.06   16.30
  -2  -1  -2  390.76   16.00
  -2   1   2  379.86   17.20
   2   1  -2  393.36   16.30
   2  -1  -2  400.96   16.20
  -2  -1   2  385.16   17.30
   2   1   2  388.86   16.10
  -3  -1  -2  596.04   26.20
  -3  -1  -2  562.84   28.30
  -3   1   2  580.14   26.40
  -3   1   2  598.14   28.30
  -3   1   2  639.84   29.90
  -3   1  -2  617.04   24.00
  -3   1  -2  656.93   30.00
  -3  -1   2  575.34   28.30
  -3  -1   2  576.44   26.40
  -3   1  -2  603.94   28.30
  -3  -1   2  583.54   26.20
  -3   1  -2  602.84   26.20
  -4  -1  -2  958.10   40.60
  -4   1   2  922.71   37.30
  -4   1   2  880.81   46.00
  -4   1   2  966.10   44.00
  -4  -1  -2  993.00   44.00
  -4  -1  -2  922.51   37.20
  -4  -1   2  935.61   44.00
  -4   1  -2  937.51   40.50
  -4   1  -2  939.91   37.20
  -4  -1   2  923.51   40.60
  -4   1  -2  965.50   41.70
  -4  -1   2  921.21   46.20
  -5  -1  -2  362.16   17.90
  -5  -1  -2  358.56   19.20
  -5   1   2  356.16   15.10
  -5  -1  -2  345.97   16.90
  -5   1   2  341.87   18.10
  -5  -1  -2  355.06   14.90
  -5   1   2  365.66   19.00
  -5   1  -2  350.66   16.90
  -5   1  -2  302.07   17.80
  -5  -1   2  318.97   19.00
  -5   1  -2  346.37   19.00
  -5  -1   2  338.57   15.00
  -5   1  -2  360.86   14.90
  -5  -1   2  324.97   17.90
  -6  -1  -2    4.70    4.60
  -6  -1  -2   13.10    3.60
  -6   1   2   10.60    4.50
  -6  -1  -2    8.50    3.10
  -6   1   2   12.70    4.20
  -6  -1  -2   12.30    4.00
  -6   1   2    6.40    2.30
  -6   1  -2    9.70    2.70
  -6   1  -2   12.70    4.50
  -6  -1   2   10.70    3.50
  -6  -1   2    8.00    4.70
  -6   1  -2    3.20    3.30
  -6  -1   2   11.10    2.70
  -7  -1  -2    9.20    4.50
  -7  -1  -2    9.00    4.90
  -7   1   2    8.40    2.60
  -7  -1   2    8.30    3.00
  -7  -1   2    9.90    3.90
  -7   1  -2   12.50    4.50
   0  -2   2  655.73   27.30
   0   2  -2  658.93   27.30
   0  -2  -2  654.03   27.20
   0   2   2  665.73   27.20
   1   2  -2  597.14   24.10
  -1   2   2  601.94   24.00
   1  -2   2  579.64   24.40
   1  -2   2  564.94   24.10
  -1  -2  -2  546.95   24.00
   1  -2  -2  602.84   24.00
  -1   2  -2  606.94   24.00
   1   2   2  588.24   24.00
  -1  -2   2  600.94   24.20
  -1  -2   2  590.44   24.50
  -2   2   2  135.49    7.50
   2   2  -2  157.38    7.00
  -2   2   2  157.08    6.80
   2   2  -2  154.68    6.90
  -2  -2  -2  161.58    6.90
   2   2   2  156.48    6.80
  -2   2  -2  145.09    6.50
  -2  -2   2  147.79    7.70
   2  -2  -2  159.38    6.90
   3   2  -2  430.86   18.60
  -3   2   2  459.05   22.80
  -3   2   2  434.46   21.50
  -3  -2  -2  456.75   20.00
   3   2  -2  444.06   18.50
  -3   2   2  473.75   20.40
  -3  -2  -2  451.55   21.60
  -3   2  -2  424.46   20.50
  -3   2  -2  460.65   22.90
  -3  -2   2  440.56   20.10
  -3  -2   2  467.65   21.70
  -3   2  -2  471.95   18.30
  -3  -2   2  432.76   20.40
  -3   2  -2  427.96   20.00
  -4   2   2   19.30    3.30
  -4  -2  -2   19.70    3.00
  -4  -2  -2   25.80    2.80
  -4   2   2   16.60    2.40
  -4   2   2   22.70    3.10
  -4   2   2   16.30    2.90
  -4  -2  -2   21.60    3.30
  -4  -2   2   17.30    3.20
  -4   2  -2   22.40    3.40
  -4  -2   2   20.70    3.20
  -4   2  -2   21.20    2.50
  -4   2  -2   21.50    3.60
  -4   2  -2   14.40    2.90
  -4   2  -2   19.00    2.80
  -5   2   2  217.48   13.30
  -5  -2  -2  204.38   12.00
  -5  -2  -2  231.18   12.80
  -5   2   2  211.08   10.50
  -5   2   2  207.38   12.90
  -5  -2  -2  211.88   13.70
  -5  -2  -2  211.58   10.50
  -5   2  -2  225.78   13.10
  -5   2  -2  259.27   13.80
  -5  -2   2  237.78   13.00
  -5  -2   2  238.18   12.70
  -5   2  -2  247.68   10.60
  -5   2  -2  238.98   12.50
  -6  -2  -2    4.80    3.10
  -6   2   2   12.20    4.20
  -6  -2  -2   10.00    4.30
  -6  -2  -2   -1.00    3.70
  -6   2   2    8.90    4.20
  -6   2   2    7.40    2.40
  -6   2  -2    1.50    3.30
  -6  -2   2    3.20    2.40
  -6  -2   2    7.30    3.20
  -6  -2   2    0.50    4.80
  -6   2  -2    0.10    2.30
  -7  -2  -2   41.70    6.50
  -7  -2  -2   52.39    7.40
  -7   2   2   44.00    4.00
  -7  -2   2   43.30    6.00
  -7   2  -2   39.00    5.90
  -7   2  -2   32.90    4.70
  -7  -2   2   33.80    4.90
   0   3   2 2189.78   85.69
   0   3  -2 2085.79   85.69
   0  -3   2 2133.59   85.79
   0  -3   2 2148.39   86.49
   0  -3  -2 2103.19   85.69
   1   3  -2 2332.07   92.49
  -1  -3  -2 2360.96   92.49
   1  -3   2 2289.27   92.39
  -1   3   2 2334.97   92.29
   1  -3  -2 2299.87   92.39
  -1  -3   2 2296.27   93.59
  -1  -3   2 2364.16   92.59
  -1   3  -2 2178.58   92.29
   1   3   2 2239.98   92.29
  -2  -3  -2  665.23   26.30
  -2   3   2  665.33   26.10
   2   3  -2  658.23   26.30
  -2  -3  -2  606.94   27.30
  -2   3   2  583.64   26.80
   2  -3   2  672.43   26.20
  -2  -3   2  587.74   26.50
   2  -3  -2  625.74   26.10
  -2   3  -2  615.64   25.80
  -2  -3   2  653.13   27.10
   2   3   2  631.24   26.10
  -3   3   2  321.27   14.70
  -3   3   2  319.67   12.90
  -3   3   2  319.17   14.80
  -3   3   2  347.27   16.20
  -3  -3  -2  329.17   14.20
   3   3  -2  314.87   13.50
  -3  -3  -2  330.97   15.30
  -3   3   2  307.37   15.30
   3   3  -2  315.07   13.20
   3   3   2  281.17   12.90
  -3  -3   2  261.77   13.40
  -3  -3   2  274.37   15.10
   3  -3  -2  311.87   12.80
  -3   3  -2  277.67   14.50
  -3  -3   2  286.67   14.20
  -3   3  -2  264.27   14.00
  -3   3  -2  286.97   12.60
  -3   3  -2  314.47   16.10
  -4   3   2  200.08   11.60
  -4   3   2  189.38   10.80
  -4   3   2  207.98    9.20
  -4  -3  -2  204.38   10.50
  -4  -3  -2  217.48   11.10
  -4   3   2  196.78   11.30
  -4  -3   2  207.98   10.70
  -4  -3   2  192.68   11.20
  -4   3  -2  184.18   11.50
  -4   3  -2  190.78   10.40
  -4   3  -2  194.48   11.70
  -4   3  -2  196.78   10.40
  -4  -3   2  176.48   12.00
  -4   3  -2  201.08    9.00
  -5   3   2    4.80    3.40
  -5  -3  -2    2.00    2.60
  -5   3   2    2.90    1.80
  -5  -3  -2    2.20    2.70
  -5  -3  -2    0.00    2.50
  -5   3   2    5.30    3.20
  -5   3   2    7.10    3.10
  -5  -3   2    4.80    2.70
  -5   3  -2    2.40    2.60
  -5   3  -2    2.90    1.80
  -5  -3   2   -0.40    3.30
  -5  -3   2   -0.50    3.80
  -5   3  -2    2.80    2.80
  -6  -3  -2  344.47   17.60
  -6  -3  -2  360.06   18.50
  -6   3   2  349.47   19.40
  -6   3   2  357.26   15.50
  -6   3   2  363.86   19.30
  -6  -3  -2  347.37   20.00
  -6   3  -2  353.16   19.50
  -6  -3   2  360.76   18.60
  -6  -3   2  350.16   15.50
  -6   3  -2  352.76   15.40
  -7  -3  -2   16.80    4.30
  -7  -3  -2   10.20    5.10
  -7   3   2   17.90    2.80
  -7  -3   2   24.50    4.20
  -7   3  -2   17.40    3.20
   0  -4   2  476.75   20.20
   0   4   2  477.75   19.90
   0  -4  -2  481.95   20.10
   0   4  -2  447.86   19.90
  -1  -4  -2 2667.43  107.59
   1   4  -2 2677.33  107.59
  -1   4   2 2808.12  107.49
   1  -4   2 2597.54  107.59
   1  -4  -2 2596.24  107.49
  -1  -4   2 2625.64  107.69
   1   4   2 2609.24  107.39
  -1   4  -2 2649.03  107.39
  -1  -4   2 2816.42  108.79
  -2  -4  -2  773.62   32.20
  -2   4   2  668.43   37.50
  -2  -4  -2  771.62   33.10
  -2   4   2  777.22   31.80
  -2  -4  -2  739.43   35.80
   2  -4   2  854.91   32.20
   2   4  -2  823.22   32.10
  -2   4   2  772.92   30.40
  -2   4   2  814.32   32.50
  -2  -4   2  749.23   35.90
  -2   4  -2  733.73   37.60
  -2   4  -2  806.92   31.80
   2  -4  -2  759.22   32.00
  -2  -4   2  777.92   32.50
  -2  -4   2  780.52   31.40
   2   4   2  788.52   31.90
  -2   4  -2  770.52   30.40
  -2  -4   2  719.13   33.00
  -3  -4  -2  319.77   16.10
  -3   4   2  316.37   15.60
   3   4  -2  302.47   14.90
  -3   4   2  276.97   14.20
  -3  -4  -2  311.57   14.80
  -3   4   2  322.97   15.50
  -3   4   2  316.27   16.30
  -3   4   2  327.47   17.00
   3   4  -2  341.07   14.50
  -3   4   2  323.27   13.70
  -3  -4  -2  319.97   15.10
   3  -4  -2  336.97   14.40
  -3  -4   2  326.37   14.30
  -3   4  -2  347.17   13.60
  -3   4  -2  345.67   15.50
  -3  -4   2  297.17   16.10
  -3  -4   2  374.56   15.30
   3   4   2  346.37   14.30
  -3   4  -2  312.57   14.90
  -4   4   2  131.99    9.10
  -4  -4  -2  134.69    8.30
  -4   4   2  144.99    9.70
  -4   4   2  141.89    7.00
  -4  -4  -2  131.09    8.40
  -4   4  -2  146.49    7.00
  -4  -4   2  134.49    8.60
  -4   4  -2  148.39    8.30
  -4   4  -2  159.28    9.40
  -4  -4   2  148.49    8.60
  -4  -4   2  134.99   10.00
  -5   4   2  240.08   14.50
  -5   4   2  256.77   14.40
  -5  -4  -2  254.37   13.10
  -5  -4  -2  232.88   13.60
  -5   4   2  247.68   11.40
  -5   4   2  261.57   13.30
  -5   4  -2  267.27   13.00
  -5   4  -2  242.78   11.30
  -5  -4   2  256.17   13.80
  -5   4  -2  222.38   14.20
  -5  -4   2  247.48   13.30
  -6   4   2  405.26   17.60
  -6  -4  -2  422.76   19.80
  -6  -4  -2  421.46   20.90
  -6  -4  -2  403.56   22.60
  -6  -4   2  440.36   21.20
  -6  -4   2  390.36   20.10
  -6   4  -2  396.96   17.40
  -6   4  -2  390.06   21.90
  -6  -4   2  403.26   17.60
  -7  -4  -2   25.60    6.10
  -7   4   2   34.00    3.60
  -7  -4  -2   28.80    5.00
  -7  -4   2   28.20    4.40
  -7   4  -2   31.10    3.80
   0   5  -2 1204.98   49.80
   0   5   2 1207.58   49.70
   0  -5  -2 1229.28   49.99
   0  -5   2 1226.58   50.09
   1  -5   2  458.85   18.40
  -1  -5  -2  454.05   18.50
   1   5  -2  446.06   18.00
  -1   5   2  440.16   17.80
   1  -5  -2  359.96   18.00
   1   5   2  370.56   17.70
  -1   5  -2  383.66   17.70
  -1  -5   2  390.86   18.50
   2   5  -2  366.46   15.90
  -2  -5  -2  371.16   16.10
   2  -5   2  380.26   16.40
  -2   5   2  396.96   16.00
  -2   5   2  338.57   16.60
  -2  -5  -2  356.86   17.30
  -2  -5  -2  346.07   15.20
  -2   5   2  343.87   18.10
  -2   5   2  382.76   14.70
  -2  -5   2  363.36   15.30
   2   5   2  353.16   15.70
  -2   5  -2  303.37   18.10
   2  -5  -2  352.26   16.10
  -2  -5   2  326.47   17.40
  -2   5  -2  374.36   14.60
  -2   5  -2  346.27   16.60
  -2   5  -2  350.26   15.60
  -3  -5  -2 1011.70   43.80
  -3   5   2  906.11   41.70
  -3   5   2 1007.50   37.20
  -3   5   2  944.81   45.90
  -3   5   2  879.41   37.50
  -3  -5  -2  868.61   40.40
  -3  -5  -2  991.90   40.50
  -3  -5  -2  895.41   38.30
   3   5  -2  904.51   39.10
  -3   5   2  883.31   43.60
  -3   5   2  951.10   40.20
  -3   5  -2  979.00   41.70
  -3  -5   2  963.40   40.50
  -3   5  -2  890.21   40.10
   3   5   2  918.81   38.90
  -3   5  -2  980.80   37.10
  -3  -5   2  959.90   43.80
  -3   5  -2  964.70   46.00
  -3  -5   2  946.21   40.50
  -3  -5   2  921.71   37.60
  -4   5   2   81.39    4.80
  -4  -5  -2   87.09    5.90
  -4   5   2   76.29    6.50
  -4  -5  -2   70.29    5.90
  -4   5   2   76.39    7.80
  -4   5   2   78.49    6.20
  -4   5  -2   80.79    6.00
  -4  -5   2   85.59    6.50
  -4   5  -2   90.99    6.80
  -4   5  -2   81.39    4.80
  -4  -5   2   67.09    7.60
  -4  -5   2   77.69    6.10
  -5   5   2    2.40    2.90
  -5  -5  -2   -1.80    2.70
  -5  -5  -2    3.20    2.90
  -5   5   2    3.30    2.00
  -5   5   2    2.80    2.60
  -5  -5   2    1.60    2.60
  -5  -5   2    3.30    3.30
  -5   5  -2    3.50    1.90
  -5  -5   2    0.50    4.50
  -5   5  -2    2.00    2.70
  -5   5  -2   -1.50    2.20
  -6  -5  -2   62.59    8.00
  -6  -5  -2   56.19    6.10
  -6   5   2   56.39    4.60
  -6  -5  -2   58.59    6.80
  -6  -5   2   63.79    6.20
  -6   5  -2   58.19    4.50
  -6   5  -2   59.19    6.40
  -6  -5   2   63.49    7.70
  -6   5  -2   55.59    6.80
  -6  -5   2   57.59    5.60
  -7   5   2    9.50    2.40
  -7  -5  -2    9.60    3.70
  -7  -5   2    7.70    3.30
   0  -6   2  706.83   31.20
   0  -6  -2  701.73   30.90
   0   6  -2  746.33   30.60
   0   6   2  736.93   30.50
  -1  -6  -2  732.53   34.40
   1   6  -2  816.82   34.00
  -1  -6  -2  782.42   34.50
  -1   6   2  797.82   33.70
   1  -6   2  794.32   34.40
  -1  -6   2  899.41   34.90
  -1   6  -2  826.32   31.70
   1   6   2  830.52   33.80
   1  -6  -2  772.62   34.20
  -1  -6   2  803.12   32.70
  -1   6  -2  813.32   33.90
  -2   6   2   85.89    6.00
  -2   6   2   91.79    6.00
  -2   6   2   71.39    5.40
  -2  -6  -2   88.79    5.80
  -2   6   2   93.19    4.80
  -2  -6  -2   86.69    5.50
  -2  -6  -2   87.79    5.20
   2   6  -2   92.49    6.00
  -2  -6  -2   82.49    6.00
   2  -6   2   92.49    8.30
  -2   6   2   91.19    5.40
  -2  -6   2   84.39    5.30
   2   6   2   88.39    5.90
  -2   6  -2   95.29    6.20
  -2   6  -2   87.69    5.80
   2  -6  -2   78.29    8.00
  -2   6  -2   89.49    4.60
  -2   6  -2   84.89    6.20
  -2  -6   2   82.79    6.10
  -2  -6   2   94.09    6.00
  -3  -6  -2   50.19    4.40
   3   6  -2   55.89    5.70
  -3  -6  -2   48.40    4.80
  -3   6   2   43.30    4.60
  -3   6   2   52.39    6.20
  -3  -6  -2   34.50    5.80
  -3   6   2   50.19    3.60
  -3  -6  -2   49.40    5.50
  -3  -6   2   55.79    4.70
  -3   6  -2   51.79    4.80
  -3  -6   2   49.30    5.30
  -3   6  -2   52.79    3.60
  -3  -6   2   56.99    4.90
   3   6   2   45.20    5.60
  -3   6  -2   60.49    5.00
  -4   6   2   41.80    3.60
  -4   6   2   42.90    5.00
  -4  -6  -2   41.30    4.60
  -4  -6  -2   48.10    5.00
  -4  -6   2   35.20    5.10
  -4   6  -2   36.60    3.30
  -4  -6   2   30.60    4.60
  -4   6  -2   39.40    4.80
  -4  -6   2   44.10    6.70
  -4   6  -2   31.00    5.00
  -5  -6  -2   43.80    5.70
  -5  -6  -2   39.70    4.90
  -5   6   2   46.50    5.60
  -5   6   2   41.50    3.80
  -5  -6   2   40.30    5.20
  -5   6  -2   32.00    3.70
  -5   6  -2   34.60    5.20
  -5   6  -2   46.50    5.80
  -5  -6   2   44.60    5.20
  -6  -6  -2   97.19    7.20
  -6   6   2   78.49    7.60
  -6  -6  -2   83.59    9.00
  -6   6   2   88.79    5.50
  -6  -6  -2   94.39    7.10
  -6   6  -2   76.79    7.00
  -6  -6   2   75.49    7.90
  -6   6  -2   78.79    5.30
  -6  -6   2   78.69    7.10
  -7  -6  -2    9.80    3.20
  -7   6   2   12.20    2.40
  -7  -6   2    9.10    3.20
   0  -7  -2  122.09   10.30
   0   7   2  143.29    7.80
   0   7  -2  142.59    7.80
   0  -7   2  136.69   10.30
  -1  -7  -2 1551.34   72.19
  -1   7   2 1685.23   75.09
  -1  -7  -2 1649.93   78.59
  -1  -7  -2 1683.63   72.49
  -1   7   2 1816.02   70.69
   1   7  -2 1748.23   70.79
  -1   7   2 1733.23   66.89
   1  -7   2 1705.73   71.49
  -1  -7   2 1828.82   68.99
   1   7   2 1845.02   70.79
  -1   7  -2 1755.82   70.69
   1  -7  -2 1706.23   71.39
  -1   7  -2 1675.53   74.99
  -1  -7   2 1737.83   72.39
  -2  -7  -2  158.18    8.50
   2   7  -2  168.88    9.30
  -2   7   2  156.78    8.50
  -2   7   2  147.59    8.70
  -2  -7  -2  161.08    8.40
  -2  -7  -2  151.48    7.90
  -2   7   2  146.79    9.30
  -2  -7  -2  172.88    9.00
  -2   7   2  162.58    7.30
   2   7   2  167.78    9.10
  -2  -7   2  156.08    9.00
  -2  -7   2  161.38    7.90
  -2   7  -2  163.68    7.40
  -2   7  -2  153.18    9.60
  -2   7  -2  158.08    8.60
  -2  -7   2  165.68    8.60
  -3  -7  -2  142.39    8.10
  -3  -7  -2  123.99    8.50
  -3   7   2  134.49    8.10
  -3  -7  -2  129.79    7.70
   3   7  -2  134.09    9.60
  -3  -7  -2  131.39    8.30
  -3   7   2  133.49    6.70
  -3  -7   2  141.09    7.80
  -3   7  -2  135.19    6.70
   3   7   2  122.39    9.20
  -3  -7   2  140.99    8.50
  -3  -7   2  137.89    8.30
  -3  -7   2  146.69    7.70
  -3   7  -2  139.09    8.70
  -3   7  -2  138.89    7.80
  -4   7   2    6.40    1.90
  -4   7   2    9.30    2.60
  -4  -7  -2    4.50    3.30
  -4  -7  -2    9.20    2.80
  -4  -7  -2    7.20    2.70
  -4   7  -2    7.90    1.90
  -4  -7   2    6.90    2.50
  -4   7  -2    8.70    2.50
  -4  -7   2    4.60    3.00
  -4   7  -2    8.90    2.90
  -4  -7   2   12.70    3.40
  -5  -7  -2  126.49    8.40
  -5  -7  -2  125.99    8.20
  -5   7   2  117.39    8.00
  -5   7   2  124.19    6.80
  -5   7  -2  111.59    6.60
  -5  -7   2  128.89    8.80
  -5   7  -2  110.79    7.90
  -5  -7   2  123.89    8.50
  -6  -7  -2    8.80    3.40
  -6  -7  -2    8.00    3.20
  -6   7   2   11.80    2.50
  -6  -7  -2    8.50    5.10
  -6   7   2   10.20    3.30
  -6  -7   2   11.10    3.50
  -6   7  -2    8.90    3.00
  -6   7  -2    9.80    2.30
  -6  -7   2   10.90    4.30
  -7  -7  -2    2.50    3.50
  -7   7   2    7.80    2.20
  -7  -7   2    2.70    3.10
   0   8  -2    9.10    2.90
   0   8   2    5.10    2.60
   0  -8  -2    6.40    2.10
   0  -8   2    7.60    2.40
  -1  -8  -2   47.50    5.10
  -1   8   2   48.00    6.10
   1   8  -2   58.09    5.90
  -1   8   2   51.89    4.90
  -1   8   2   47.70    3.60
  -1  -8  -2   46.10    4.30
  -1  -8  -2   43.00    4.70
  -1   8  -2   46.10    5.00
  -1  -8   2   51.19    4.80
  -1  -8   2   52.19    3.70
   1   8   2   61.09    5.30
  -1   8  -2   46.70    6.20
  -1  -8   2   51.09    6.20
   1  -8  -2   45.40    5.50
  -2   8   2   11.40    2.20
   2   8  -2   13.90    3.30
  -2   8   2   10.10    1.80
  -2  -8  -2   12.60    2.40
  -2   8   2   12.60    4.20
  -2  -8  -2   13.10    2.40
  -2  -8  -2   15.80    2.20
  -2  -8  -2   19.00    2.90
   2   8   2   14.80    3.40
  -2  -8   2   12.10    2.70
  -2  -8   2   10.10    2.50
  -2   8  -2   13.70    2.40
  -2  -8   2    8.90    2.20
  -2   8  -2    8.30    4.10
  -2  -8   2   10.70    2.00
   2  -8  -2    8.90    3.30
  -2   8  -2   11.00    1.80
  -3  -8  -2   52.59    4.90
  -3  -8  -2   44.80    5.20
   3   8  -2   41.50    6.20
  -3  -8  -2   33.80    5.40
  -3  -8  -2   40.90    4.60
  -3   8   2   48.90    4.50
  -3   8   2   48.20    3.60
  -3  -8   2   36.20    4.60
  -3   8  -2   42.90    3.50
  -3   8  -2   45.30    4.30
   3   8   2   36.10    5.70
  -3  -8   2   44.70    4.50
  -3  -8   2   45.10    4.90
  -3  -8   2   42.90    5.80
  -4   8   2  657.03   31.20
  -4   8   2  677.53   27.70
  -4  -8  -2  703.13   30.70
  -4  -8  -2  678.73   30.80
  -4  -8  -2  676.63   32.80
  -4  -8   2  707.83   30.70
  -4  -8   2  697.13   28.70
  -4  -8   2  663.83   32.80
  -4   8  -2  646.14   27.60
  -4   8  -2  687.43   31.20
  -5  -8  -2   35.00    5.20
  -5   8   2   34.60    5.10
  -5  -8  -2   34.70    5.20
  -5   8   2   36.30    3.80
  -5  -8   2   35.50    5.50
  -5  -8   2   30.40    4.40
  -5   8  -2   34.90    3.60
  -5   8  -2   38.30    4.90
  -6   8   2   67.09    4.80
  -6  -8  -2   66.09    6.40
  -6  -8  -2   67.79    6.40
  -6  -8  -2   78.79    9.60
  -6   8   2   75.59    6.30
  -6  -8   2   68.79    6.30
  -6  -8   2   68.29    7.20
  -6   8  -2   73.89    5.80
  -7  -8  -2   -0.70    3.20
  -7  -8   2    0.90    3.40
   0   9  -2   15.20    3.00
   0  -9   2   12.90    2.60
   0   9   2   13.60    3.50
   0   9   2   12.40    2.80
   0   9  -2   11.30    3.60
   0  -9  -2   14.50    2.50
   0  -9  -2   10.20    2.50
  -1   9   2   20.30    4.60
  -1   9   2   16.10    2.60
  -1  -9  -2   18.00    2.60
   1   9  -2   16.80    4.10
  -1  -9  -2   23.30    3.80
   1  -9   2   17.10    3.20
  -1  -9  -2   22.30    3.20
  -1  -9   2   16.50    2.70
  -1  -9   2   23.30    3.80
  -1  -9   2   22.60    3.20
   1  -9  -2   18.40    2.80
   1   9   2   19.60    4.30
  -1   9  -2   16.40    2.60
  -1   9  -2   20.80    4.20
   2   9  -2  104.59   10.20
  -2   9   2  106.09    6.90
  -2  -9  -2   98.59    6.50
  -2   9   2  105.39    5.60
  -2  -9  -2  101.69    6.00
  -2  -9  -2  105.19    6.80
  -2  -9  -2  108.49    7.30
  -2  -9   2  108.09    6.20
  -2  -9   2   98.99    6.90
   2  -9  -2  104.69    8.10
   2   9   2   91.29    9.50
  -2  -9   2   81.59    7.00
  -2  -9   2  106.59    6.60
  -2   9  -2  104.29    6.80
  -3  -9  -2  179.68    9.90
  -3   9   2  165.08   10.20
  -3  -9  -2  173.18   10.40
  -3  -9  -2  184.08   10.80
  -3  -9  -2  177.48   10.20
  -3   9   2  178.58    8.80
  -3  -9   2  204.68   11.10
  -3  -9   2  199.68    9.70
  -3  -9   2  196.48   10.20
  -3   9  -2  197.68   10.30
  -3   9  -2  188.38    8.80
  -3  -9   2  195.58   10.80
  -4   9   2   17.00    3.00
  -4  -9  -2   16.40    3.30
  -4  -9  -2   16.70    3.80
  -4  -9  -2   27.50    4.80
  -4  -9  -2   24.70    3.80
  -4   9   2   14.30    2.40
  -4  -9   2   22.70    3.80
  -4   9  -2   23.30    3.00
  -4   9  -2   23.30    3.30
  -4  -9   2   20.40    3.60
  -4  -9   2   20.40    3.60
  -5  -9  -2  411.46   20.70
  -5  -9  -2  399.06   19.20
  -5   9   2  401.36   17.20
  -5   9   2  388.56   19.30
  -5   9  -2  389.26   19.20
  -5   9  -2  381.96   17.10
  -5  -9   2  408.26   20.50
  -5  -9   2  404.16   19.40
  -6  -9  -2   31.20    6.80
  -6  -9  -2   19.70    3.80
  -6   9   2   27.20    4.50
  -6  -9  -2   19.20    3.50
  -6   9  -2   17.50    2.90
  -6  -9   2   20.30    4.40
  -6  -9   2   24.10    4.00
   0  10   2   15.30    4.90
   0 -10   2    9.50    2.50
   0 -10  -2   11.10    2.40
   0  10  -2   14.10    5.40
   0  10  -2   13.30    2.90
   0 -10  -2   12.80    2.80
   0 -10   2    9.10    1.90
   0  10   2    7.90    2.60
   1  10  -2   51.29    7.10
  -1  10   2   44.70    6.70
  -1 -10  -2   43.70    6.20
  -1 -10  -2   43.10    5.00
  -1 -10  -2   44.70    4.60
   1 -10   2   37.60    4.20
  -1  10   2   44.10    4.90
  -1 -10   2   33.30    4.10
   1  10   2   39.90    5.70
   1 -10  -2   47.60    5.30
  -1 -10   2   40.30    4.80
  -1  10  -2   41.80    6.90
  -1  10  -2   33.00    4.90
  -2  10   2  122.29    6.50
  -2  10   2  123.09    8.00
  -2 -10  -2  127.09    7.90
  -2 -10  -2  121.09    7.60
  -2 -10  -2  124.29    7.30
  -2 -10  -2  122.99    8.30
  -2 -10   2  130.79    7.90
   2 -10  -2  132.19    9.30
  -2  10  -2  139.29    8.00
  -2 -10   2  126.19    8.80
  -2 -10   2  133.49    7.40
  -2 -10   2  131.79    7.80
  -3 -10  -2  187.68   10.60
  -3 -10  -2  177.98   10.30
  -3  10   2  172.38   10.20
  -3  10   2  178.18    8.80
  -3 -10  -2  175.58   10.90
  -3 -10  -2  188.58   10.10
  -3  10  -2  180.68   10.20
  -3 -10   2  193.98   10.50
  -3 -10   2  186.48   10.90
  -3 -10   2  190.18    9.90
  -3 -10   2  183.08   10.50
  -4 -10  -2   72.79    6.40
  -4 -10  -2   76.29    7.20
  -4  10   2   83.49    6.50
  -4 -10  -2   92.39    8.30
  -4 -10  -2   89.19    9.50
  -4  10   2   73.69    5.20
  -4 -10   2   73.09    7.10
  -4  10  -2   94.09    6.40
  -4 -10   2   94.89    7.10
  -5 -10  -2   19.50    3.80
  -5  10   2   20.50    2.90
  -5 -10  -2   20.20    3.80
  -5  10   2   12.90    2.80
  -5 -10   2   18.00    3.80
  -5 -10   2   14.90    3.70
  -5  10  -2   15.50    2.70
  -6 -10  -2   82.79    6.90
  -6  10   2   79.89    6.30
  -6 -10  -2   90.39    6.80
  -6 -10   2   96.09    7.70
  -6  10  -2   84.19    6.10
  -6 -10   2   89.49    6.90
   0 -11   2  617.14   27.40
   0 -11  -2  622.64   27.30
   0  11  -2  616.44   31.20
   0 -11  -2  587.74   27.40
   0 -11   2  627.74   26.00
   0  11   2  611.14   31.00
   0  11   2  625.44   28.50
   1 -11   2   89.09    6.10
   1 -11   2   83.79    7.40
  -1  11   2   84.99   11.10
  -1 -11  -2   84.49    6.30
  -1 -11  -2   91.09    6.80
  -1  11   2   85.39    6.70
  -1  11  -2  100.09    6.70
   1 -11  -2  103.99    7.20
  -1  11  -2   81.29   10.30
  -1 -11   2   93.79    5.80
  -1 -11   2   90.69    6.30
  -2  11   2  141.59    8.90
  -2 -11  -2  142.19    8.90
   2 -11   2  146.19    8.90
  -2 -11  -2  145.29    9.60
  -2 -11  -2  152.98    8.80
  -2 -11  -2  161.78    8.20
  -2 -11   2  144.49   10.30
  -2  11  -2  154.48    8.80
   2 -11  -2  151.48   10.30
  -2 -11   2  152.88    8.30
  -2 -11   2  146.69    8.80
  -2 -11   2  149.09    8.70
  -3 -11  -2  284.67   15.40
  -3 -11  -2  309.97   14.70
  -3 -11  -2  283.07   13.70
  -3 -11  -2  270.57   14.20
  -3  11   2  280.77   14.40
  -3 -11   2  277.57   15.30
  -3 -11   2  267.97   14.30
  -3 -11   2  259.47   13.50
  -3  11  -2  287.87   14.30
  -3 -11   2  274.27   14.50
  -4  11   2   87.99    5.70
  -4 -11  -2  100.19    8.10
  -4 -11  -2   99.49    8.80
  -4 -11  -2   92.19    9.60
  -4  11   2   86.59    6.80
  -4 -11  -2   92.19    7.30
  -4 -11   2  104.19    7.50
  -4 -11   2  100.09    8.10
  -4  11  -2  104.89    7.00
  -4 -11   2  106.29    8.60
  -5  11   2   42.80    4.80
  -5 -11  -2   39.30    5.50
  -5 -11  -2   48.60    6.00
  -5 -11   2   38.50    6.10
  -5 -11   2   38.50    5.80
  -5  11  -2   45.00    4.80
  -6  11   2   26.80    4.20
  -6 -11  -2   20.80    3.50
  -6 -11  -2   28.20    3.90
  -6  11  -2   32.90    4.00
  -6 -11   2   30.80    4.50
  -6 -11   2   36.70    5.40
   0 -12   2  130.89    7.20
   0  12   2  125.19    9.40
   0 -12  -2  124.29    8.80
   0 -12  -2  122.79    7.80
   0 -12   2  114.59    7.90
  -1 -12  -2  254.67   13.40
  -1 -12  -2  263.97   12.50
   1 -12   2  253.37   13.50
  -1  12   2  268.07   13.60
   1 -12   2  255.47   12.40
  -1 -12  -2  257.97   13.10
  -1 -12   2  249.48   13.20
   1 -12  -2  267.67   13.30
  -1 -12   2  259.77   12.40
  -1 -12   2  261.77   12.70
  -1  12  -2  256.17   13.50
  -1 -12   2  260.77   13.20
   2 -12   2   56.99    6.40
  -2 -12  -2   42.50    6.90
  -2 -12  -2   49.50    5.80
  -2  12   2   46.10    5.70
  -2 -12  -2   43.90    5.10
  -2 -12  -2   47.60    5.90
  -2 -12   2   62.39    5.40
  -2 -12   2   66.79    6.10
  -2  12  -2   49.99    5.50
  -2 -12   2   56.79    5.80
  -2 -12   2   49.90    8.20
   2 -12  -2   58.19    8.40
  -3  12   2   66.89    6.00
  -3 -12  -2   69.49    6.10
  -3 -12  -2   56.89    6.90
  -3 -12  -2   69.69    6.70
  -3 -12  -2   65.49    6.60
  -3 -12   2   63.79    6.20
  -3 -12   2   66.19    6.60
  -3  12  -2   70.19    5.90
  -3 -12   2   64.59    6.40
  -3 -12   2   70.99    7.80
  -4 -12  -2   -0.10    4.20
  -4 -12  -2   -1.00    2.70
  -4 -12  -2   -2.90    3.40
  -4  12   2    1.70    2.30
  -4 -12   2    3.20    3.70
  -4  12  -2    4.30    2.20
  -4 -12   2   -0.20    3.80
  -4 -12   2   -1.40    2.80
  -5 -12  -2  163.78   10.00
  -5 -12  -2  156.58    9.30
  -5  12   2  166.78    9.10
   5 -12   2  146.49    9.60
  -5 -12   2  154.38    9.60
  -5  12  -2  159.98    8.90
  -5 -12   2  161.88   10.40
  -6  12  -2   20.40    2.80
   0 -13  -2    4.70    2.60
   0 -13  -2    4.60    3.90
   0 -13   2    3.50    2.70
   0 -13   2    6.80    2.50
  -1 -13  -2  242.18   13.30
   1 -13   2  237.18   13.60
  -1  13   2  254.47   13.40
  -1 -13  -2  257.27   12.40
   1 -13   2  243.88   12.40
  -1 -13  -2  253.87   13.20
   1 -13  -2  261.87   13.40
  -1 -13   2  242.38   12.10
  -1 -13   2  247.98   13.10
  -1  13  -2  262.07   13.40
  -1 -13   2  257.67   13.30
  -1 -13   2  254.67   12.60
  -2 -13  -2   53.49    5.30
   2 -13   2   43.50    4.70
  -2  13   2   48.00    5.60
  -2 -13  -2   50.49    5.90
  -2 -13  -2   41.10    5.20
  -2  13  -2   45.50    5.50
  -2 -13   2   45.70    5.80
  -2 -13   2   43.10    4.90
  -2 -13   2   32.00    4.40
  -3 -13  -2  133.49    8.80
  -3 -13  -2  107.09    8.60
  -3 -13  -2  128.99    8.50
  -3  13   2  125.29    8.20
  -3 -13  -2  129.39    9.80
  -3 -13   2  135.69    8.80
  -3 -13   2  133.69   11.00
  -3  13  -2  138.79    8.30
  -4 -13  -2   99.69    8.00
  -4 -13  -2   91.59    7.10
  -4  13   2   99.39    6.70
  -4 -13  -2   88.19    9.40
  -4 -13   2   84.29    8.20
  -4  13  -2   94.09    6.50
  -4 -13   2   77.19    6.80
  -4 -13   2   81.59    8.80
  -5 -13  -2   12.70    3.20
  -5 -13  -2   13.80    3.90
  -5  13   2   13.60    2.50
  -5 -13   2    7.90    3.20
  -5  13  -2   10.20    2.10
  -5 -13   2   16.60    4.60
   0 -14  -2    3.50    2.80
   0 -14   2    4.60    3.20
   0 -14   2    1.00    3.10
   0 -14   2    1.00    2.20
   0 -14  -2    3.10    2.40
  -1  14   2   74.59    6.90
   1 -14   2   73.49    6.60
  -1 -14  -2   76.59    7.50
  -1 -14  -2   68.49    6.00
   1 -14   2   84.69    8.30
  -1 -14  -2   72.59    6.70
  -1 -14   2   77.59    6.90
  -1  14  -2   79.59    7.60
  -1 -14   2   82.59    7.00
   1 -14  -2   77.59    7.30
  -1 -14   2   83.79    6.50
  -1 -14   2   75.79    7.40
  -2 -14  -2  106.39    7.80
  -2  14   2  109.49    7.80
  -2 -14  -2  105.69    8.30
  -2 -14  -2  120.69    7.70
   2 -14   2  105.69    8.70
  -2 -14   2  123.29    8.40
  -2 -14   2  118.29    7.50
  -2 -14   2  129.59    8.40
  -2  14  -2  110.39    7.90
  -3 -14  -2  188.08   11.30
  -3 -14  -2  175.98   11.00
  -3  14   2  185.08   10.70
  -3 -14  -2  199.98   11.10
  -3  14  -2  216.68   10.90
  -3 -14   2  202.88   11.10
  -4 -14  -2   99.29    9.70
  -4 -14  -2   85.79    6.90
  -4  14   2   92.79    6.30
  -4 -14   2   91.09    7.90
  -4 -14   2   86.09    7.00
  -4  14  -2   94.69    6.30
  -5 -14  -2  168.48    9.40
  -5  14   2  168.38    9.00
  -5 -14   2  161.88    9.50
  -5  14  -2  177.38    8.90
   0 -15   2  240.88   12.10
   0 -15   2  231.98   13.00
   0 -15  -2  234.68   12.60
   0 -15   2  238.68   11.90
   0 -15  -2  231.18   11.80
   0 -15   2  232.68   12.80
  -1 -15  -2   -4.40    4.20
  -1 -15  -2    2.30    4.00
  -1 -15  -2    0.10    2.70
   1 -15   2    2.30    2.90
  -1 -15  -2    1.60    2.60
   1 -15   2   -5.30    3.90
  -1  15   2    2.10    2.90
  -1 -15   2   -3.90    3.10
   1 -15  -2   -0.90    2.50
  -1 -15   2   -0.80    2.60
   1 -15  -2    1.70    3.20
  -1 -15   2    5.70    3.40
  -1 -15   2    0.70    2.80
  -2 -15  -2    1.20    2.90
  -2  15   2    4.80    2.60
  -2 -15  -2   -1.40    2.60
  -2 -15  -2    1.50    3.60
  -2 -15   2    2.00    3.30
  -2 -15   2    5.90    3.10
  -2 -15   2    4.90    2.80
   2 -15  -2    3.10    3.10
  -2  15  -2   10.00    2.70
  -3  15   2    3.30    2.30
  -3 -15  -2    3.40    3.40
  -3 -15  -2    5.30    2.90
  -3 -15  -2    3.30    3.30
  -3 -15   2    8.70    3.50
  -3  15  -2    6.90    2.40
  -3 -15   2    5.10    3.40
   4 -15   2  129.49    7.20
  -4  15   2  119.99    7.10
  -4 -15  -2  119.29    7.50
  -4  15  -2  106.19    6.90
  -4 -15   2  105.79    7.70
  -4 -15   2  104.99    8.70
   0 -16   2    1.90    2.90
   0 -16  -2    0.10    2.60
   0 -16   2    0.50    2.80
   0 -16  -2    3.20    3.00
   0 -16   2   -0.20    3.20
   1 -16   2    4.60    3.30
  -1 -16  -2    7.50    2.70
  -1 -16  -2    8.00    3.00
   1 -16   2    9.80    2.70
   1 -16  -2    9.40    2.90
  -1 -16   2    1.10    2.70
  -1 -16   2   -1.90    3.90
  -1 -16   2    5.10    3.70
  -1 -16   2    5.20    2.60
   1 -16  -2    9.60    3.70
  -2 -16  -2   87.29    6.80
  -2  16   2   96.99    6.90
  -2 -16  -2   82.29    6.80
  -2 -16  -2   79.39    7.70
  -2  16  -2   86.79    6.80
  -2 -16   2   82.99    7.20
   2 -16  -2   96.49    7.40
   3 -16   2   35.20    4.40
  -3 -16  -2   37.40    5.90
  -3  16   2   40.10    4.70
  -3 -16   2   30.30    4.40
  -3  16  -2   26.90    4.30
  -3 -16   2   34.40    4.20
  -4 -16  -2   20.20    4.10
   4 -16   2   20.90    3.20
  -4  16   2   26.70    3.80
  -4  16  -2   24.60    3.50
  -4 -16   2   19.00    3.80
   0 -17   2    5.30    3.00
   0 -17  -2   10.20    2.80
   0 -17  -2    8.70    3.60
   0 -17  -2    3.10    3.00
   0 -17   2   12.10    3.20
  -1 -17  -2   24.90    3.60
  -1 -17  -2   23.00    3.60
   1 -17   2   27.00    3.60
   1 -17   2   24.30    4.30
  -1 -17   2   37.10    5.40
   1 -17  -2   36.40    5.50
  -1 -17   2   33.80    5.00
   1 -17  -2   27.10    4.70
  -2  17   2   73.59    7.00
  -2 -17  -2   61.79    5.70
  -2 -17  -2   68.99    6.00
   2 -17   2   58.99    5.40
  -2 -17   2   76.19    7.00
   2 -17  -2   84.49    8.00
   3 -17   2    6.40    2.40
  -3  17   2    7.80    2.70
  -3 -17  -2    3.10    3.70
  -3  17  -2    8.70    2.80
  -3 -17   2    6.00    3.60
  -3 -17   2    6.00    3.40
   0 -18  -2   12.40    3.30
   0 -18   2   10.50    3.90
   0 -18  -2    9.50    3.20
   0 -18  -2   17.60    4.50
   1 -18   2   46.00    5.00
  -1 -18  -2   33.90    4.80
  -1 -18  -2   34.00    5.10
   1 -18  -2   33.80    4.90
   1 -18  -2   33.10    4.30
   2 -18   2   28.80    3.90
   2 -18  -2   30.20    4.30
  -2 -18   2   26.90    3.50
   0 -19  -2   20.90    3.60
  -1 -19   2   57.29    5.20
   0   0   3    2.70    0.70
  -1   0  -3 9999.00  393.86
   1   0   3 9948.10  394.26
   1   0  -3 9686.63  394.46
  -1   0   3 9718.03  394.46
  -2   0   3    4.70    1.60
   2   0  -3    4.80    1.10
  -2   0  -3    6.90    1.00
  -2   0  -3    5.20    0.70
   2   0  -3    6.00    1.10
   3   0  -3  735.73   28.40
   3   0  -3  763.32   28.40
  -3   0   3  656.83   34.80
  -3   0   3  700.43   30.80
  -3   0  -3  718.33   30.50
  -3   0   3  660.43   33.00
  -3   0  -3  725.23   28.00
  -3   0  -3  679.03   33.00
  -4   0   3   11.70    3.00
  -4   0  -3   15.50    3.00
  -4   0  -3   12.20    2.60
  -4   0   3   16.50    4.30
  -4   0  -3   12.30    3.00
  -4   0   3   11.40    2.50
  -4   0  -3   18.40    2.40
  -5   0  -3  335.47   19.60
  -5   0  -3  339.07   18.30
  -5   0  -3  352.16   17.30
  -5   0   3  359.66   15.50
  -5   0   3  375.16   18.80
  -5   0  -3  363.96   15.40
  -5   0   3  375.66   19.70
  -6   0   3  226.38   13.30
  -6   0  -3  223.28   13.20
  -6   0  -3  219.38   10.80
  -6   0   3  232.38   10.90
  -6   0   3  213.48   14.50
  -6   0  -3  236.78   13.40
  -6   0  -3  238.38   14.20
  -7   0   3   29.50    3.90
  -7   0   3   36.70    5.30
  -7   0  -3   23.40    4.60
   0   1   3 3810.32  153.58
   0   1  -3 3768.02  154.08
   0   1  -3 3794.52  154.38
   0  -1  -3 3954.20  153.18
  -1   1   3  705.63   29.70
   1   1  -3  735.33   29.70
   1   1  -3  709.73   29.80
  -1  -1  -3  692.03   29.60
  -1   1  -3  783.52   29.70
  -1   1  -3  735.83   29.70
   1  -1  -3  741.03   29.80
   1   1   3  743.93   29.70
  -2  -1  -3  578.74   22.10
   2   1  -3  531.45   22.40
   2   1  -3  556.94   22.40
   2  -1  -3  526.05   22.30
   2   1   3  532.15   22.20
  -2  -1   3  527.65   23.30
  -2   1  -3  528.25   21.90
  -2   1  -3  560.74   21.90
   3   1  -3  203.98    8.70
  -3   1   3  217.58   10.70
  -3  -1  -3  207.08   10.70
  -3  -1  -3  194.38    9.10
  -3   1   3  181.88   11.50
  -3  -1  -3  212.78    9.90
   3   1  -3  206.68    8.80
  -3   1   3  205.98   10.80
   3  -1  -3  220.98    8.30
  -3   1  -3  201.28    8.90
  -3   1  -3  200.58   10.10
  -3  -1   3  187.88   10.30
  -3   1  -3  191.08   10.90
  -3  -1   3  191.88   10.60
  -4  -1  -3   56.59    5.10
  -4   1   3   57.49    6.20
  -4   1   3   50.99    5.10
  -4  -1  -3   48.80    5.10
  -4   1   3   52.69    6.60
  -4  -1  -3   51.79    4.40
  -4  -1   3   47.50    5.40
  -4   1  -3   60.99    5.80
  -4  -1   3   45.60    6.70
  -4   1  -3   49.70    5.80
  -4   1  -3   54.79    5.80
  -4   1  -3   55.09    4.00
  -4  -1   3   48.40    6.40
  -4   1  -3   54.89    5.30
  -5   1   3    7.30    3.50
  -5  -1  -3    6.10    3.10
  -5  -1  -3    4.00    2.80
  -5   1   3    7.30    3.10
  -5  -1  -3    5.40    2.40
  -5  -1  -3    4.40    3.20
  -5   1   3    3.10    1.80
  -5   1  -3    4.20    3.20
  -5  -1   3   -2.50    3.60
  -5   1  -3    4.90    2.90
  -5  -1   3    5.90    2.70
  -5   1  -3    4.80    3.40
  -5  -1   3    4.30    2.10
  -5   1  -3    2.90    1.90
  -6  -1  -3  168.28   11.30
  -6   1   3  146.49    8.10
  -6   1   3  139.89   10.40
  -6  -1  -3  144.09   10.30
  -6   1   3  148.39   11.30
  -6  -1  -3  161.98   10.30
  -6   1  -3  155.58   10.80
  -6   1  -3  175.88   11.50
  -6  -1   3  166.18    8.30
  -6  -1   3  148.49   10.30
  -6   1  -3  163.48    8.20
  -7   1   3   26.20    3.30
  -7   1   3   27.10    5.40
  -7  -1  -3   34.60    6.00
  -7  -1   3   40.10    6.20
  -7   1  -3   24.50    4.70
  -7  -1   3   27.50    3.40
   0  -2  -3  622.14   25.30
   0   2   3  620.84   25.20
   0  -2   3  620.74   25.40
   0   2  -3  595.84   25.30
   1   2  -3  656.73   25.80
  -1   2   3  643.74   25.60
  -1  -2  -3  626.64   25.60
   1  -2  -3  604.74   25.70
  -1   2  -3  631.64   25.60
  -1   2  -3  591.84   25.60
   1   2   3  619.84   25.60
   2   2  -3  408.26   18.20
  -2  -2  -3  396.26   18.00
   2   2  -3  436.96   18.20
   2  -2  -3  457.65   18.20
  -2   2  -3  442.46   17.90
  -2   2  -3  455.75   17.90
   2   2   3  442.76   18.00
  -2  -2   3  430.26   19.00
  -3  -2  -3  413.76   18.70
  -3   2   3  367.46   21.00
  -3   2   3  446.16   19.20
  -3  -2  -3  365.06   20.00
  -3   2   3  392.26   20.10
   3   2  -3  411.76   17.60
   3   2  -3  397.96   17.40
   3  -2  -3  424.56   17.10
   3   2   3  402.56   17.00
  -3   2  -3  447.36   17.00
  -3  -2   3  428.16   20.20
   3  -2  -3  458.05   17.20
  -3   2  -3  421.86   18.60
  -3  -2   3  402.26   17.90
  -3  -2   3  436.06   19.30
  -3  -2   3  431.86   18.80
  -3   2  -3  403.26   19.10
  -4   2   3   66.39    4.20
  -4   2   3   67.89    7.00
  -4   2   3   63.09    7.70
  -4   2   3   70.49    6.40
  -4   2   3   73.19    6.10
  -4  -2  -3   65.79    5.50
  -4  -2  -3   62.99    4.90
  -4  -2  -3   66.29    5.50
  -4  -2   3   73.19    6.00
  -4  -2   3   62.59    6.30
  -4  -2   3   59.89    8.20
  -4  -2   3   70.19    7.40
  -4   2  -3   65.39    4.30
  -4   2  -3   66.79    5.70
  -4   2  -3   56.69    5.70
  -4   2  -3   69.89    6.10
  -4   2  -3   55.99    6.60
  -5   2   3   46.40    6.10
  -5  -2  -3   37.60    4.50
  -5  -2  -3   40.00    6.50
  -5   2   3   34.80    5.90
  -5   2   3   42.80    3.80
  -5  -2  -3   33.80    5.20
  -5  -2  -3   36.80    4.80
  -5  -2   3   29.50    4.70
  -5   2  -3   33.00    3.70
  -5   2  -3   27.40    4.60
  -5  -2   3   38.50    5.40
  -5  -2   3   28.50    5.10
  -5   2  -3   32.10    4.70
  -5   2  -3   23.90    4.10
  -5   2  -3   33.90    4.00
  -6  -2  -3   70.79    8.00
  -6  -2  -3   71.09    7.70
  -6   2   3   73.69    8.10
  -6  -2  -3   64.89    6.70
  -6   2   3   63.39    5.00
  -6   2  -3   74.29    5.30
  -6  -2   3   78.99    7.10
  -6  -2   3   70.59    5.30
  -6   2  -3   65.09    7.10
  -7  -2  -3   34.50    6.50
  -7  -2  -3   37.70    5.40
  -7   2   3   37.80    4.00
  -7  -2   3   39.80    4.60
  -7  -2   3   40.20    5.80
  -7   2  -3   32.10    6.00
   0   3   3 1742.13   70.09
   0  -3   3 1858.81   70.39
   0   3  -3 1739.63   70.19
   0  -3  -3 1613.14   70.09
   1  -3  -3   16.60    2.40
  -1  -3   3   16.40    2.60
  -1   3  -3   16.30    2.10
   1   3   3   15.90    1.90
  -1  -3   3   15.60    1.80
   2   3  -3  137.49    7.20
  -2   3   3  143.79    7.20
  -2  -3  -3  143.99    7.50
  -2  -3  -3  133.59    7.50
  -2  -3   3  164.58    7.90
   2   3   3  164.08    7.10
   2  -3  -3  160.88    7.30
  -2   3  -3  156.28    7.00
  -2   3  -3  146.49    8.90
  -3   3   3  436.76   22.50
  -3   3   3  520.35   23.90
  -3  -3  -3  508.85   22.70
   3   3  -3  494.25   20.30
  -3   3   3  486.45   19.20
  -3  -3  -3  491.45   19.80
  -3   3   3  450.95   21.30
  -3  -3  -3  489.55   21.10
   3   3  -3  535.15   20.10
  -3   3   3  441.86   21.70
  -3   3   3  434.66   19.80
  -3  -3   3  498.25   21.20
  -3   3  -3  428.26   21.40
  -3   3  -3  519.25   24.10
  -3   3  -3  441.06   20.80
  -3  -3   3  449.26   22.70
   3   3   3  456.35   19.70
  -3  -3   3  446.36   19.80
   3  -3  -3  466.75   19.80
  -3  -3   3  430.66   21.30
  -3   3  -3  456.85   19.10
  -4   3   3   42.40    5.90
  -4   3   3   43.00    5.40
  -4  -3  -3   52.99    4.70
  -4  -3  -3   42.60    4.60
  -4   3   3   59.19    8.00
  -4   3   3   50.29    3.70
  -4   3   3   51.79    5.90
  -4  -3  -3   44.70    4.90
  -4  -3   3   62.29    5.30
  -4  -3   3   54.69    7.70
  -4  -3   3   68.49    5.80
  -4   3  -3   51.09    5.70
  -4   3  -3   62.79    5.70
  -4   3  -3   54.79    5.00
  -5  -3  -3  335.97   17.60
  -5   3   3  325.67   18.30
  -5   3   3  327.17   17.10
  -5   3   3  344.37   14.90
  -5  -3  -3  340.17   16.50
  -5   3   3  355.16   18.10
  -5   3  -3  334.27   16.70
  -5  -3   3  352.26   19.20
  -5  -3   3  334.87   16.90
  -5   3  -3  350.76   14.70
  -5  -3   3  331.87   17.80
  -5   3  -3  321.97   18.50
  -6  -3  -3   26.90    4.70
  -6   3   3   32.40    5.20
  -6   3   3   38.70    4.00
  -6  -3  -3   31.50    4.80
  -6  -3   3   39.00    4.40
  -6   3  -3   46.20    6.00
  -6  -3   3   40.90    5.60
  -6   3  -3   42.80    4.30
  -7  -3  -3   10.60    4.70
  -7   3   3   16.30    2.80
  -7  -3  -3   12.70    4.20
  -7  -3   3   13.50    3.60
  -7  -3   3   11.70    3.50
  -7   3  -3   17.50    4.20
  -7   3  -3   12.30    3.40
   0  -4   3 2368.66   94.79
   0   4   3 2396.76   94.49
   0  -4  -3 2329.87   94.59
   0   4  -3 2256.67   94.49
   0  -4   3 2374.76   94.99
  -1   4   3  614.84   25.10
  -1  -4  -3  570.44   25.30
   1  -4   3  611.84   25.40
   1   4  -3  615.74   25.20
  -1   4  -3  583.14   25.00
   1   4   3  607.34   25.10
  -1  -4   3  602.74   25.60
  -1  -4   3  594.74   25.20
   1  -4  -3  603.64   25.20
  -2   4   3  295.17   14.80
  -2   4   3  289.57   11.90
  -2  -4  -3  268.87   13.30
  -2  -4  -3  276.37   13.10
  -2  -4  -3  292.77   14.10
   2   4  -3  319.27   13.00
   2  -4   3  281.87   13.10
  -2   4   3  278.97   12.70
  -2  -4   3  290.67   13.20
  -2  -4   3  251.47   14.20
  -2   4  -3  290.07   12.60
   2  -4  -3  274.97   13.00
  -2   4  -3  276.57   12.60
  -2  -4   3  267.07   13.90
   2   4   3  281.37   12.60
  -2  -4   3  302.17   12.50
  -2   4  -3  291.27   11.80
  -3   4   3  590.84   26.00
  -3  -4  -3  643.74   27.90
  -3   4   3  611.34   28.70
  -3   4   3  612.94   31.50
  -3   4   3  642.04   28.10
  -3   4   3  596.94   30.10
   3   4  -3  641.24   27.00
  -3  -4  -3  682.43   30.20
  -3   4   3  636.24   25.60
  -3   4  -3  664.33   25.50
   3   4   3  648.54   26.70
  -3   4  -3  632.94   28.70
   3  -4  -3  587.64   26.80
  -3  -4   3  675.63   26.20
  -3  -4   3  642.84   27.90
  -3   4  -3  708.93   31.90
  -3   4  -3  622.84   27.70
  -3  -4   3  622.14   30.20
  -4  -4  -3  100.69    6.30
  -4  -4  -3  111.29    6.70
  -4   4   3   94.29    6.90
  -4   4   3   80.69    7.00
  -4   4   3  103.59    5.50
  -4   4   3  103.39    9.60
  -4   4   3   91.99    6.80
  -4   4  -3   86.19    5.20
  -4   4  -3   93.39    6.90
  -4  -4   3   70.99    8.20
  -4  -4   3   91.69    6.70
  -4   4  -3   99.49    7.20
  -4  -4   3   87.29    6.90
  -4   4  -3   75.59    6.20
  -5  -4  -3  175.08   10.50
  -5   4   3  175.78    8.60
  -5  -4  -3  173.48   10.00
  -5   4   3  180.98   11.60
  -5   4   3  187.38   11.20
  -5   4   3  171.78   10.50
  -5  -4   3  161.28   12.60
  -5   4  -3  154.58    9.80
  -5  -4   3  170.18   10.80
  -5   4  -3  188.38   11.20
  -5  -4   3  169.98   10.60
  -5   4  -3  167.08    8.40
  -6  -4  -3  126.59    9.90
  -6   4   3  113.69    6.40
  -6  -4  -3  112.49    8.50
  -6  -4  -3  114.49    8.20
  -6  -4   3  101.99    8.00
  -6  -4   3  107.29    6.70
  -6   4  -3   90.79    8.40
  -6   4  -3  104.69    6.30
  -7   4   3    7.70    2.40
  -7  -4  -3    5.20    3.60
  -7  -4  -3    3.40    5.10
  -7  -4   3    4.30    3.30
   0  -5  -3 2004.20   81.79
   0   5  -3 2063.19   81.69
   0   5   3 1984.60   81.49
   0  -5   3 2000.70   81.89
  -1   5   3  405.66   17.10
   1  -5   3  412.46   17.80
  -1  -5  -3  392.76   17.70
   1   5  -3  395.66   17.20
   1   5   3  391.96   17.10
   1  -5  -3  378.86   17.50
  -1  -5   3  380.66   17.80
  -1   5  -3  382.76   17.20
   2   5  -3  570.14   24.30
  -2   5   3  537.95   25.50
  -2   5   3  536.65   23.00
  -2   5   3  568.64   22.60
  -2  -5  -3  554.14   24.70
  -2  -5  -3  550.94   26.60
  -2   5   3  556.24   24.10
   2  -5   3  567.24   24.60
  -2  -5   3  606.74   26.90
  -2   5  -3  550.64   28.00
  -2   5  -3  548.35   24.50
  -2   5  -3  553.94   24.00
  -2  -5   3  591.64   23.50
   2  -5  -3  613.24   24.70
   2   5   3  550.94   24.00
  -2   5  -3  582.44   22.60
  -2   5  -3  567.74   25.40
  -3  -5  -3   81.69    7.50
  -3  -5  -3  106.89    6.20
  -3   5   3   86.89    6.50
  -3  -5  -3  102.89    6.30
  -3   5   3   99.49    5.20
  -3   5   3  105.89    6.50
   3   5  -3  103.89    6.70
  -3  -5  -3  102.69    7.10
  -3   5   3   97.19    6.20
  -3   5   3   81.99    7.10
  -3   5   3   99.89    7.30
  -3  -5   3   94.79    6.60
   3   5   3   86.49    6.30
  -3   5  -3   89.69    4.90
  -3  -5   3   89.69    6.20
  -3  -5   3   91.09    6.40
  -3   5  -3   85.59    6.30
  -3   5  -3   82.69    5.80
  -4   5   3  132.19    6.40
  -4   5   3  134.29    8.40
  -4   5   3  105.29    7.60
  -4  -5  -3  132.09    7.70
  -4  -5  -3  121.89    7.90
  -4   5   3  113.19    8.70
  -4  -5   3  113.39    7.70
  -4  -5   3  126.29    8.30
  -4  -5   3  113.59    8.60
  -4   5  -3  124.09    7.50
  -4   5  -3  123.09    6.30
  -4   5  -3  103.29    7.90
  -5   5   3  188.78    9.30
  -5  -5  -3  192.08   10.80
  -5  -5  -3  184.48   11.20
  -5   5   3  178.78   11.00
  -5   5   3  191.98   12.80
  -5   5  -3  208.58   12.10
  -5  -5   3  199.88   11.50
  -5  -5   3  177.38   11.20
  -5   5  -3  201.78   10.70
  -5   5  -3  186.58    9.10
  -6   5   3   57.19    4.50
  -6  -5  -3   61.49    8.00
  -6  -5  -3   63.09    6.60
  -6  -5  -3   58.19    6.00
  -6   5  -3   44.50    4.30
  -6   5  -3   39.00    6.30
  -6  -5   3   44.00    5.10
  -6  -5   3   38.60    5.90
  -6  -5   3   46.60    6.00
  -6   5  -3   47.00    6.10
  -7   5   3   37.80    3.60
  -7  -5  -3   46.30    5.90
  -7  -5  -3   39.90    6.60
  -7  -5   3   29.80    5.00
   0   6   3  543.95   23.10
   0  -6   3  518.35   23.80
   0  -6  -3  536.95   23.80
   0   6  -3  543.35   23.20
   1  -6   3  653.13   27.90
  -1  -6  -3  611.44   29.70
  -1  -6  -3  608.14   27.50
   1   6  -3  654.63   27.30
  -1   6   3  668.33   27.20
  -1   6   3  621.54   25.50
  -1   6  -3  641.44   27.20
   1   6   3  655.53   27.10
   1  -6  -3  620.54   27.90
  -1  -6   3  623.94   26.10
  -2  -6  -3   98.09    6.40
  -2   6   3  100.49    5.40
  -2  -6  -3   96.69    6.20
  -2   6   3  101.29    6.20
  -2   6   3  103.99    6.50
  -2  -6  -3   98.09    6.60
   2  -6   3   97.59    9.50
  -2   6   3   98.29    6.80
   2   6  -3   88.29    6.60
   2   6   3  117.29    6.40
   2  -6  -3  114.39    8.90
  -2   6  -3  118.19    5.30
  -2  -6   3  114.69    7.00
  -2   6  -3  114.19    7.10
  -2   6  -3  112.69    7.00
  -2   6  -3  120.49    6.70
  -2  -6   3  118.79    6.00
  -3  -6  -3  567.04   28.40
  -3   6   3  608.24   24.20
  -3  -6  -3  598.74   26.60
   3   6  -3  574.34   26.30
  -3   6   3  593.94   24.60
  -3   6   3  642.84   27.40
  -3  -6  -3  607.94   26.50
  -3   6   3  581.94   28.70
  -3   6   3  620.54   26.90
  -3  -6  -3  605.24   25.20
  -3   6  -3  586.34   24.10
  -3  -6   3  563.24   28.50
  -3  -6   3  572.54   26.40
  -3   6  -3  646.84   30.20
  -3   6  -3  591.84   27.10
   3   6   3  567.84   26.10
  -3  -6   3  623.94   24.80
  -4   6   3   42.80    5.30
  -4  -6  -3   46.70    5.10
  -4   6   3   47.40    3.80
  -4  -6  -3   50.59    4.70
  -4  -6  -3   45.90    5.40
  -4   6  -3   42.40    4.90
  -4   6  -3   35.00    3.50
  -4  -6   3   38.50    4.90
  -4  -6   3   47.90    6.50
  -4  -6   3   43.00    5.50
  -4   6  -3   40.20    4.90
  -5  -6  -3  127.79    8.50
  -5   6   3  127.29    8.50
  -5  -6  -3  121.19    8.30
  -5   6   3  114.59    6.80
  -5   6  -3  135.19    8.10
  -5   6  -3  123.99    9.10
  -5  -6   3  131.59    8.90
  -5  -6   3  119.39    8.70
  -5   6  -3  128.89    6.80
  -6  -6  -3  107.49    9.80
  -6  -6  -3  106.19    7.90
  -6   6   3  109.89    8.70
  -6   6   3  108.79    6.30
  -6  -6  -3  106.19    7.90
  -6  -6   3  110.69    7.10
  -6   6  -3  104.19    7.80
  -6  -6   3  113.19    8.00
  -6   6  -3  107.89    6.20
  -6  -6   3  102.19    9.20
  -7  -6  -3   20.50    4.10
  -7   6   3   13.70    2.50
  -7  -6   3   19.10    3.50
   0   7  -3   -1.50    1.80
   0   7   3    0.00    1.80
   0  -7   3   -2.20    1.30
   1   7  -3 1732.83   68.99
  -1  -7  -3 1704.13   76.39
  -1   7   3 1678.53   64.99
  -1  -7  -3 1553.24   70.19
   1  -7   3 1616.54   69.69
  -1  -7  -3 1663.33   70.49
  -1   7   3 1750.22   68.79
  -1   7   3 1631.04   72.99
  -1   7  -3 1600.84   72.89
  -1  -7   3 1653.83   70.39
  -1  -7   3 1730.13   67.09
   1   7   3 1660.03   68.69
   1  -7  -3 1688.43   69.59
  -1   7  -3 1755.22   68.89
  -2  -7  -3  399.76   18.40
  -2   7   3  383.36   15.50
  -2  -7  -3  382.76   17.20
  -2   7   3  373.86   17.60
   2   7  -3  398.16   17.80
  -2   7   3  379.56   17.70
  -2  -7  -3  384.76   17.10
  -2   7   3  391.26   17.00
  -2   7  -3  353.46   17.60
  -2   7  -3  369.16   15.40
  -2   7  -3  360.66   17.40
   2   7   3  373.36   17.40
  -2  -7   3  345.17   18.50
  -2  -7   3  358.76   16.10
  -2  -7   3  353.46   17.10
  -3   7   3    7.80    3.90
   3   7  -3   10.40    4.30
  -3  -7  -3   12.20    2.90
  -3   7   3    9.60    2.00
  -3  -7  -3    8.60    2.30
  -3  -7  -3   10.00    2.50
  -3  -7  -3    9.70    2.50
  -3   7   3    9.30    2.30
  -3   7  -3   16.00    2.90
  -3   7  -3   17.20    2.60
  -3  -7   3   17.40    3.00
  -3   7  -3   13.90    2.30
  -3  -7   3   17.40    3.00
  -3  -7   3   16.90    3.00
   3   7   3   12.40    3.90
  -4   7   3  127.29    8.40
  -4  -7  -3  140.69    8.80
  -4   7   3  138.29    7.10
  -4  -7  -3  149.39   10.30
  -4  -7  -3  139.99    8.50
  -4  -7   3  141.09    8.80
  -4   7  -3  135.19    9.10
  -4   7  -3  138.39    7.00
  -4  -7   3  142.39    9.20
  -4  -7   3  138.29    9.20
  -4   7  -3  132.59    8.20
  -5   7   3  120.79    8.10
  -5  -7  -3  119.09    8.10
  -5  -7  -3  119.69    8.50
  -5   7   3  118.69    6.70
  -5   7  -3  126.79    8.00
  -5   7  -3  116.19    6.60
  -5  -7   3  120.29    8.60
  -5   7  -3  117.39    8.80
  -5  -7   3  115.69    8.50
  -6  -7  -3   39.70    6.20
  -6  -7  -3   50.29    5.70
  -6  -7  -3   41.20    5.30
  -6   7   3   47.70    6.20
  -6   7   3   38.50    3.90
  -6  -7   3   40.50    5.50
  -6  -7   3   39.50    5.40
  -6   7  -3   37.80    5.40
  -6   7  -3   38.10    3.80
  -7  -7  -3   74.99    6.50
  -7   7   3   77.19    4.60
   0   8  -3  827.42   35.30
   0  -8   3  830.02   33.40
   0  -8  -3  817.32   35.20
   0  -8   3  806.92   35.30
   0   8   3  852.61   35.20
   0  -8  -3  774.92   35.10
  -1  -8  -3  214.58   11.20
  -1   8   3  194.98   11.10
  -1   8   3  199.28   10.60
  -1   8   3  207.08    9.20
   1   8  -3  212.78   11.30
  -1  -8  -3  213.58   10.30
  -1  -8  -3  221.98   10.50
  -1   8  -3  221.58   10.70
  -1   8  -3  206.78   11.30
   1   8   3  211.78   11.10
  -1  -8   3  185.58   11.80
  -1  -8   3  206.28   10.50
   1  -8  -3  201.88   10.30
  -1  -8   3  204.98    9.60
  -2   8   3  182.38   12.70
  -2  -8  -3  186.28   10.40
  -2   8   3  181.28   10.60
   2   8  -3  197.78   12.00
  -2   8   3  197.28   10.80
  -2  -8  -3  202.68   10.60
  -2   8   3  200.68    9.20
  -2  -8   3  217.08   11.40
  -2  -8   3  224.38   10.70
  -2   8  -3  231.28   12.90
  -2   8  -3  231.98   10.80
   2  -8  -3  199.48   11.00
  -2  -8   3  220.08    9.90
  -2  -8   3  203.88   11.50
   2   8   3  219.28   11.50
  -3   8   3    3.30    1.70
  -3  -8  -3    1.60    2.10
  -3  -8  -3    4.20    2.20
  -3  -8  -3    6.20    2.70
  -3   8   3    2.20    2.00
   3   8  -3    7.30    5.10
  -3  -8  -3    1.50    2.40
  -3   8  -3    3.60    1.90
  -3  -8   3    4.30    2.60
   3   8   3    2.40    5.10
  -3  -8   3    3.80    2.20
  -3  -8   3    4.70    2.50
  -3   8  -3    5.60    1.60
  -4   8   3  108.79    7.40
  -4   8   3  106.89    6.00
  -4  -8  -3  112.19    7.20
  -4  -8  -3  108.29    9.10
  -4  -8  -3  105.09    7.70
  -4   8  -3   94.49    5.70
  -4  -8   3  105.39    7.80
  -4  -8   3  105.69    8.00
  -4   8  -3  105.49    7.10
  -4  -8   3   93.89    7.40
  -5  -8  -3    7.10    3.10
  -5  -8  -3    5.40    3.00
  -5   8   3    7.50    2.30
  -5   8   3    1.80    2.40
  -5   8  -3    4.00    1.90
  -5   8  -3    4.00    2.40
  -5  -8   3    7.60    3.20
  -5  -8   3    3.40    3.20
  -6   8   3    7.90    3.10
  -6   8   3    3.70    2.00
  -6  -8  -3    2.70    2.90
  -6  -8  -3    2.90    4.90
  -6  -8  -3    7.50    3.30
  -6   8  -3    5.70    2.70
  -6  -8   3    7.10    3.20
  -6  -8   3    9.70    4.50
  -7  -8  -3   33.40    4.50
  -7  -8   3   31.00    4.80
   0  -9  -3 1339.77   57.39
   0  -9  -3 1315.47   57.49
   0   9  -3 1358.66   57.19
   0   9  -3 1328.67   59.59
   0   9   3 1355.46   59.59
   0  -9   3 1405.86   54.79
   0  -9   3 1345.37   57.49
   0   9   3 1399.96   57.19
   1   9  -3  736.43   32.90
  -1  -9  -3  752.12   32.30
  -1   9   3  768.42   33.10
  -1  -9  -3  735.93   34.80
  -1   9   3  737.63   33.30
  -1  -9  -3  722.13   32.10
   1  -9   3  732.43   32.40
   1   9   3  782.82   33.10
  -1  -9   3  769.22   30.60
   1  -9  -3  705.53   32.00
  -1   9  -3  728.73   33.20
  -1  -9   3  731.53   32.20
  -1   9  -3  717.23   32.80
  -2  -9  -3    0.30    2.00
  -2   9   3    3.50    1.70
  -2   9   3    0.20    1.70
  -2  -9  -3    0.40    2.20
  -2  -9  -3   -0.10    2.00
  -2  -9  -3    0.80    1.70
   2   9  -3   -4.20    4.30
  -2   9  -3    0.70    1.70
   2  -9  -3    2.20    2.80
  -2  -9   3    2.40    3.40
  -2  -9   3    1.00    1.60
  -2  -9   3   -0.60    2.70
   2   9   3    2.50    4.30
  -2  -9   3    0.70    2.10
  -3   9   3  251.87   13.00
  -3  -9  -3  244.98   13.60
  -3  -9  -3  240.68   13.10
  -3  -9  -3  241.58   12.90
  -3   9   3  243.58   11.30
  -3  -9  -3  243.48   12.30
  -3   9  -3  270.27   13.00
  -3  -9   3  264.17   13.30
  -3  -9   3  267.17   13.80
  -3  -9   3  251.37   12.90
  -3   9  -3  251.97   11.20
  -4  -9  -3  161.18    9.90
  -4   9   3  158.58    9.30
  -4   9   3  155.58    7.80
  -4  -9  -3  158.98   10.60
  -4  -9  -3  165.08    9.30
  -4  -9   3  139.79    9.60
  -4   9  -3  141.79    8.90
  -4  -9   3  140.29    9.70
  -4  -9   3  149.79    9.50
  -4   9  -3  138.99    7.60
  -5   9   3   37.80    4.80
  -5  -9  -3   25.80    4.30
  -5   9   3   28.20    3.60
  -5  -9  -3   24.80    4.20
  -5  -9   3   30.80    4.60
  -5   9  -3   34.80    4.60
  -5  -9   3   43.20    5.60
  -6  -9  -3    8.20    3.10
  -6  -9  -3    7.30    3.10
  -6   9   3    3.80    2.00
  -6  -9  -3    6.70    5.70
  -6   9   3    9.10    2.90
  -6  -9   3    4.90    4.20
  -6  -9   3    6.40    3.30
  -6   9  -3    5.90    2.40
   0 -10  -3  280.97   13.20
   0 -10  -3  269.27   13.40
   0 -10   3  260.17   13.10
   0  10   3  267.87   15.70
   0 -10   3  281.37   12.40
   0  10  -3  284.07   14.30
   0  10   3  254.37   13.80
   0  10  -3  265.67   15.80
  -1 -10  -3   10.90    2.90
   1 -10   3   11.20    2.40
   1 -10   3   11.30    3.30
  -1  10   3    8.70    2.20
  -1  10   3   10.40    5.50
   1  10  -3    8.50    4.70
  -1 -10  -3    9.60    2.30
  -1 -10  -3   12.50    2.80
  -1  10  -3   18.40    5.70
  -1 -10   3   15.30    2.30
   1  10   3   22.30    5.40
  -1 -10   3   17.90    3.00
  -1  10  -3   16.10    2.50
   2 -10   3   64.59    6.30
  -2 -10  -3   68.79    6.30
  -2  10   3   64.19    4.40
  -2 -10  -3   61.89    5.10
  -2  10   3   67.69    5.60
  -2 -10  -3   65.09    5.70
  -2 -10  -3   60.19    5.80
  -2  10  -3   59.29    5.40
   2 -10  -3   49.30    4.90
  -2 -10   3   64.79    5.90
  -2 -10   3   57.39    5.00
  -2 -10   3   54.89    5.00
  -2 -10   3   52.49    7.90
  -2 -10   3   62.19    6.60
  -3 -10  -3   80.79    6.60
  -3  10   3   84.49    5.30
  -3 -10  -3   74.19    7.20
  -3 -10  -3   84.99    6.60
  -3 -10  -3   85.69    7.20
  -3  10   3   83.09    6.60
  -3 -10   3  103.09    7.10
  -3 -10   3   90.79    7.50
  -3  10  -3  103.19    6.70
  -3 -10   3  104.79    6.80
  -4  10   3  169.78   10.40
  -4 -10  -3  182.98   11.60
  -4 -10  -3  170.38   11.20
  -4 -10  -3  168.48   10.40
  -4  10   3  172.58    9.00
  -4  10  -3  189.18   10.30
  -4 -10   3  208.78   11.00
  -4 -10   3  199.78   10.80
  -4 -10   3  195.08   11.30
  -5  10   3   62.29    5.70
  -5  10   3   64.59    4.70
  -5 -10  -3   69.99    6.60
  -5 -10  -3   62.39    6.00
  -5  10  -3   62.49    5.50
  -5 -10   3   51.29    6.30
  -5 -10   3   57.09    6.50
  -6  10   3   28.20    4.70
  -6 -10  -3   21.60    7.10
  -6 -10  -3   36.60    4.90
  -6 -10  -3   21.20    3.50
  -6  10  -3   26.10    4.30
  -6 -10   3   25.50    4.10
  -6 -10   3   24.70    4.70
   0  11   3    2.50    2.50
   0 -11   3   -0.70    1.90
   0 -11   3    0.30    2.40
   0 -11  -3    1.30    2.00
   0  11   3    3.70    7.20
   0 -11  -3    1.30    2.90
   0  11  -3   13.50    7.60
   1 -11   3    9.00    2.30
  -1  11   3    9.50    2.40
  -1  11   3   14.90    8.70
   1 -11   3    6.90    3.30
  -1 -11  -3    7.20    2.50
  -1 -11  -3    6.40    2.50
  -1 -11   3   12.60    2.30
  -1  11  -3   15.70    2.90
  -1 -11   3   10.50    2.70
  -1 -11   3   11.00    2.70
   1 -11  -3   12.50    2.90
  -2 -11  -3   58.89    5.90
  -2 -11  -3   63.99    6.10
  -2 -11  -3   62.99    5.10
   2 -11   3   64.49    6.60
  -2  11   3   60.19    5.80
  -2 -11  -3   58.69    6.60
  -2 -11   3   65.99    5.50
  -2 -11   3   75.49    8.20
   2 -11  -3   57.09    7.10
  -2 -11   3   77.09    6.10
  -2 -11   3   75.49    8.50
  -2 -11   3   72.09    5.30
  -2  11  -3   71.09    5.90
  -3 -11  -3   21.90    4.00
  -3  11   3   22.40    3.30
  -3 -11  -3   20.60    3.70
  -3 -11  -3   15.60    3.30
  -3 -11  -3   15.20    3.40
  -3  11   3   17.00    3.00
  -3 -11   3   19.00    4.20
  -3  11  -3   14.80    2.70
  -3 -11   3   18.00    3.60
  -4 -11  -3   70.59    7.00
  -4 -11  -3   69.09    6.70
  -4 -11  -3   64.89    6.30
  -4  11   3   63.79    4.90
  -4  11   3   59.69    5.80
  -4 -11  -3   54.39    7.70
  -4  11  -3   75.79    5.90
  -4 -11   3   74.29    6.40
  -4 -11   3   75.59    7.30
  -4 -11   3   78.09    7.60
  -5 -11  -3  215.18   12.60
  -5  11   3  213.08   11.70
  -5 -11  -3  216.98   11.80
  -5 -11   3  221.68   12.20
  -5 -11   3  219.38   12.90
  -5  11  -3  227.98   11.60
  -6  11   3    0.30    2.20
  -6 -11  -3   -1.10    3.10
  -6 -11  -3    0.40    3.20
  -6 -11   3    7.30    4.40
  -6  11  -3    0.50    2.10
  -6 -11   3    0.10    3.50
   0  12   3  576.54   27.00
   0 -12  -3  587.14   26.10
   0 -12  -3  564.84   26.40
   0 -12   3  590.74   24.90
   0 -12   3  577.34   26.20
  -1  12   3  239.28   12.40
   1 -12   3  236.38   11.40
  -1 -12  -3  233.18   12.30
  -1 -12  -3  247.48   12.10
   1 -12   3  219.68   12.70
  -1 -12   3  229.48   12.20
  -1 -12   3  218.48   11.20
  -1  12  -3  218.98   12.20
  -1 -12   3  220.68   11.50
   1 -12  -3  218.78   12.10
  -2 -12  -3   30.80    4.50
  -2 -12  -3   29.80    4.10
  -2  12   3   32.20    5.10
   2 -12   3   34.50    4.30
  -2 -12  -3   34.50    4.80
  -2 -12  -3   34.00    4.20
  -2  12  -3   44.40    5.10
  -2 -12   3   44.10    4.60
  -2 -12   3   49.00    5.80
  -2 -12   3   40.20    5.30
  -3 -12  -3  130.89    8.50
  -3 -12  -3  131.49    9.30
  -3  12   3  130.49    8.40
  -3 -12  -3  125.49    8.40
  -3 -12  -3  143.29    9.00
  -3 -12   3  117.99    8.40
  -3 -12   3  121.79    9.90
  -3  12  -3  111.39    7.80
  -4 -12  -3   53.79    7.60
  -4 -12  -3   57.39    6.30
  -4 -12  -3   52.49    6.40
  -4 -12  -3   59.59    6.20
  -4  12   3   56.89    5.60
  -4  12  -3   66.89    5.60
  -4 -12   3   63.99    6.30
  -4 -12   3   65.79    7.50
  -4 -12   3   68.89    7.40
  -5  12   3  134.49    8.00
  -5 -12  -3  136.19    8.30
  -5 -12  -3  133.89    8.90
  -5  12  -3  133.89    7.90
  -5 -12   3  136.19    9.70
  -5 -12   3  136.19    8.80
  -6  12   3   19.10    2.90
  -6  12  -3   20.80    3.50
   0 -13   3  128.29    8.90
   0 -13   3  134.99    7.70
   0 -13  -3  141.79    8.90
   1 -13   3   13.90    2.90
  -1 -13  -3   13.00    2.60
   1 -13   3   13.20    4.20
  -1  13   3   11.10    3.00
  -1 -13  -3   11.80    3.10
  -1 -13  -3   15.00    3.90
  -1 -13   3   21.30    3.80
  -1 -13   3   15.70    2.80
  -1 -13   3   21.60    3.50
  -1 -13   3   15.30    3.20
   2 -13   3  276.07   14.00
  -2  13   3  279.87   14.20
  -2 -13  -3  277.77   14.20
  -2 -13  -3  295.47   14.30
  -2 -13  -3  224.38   13.00
   2 -13  -3  284.37   15.10
  -2 -13   3  230.58   13.20
  -2 -13   3  272.17   14.10
  -2 -13   3  293.37   14.30
  -2  13  -3  280.17   14.00
  -3 -13  -3   83.09    7.80
  -3 -13  -3   72.19    7.00
  -3 -13  -3   66.39    7.20
  -3  13   3   73.29    6.40
  -3 -13  -3   65.09    6.80
  -3  13  -3   87.89    6.30
  -3 -13   3   84.09    6.70
  -4 -13  -3    9.00    3.20
  -4  13   3    7.10    2.50
  -4 -13  -3   14.50    3.90
  -4 -13  -3   11.10    5.60
  -4 -13   3    8.20    3.10
  -4  13  -3    8.50    2.40
  -4 -13   3    9.50    5.00
  -4 -13   3    6.10    3.60
  -5 -13  -3   61.69    5.40
  -5  13   3   55.89    4.70
  -5 -13   3   46.70    5.90
  -5  13  -3   58.19    4.60
  -5 -13   3   47.10    7.60
   0 -14   3   98.49    7.20
   0 -14   3   90.89    7.60
   0 -14   3   93.19    6.70
   0 -14  -3   98.49    7.30
   0 -14   3   87.99    7.70
   1 -14   3  215.08   13.60
  -1  14   3  221.98   12.70
  -1 -14  -3  213.28   11.70
   1 -14   3  228.38   12.00
  -1 -14  -3  217.58   12.50
  -1 -14  -3  215.18   12.90
  -1 -14   3  257.57   13.00
  -1 -14   3  248.38   12.00
  -1 -14   3  236.78   12.20
  -1 -14   3  256.97   12.80
  -1  14  -3  248.88   13.20
   1 -14  -3  256.67   12.80
  -2 -14  -3  156.38   10.00
  -2 -14  -3  169.48    9.50
  -2 -14  -3  159.28   10.00
  -2  14   3  168.48    9.80
  -2 -14   3  164.48    9.50
  -2 -14   3  154.78   10.00
  -2 -14   3  160.08    9.90
  -2  14  -3  168.58    9.70
  -3 -14  -3   44.30    5.10
  -3  14   3   38.50    4.90
  -3 -14  -3   38.60    5.70
  -3 -14  -3   38.50    5.70
  -3 -14   3   33.30    5.50
  -3  14  -3   40.40    4.90
  -3 -14   3   27.50    4.00
  -4 -14  -3  137.49    8.50
  -4  14   3  137.19    8.20
   4 -14   3  137.49    8.00
  -4 -14   3  136.19    8.70
  -4 -14   3  143.29    9.10
  -4  14  -3  130.89    8.00
  -5  14   3   22.70    3.50
  -5 -14  -3   12.90    3.40
  -5 -14   3   17.70    3.70
  -5  14  -3   16.10    2.50
   0 -15  -3  119.59    8.10
   0 -15   3  109.29    8.30
   0 -15   3  112.69    8.60
   0 -15   3  109.39    7.60
   0 -15   3  109.79    7.60
   0 -15  -3  110.59    7.50
   1 -15   3   30.90    4.20
  -1  15   3   26.80    3.80
  -1 -15  -3   30.60    5.30
  -1 -15  -3   38.90    5.60
  -1 -15  -3   37.20    5.00
  -1 -15   3   34.50    4.90
  -1 -15   3   35.90    5.80
  -1 -15   3   26.40    4.20
   1 -15  -3   40.60    6.10
  -1 -15   3   22.60    3.90
   1 -15  -3   36.70    4.90
  -2 -15  -3   35.90    5.00
  -2  15   3   36.40    5.30
  -2 -15  -3   45.30    5.40
  -2 -15  -3   42.30    5.30
  -2 -15   3   42.60    5.70
  -2  15  -3   40.10    5.60
  -2 -15   3   37.10    5.50
   2 -15  -3   44.40    5.70
  -3  15   3  110.19    7.20
  -3 -15  -3  107.59    7.90
  -3 -15  -3  105.29    7.80
  -3 -15  -3  117.69    8.10
  -3 -15   3  111.99    7.60
  -3 -15   3  103.19    7.60
  -3  15  -3  106.59    7.10
  -4  15   3   56.29    4.70
   4 -15   3   54.99    5.10
  -4 -15  -3   56.89    5.50
  -4 -15   3   52.69    7.20
  -4 -15   3   45.50    5.50
  -4  15  -3   48.20    4.50
   0 -16   3    5.90    3.00
   0 -16   3    5.20    3.10
   0 -16   3    0.20    4.20
   0 -16  -3    4.10    2.60
   0 -16  -3    6.50    3.00
   1 -16   3   88.29    7.50
   1 -16   3   98.89    6.80
  -1 -16  -3   99.79    7.10
  -1 -16  -3  103.69    7.10
   1 -16  -3   98.99    7.90
  -1 -16   3   92.59    8.40
  -1 -16   3   91.39    7.80
  -1 -16   3   83.99    6.90
   1 -16  -3   88.79    6.80
   2 -16   3   62.79    5.50
  -2 -16  -3   68.69    7.60
  -2  16   3   56.59    5.70
  -2 -16  -3   57.69    5.90
  -2 -16  -3   58.29    6.00
  -2 -16   3   66.39    6.40
  -2  16  -3   64.39    6.00
   2 -16  -3   60.39    6.70
  -3 -16  -3   20.60    4.30
  -3  16   3   16.40    2.90
  -3 -16  -3   19.40    3.60
   3 -16   3   20.80    3.10
  -3 -16   3   22.20    3.50
  -3 -16   3   27.00    4.00
  -3  16  -3   27.80    4.10
  -4  16   3  137.19    7.60
   4 -16   3  142.09    7.60
  -4  16  -3  123.49    7.40
   0 -17  -3   -2.70    3.50
   0 -17  -3    1.10    2.80
   0 -17  -3   -2.70    2.60
   0 -17   3   -1.40    3.10
   0 -17   3   -0.90    2.90
   1 -17   3    4.40    4.00
   1 -17   3    7.40    2.70
  -1 -17  -3    8.80    2.80
  -1 -17  -3    6.10    2.80
   1 -17  -3    7.40    3.80
  -1 -17   3   13.00    4.50
   1 -17  -3    9.00    3.10
  -2 -17  -3   11.10    3.30
  -2 -17  -3    8.50    2.70
  -2  17   3   15.70    3.40
   2 -17   3   13.70    3.00
   2 -17  -3   12.30    4.30
  -2 -17   3    7.20    2.80
  -2 -17   3   12.50    4.00
  -3  17   3   44.40    5.00
  -3 -17  -3   27.60    4.50
   3 -17   3   37.50    4.30
  -3  17  -3   41.30    5.00
  -3 -17   3   32.30    4.50
  -3 -17   3   34.50    5.30
   0 -18  -3   59.59    5.50
   0 -18   3   62.19    6.50
   0 -18  -3   51.09    5.90
  -1 -18  -3   25.60    3.40
  -1 -18  -3   28.60    3.70
   1 -18   3   26.70    3.60
   1 -18  -3   22.70    3.90
   1 -18  -3   19.00    3.40
   2 -18   3   10.10    2.60
  -2 -18   3    8.80    3.00
   2 -18  -3    5.80    2.70
   0 -19  -3   55.29    5.90
   0 -19   3   52.49    6.30
  -1 -19   3    4.90    3.10
   0   0   4 4951.70  199.98
   0   0  -4 5063.79  201.48
  -1   0   4 1159.38   48.10
   1   0   4 1199.38   48.10
   1   0  -4 1220.68   48.20
  -1   0  -4 1184.78   48.10
   2   0  -4  717.23   29.50
   2   0  -4  731.83   29.50
  -2   0  -4  698.53   29.20
   2   0   4  748.03   29.10
  -2   0  -4  679.33   29.00
  -3   0  -4    8.80    2.10
   3   0  -4    7.80    1.60
  -3   0   4    8.90    2.60
  -3   0  -4    4.60    2.20
  -3   0  -4   10.70    1.90
  -3   0   4    8.80    2.20
   3   0  -4    6.80    1.30
  -3   0   4   10.10    2.60
  -4   0   4 1114.09   45.70
  -4   0   4 1180.98   49.70
  -4   0  -4  957.20   52.39
  -4   0  -4 1164.08   44.70
  -4   0  -4 1220.78   48.80
  -4   0  -4 1108.39   50.09
  -4   0   4 1135.39   52.79
  -4   0   4 1202.18   55.39
  -5   0  -4  178.98   10.70
  -5   0   4  175.58    8.70
  -5   0   4  173.88   12.00
  -5   0  -4  177.08   10.20
  -5   0  -4  179.98    8.60
  -5   0  -4  177.88   11.60
  -5   0   4  152.98   10.60
  -6   0  -4   40.90    6.50
  -6   0  -4   32.20    5.00
  -6   0  -4   48.10    6.80
  -6   0   4   27.30    4.40
  -6   0   4   36.00    4.10
  -7   0  -4   17.70    4.40
  -7   0   4   19.80    4.50
  -7   0   4   16.20    3.10
   0  -1   4 3329.37  133.19
   0  -1  -4 3286.17  133.29
   0   1   4 3407.06  133.29
   0   1  -4 3293.67  133.29
   1   1  -4   88.59    4.80
  -1   1   4   85.89    4.50
   1   1  -4   93.29    4.70
  -1  -1  -4   89.99    4.60
   1   1   4   89.69    4.50
  -1   1  -4   84.19    4.50
  -1   1  -4   93.59    4.60
   1  -1  -4   88.39    4.70
   2   1  -4   51.69    3.50
  -2  -1  -4   51.79    3.20
   2   1  -4   48.90    3.20
  -2   1   4   49.99    3.20
   2   1   4   43.80    2.90
  -2   1  -4   44.50    2.90
   2  -1  -4   47.10    3.30
  -2   1  -4   44.50    3.00
   3   1  -4  313.27   14.30
  -3  -1  -4  319.27   16.20
   3   1  -4  339.17   14.10
  -3   1   4  310.27   15.50
  -3   1   4  312.27   14.70
  -3  -1  -4  330.57   15.10
  -3   1   4  329.77   16.40
  -3   1   4  283.27   17.20
  -3  -1   4  354.16   15.60
  -3  -1   4  351.96   15.90
  -3   1  -4  324.97   15.50
  -3   1  -4  360.36   13.80
  -3  -1   4  344.07   14.80
  -3   1  -4  353.36   15.20
  -3   1  -4  283.57   16.20
  -3  -1   4  344.17   16.40
   3  -1  -4  341.47   14.00
  -4  -1  -4   32.10    4.00
  -4   1   4   31.40    5.80
  -4   1   4   23.80    4.60
  -4  -1  -4   26.30    4.30
  -4  -1  -4   23.10    3.30
  -4   1   4   27.20    3.80
  -4   1   4   22.90    4.00
  -4  -1   4   23.20    3.80
  -4   1  -4   27.50    3.60
  -4   1  -4   18.90    3.30
  -4   1  -4   26.40    3.30
  -4  -1   4   30.10    4.40
  -4   1  -4   20.80    3.50
  -4  -1   4   25.00    4.10
  -4   1  -4   25.60    3.20
  -4  -1   4   22.60    3.90
  -4  -1   4   30.80    5.30
  -5  -1  -4   74.39    5.50
  -5   1   4   78.99    7.00
  -5  -1  -4   72.79    6.50
  -5  -1  -4   74.99    6.40
  -5  -1  -4   82.09    7.40
  -5   1   4   68.69    4.80
  -5   1   4   78.39    7.90
  -5   1  -4   54.19    4.80
  -5  -1   4   56.39    6.40
  -5  -1   4   58.79    8.60
  -5   1  -4   54.09    6.60
  -5   1  -4   63.49    6.70
  -6   1   4   63.89    4.90
  -6  -1  -4   60.69    7.40
  -6  -1  -4   69.69    7.00
  -6  -1  -4   53.99    7.40
  -6   1   4   71.99    7.40
  -6  -1   4   60.19    5.00
  -6   1  -4   62.19    7.20
  -6   1  -4   70.39    5.40
  -6  -1   4   54.29    6.60
  -7   1   4   16.30    4.90
  -7  -1   4   17.60    4.20
  -7   1  -4   17.10    4.20
  -7  -1   4   20.00    3.10
   0   2  -4 1217.58   50.89
   0   2   4 1292.07   50.79
   0  -2  -4 1242.68   50.79
   0   2  -4 1261.37   50.79
  -1  -2  -4   99.39    5.20
   1   2  -4  106.49    5.10
  -1   2   4   89.39    4.90
   1   2  -4  104.19    5.30
   1   2   4  102.99    4.90
   1  -2  -4  105.09    5.20
  -1   2  -4   99.89    5.10
  -1   2  -4   99.19    5.00
  -2  -2  -4   47.90    3.40
  -2  -2  -4   45.10    3.70
   2  -2  -4   34.50    3.20
  -2   2  -4   33.50    3.00
  -2  -2   4   31.10    3.10
   2   2   4   35.30    2.70
   3   2  -4   46.50    3.60
  -3  -2  -4   44.20    4.50
  -3   2   4   45.70    4.80
  -3   2   4   37.70    5.40
   3   2  -4   45.40    4.50
  -3   2   4   41.50    4.60
  -3   2   4   41.20    5.50
  -3  -2  -4   41.70    3.80
  -3  -2   4   45.70    4.90
  -3  -2   4   41.70    5.00
  -3   2  -4   40.10    4.20
  -3   2  -4   46.50    3.40
   3   2   4   44.30    3.00
  -3  -2   4   38.60    5.50
   3  -2  -4   46.30    3.90
  -3   2  -4   34.40    4.40
  -3   2  -4   42.30    4.70
  -3  -2   4   40.10    4.50
  -4   2   4  247.38   13.50
  -4   2   4  292.47   14.50
  -4   2   4  264.87   14.30
  -4   2   4  263.47   13.70
  -4   2   4  239.68   12.90
  -4  -2  -4  268.77   11.60
  -4   2   4  270.87   11.50
  -4  -2  -4  269.77   13.60
  -4  -2  -4  274.97   12.80
  -4   2  -4  262.77   11.30
  -4   2  -4  234.58   13.70
  -4  -2   4  225.68   15.10
  -4   2  -4  259.07   12.70
  -4   2  -4  240.28   14.30
  -4   2  -4  228.38   12.80
  -4  -2   4  280.47   13.80
  -4  -2   4  251.97   13.30
  -4  -2   4  251.47   13.20
  -5   2   4  138.89   10.00
  -5  -2  -4  148.49   10.60
  -5  -2  -4  157.08    9.20
  -5  -2  -4  139.19    9.40
  -5   2   4  156.08    7.80
  -5   2   4  153.28    9.90
  -5   2  -4  151.68   10.20
  -5   2  -4  142.89    9.50
  -5   2  -4  149.29    7.60
  -5   2  -4  146.39    9.40
  -5  -2   4  157.68    9.80
  -6   2   4   96.19    8.40
  -6  -2  -4   98.89    8.90
  -6  -2  -4   93.29    7.90
  -6  -2  -4   99.59    8.00
  -6   2   4   91.39    6.00
  -6   2  -4  100.09    6.20
  -6  -2   4   93.79    6.10
  -6   2  -4  103.59    8.20
  -6  -2   4   95.29    7.70
  -7  -2  -4    1.80    3.90
  -7   2   4    5.80    2.40
  -7  -2   4    5.20    3.60
  -7   2  -4    3.80    3.90
  -7  -2   4    4.00    2.70
   0  -3  -4 1602.74   68.29
   0  -3   4 1687.43   68.59
   0   3  -4 1745.33   68.49
   0   3   4 1719.63   68.29
  -1   3   4 1361.56   53.49
   1   3  -4 1307.97   53.69
  -1  -3  -4 1221.18   53.49
   1  -3   4 1382.16   53.89
   1   3   4 1310.07   53.49
   1  -3  -4 1334.17   53.59
  -1   3  -4 1333.37   53.39
  -1   3  -4 1218.98   53.39
  -1  -3   4 1386.26   53.99
  -2  -3  -4  315.17   13.90
   2   3  -4  311.77   13.80
   2   3  -4  319.77   13.80
  -2  -3  -4  260.57   15.10
  -2   3   4  314.17   13.60
  -2  -3  -4  306.97   14.10
  -2   3  -4  297.87   13.50
  -2   3  -4  355.26   14.30
  -2  -3   4  302.17   14.10
  -2  -3   4  300.87   15.20
  -2   3  -4  292.47   16.10
   2  -3  -4  322.87   13.80
   2   3   4  320.97   13.50
  -2   3  -4  317.27   13.40
  -3  -3  -4   14.10    2.50
  -3   3   4   14.50    2.30
   3   3  -4   15.10    2.90
  -3   3   4   17.60    2.10
  -3  -3  -4   18.80    2.70
  -3   3   4   15.50    2.80
  -3   3   4   16.50    2.80
   3   3  -4   13.30    2.20
  -3   3   4   12.50    2.40
  -3   3   4   20.60    3.10
  -3  -3  -4   14.30    2.80
  -3   3   4   14.80    3.10
  -3  -3   4   25.40    3.80
  -3   3  -4   23.10    2.70
  -3  -3   4   21.70    2.90
  -3   3  -4   24.00    3.70
  -4   3   4  284.97   14.30
  -4   3   4  242.48   13.70
  -4   3   4  246.48   13.10
  -4   3   4  228.68   14.50
  -4   3   4  244.08   12.80
  -4  -3  -4  262.37   12.80
  -4   3   4  261.77   11.50
  -4  -3  -4  240.38   13.50
  -4  -3   4  277.77   14.00
  -4   3  -4  252.27   12.60
  -4   3  -4  269.87   14.60
  -4   3  -4  226.68   12.60
  -4  -3   4  274.47   15.70
  -4   3  -4  261.27   11.30
  -4  -3   4  255.87   13.10
  -4  -3   4  268.67   13.10
  -5  -3  -4  242.78   13.00
  -5   3   4  237.28   11.00
  -5   3   4  254.87   13.60
  -5  -3  -4  230.78   12.40
  -5   3   4  223.08   13.50
  -5   3   4  238.08   13.90
  -5   3  -4  214.88   13.70
  -5   3  -4  233.28   12.60
  -5   3  -4  225.58   12.40
  -5   3  -4  238.08   10.70
  -5  -3   4  219.18   12.90
  -5  -3   4  244.98   13.50
  -6   3   4   18.80    3.10
  -6  -3  -4   18.20    3.70
  -6  -3  -4   10.20    3.70
  -6   3   4   12.20    4.40
  -6  -3  -4   13.50    4.20
  -6   3  -4   14.60    2.80
  -6  -3   4   14.10    3.70
  -6  -3   4    9.50    2.70
  -6   3  -4    9.90    3.50
  -7   3   4   40.00    3.70
  -7  -3  -4   47.40    6.70
  -7  -3  -4   35.60    5.50
  -7  -3   4   38.60    4.70
  -7  -3   4   47.20    5.80
  -7   3  -4   41.60    5.60
   0   4  -4 7008.60  285.97
   0   4   4 7237.98  284.37
   0  -4  -4 7054.09  284.57
   0  -4   4 7154.38  284.77
   1  -4   4 1020.00   41.20
  -1  -4  -4  981.50   41.60
   1  -4   4  985.70   41.60
   1   4  -4  998.50   41.50
  -1   4   4 1019.10   41.30
   1   4   4 1054.69   41.30
  -1   4  -4  959.20   41.30
  -1  -4   4 1011.00   41.90
   1  -4  -4 1011.80   41.50
  -1  -4   4 1018.80   41.60
  -2  -4  -4  110.99    6.40
   2   4  -4  121.59    6.20
  -2  -4  -4  117.39    6.30
  -2   4   4  125.09    5.50
  -2  -4  -4  117.89    7.60
  -2   4   4  105.19    6.00
  -2   4  -4   95.99    5.10
  -2   4  -4  101.49    6.30
  -2   4  -4  117.79    6.60
   2  -4  -4  103.69    6.70
  -2   4  -4   96.79    7.00
  -2   4  -4   88.79    6.00
  -2   4  -4  105.69    6.00
   2   4   4   94.89    5.70
  -2  -4   4   95.49    6.10
  -2  -4   4  100.79    6.60
  -3  -4  -4  229.18   12.50
  -3   4   4  228.58   12.30
  -3   4   4  228.98   12.90
  -3  -4  -4  237.28   11.50
  -3   4   4  219.58   12.40
  -3   4   4  236.28   10.40
  -3   4   4  222.88   11.20
  -3   4   4  212.28   11.90
   3   4  -4  195.78   11.30
  -3  -4   4  257.27   12.70
  -3  -4   4  253.67   11.30
  -3   4  -4  232.58   11.70
  -3   4  -4  261.97   10.30
   3   4   4  246.28   11.20
  -3  -4   4  242.38   12.50
  -3   4  -4  238.28   13.10
  -3   4  -4  260.27   11.60
  -3  -4   4  263.67   11.70
  -4   4   4    3.10    2.70
  -4   4   4    4.30    4.50
  -4  -4  -4    1.20    2.30
  -4   4   4    1.70    3.00
  -4   4   4    0.60    2.50
  -4   4   4    2.40    2.20
  -4  -4  -4    4.80    2.20
  -4   4  -4    6.40    1.80
  -4   4  -4    9.80    2.70
  -4  -4   4    6.30    2.80
  -4   4  -4    6.10    2.00
  -4  -4   4    8.10    2.60
  -4   4  -4    9.10    2.70
  -4  -4   4   10.60    3.30
  -5   4   4    6.80    3.20
  -5   4   4    3.90    3.50
  -5   4   4    6.20    2.10
  -5  -4  -4    4.30    2.80
  -5  -4  -4    3.90    2.70
  -5   4  -4    9.00    3.00
  -5   4  -4   11.60    2.70
  -5  -4   4   13.00    4.10
  -5   4  -4    6.00    2.10
  -5  -4   4    5.10    2.90
  -6  -4  -4  224.18   12.10
  -6  -4  -4  206.48   13.80
  -6   4   4  208.78   10.20
  -6   4   4  208.18   13.50
  -6  -4  -4  207.28   12.30
  -6  -4   4  215.88   12.60
  -6   4  -4  196.38   12.00
  -6   4  -4  211.68   10.10
  -6  -4   4  216.48   10.40
  -6   4  -4  223.88   13.10
  -7  -4  -4   27.70    4.70
  -7   4   4   23.90    3.40
  -7  -4  -4   24.50    5.20
  -7  -4   4   34.40    5.10
   0   5  -4  182.48    9.10
   0  -5  -4  178.78    9.50
   0  -5   4  180.68    9.80
   0   5   4  189.38    8.80
  -1  -5  -4  118.39    7.90
   1   5  -4  136.09    7.20
   1  -5   4  135.59    8.10
  -1   5   4  135.49    7.30
  -1   5  -4  140.99    7.30
  -1  -5   4  131.09    8.60
   1  -5  -4  139.99    8.20
  -1  -5   4  141.79    6.70
  -1  -5   4  131.89    6.60
   1   5   4  138.99    7.00
   2   5  -4  507.35   20.90
  -2   5   4  506.55   19.30
  -2  -5  -4  486.95   21.10
  -2   5   4  505.45   20.70
  -2  -5  -4  474.65   22.60
  -2   5   4  478.85   19.60
   2  -5   4  484.25   21.60
  -2  -5   4  443.56   21.10
  -2   5  -4  435.16   23.70
  -2   5  -4  460.75   20.80
  -2  -5   4  459.85   20.00
  -2   5  -4  483.35   19.10
  -2   5  -4  458.15   21.60
   2  -5  -4  477.05   21.30
  -2  -5   4  495.25   21.10
  -2  -5   4  438.06   22.70
  -2   5  -4  466.45   20.60
   2   5   4  474.75   20.60
  -3  -5  -4  163.18    8.60
  -3   5   4  151.38    8.10
  -3   5   4  156.18    9.40
  -3   5   4  149.49    8.60
  -3  -5  -4  159.18    8.40
  -3  -5  -4  134.19    8.90
  -3  -5  -4  135.19    9.30
  -3   5   4  152.98    9.10
   3   5  -4  158.58    8.80
  -3   5  -4  147.59    7.00
  -3  -5   4  160.98    9.10
  -3   5  -4  144.79    8.30
  -3   5  -4  140.89    9.20
  -3  -5   4  138.89    8.00
   3   5   4  146.39    8.50
  -3   5  -4  152.08    8.10
  -3  -5   4  152.48    8.20
  -4   5   4  215.08   12.00
  -4   5   4  239.48   11.00
  -4  -5  -4  232.88   12.30
  -4   5   4  212.08   13.40
  -4  -5  -4  231.28   12.90
  -4   5   4  240.88   12.70
  -4   5   4  219.08   15.20
  -4   5  -4  260.67   14.00
  -4   5  -4  261.07   12.40
  -4   5  -4  242.08   12.40
  -4   5  -4  259.07   10.90
  -4  -5   4  279.07   13.60
  -4  -5   4  235.98   12.50
  -4  -5   4  253.67   12.70
  -5   5   4  341.17   18.70
  -5   5   4  356.56   17.40
  -5  -5  -4  332.67   18.00
  -5   5   4  357.56   15.30
  -5  -5  -4  344.87   17.00
  -5   5  -4  326.57   18.90
  -5   5  -4  345.87   17.00
  -5  -5   4  364.26   18.40
  -5  -5   4  333.77   17.40
  -5   5  -4  349.77   15.00
  -6  -5  -4  183.88   12.20
  -6  -5  -4  175.18   10.20
  -6   5   4  163.28    8.50
  -6  -5  -4  171.68   10.50
  -6   5  -4  167.28    8.50
  -6   5  -4  154.68   10.00
  -6   5  -4  157.48   10.90
  -6  -5   4  166.38   10.50
  -6  -5   4  172.28    8.80
  -7  -5  -4   16.80    5.60
  -7   5   4   25.20    3.30
  -7  -5  -4   22.30    5.90
  -7  -5  -4   16.20    4.00
  -7  -5   4   24.10    3.90
   0  -6   4  145.29    9.30
   0   6   4  136.69    7.30
   0  -6   4  123.39    6.60
   0  -6  -4  134.09    8.90
   0   6  -4  134.79    7.40
   1   6  -4   55.39    4.60
   1  -6   4   51.59    7.70
  -1   6   4   48.30    4.00
  -1  -6  -4   43.20    4.10
  -1  -6  -4   49.10    4.50
  -1   6   4   52.09    4.10
  -1  -6   4   36.40    3.40
   1  -6  -4   41.30    6.30
   1   6   4   38.30    3.70
  -1   6  -4   44.10    4.60
  -2   6   4   11.50    1.80
  -2   6   4    7.70    1.90
   2   6  -4    7.80    2.70
  -2   6   4    7.60    2.00
  -2   6   4    3.40    2.60
  -2  -6  -4    8.20    2.00
  -2  -6  -4    6.10    2.00
   2  -6   4    5.70    4.40
  -2  -6  -4    6.20    2.30
  -2   6  -4   12.00    1.70
  -2   6  -4   12.70    2.10
  -2   6  -4   10.50    2.80
  -2  -6   4   14.80    2.70
  -2   6  -4   14.50    2.80
   2  -6  -4   15.00    4.40
   2   6   4    9.80    2.10
  -2  -6   4   14.50    2.80
  -2  -6   4   11.90    2.00
  -3  -6  -4  100.29    6.10
  -3   6   4   86.49    6.40
  -3  -6  -4   85.79    6.10
  -3   6   4   94.19    5.10
  -3   6   4   92.69    6.40
  -3  -6  -4   86.99    7.30
   3   6  -4   89.49    7.80
  -3   6   4   81.69    7.90
  -3   6   4   91.69    7.40
  -3  -6  -4   73.59    6.70
  -3   6  -4   95.59    6.50
  -3  -6   4  105.99    6.90
  -3   6  -4   97.99    6.20
  -3   6  -4   95.49    6.70
  -3  -6   4   76.49    5.80
   3   6   4   94.59    7.60
  -3  -6   4   85.29    6.00
  -3   6  -4   95.59    5.00
  -4   6   4   26.50    7.20
  -4   6   4   23.60    3.60
  -4   6   4   29.00    4.30
  -4   6   4   25.60    3.50
  -4  -6  -4   26.20    4.20
  -4  -6  -4   22.30    3.60
  -4   6   4   26.00    3.20
  -4  -6   4   24.40    3.90
  -4   6  -4   30.70    4.10
  -4  -6   4   26.10    3.80
  -4   6  -4   26.20    3.10
  -4   6  -4   20.80    2.90
  -4   6  -4   28.70    4.90
  -4  -6   4   29.60    4.00
  -5  -6  -4  130.59    9.40
  -5   6   4  143.59    7.80
  -5   6   4  158.68    9.50
  -5  -6  -4  159.88    9.40
  -5  -6   4  144.79    9.80
  -5   6  -4  163.48    9.20
  -5   6  -4  155.98    7.80
  -5  -6   4  140.59    9.70
  -5   6  -4  167.38   10.60
  -6  -6  -4    1.80    4.50
  -6   6   4    1.20    2.00
  -6  -6  -4    5.00    3.30
  -6   6   4    9.30    3.90
  -6  -6  -4    4.20    3.20
  -6  -6   4    5.70    5.20
  -6  -6   4    2.70    3.20
  -6  -6   4    4.50    3.00
  -6   6  -4    4.60    2.20
  -6   6  -4    1.90    2.80
  -6   6  -4    6.30    3.60
  -7   6   4   22.10    2.80
  -7  -6  -4   25.00    4.00
  -7  -6   4   20.10    3.60
   0   7   4  168.08    8.80
   0  -7   4  158.28    7.90
   0   7  -4  165.28    9.30
   0  -7  -4  159.28    8.60
   1   7  -4  238.28   12.00
  -1  -7  -4  231.28   11.30
   1  -7   4  221.48   10.80
  -1  -7  -4  241.78   12.40
  -1  -7  -4  217.98   11.40
  -1   7   4  238.78   11.90
  -1   7   4  223.18   10.30
   1  -7   4  216.48   15.70
   1  -7  -4  250.07   15.50
   1  -7  -4  237.88   11.50
  -1  -7   4  241.68   10.70
  -1   7  -4  248.38   11.80
   1   7   4  258.97   11.90
  -1   7  -4  254.57   12.40
  -1  -7   4  242.68   11.00
  -1  -7   4  231.28   11.50
  -2   7   4  199.08   10.70
  -2  -7  -4  206.18   10.70
  -2  -7  -4  199.68   10.60
   2   7  -4  199.58   11.20
  -2   7   4  195.08   11.70
  -2   7   4  194.48    9.60
  -2   7   4  197.78    9.30
  -2  -7  -4  215.08   11.30
  -2  -7   4  225.18   10.00
  -2  -7   4  220.08   11.60
  -2   7  -4  215.58   10.80
  -2  -7   4  210.78   10.70
   2  -7  -4  218.28   11.10
  -2   7  -4  207.58   11.90
   2   7   4  216.28   11.30
  -2  -7   4  210.38   11.10
  -2   7  -4  223.68    9.20
  -2   7  -4  219.98   11.80
  -3   7   4  467.55   24.10
  -3   7   4  461.45   23.20
  -3  -7  -4  517.45   22.50
  -3  -7  -4  487.35   22.50
  -3   7   4  474.35   22.90
  -3  -7  -4  496.45   21.30
   3   7  -4  461.55   23.20
  -3   7   4  498.05   20.30
  -3  -7  -4  482.85   24.00
  -3  -7   4  503.65   20.80
   3   7   4  482.35   23.00
  -3   7  -4  490.15   25.30
  -3  -7   4  501.55   22.40
  -3   7  -4  517.75   22.90
  -3  -7   4  510.55   24.20
  -3   7  -4  514.25   20.30
  -4  -7  -4  340.87   17.60
  -4  -7  -4  323.57   16.30
  -4   7   4  320.87   16.50
  -4  -7  -4  314.97   17.20
  -4   7   4  316.47   14.50
  -4   7  -4  320.57   18.20
  -4   7  -4  331.27   16.30
  -4   7  -4  344.67   14.50
  -4  -7   4  354.56   15.70
  -4  -7   4  350.26   17.60
  -4  -7   4  349.77   16.60
  -5   7   4  114.29    6.70
  -5  -7  -4  123.39    8.40
  -5   7   4  118.39    8.20
  -5  -7  -4  120.59    8.00
  -5  -7   4  124.89   11.00
  -5  -7   4  125.09    8.70
  -5  -7   4  118.89    8.60
  -5   7  -4  123.99    8.90
  -5   7  -4  112.89    7.80
  -5   7  -4  112.59    6.50
  -6  -7  -4  118.79   10.80
  -6   7   4  140.69    8.80
  -6   7   4  136.69    7.10
  -6  -7  -4  132.99    8.60
  -6  -7  -4  135.09    8.90
  -6  -7   4  123.89    8.90
  -6  -7   4  118.79   10.00
  -6  -7   4  132.19    7.90
  -6   7  -4  123.19    8.20
  -7  -7  -4    1.30    3.30
  -7   7   4    3.70    2.00
  -7  -7   4    1.30    3.20
   0  -8   4 1914.11   80.89
   0  -8  -4 1920.51   80.79
   0  -8  -4 1924.71   80.99
   0  -8   4 1897.91   76.99
   0   8  -4 1976.80   79.59
  -1   8   4 1025.90   47.40
  -1  -8  -4 1089.09   48.00
   1  -8   4 1078.49   45.50
  -1  -8  -4 1089.99   51.89
  -1   8   4 1146.69   44.20
  -1   8   4 1121.49   49.70
  -1  -8  -4 1062.09   47.80
   1   8  -4 1153.28   47.90
  -1  -8   4 1145.29   45.70
  -1   8  -4 1192.28   47.90
  -1   8  -4 1194.18   49.70
   1  -8  -4 1153.18   47.90
  -1  -8   4 1134.29   45.40
   1   8   4 1170.48   47.60
  -1  -8   4 1129.99   48.00
  -2   8   4  298.67   14.80
   2   8  -4  298.07   15.90
  -2  -8  -4  301.07   15.50
  -2   8   4  304.97   12.90
  -2  -8  -4  308.57   14.40
  -2  -8  -4  297.07   14.30
  -2   8   4  300.37   14.70
  -2   8   4  305.57   16.70
  -2  -8   4  295.07   14.40
  -2  -8   4  288.17   15.60
  -2   8  -4  302.47   14.70
  -2  -8   4  308.27   13.70
   2  -8  -4  307.27   14.60
  -2  -8   4  314.27   14.60
   2   8   4  317.57   15.70
  -3   8   4  116.49    7.40
  -3  -8  -4  111.99    7.80
  -3  -8  -4  130.99    7.60
  -3   8   4  121.69    6.20
  -3  -8  -4  131.89    7.50
  -3  -8  -4  120.19    7.50
  -3   8  -4  102.39    6.80
  -3  -8   4   95.89    7.20
  -3   8  -4   94.49    5.80
   3   8   4  100.09   11.80
  -4  -8  -4  199.88   11.80
  -4   8   4  174.08   10.10
  -4  -8  -4  166.18   10.50
  -4   8   4  166.98    8.50
  -4  -8  -4  167.48   10.00
  -4   8  -4  171.08    8.40
  -4  -8   4  180.38   10.20
  -4   8  -4  180.28    9.80
  -4  -8   4  163.78   10.50
  -4  -8   4  169.38   10.20
  -5   8   4  172.68   10.10
  -5  -8  -4  175.08   10.70
  -5  -8  -4  174.88   10.00
  -5   8   4  177.78    8.70
  -5  -8   4  156.28   10.60
  -5   8  -4  169.28    8.50
  -5  -8   4  171.98   12.30
  -5   8  -4  170.78    9.80
  -5  -8   4  175.28   10.70
  -6  -8  -4    2.00    2.80
  -6   8   4    0.00    1.90
  -6  -8  -4    4.40    3.20
  -6  -8  -4   -5.00    4.70
  -6   8   4    4.90    3.00
  -6  -8   4    0.30    4.60
  -6  -8   4    1.50    3.10
  -6   8  -4   -0.60    2.50
  -7  -8   4   10.80    3.90
   0   9  -4  450.55   21.30
   0  -9   4  431.06   20.00
   0  -9  -4  425.66   20.10
   0   9  -4  429.36   20.60
   0  -9  -4  426.96   19.70
   0  -9   4  454.45   18.80
   0   9   4  428.16   20.60
   0   9   4  466.75   21.10
  -1   9   4  114.49    7.20
  -1  -9  -4  111.69    6.60
  -1   9   4  117.09    9.30
   1   9  -4  110.49    9.00
  -1  -9  -4  107.79    7.50
   1  -9   4  108.89    6.40
  -1  -9  -4  109.39    6.90
  -1   9  -4  119.69   10.50
  -1  -9   4  100.79    6.50
  -1  -9   4   97.99    6.00
   1  -9  -4   98.09    7.00
  -1   9  -4  112.09    7.00
   1   9   4  115.39    9.10
  -1  -9   4  105.09    7.00
  -2   9   4    0.60    1.70
  -2   9   4    2.20    1.60
   2   9  -4    5.50    4.80
  -2  -9  -4    0.50    2.20
  -2  -9  -4    0.90    2.10
  -2  -9  -4    2.20    2.20
   2  -9  -4    1.50    2.70
  -2  -9   4   -1.10    3.10
  -2   9  -4    2.40    1.80
  -2  -9   4    3.90    2.90
  -2  -9   4    1.70    1.90
  -2  -9   4    2.20    2.20
   2   9   4    2.30    4.10
  -3   9   4  131.69    7.20
  -3  -9  -4  134.79    8.90
  -3  -9  -4  147.89    8.60
  -3  -9  -4  142.29    9.10
  -3   9   4  145.99    8.70
  -3  -9  -4  152.78    8.60
  -3  -9   4  142.79    8.80
  -3  -9   4  133.89    9.20
  -3   9  -4  138.09    8.30
  -4   9   4   53.89    5.70
  -4  -9  -4   69.29    7.90
  -4  -9  -4   52.09    5.80
  -4  -9  -4   50.09    5.70
  -4   9   4   53.09    4.30
  -4  -9   4   55.29    6.70
  -4   9  -4   48.80    5.30
  -4  -9   4   40.80    6.10
  -4  -9   4   50.59    6.20
  -5   9   4    0.30    2.10
  -5  -9  -4    0.10    2.80
  -5   9   4    1.20    2.30
  -5  -9  -4   -0.90    2.90
  -5  -9   4   -2.60    3.50
  -5   9  -4    0.20    2.10
  -5  -9   4    0.20    3.10
  -5  -9   4   -3.10    5.00
  -6  -9  -4   67.99    9.70
  -6   9   4   69.09    5.00
  -6   9   4   82.19    6.50
  -6  -9  -4   76.69    6.60
  -6  -9  -4   83.39    6.60
  -6  -9   4   84.59    6.80
  -6  -9   4   89.99    8.50
  -6   9  -4   93.59    6.20
   0 -10   4    2.90    2.70
   0  10   4    9.60    2.70
   0  10  -4    7.90    5.30
   0  10   4    6.40    5.30
   0 -10   4    6.20    2.00
   0 -10  -4    6.60    2.90
   0 -10  -4    5.60    2.20
   1 -10   4  109.59    9.00
  -1  10   4  120.29   13.20
  -1 -10  -4  128.59    7.90
  -1  10   4  125.69    7.90
  -1 -10  -4  122.99    7.60
   1 -10   4  123.09    7.00
   1  10  -4  126.29   11.60
  -1 -10   4  118.69    7.20
   1 -10  -4  118.49    7.70
  -1 -10   4  125.39    7.50
  -1  10  -4  106.39   12.20
   1  10   4  120.49   10.60
  -1  10  -4  126.39    7.80
  -1 -10   4  121.39    6.80
  -2 -10  -4  218.48   11.40
  -2 -10  -4  212.18   11.90
  -2 -10  -4  220.08   11.40
  -2  10   4  225.58   11.60
  -2  10   4  214.48    9.80
  -2 -10  -4  230.58   10.80
   2 -10  -4  205.28   11.60
  -2 -10   4  204.08   11.80
  -2  10  -4  209.08   11.20
  -2 -10   4  211.38   10.50
  -2 -10   4  212.18   11.30
  -2 -10   4  200.58   12.40
  -3  10   4   58.79    4.30
  -3  10   4   54.19    5.30
  -3 -10  -4   55.59    5.70
  -3 -10  -4   64.19    5.90
  -3 -10  -4   55.29    5.90
  -3 -10  -4   48.20    6.20
  -3 -10   4   50.79    5.70
  -3 -10   4   37.90    6.10
  -3  10  -4   44.60    5.00
  -4  10   4   89.49    5.80
  -4 -10  -4  102.59    7.30
  -4  10   4   98.49    7.20
  -4 -10  -4   91.89    7.60
  -4 -10  -4   99.49    8.80
  -4  10  -4   83.49    6.60
  -4 -10   4  103.29    7.70
  -4 -10   4   83.09    7.90
  -4 -10   4   95.29    7.60
  -5  10   4   16.30    2.60
  -5 -10  -4   19.10    3.40
  -5 -10  -4   21.40    3.90
  -5  10   4   15.80    2.90
  -5 -10   4   14.40    5.60
  -5 -10   4   15.80    3.80
  -5  10  -4   15.00    2.70
  -5 -10   4   21.30    3.90
  -6 -10  -4   36.20    4.90
  -6  10   4   44.80    5.20
  -6 -10  -4   36.80    5.20
  -6 -10  -4   34.90    6.80
  -6 -10   4   34.50    5.60
  -6  10  -4   38.90    4.30
  -6 -10   4   34.80    5.50
   0  11   4   -0.40    2.40
   0 -11  -4    3.50    2.10
   0  11  -4    3.50    7.80
   0  11   4    4.00    7.70
   0 -11   4    1.50    2.60
   0 -11   4    4.30    2.00
  -1  11   4  146.49   19.30
  -1 -11  -4  173.38    9.10
  -1 -11  -4  156.38    9.50
   1 -11   4  160.78    8.60
  -1  11   4  164.88    9.30
   1 -11   4  185.18   10.60
  -1 -11   4  151.58    8.70
  -1 -11   4  155.08    9.10
  -1  11  -4  149.49    9.20
  -1 -11   4  157.18    8.40
   1 -11  -4  138.39    9.10
  -2 -11  -4  101.49    7.30
  -2 -11  -4   98.79    6.80
  -2 -11  -4   95.19    6.80
  -2 -11  -4   95.69    7.80
  -2  11   4  105.39    7.30
  -2 -11   4   98.19    8.80
   2 -11  -4   87.59    8.20
  -2 -11   4   99.39    7.10
  -2 -11   4  109.09    7.60
  -2  11  -4  100.99    7.00
  -2 -11   4  100.99    6.50
  -3 -11  -4  177.58   10.00
  -3 -11  -4  177.08   10.90
  -3  11   4  167.68   10.20
  -3 -11  -4  172.28   10.50
  -3  11   4  172.28    8.70
  -3 -11  -4  173.18   10.20
  -3  11  -4  173.38    9.90
  -3 -11   4  179.08   11.30
  -3 -11   4  188.88   10.50
  -4 -11  -4  151.68   10.30
  -4 -11  -4  144.79    9.70
  -4 -11  -4  137.69    8.80
  -4  11   4  145.99    7.60
  -4  11   4  158.88    9.00
  -4 -11   4  128.39    9.40
  -4  11  -4  136.69    8.50
  -4 -11   4  136.29    9.80
  -4 -11   4  131.29    9.00
  -5 -11  -4   61.49    5.90
  -5  11   4   54.19    5.20
  -5 -11  -4   54.39    5.60
  -5 -11   4   55.09    6.70
  -5 -11   4   44.10    6.10
  -5  11  -4   52.09    4.80
  -5 -11   4   42.40    6.40
  -6 -11  -4  115.79    7.40
  -6  11   4  104.29    6.80
  -6 -11  -4  110.89    7.40
  -6  11  -4   99.59    6.30
  -6 -11   4   89.99    7.70
   0 -12   4   94.69    7.60
   0 -12   4   95.69    6.60
   0  12   4   99.79    8.10
   0 -12  -4  102.59    7.20
   1 -12   4   89.69    6.50
  -1  12   4   92.39    7.00
  -1 -12  -4   97.19    6.80
   1 -12   4  109.99    8.60
  -1 -12  -4   99.29    7.60
  -1 -12   4   72.79    6.50
  -1 -12   4   70.59    5.70
   1 -12  -4   76.59    6.90
  -1 -12   4   85.99    7.00
  -1  12  -4   74.29    6.70
  -2 -12  -4  150.28    9.60
  -2  12   4  150.48    9.60
  -2 -12  -4  156.98    8.80
  -2 -12  -4  146.79    9.60
  -2 -12   4  166.08    9.10
  -2 -12   4  158.88    9.80
  -2  12  -4  172.18    9.50
  -2 -12   4  168.78   10.90
   2 -12  -4  164.88   10.30
  -2 -12   4  168.18    9.60
  -3 -12  -4  168.58   10.20
  -3  12   4  159.68   10.00
  -3 -12  -4  176.48   11.20
  -3 -12  -4  183.28   10.50
  -3 -12  -4  173.48   10.60
  -3 -12   4  175.48   12.20
  -3  12  -4  174.48    9.90
  -3 -12   4  179.08   10.50
  -4 -12  -4   95.29    8.70
  -4 -12  -4   90.69    7.30
  -4  12   4   85.09    6.80
  -4 -12  -4   96.99    7.80
  -4 -12   4  105.69    8.30
  -4 -12   4  106.29    7.70
  -4 -12   4  104.19    9.00
  -4  12  -4  110.59    7.00
  -5  12   4  171.08    9.50
  -5 -12  -4  165.78   10.30
  -5 -12  -4  166.58    9.60
  -5 -12   4  176.98   11.10
  -5  12  -4  174.08    9.20
  -5 -12   4  155.68   10.00
  -6  12  -4    5.20    2.30
   0 -13   4   74.89    7.10
   0 -13  -4   80.79    6.80
   0 -13   4   77.19    6.30
   0 -13   4   83.49    6.30
   0  13   4   73.29    8.20
  -1  13   4  156.78    9.50
   1 -13   4  144.19    8.70
  -1 -13  -4  148.59    9.80
   1 -13   4  147.09   10.90
  -1 -13  -4  155.18    9.20
   1 -13  -4  155.28    9.40
  -1 -13   4  149.39    9.00
  -1  13  -4  131.89    9.50
  -1 -13   4  145.99    8.60
  -1 -13   4  149.99    9.50
  -2 -13  -4  159.58    9.80
  -2 -13  -4  176.88    9.40
  -2  13   4  161.28    9.60
  -2 -13  -4  163.58    9.60
  -2 -13   4  152.48    9.40
  -2 -13   4  147.39    8.80
  -2 -13   4  153.08    9.60
   2 -13  -4  145.79   10.40
  -2  13  -4  139.59    9.20
  -3 -13  -4   33.90    4.80
  -3  13   4   29.30    3.90
  -3 -13  -4   27.70    4.30
  -3 -13  -4   34.20    4.50
  -3 -13   4   28.10    3.90
  -3 -13   4   35.40    5.40
  -3  13  -4   38.50    4.80
  -4 -13  -4  249.97   14.00
  -4 -13  -4  247.58   12.80
  -4  13   4  247.48   12.80
   4 -13   4  250.57   12.10
  -4  13  -4  226.08   12.40
  -4 -13   4  248.48   12.70
  -4 -13   4  235.28   13.00
  -4 -13   4  236.18   15.10
  -5 -13  -4   84.59    6.30
  -5  13   4   76.29    5.70
  -5 -13   4   90.89    7.00
  -5 -13   4   81.69    9.20
  -5  13  -4   91.59    5.70
   0 -14   4   48.10    5.70
   0 -14   4   39.80    6.60
   0 -14  -4   50.59    6.00
   0 -14   4   54.79    5.80
  -1 -14  -4   80.19    6.20
  -1  14   4   74.59    7.30
   1 -14   4   78.09    7.00
  -1 -14  -4   81.89    7.00
  -1 -14  -4   85.49    8.70
  -1 -14   4   74.99    6.20
  -1 -14   4   82.49    7.20
  -1  14  -4   83.99    7.90
  -1 -14   4   86.49    7.20
   1 -14  -4   94.29    7.60
  -1 -14   4   83.59    6.90
  -2 -14  -4   17.60    3.30
  -2  14   4   19.20    3.40
  -2 -14  -4   14.20    4.10
  -2 -14  -4   16.00    3.30
  -2 -14   4   19.10    3.80
  -2 -14   4   16.20    3.40
   2 -14  -4   25.80    4.30
  -2  14  -4   26.10    3.60
  -3 -14  -4  111.79    8.20
  -3  14   4  100.19    7.20
  -3 -14  -4  111.69    8.00
  -3 -14  -4  116.09    8.20
  -3  14  -4  107.59    7.30
  -3 -14   4  115.39    8.00
  -3 -14   4  107.59    7.70
   4 -14   4    4.50    2.70
  -4 -14  -4    6.50    3.40
  -4  14   4    4.40    2.20
  -4  14  -4    5.70    2.10
  -4 -14   4    5.10    3.30
  -4 -14   4    2.70    3.60
  -5 -14  -4    4.70    3.30
  -5  14   4    6.70    2.10
  -5 -14   4    5.40    3.50
  -5  14  -4    4.60    1.90
   0 -15  -4   53.09    5.20
   0 -15   4   48.60    5.70
   0 -15   4   49.90    5.90
   0 -15  -4   58.59    6.20
   0 -15   4   45.20    6.50
  -1  15   4   14.80    3.40
   1 -15   4   15.50    3.00
   1 -15   4   17.00    3.90
  -1 -15  -4   16.90    3.00
  -1 -15  -4   14.50    3.10
  -1 -15   4   17.30    3.40
  -1 -15   4   16.20    3.70
  -1 -15   4   23.20    4.00
   1 -15  -4   21.00    3.60
  -2 -15  -4    3.40    2.60
   2 -15   4    2.10    2.30
  -2 -15  -4    4.00    2.80
  -2  15   4   -2.90    2.40
  -2 -15  -4    1.50    3.80
  -2  15  -4    1.90    2.70
  -2 -15   4    1.30    3.00
  -3 -15  -4  136.19    8.80
  -3 -15  -4  127.19    8.50
  -3  15   4  133.89    8.00
   3 -15   4  143.99    7.90
  -3 -15  -4  138.29    8.70
  -3 -15   4  114.89    8.30
  -3  15  -4  113.99    7.70
  -3 -15   4  123.79    8.10
  -4  15   4    0.20    2.00
   4 -15   4    0.00    2.60
  -4 -15  -4   -3.30    3.30
  -4 -15   4    1.60    4.00
  -4  15  -4    0.80    1.90
  -4 -15   4   -2.10    2.80
   0 -16   4   18.70    3.30
   0 -16   4   18.70    4.30
   0 -16  -4   19.30    3.50
   0 -16   4   19.80    3.70
   0 -16  -4   16.60    3.10
   1 -16   4   37.10    5.00
  -1 -16  -4   46.80    5.60
   1 -16   4   29.10    4.30
  -1 -16   4   42.10    5.30
   1 -16  -4   39.70    6.10
   1 -16  -4   40.70    5.00
  -1 -16   4   27.50    4.30
  -1 -16   4   45.00    6.70
  -2 -16  -4   15.60    3.20
   2 -16   4   12.00    2.60
  -2 -16  -4   17.00    5.40
  -2 -16  -4   13.40    3.00
  -2  16  -4   12.10    3.00
  -2 -16   4   10.50    3.50
   2 -16  -4   11.70    3.40
  -3 -16  -4   21.40    3.30
   3 -16   4   26.00    3.40
  -3 -16  -4   25.00    4.90
  -3  16   4   26.40    4.20
  -3 -16   4   28.50    3.90
  -3 -16   4   18.00    3.70
  -3  16  -4   21.40    3.00
   4 -16   4    9.90    3.20
  -4  16   4   18.30    2.60
  -4 -16   4   16.30    3.70
  -4  16  -4   12.10    2.40
   0 -17  -4   23.90    4.20
   0 -17  -4   25.50    3.90
   0 -17  -4   20.10    3.30
   0 -17   4   20.90    3.80
  -1 -17  -4   11.20    3.20
  -1 -17  -4    8.60    2.70
   1 -17   4   18.70    3.10
   1 -17  -4   15.90    3.80
  -1 -17   4   14.80    4.40
   1 -17  -4   15.10    3.20
  -2  17   4   22.90    3.70
  -2 -17  -4   21.40    3.60
  -2 -17  -4   17.20    3.10
   2 -17   4   24.40    3.20
   2 -17  -4   26.60    4.40
  -2 -17   4   28.20    4.40
  -2 -17   4   26.60    3.60
  -3  17   4   95.49    6.40
  -3 -17  -4   87.49    7.90
   3 -17   4   96.09    5.90
  -3  17  -4   78.89    6.50
  -3 -17   4   85.59    6.40
  -3 -17   4   78.29    6.80
   0 -18   4  257.87   12.80
   0 -18  -4  273.77   12.70
   0 -18  -4  254.37   13.10
  -1 -18  -4   11.80    2.90
  -1 -18  -4   14.20    3.00
   1 -18   4   19.60    3.10
   1 -18  -4   19.10    3.40
  -1 -18   4   13.30    3.20
   1 -18  -4   13.50    3.40
   2 -18   4   59.99    5.00
  -2 -18  -4   59.59    5.90
  -2 -18  -4   61.69    5.20
  -2 -18   4   46.00    5.20
   0   0   5    0.20    0.80
   0   0  -5    0.90    0.90
   1   0   5  418.06   17.50
  -1   0  -5  412.86   17.60
  -1   0   5  423.26   17.50
   1   0  -5  409.36   17.60
  -2   0  -5  178.08    8.40
   2   0   5  190.68    8.20
   2   0  -5  187.28    8.70
  -2   0  -5  173.68    8.80
  -3   0   5   13.70    2.40
  -3   0  -5   13.90    2.80
   3   0  -5   13.80    2.00
  -3   0   5    9.40    2.60
  -3   0  -5   11.00    2.20
  -3   0   5   12.20    2.60
  -3   0  -5   13.60    2.20
   3   0  -5    9.30    2.10
  -3   0  -5   10.90    2.50
  -4   0   5    9.00    2.40
  -4   0  -5   13.80    2.80
  -4   0  -5   12.20    2.20
  -4   0  -5   10.30    2.90
  -4   0  -5   14.10    2.90
  -4   0   5   13.20    3.20
  -4   0   5   13.70    4.40
  -4   0   5   15.20    3.70
  -5   0   5  363.86   18.70
  -5   0  -5  351.26   18.30
  -5   0  -5  342.07   19.60
  -5   0   5  353.46   15.50
  -5   0  -5  358.26   17.20
  -5   0  -5  354.36   15.30
  -6   0  -5  455.05   21.30
  -6   0  -5  423.06   24.10
  -6   0  -5  438.36   23.00
  -6   0   5  472.85   19.40
  -6   0   5  454.45   23.00
  -7   0  -5    5.80    3.80
  -7   0   5    5.00    2.50
  -7   0   5    9.30    4.10
   0   1   5 3173.48  125.19
   0  -1  -5 3038.60  125.29
   0   1  -5 3129.89  125.29
   0  -1   5 3147.89  125.19
  -1  -1  -5   17.70    2.60
  -1   1   5   17.80    2.30
   1   1  -5   18.50    2.60
   1  -1   5   18.90    1.80
  -2   1   5  325.57   14.00
  -2  -1  -5  320.27   13.90
  -2  -1  -5  325.07   14.60
   2   1  -5  341.47   14.30
   2   1  -5  331.17   14.20
  -2   1  -5  305.87   14.50
  -2   1  -5  313.77   13.90
   2   1   5  311.77   13.80
   2  -1  -5  324.37   14.20
   3   1  -5  761.72   29.00
  -3   1   5  672.93   32.60
   3   1  -5  685.73   29.10
  -3  -1  -5  712.03   30.20
  -3   1   5  694.83   28.50
  -3  -1  -5  699.73   32.60
  -3   1   5  652.43   34.20
  -3   1   5  706.13   30.60
  -3   1   5  670.23   28.80
   3  -1  -5  684.83   28.90
   3  -1  -5  653.13   28.80
  -3   1  -5  671.13   31.00
  -3  -1   5  722.23   28.60
  -3   1  -5  649.34   32.50
  -3  -1   5  685.53   30.50
  -3  -1   5  755.42   32.80
  -3   1  -5  729.33   27.60
  -3  -1   5  650.93   30.30
  -3   1  -5  742.63   30.30
  -4   1   5  124.79    8.20
  -4   1   5  123.79    8.40
  -4   1   5  110.19    9.20
  -4  -1  -5  123.69    7.60
  -4   1   5  122.09    9.40
  -4  -1  -5  121.69    8.10
  -4  -1  -5  127.29    6.90
  -4   1  -5  127.99    8.60
  -4  -1   5  126.39    9.50
  -4   1  -5  136.69    8.00
  -4  -1   5  136.29    8.40
  -4  -1   5  140.89    9.10
  -4   1  -5  108.09    8.60
  -4   1  -5  141.19    7.80
  -4   1  -5  132.59    6.60
  -5   1   5  177.58   10.40
  -5  -1  -5  173.98   10.00
  -5  -1  -5  189.38   11.30
  -5   1   5  168.48    8.30
  -5  -1  -5  166.88    9.50
  -5   1  -5  136.59   10.60
  -5   1  -5  144.99   10.30
  -5   1  -5  147.09    8.10
  -5  -1   5  169.18   10.20
  -5   1  -5  137.19   10.00
  -5   1  -5  149.09    9.50
  -6  -1  -5  131.79    9.20
  -6   1   5  130.29    9.60
  -6  -1  -5  131.49   10.40
  -6   1   5  127.59    7.30
  -6  -1  -5  125.49    9.70
  -6   1  -5  147.59    9.80
  -6   1  -5  129.49    9.90
  -6  -1   5  146.89    9.60
  -6  -1   5  146.29    7.70
  -7   1   5   24.30    3.40
  -7   1   5   31.60    5.00
  -7  -1  -5   21.80    4.20
  -7  -1   5   30.00    3.70
  -7   1  -5   27.40    4.60
  -7  -1   5   28.10    4.30
   0   2  -5 6729.13  267.37
   0   2  -5 6518.55  268.17
   0  -2  -5 6578.24  268.47
   0   2   5 6929.61  268.37
   1   2  -5 1069.79   43.00
  -1  -2  -5 1040.00   42.90
   1   2  -5 1075.89   42.90
  -1   2   5 1079.19   42.80
  -1   2  -5 1052.39   42.80
  -1   2  -5  929.61   42.70
   1   2   5 1058.09   42.80
   1  -2  -5 1078.39   43.00
   2   2  -5 1061.69   44.30
  -2   2   5 1053.49   44.10
  -2  -2  -5 1054.59   45.70
   2   2  -5 1102.29   44.30
  -2  -2  -5 1089.89   44.10
   2  -2  -5 1116.19   44.30
  -2   2  -5 1064.29   43.90
  -2   2  -5 1033.40   43.90
  -2   2  -5 1098.89   52.29
  -2  -2   5 1065.89   49.60
  -2   2  -5 1099.59   45.70
   2   2   5 1091.99   44.00
  -3  -2  -5  716.03   32.00
  -3   2   5  731.93   38.40
  -3   2   5  796.92   31.80
   3   2  -5  791.32   33.00
  -3   2   5  770.42   35.10
  -3   2   5  798.82   36.70
  -3  -2  -5  750.42   36.60
  -3  -2  -5  801.32   33.90
  -3   2   5  794.42   34.20
   3   2  -5  810.82   32.70
  -3  -2   5  759.02   34.00
  -3   2  -5  766.42   34.80
   3  -2  -5  827.52   32.70
  -3   2  -5  746.73   38.70
  -3  -2   5  710.73   34.00
  -3  -2   5  834.12   36.90
   3   2   5  793.22   32.20
  -3   2  -5  852.01   31.10
  -3   2  -5  837.32   34.00
  -3  -2   5  806.42   32.00
  -4   2   5   32.70    5.30
  -4   2   5   25.30    4.30
  -4  -2  -5   27.80    4.20
  -4   2   5   36.00    4.00
  -4   2   5   26.70    5.00
  -4  -2  -5   31.90    3.90
  -4   2   5   26.80    3.50
  -4  -2   5   30.90    4.20
  -4   2  -5   27.70    3.40
  -4  -2   5   22.60    3.70
  -4   2  -5   29.90    5.10
  -4   2  -5   28.70    4.50
  -4  -2   5   29.60    4.40
  -4   2  -5   29.70    4.50
  -4  -2   5   28.30    5.00
  -5   2   5  152.98   10.40
  -5   2   5  141.29   11.00
  -5  -2  -5  156.38    9.50
  -5   2   5  154.18    8.10
  -5  -2  -5  157.08    9.80
  -5  -2  -5  176.98   11.30
  -5   2  -5  171.38    8.20
  -5   2  -5  160.88    9.70
  -5   2  -5  157.58   10.70
  -5  -2   5  177.48   10.30
  -5   2  -5  157.78    9.70
  -6   2   5   73.49    5.30
  -6  -2  -5   72.19    7.80
  -6  -2  -5   73.09    7.50
  -6   2   5   76.99    7.90
  -6  -2  -5   67.19    7.10
  -6   2  -5   79.59    5.90
  -6   2  -5   79.49    7.50
  -6  -2   5   87.09    5.60
  -6  -2   5   85.99    7.50
  -7  -2  -5   -2.00    3.60
  -7   2   5    1.60    2.10
  -7  -2   5   -2.80    2.50
  -7  -2   5    3.20    3.50
  -7   2  -5    3.90    3.90
   0  -3  -5 2610.04  104.59
   0   3  -5 2567.34  104.49
   0   3  -5 2519.65  104.59
   0   3   5 2678.53  104.49
  -1  -3  -5  359.26   15.20
  -1   3   5  352.96   14.90
   1   3  -5  353.76   15.10
   1   3  -5  361.96   15.20
  -1   3  -5  332.67   14.90
   1  -3  -5  318.47   15.00
  -1   3  -5  330.27   15.00
   1   3   5  330.17   14.80
  -2   3   5  916.71   36.60
   2   3  -5  921.11   36.80
  -2  -3  -5  835.52   36.70
  -2  -3  -5  892.41   37.80
  -2  -3  -5  838.82   40.80
   2   3  -5  871.11   36.70
  -2  -3  -5  850.31   36.20
  -2   3  -5  859.51   37.60
   2   3   5  918.21   36.50
  -2   3  -5  867.51   43.10
  -2  -3   5  843.32   40.90
   2  -3  -5  928.51   36.80
  -2  -3   5  866.41   35.30
  -2   3  -5  903.41   36.40
  -2   3  -5  919.81   36.50
  -2   3  -5  892.91   34.70
  -2  -3   5  889.21   37.40
  -3   3   5  179.88    9.70
  -3   3   5  174.18    9.30
   3   3  -5  173.08    8.50
  -3   3   5  168.48    8.50
  -3  -3  -5  180.78    9.10
  -3  -3  -5  182.08    8.50
  -3   3   5  182.28    9.00
  -3   3   5  180.98    9.60
  -3   3  -5  151.48    7.40
  -3  -3   5  140.09    8.50
  -3  -3   5  141.79    9.30
  -3  -3   5  147.39    9.00
  -3   3  -5  133.59    8.30
  -3  -3   5  148.59    8.70
  -3   3  -5  140.59    8.30
   3   3   5  146.89    8.00
  -3   3  -5  150.28    9.70
  -4   3   5  109.09    6.20
  -4   3   5  103.19    8.30
  -4   3   5  102.59    7.80
  -4  -3  -5  107.89    7.30
  -4   3   5  108.49    7.90
  -4  -3  -5  114.49    7.70
  -4   3   5  112.09    8.30
  -4   3   5  107.39   10.00
  -4  -3   5  139.19    8.30
  -4   3  -5  127.89    8.60
  -4   3  -5  128.89    7.40
  -4  -3   5  127.09    8.30
  -4  -3   5  122.49    8.60
  -4   3  -5  128.99    6.30
  -4   3  -5  123.89    7.30
  -5   3   5  305.97   16.30
  -5  -3  -5  298.77   15.10
  -5   3   5  300.27   13.50
  -5  -3  -5  302.97   15.90
  -5  -3   5  309.37   16.40
  -5   3  -5  332.47   17.20
  -5   3  -5  287.27   14.90
  -5   3  -5  278.47   15.10
  -5   3  -5  283.17   13.20
  -6   3   5   54.99    7.50
  -6  -3  -5   53.89    7.20
  -6  -3  -5   54.19    6.60
  -6   3   5   51.89    4.40
  -6  -3  -5   47.20    6.30
  -6  -3   5   49.70    6.30
  -6  -3   5   51.59    4.80
  -6   3  -5   51.69    6.40
  -6   3  -5   50.99    4.80
  -7  -3  -5    6.80    4.20
  -7  -3  -5    6.60    4.80
  -7   3   5    0.00    2.00
  -7   3  -5    4.70    3.40
  -7  -3   5    2.40    2.90
  -7  -3   5    4.90    3.50
   0  -4  -5 2422.66  100.69
   0  -4   5 2463.85  101.09
   0   4  -5 2493.75  100.69
   0   4   5 2583.84  100.59
   1   4  -5  247.98   11.90
  -1  -4  -5  235.88   12.10
  -1   4   5  251.87   11.70
   1  -4   5  256.07   12.60
   1   4   5  261.67   11.70
  -1   4  -5  267.17   11.80
  -1   4  -5  268.77   11.90
   1  -4  -5  262.27   12.10
  -2  -4  -5  480.25   21.40
   2   4  -5  470.75   21.50
  -2   4   5  467.65   20.00
  -2  -4  -5  467.45   23.10
  -2   4   5  486.85   21.10
   2   4  -5  453.55   21.10
  -2   4   5  487.05   19.70
   2  -4  -5  490.85   21.50
  -2   4  -5  508.75   22.10
  -2   4  -5  459.75   21.00
  -2  -4   5  490.05   20.10
  -2  -4   5  500.55   21.50
  -2   4  -5  523.95   19.60
  -2  -4   5  531.75   23.40
   2   4   5  499.95   20.90
  -2   4  -5  485.75   21.30
  -2   4  -5  453.25   24.40
  -2   4  -5  499.45   21.00
   3   4  -5  155.28    9.00
  -3  -4  -5  155.68    8.50
  -3  -4  -5  156.08    9.20
  -3   4   5  159.18    7.70
  -3   4   5  147.79    9.20
  -3   4   5  159.38    8.50
  -3   4   5  146.29    9.40
  -3   4   5  171.18    9.00
  -3  -4   5  161.88    8.90
  -3   4  -5  171.28    9.80
  -3   4  -5  159.28    8.70
  -3   4  -5  171.18    7.60
  -3  -4   5  166.78    9.80
  -3   4  -5  166.98    8.60
  -3  -4   5  179.88    9.40
  -3  -4   5  176.28    8.40
  -4  -4  -5  517.85   23.70
  -4   4   5  484.15   24.00
  -4   4   5  458.15   23.70
  -4  -4  -5  481.95   22.00
  -4   4   5  484.85   22.60
  -4   4   5  467.75   20.60
  -4   4   5  490.55   20.10
  -4  -4   5  435.06   23.70
  -4  -4   5  514.45   21.10
  -4   4  -5  496.05   19.90
  -4   4  -5  480.55   25.00
  -4  -4   5  452.25   22.10
  -4   4  -5  473.25   21.70
  -4   4  -5  496.35   22.40
  -5  -4  -5  530.75   24.60
  -5  -4  -5  552.64   26.50
  -5   4   5  539.45   26.70
  -5   4   5  535.95   25.20
  -5   4   5  527.45   22.40
  -5  -4   5  518.85   26.60
  -5   4  -5  525.95   22.10
  -5  -4   5  516.15   25.00
  -5   4  -5  594.54   28.10
  -5  -4   5  529.35   24.30
  -5   4  -5  516.85   24.40
  -5   4  -5  532.55   24.90
  -6   4   5  135.09   10.70
  -6  -4  -5  129.49    8.90
  -6  -4  -5  126.19   10.40
  -6   4   5  123.09    7.20
  -6  -4  -5  123.69    9.10
  -6  -4   5  144.29    9.50
  -6   4  -5  139.19    7.30
  -6  -4   5  139.19    7.60
  -6   4  -5  134.19    9.20
  -6   4  -5  146.39    9.90
  -7   4   5   59.89    4.30
  -7  -4  -5   54.69    8.30
  -7  -4  -5   57.69    7.30
  -7  -4  -5   55.29    7.50
  -7  -4   5   51.49    5.30
  -7  -4   5   61.19    6.10
   0  -5   5   29.00    3.90
   0  -5  -5   38.20    4.80
   0   5   5   34.60    3.30
   0   5  -5   32.30    3.40
  -1   5   5 1476.95   59.39
  -1  -5  -5 1625.04   62.59
  -1   5   5 1570.84   61.99
  -1  -5  -5 1452.95   69.09
  -1  -5  -5 1443.96   61.19
  -1  -5  -5 1410.46   63.69
   1  -5   5 1475.35   62.59
   1  -5   5 1576.34   61.59
   1   5  -5 1515.45   62.19
   1  -5  -5 1489.45   62.39
  -1  -5   5 1533.35   62.99
  -1  -5   5 1547.15   62.29
  -1  -5   5 1511.75   60.69
  -1   5  -5 1503.15   61.99
   1   5   5 1578.24   61.99
  -2   5   5  119.09    7.00
  -2   5   5  112.09    7.50
  -2   5   5  118.99    6.30
  -2  -5  -5  122.79    7.50
   2   5  -5  128.09    7.60
   2   5  -5  115.99    9.20
  -2  -5  -5  122.49    7.00
   2  -5  -5  140.09    9.10
  -2   5  -5  137.39    6.20
  -2  -5   5  140.49    7.60
  -2   5  -5  135.79    7.20
  -2   5  -5  138.09    8.30
  -2   5  -5  137.39    7.70
  -2   5  -5  136.79    7.20
   2   5   5  148.79    7.50
  -2  -5   5  138.29    8.10
  -3   5   5  244.88   10.80
  -3  -5  -5  242.78   12.80
  -3   5   5  245.78   12.40
  -3   5   5  228.58   13.00
   3   5  -5  249.48   12.80
  -3  -5  -5  221.58   12.90
  -3   5   5  238.88   13.10
  -3  -5  -5  245.78   12.10
  -3   5   5  244.98   11.40
  -3   5  -5  261.17   13.80
  -3  -5   5  254.07   13.00
   3   5   5  224.18   12.20
  -3   5  -5  266.17   10.80
  -3  -5   5  257.47   12.10
  -3  -5   5  248.38   13.30
  -3   5  -5  244.08   12.20
  -3  -5   5  257.07   11.60
   3  -5  -5  226.68   12.90
  -3   5  -5  252.57   11.90
  -4   5   5   73.89    7.10
  -4   5   5   75.99   10.50
  -4   5   5   77.99    6.70
  -4   5   5   76.69    4.70
  -4  -5  -5   83.29    6.10
  -4  -5  -5   73.79    5.90
  -4   5   5   68.89    6.40
  -4  -5   5   64.29    7.00
  -4   5  -5   70.79    6.60
  -4  -5   5   67.09    6.60
  -4  -5   5   74.69    6.60
  -4   5  -5   78.49    5.80
  -4   5  -5   67.99    6.10
  -4   5  -5   74.89    4.60
  -5  -5  -5   40.70    5.20
  -5   5   5   35.80    5.10
  -5   5   5   43.70    3.90
  -5  -5  -5   39.90    5.10
  -5   5   5   59.39    6.70
  -5   5  -5   43.60    5.30
  -5   5  -5   44.20    5.90
  -5  -5   5   44.80    6.90
  -5   5  -5   51.09    4.10
  -5  -5   5   40.40    5.30
  -5  -5   5   38.40    5.60
  -6   5   5  107.19    6.30
  -6  -5  -5  104.89    7.80
  -6  -5  -5  110.29    7.90
  -6  -5  -5   95.99    9.20
  -6  -5   5  121.69    8.30
  -6   5  -5  101.59    7.80
  -6  -5   5  108.19    6.80
  -6   5  -5   99.39    8.10
  -6   5  -5  107.59    6.30
  -7   5   5   22.70    3.10
  -7  -5  -5   25.30    5.70
  -7  -5  -5   16.80    4.10
  -7  -5  -5   12.10    5.30
  -7  -5   5   30.00    4.90
   0   6  -5    6.10    1.90
   0   6   5    4.00    1.70
   0  -6   5    5.10    3.80
   0  -6   5    1.20    1.60
   0  -6  -5    5.60    3.30
   1  -6   5  327.47   17.40
   1   6  -5  332.97   15.50
  -1  -6  -5  316.77   16.40
  -1   6   5  338.17   14.10
  -1  -6  -5  325.17   14.50
  -1   6   5  350.96   15.50
  -1  -6  -5  321.67   15.20
   1  -6  -5  331.77   17.00
   1   6   5  342.57   15.40
  -1   6  -5  345.27   15.50
  -1  -6   5  334.77   14.40
  -1  -6   5  323.87   14.50
  -1  -6   5  346.17   14.80
  -2  -6  -5    3.30    1.90
  -2   6   5    4.60    2.70
   2   6  -5    3.10    2.30
  -2   6   5    2.90    1.50
  -2  -6  -5    2.10    2.10
  -2   6   5    2.60    1.70
  -2  -6  -5    5.80    2.10
   2  -6  -5    2.60    2.40
   2   6   5    4.60    2.40
  -2   6  -5    4.30    2.20
  -2   6  -5    2.40    1.20
  -2  -6   5    2.50    2.20
  -2   6  -5    1.30    1.50
   2  -6  -5    1.80    4.70
  -2  -6   5    1.30    1.50
  -2  -6   5   -1.70    2.80
  -2  -6   5    4.00    2.30
  -2   6  -5    1.10    2.70
  -3  -6  -5  225.68   12.00
  -3  -6  -5  229.08   11.30
  -3   6   5  216.28   12.80
  -3   6   5  217.58   10.70
  -3   6   5  202.78   11.60
  -3  -6  -5  214.98   11.50
   3   6  -5  212.58   12.50
  -3  -6  -5  222.48   12.00
  -3   6   5  219.78   10.00
  -3   6   5  204.18   12.20
  -3   6  -5  241.38   11.20
  -3   6  -5  233.18   10.00
   3   6   5  228.08   12.10
  -3  -6   5  231.88   11.00
  -3   6  -5  238.88   11.30
  -3   6  -5  224.18   12.70
  -3  -6   5  240.58   11.50
   3  -6  -5  218.48   12.40
  -3  -6   5  236.58   12.40
  -4   6   5  268.57   12.00
  -4   6   5  245.08   17.90
  -4   6   5  274.17   13.80
  -4  -6  -5  269.47   14.20
  -4   6   5  256.77   14.70
  -4  -6  -5  279.57   13.50
  -4   6   5  248.08   12.80
  -4  -6   5  274.77   13.30
  -4   6  -5  270.17   11.80
  -4   6  -5  263.47   15.00
  -4   6  -5  255.07   13.50
  -4  -6   5  275.87   14.70
  -4   6  -5  265.97   13.50
  -4  -6   5  267.57   13.80
  -5  -6  -5  132.69    9.00
  -5   6   5  144.29    9.30
  -5   6   5  133.39    7.60
  -5  -6  -5  133.19    9.40
  -5  -6   5  152.78   11.40
  -5   6  -5  152.38    8.80
  -5   6  -5  157.78   10.30
  -5  -6   5  146.69   10.00
  -5   6  -5  152.38    7.60
  -5  -6   5  151.28    9.80
  -6  -6  -5   60.19    8.10
  -6  -6  -5   61.79    6.20
  -6   6   5   66.39    4.70
  -6  -6  -5   70.59    6.40
  -6  -6   5   65.29    5.50
  -6  -6   5   57.19    6.30
  -6   6  -5   59.69    6.30
  -6   6  -5   50.79    6.00
  -7   6   5  134.39    6.70
  -7  -6  -5  129.39    8.90
  -7  -6   5  133.19    8.60
   0  -7  -5   53.69    4.90
   0   7  -5   66.79    6.00
   0   7   5   65.99    5.20
   0  -7  -5   54.89    4.80
   0  -7   5   55.59    4.10
  -1   7   5   43.70    4.10
  -1   7   5   53.59    5.90
   1  -7   5   47.80    7.30
   1   7  -5   53.49    5.30
   1  -7   5   45.10    4.70
  -1  -7  -5   55.09    4.50
  -1  -7  -5   52.49    4.60
  -1  -7  -5   51.69    4.60
  -1   7   5   48.80    4.00
   1   7   5   56.09    4.90
  -1   7  -5   58.99    5.60
  -1   7  -5   51.39    4.90
  -1  -7   5   61.69    4.10
  -1  -7   5   66.29    5.00
   1  -7  -5   59.29    4.80
  -1  -7   5   56.69    4.40
  -2   7   5  766.82   32.00
  -2  -7  -5  772.02   31.70
  -2   7   5  761.22   29.50
  -2   7   5  770.52   29.00
   2   7  -5  729.23   31.80
  -2  -7  -5  744.53   31.60
  -2  -7  -5  752.72   34.20
  -2   7   5  728.43   32.70
  -2  -7   5  742.53   34.30
  -2  -7   5  664.93   30.00
  -2  -7   5  709.23   31.70
   2   7   5  734.33   31.70
   2  -7  -5  676.23   31.40
  -2   7  -5  709.03   35.80
  -2   7  -5  710.93   32.50
  -2  -7   5  673.83   30.10
  -2   7  -5  678.83   31.60
  -3   7   5   99.49    5.60
  -3   7   5  102.49    8.10
   3   7  -5   89.19    9.90
  -3  -7  -5  101.89    6.60
  -3  -7  -5  107.69    7.60
  -3   7   5   98.49    9.70
  -3   7   5   88.09    6.60
  -3  -7  -5  112.19    7.00
  -3  -7  -5   93.29    7.30
  -3   7   5  106.49    6.60
  -3   7  -5  112.69    7.60
  -3  -7   5  100.59    7.60
  -3   7  -5  114.29    6.80
   3   7   5   88.49   10.00
  -3   7  -5  109.79    5.50
  -3  -7   5  109.19    6.90
  -3  -7   5  105.49    6.80
  -4  -7  -5  645.14   27.60
  -4   7   5  588.14   24.30
  -4  -7  -5  582.54   26.80
  -4   7   5  594.34   27.40
  -4  -7  -5  578.84   28.70
  -4   7   5  572.84   28.90
  -4  -7   5  579.64   25.20
  -4   7  -5  574.94   24.10
  -4  -7   5  590.44   27.00
  -4  -7   5  611.44   29.00
  -4   7  -5  586.34   30.30
  -4   7  -5  565.94   27.20
  -5   7   5   23.90    3.20
  -5  -7  -5   20.30    3.80
  -5   7   5   17.80    3.20
  -5  -7  -5   19.20    3.70
  -5  -7   5   18.90    5.30
  -5   7  -5   11.60    2.80
  -5  -7   5   11.20    3.90
  -5   7  -5   16.90    3.70
  -5  -7   5   19.60    3.80
  -5   7  -5   15.10    2.70
  -6  -7  -5  110.69    7.80
  -6   7   5  125.09    8.50
  -6  -7  -5  105.19   10.00
  -6  -7  -5  108.09    8.20
  -6   7   5  111.69    6.40
  -6  -7   5  118.09    8.50
  -6  -7   5  108.49   10.40
  -6  -7   5  119.89    7.30
  -6   7  -5  119.89    7.60
  -7   7   5    1.20    2.00
  -7  -7  -5    7.70    3.80
  -7  -7   5   -0.40    3.10
   0  -8   5  274.07   13.70
   0  -8  -5  289.87   13.30
   0  -8  -5  267.37   13.90
   0  -8   5  290.37   12.60
   0   8  -5  287.67   14.60
   0   8   5  288.27   14.30
  -1   8   5  255.87   10.90
   1   8  -5  253.57   13.50
   1  -8   5  242.98   11.40
  -1  -8  -5  257.67   12.30
  -1  -8  -5  267.37   12.10
  -1   8   5  259.27   13.50
  -1  -8  -5  239.08   12.90
   1   8   5  251.47   13.10
  -1   8  -5  247.38   13.60
  -1  -8   5  248.78   11.40
   1  -8  -5  247.68   12.00
  -1  -8   5  238.38   11.40
  -1   8  -5  250.77   12.40
  -1  -8   5  242.88   12.20
  -2   8   5  109.29    5.60
  -2  -8  -5  116.39    6.60
  -2   8   5   92.69   11.30
  -2  -8  -5  104.99    7.00
   2   8  -5   99.49    9.40
  -2   8   5  117.49    6.80
  -2  -8  -5  112.09    6.90
   2   8   5  106.69    8.80
  -2  -8   5   95.99    7.60
   2  -8  -5   84.99    7.20
  -2   8  -5   96.09    6.40
  -2  -8   5  102.29    6.30
  -2  -8   5   97.39    7.60
  -2  -8   5  104.29    7.00
  -3  -8  -5  188.38   10.80
  -3  -8  -5  188.98   10.80
  -3  -8  -5  182.58   10.20
  -3   8   5  172.38   10.20
  -3  -8  -5  181.58   10.30
  -3   8   5  181.88    8.90
  -3  -8   5  208.98   10.40
  -3  -8   5  205.88   10.00
  -3   8  -5  197.88   10.10
  -3  -8   5  191.98   11.20
  -4  -8  -5   20.60    3.80
  -4  -8  -5   18.80    4.10
  -4  -8  -5   17.00    3.40
  -4   8   5   22.00    3.10
  -4   8   5   18.80    3.40
  -4   8  -5   15.80    3.40
  -4  -8   5   15.10    3.50
  -4   8  -5   11.70    2.50
  -4  -8   5   19.90    3.70
  -4  -8   5   20.70    3.80
  -5  -8  -5  241.28   13.80
  -5  -8  -5  236.98   12.80
  -5   8   5  228.78   12.90
  -5   8   5  227.58   11.20
  -5   8  -5  248.88   12.70
  -5  -8   5  256.37   13.50
  -5  -8   5  241.38   13.90
  -5  -8   5  262.87   14.10
  -6   8   5   17.90    3.50
  -6  -8  -5    9.40    4.90
  -6  -8  -5   18.10    3.60
  -6   8   5   10.90    2.30
  -6  -8  -5   14.40    3.50
  -6   8  -5   13.30    2.80
  -6  -8   5   15.00    3.80
  -6  -8   5    9.80    5.40
   0  -9   5   72.89    6.30
   0  -9  -5   77.09    5.60
   0   9  -5   69.39    8.10
   0   9  -5   56.99    7.10
   0   9   5   70.29    8.50
   0  -9  -5   70.59    7.30
   0  -9   5   65.89    4.90
  -1  -9  -5  509.35   24.40
   1   9  -5  523.55   24.20
  -1   9   5  493.25   24.10
  -1  -9  -5  520.35   22.60
  -1   9   5  517.55   23.30
   1  -9   5  494.95   21.30
  -1  -9  -5  511.65   22.60
   1  -9   5  549.85   23.80
  -1   9  -5  483.45   24.10
  -1  -9   5  497.55   21.40
  -1  -9   5  468.35   21.10
  -1   9  -5  492.55   23.00
  -1  -9   5  496.65   22.70
   1   9   5  483.65   23.50
   1  -9  -5  477.65   22.40
  -2   9   5  455.95   18.50
  -2  -9  -5  455.95   20.50
  -2  -9  -5  469.25   22.20
  -2  -9  -5  450.55   20.40
  -2   9   5  469.25   21.20
   2   9  -5  427.06   22.40
  -2  -9   5  467.25   19.60
   2  -9  -5  429.56   20.40
  -2   9  -5  446.56   20.90
  -2  -9   5  446.56   20.60
  -2  -9   5  433.36   22.30
  -2  -9   5  427.66   19.70
   2   9   5  431.86   22.10
  -3  -9  -5  206.98   11.40
  -3  -9  -5  206.28   11.70
  -3   9   5  209.18   11.40
  -3  -9  -5  206.68   11.20
  -3  -9  -5  209.88   12.20
  -3   9   5  200.38    9.80
  -3  -9   5  215.68   11.50
  -3   9  -5  217.78   11.20
  -3  -9   5  214.88   12.30
  -3  -9   5  241.18   11.10
  -4   9   5  899.01   37.20
  -4  -9  -5  923.41   41.00
  -4   9   5  919.11   41.90
  -4  -9  -5  894.61   40.70
  -4  -9  -5  920.01   44.00
  -4  -9   5  858.01   43.80
  -4  -9   5  969.10   38.30
  -4   9  -5  902.11   41.70
  -4  -9   5 1033.30   41.30
  -5   9   5  227.58   12.50
  -5  -9  -5  229.18   12.50
  -5  -9  -5  239.98   13.50
  -5   9   5  233.28   11.00
  -5   9  -5  239.98   12.30
  -5  -9   5  226.98   13.00
  -5  -9   5  240.58   13.60
  -5  -9   5  237.28   13.50
  -6  -9  -5    6.70    3.40
  -6   9   5   11.20    3.10
  -6  -9  -5    4.50    3.10
  -6   9   5    4.50    2.20
  -6  -9  -5    4.20    5.00
  -6  -9   5    2.40    5.20
  -6   9  -5    4.60    2.30
  -6  -9   5    3.00    3.40
   0 -10  -5  293.67   13.80
   0  10   5  280.07   16.60
   0 -10   5  277.57   12.90
   0  10   5  290.67   14.40
   0  10  -5  268.57   17.20
   0 -10   5  283.57   14.10
   1  10  -5  371.36   21.20
  -1 -10  -5  403.66   18.20
  -1  10   5  429.56   18.90
   1 -10   5  395.26   17.20
   1 -10   5  389.46   18.90
  -1 -10  -5  387.56   18.30
  -1  10   5  369.16   21.70
   1  10   5  381.86   21.20
  -1  10  -5  351.46   21.70
  -1 -10   5  406.16   17.30
  -1 -10   5  399.46   17.20
  -1  10  -5  354.16   18.40
  -1 -10   5  400.96   18.40
   1 -10  -5  418.06   18.30
  -2  10   5   58.09    4.40
  -2 -10  -5   53.49    5.40
  -2  10   5   50.19    5.30
  -2 -10  -5   64.59    6.00
  -2 -10  -5   61.69    5.90
   2 -10  -5   46.60    6.10
  -2 -10   5   49.60    4.70
  -2 -10   5   48.70    5.60
  -2 -10   5   47.70    6.70
  -2 -10   5   50.49    5.60
  -2  10  -5   50.59    5.10
  -3 -10  -5   58.49    6.30
  -3 -10  -5   48.40    6.50
  -3 -10  -5   63.39    5.80
  -3  10   5   48.40    4.40
  -3 -10  -5   48.90    6.60
  -3  10   5   51.09    5.60
  -3 -10   5   63.59    7.00
  -3  10  -5   67.19    5.60
  -3 -10   5   62.29    5.90
  -3 -10   5   71.79    6.10
  -4  10   5   98.39    6.20
  -4  10   5  106.79    7.60
  -4 -10  -5  122.99    9.40
  -4 -10  -5  100.09    7.70
  -4 -10  -5  108.39    8.50
  -4 -10   5  116.19    8.20
  -4 -10   5  107.69    8.50
  -4 -10   5  102.69    8.30
  -4  10  -5  108.49    7.40
  -5  10   5  160.68    8.10
  -5  10   5  170.38    9.50
  -5 -10  -5  172.18    9.60
  -5 -10  -5  170.88   10.10
  -5 -10   5  135.09   11.20
  -5 -10   5  145.49   10.10
  -5 -10   5  151.58   10.30
  -5  10  -5  149.19    9.00
  -6 -10  -5    8.80    3.10
  -6  10   5   11.70    3.00
  -6 -10  -5    6.60    5.60
  -6  10   5    5.90    2.20
  -6 -10  -5    8.30    3.10
  -6 -10   5    1.60    5.30
  -6 -10   5    1.30    3.40
  -6  10  -5    6.60    2.40
   0 -11   5 1299.17   52.19
   0 -11   5 1253.07   54.89
   0  11   5 1289.87   56.79
   0 -11  -5 1283.27   54.69
  -1  11   5  453.95   20.50
  -1 -11  -5  420.76   19.70
   1 -11   5  416.66   20.60
   1 -11   5  403.66   18.60
  -1 -11  -5  431.96   19.90
  -1 -11   5  430.56   19.90
  -1  11  -5  427.26   20.10
  -1 -11   5  431.46   18.80
   1 -11  -5  412.56   19.70
  -1 -11   5  423.96   18.80
  -2 -11  -5  138.39    8.80
  -2 -11  -5  127.99    9.30
  -2 -11  -5  119.89    8.70
  -2  11   5  128.29    8.60
  -2 -11  -5  132.69    8.10
  -2 -11   5  160.38    9.60
  -2 -11   5  158.28    8.90
   2 -11  -5  149.99    9.30
  -2 -11   5  148.29    8.10
  -2  11  -5  153.28    8.60
  -3 -11  -5  286.07   14.30
  -3  11   5  276.67   14.10
  -3 -11  -5  284.77   13.60
  -3 -11  -5  277.27   13.90
  -3  11   5  266.27   12.10
  -3 -11  -5  252.17   14.70
  -3  11  -5  245.28   13.60
  -3 -11   5  245.58   15.00
  -3 -11   5  267.27   13.20
  -4 -11  -5   42.40    5.40
  -4 -11  -5   31.10    4.80
  -4  11   5   41.50    5.10
  -4 -11  -5   45.70    5.80
  -4  11   5   41.10    4.00
  -4 -11   5   36.50    4.80
  -4 -11   5   25.10    4.60
  -4  11  -5   32.60    4.40
  -4 -11   5   36.80    5.10
  -5 -11  -5   49.80    5.70
  -5  11   5   53.19    4.10
  -5  11   5   46.80    5.00
  -5 -11  -5   53.59    5.50
  -5  11  -5   56.19    4.80
  -5 -11   5   44.70    6.20
  -5 -11   5   42.90    6.60
  -5 -11   5   48.90    6.30
  -6  11   5   35.00    4.60
  -6 -11  -5   34.30    4.90
  -6 -11   5   27.50    4.70
  -6  11  -5   26.40    3.80
   0 -12   5   14.10    3.60
   0  12   5   13.80    3.00
   0 -12  -5   16.60    3.00
   0 -12   5   15.80    2.80
   0 -12   5   17.50    3.00
  -1  12   5   23.70    3.40
  -1 -12  -5   32.90    4.60
  -1 -12  -5   34.40    4.60
   1 -12   5   25.80    4.80
   1 -12   5   23.90    3.30
  -1 -12   5   31.70    4.10
  -1  12  -5   25.10    3.50
  -1 -12   5   37.80    4.80
  -1 -12   5   30.40    3.70
   1 -12  -5   36.70    5.50
  -2 -12  -5  106.69    7.00
  -2  12   5   93.19    7.20
  -2 -12  -5   95.39    7.60
  -2 -12  -5   94.89    7.30
  -2 -12   5   95.59    7.30
  -2 -12   5   97.29    6.80
  -2 -12   5   86.29    8.70
   2 -12  -5   99.09    7.90
  -2  12  -5   88.79    7.00
  -3 -12  -5   66.99    6.80
  -3 -12  -5   57.79    5.90
  -3 -12  -5   52.09    6.50
  -3 -12  -5   69.19    7.00
  -3 -12   5   41.40    6.00
  -3  12  -5   43.10    5.30
  -3 -12   5   44.30    5.90
  -3 -12   5   52.89    6.50
   4 -12   5   73.99    6.50
  -4 -12  -5   73.69    7.80
  -4  12   5   66.39    5.90
  -4 -12  -5   76.59    6.50
  -4 -12  -5   69.29    7.10
  -4  12  -5   66.89    5.70
  -4 -12   5   76.79    6.80
  -4 -12   5   60.99    7.10
  -4 -12   5   60.99    8.20
  -5  12   5   68.09    5.40
  -5 -12  -5   69.69    6.30
  -5 -12  -5   66.89    5.70
  -5 -12   5   55.59    7.60
  -5 -12   5   48.80    6.30
  -5  12  -5   60.69    5.00
  -5 -12   5   60.29    8.80
  -6  12  -5   18.50    2.80
   0 -13   5  248.88   12.20
   0 -13   5  242.78   12.10
   0 -13   5  227.78   13.00
   0 -13  -5  254.57   12.90
   0  13   5  236.68   13.70
  -1 -13  -5   79.99    6.50
  -1  13   5   71.79    6.90
  -1 -13  -5   76.29    8.00
   1 -13   5   74.39    6.80
  -1  13  -5   92.79    7.40
  -1 -13   5   90.29    6.30
  -1 -13   5   86.69    7.20
  -1 -13   5   82.39    7.10
   1 -13  -5   94.19    7.40
  -2 -13  -5  220.08   11.90
  -2  13   5  226.18   11.90
  -2 -13  -5  234.28   11.40
  -2 -13  -5  219.18   12.10
  -2 -13   5  186.88   12.90
  -2 -13   5  191.18   11.60
   2 -13  -5  208.78   12.20
  -2  13  -5  198.98   11.60
  -3 -13  -5  199.48   11.10
  -3 -13  -5  175.98   10.60
  -3 -13  -5  170.68   10.60
  -3  13   5  182.48   10.50
  -3 -13   5  177.78   10.20
  -3 -13   5  199.18   10.90
  -3  13  -5  175.08   10.20
  -4 -13  -5   64.89    7.40
  -4  13   5   57.99    5.40
  -4 -13  -5   63.99    6.10
   4 -13   5   59.99    5.70
  -4 -13   5   58.39    6.20
  -4 -13   5   59.99    6.90
  -4  13  -5   59.69    5.10
  -5  13   5   23.40    3.70
  -5 -13  -5   25.00    3.60
  -5  13  -5   28.30    3.50
  -5 -13   5   25.00    4.20
   0 -14   5  168.58    9.90
   0 -14  -5  184.68   10.50
   0 -14   5  178.68    9.80
  -1  14   5  249.68   13.10
   1 -14   5  256.67   12.10
   1 -14   5  233.38   12.50
  -1 -14  -5  255.97   12.80
  -1 -14  -5  245.58   12.10
  -1 -14   5  226.48   12.60
  -1 -14   5  221.08   12.00
  -1  14  -5  215.28   13.00
  -1 -14   5  221.38   12.30
   1 -14  -5  240.08   12.80
  -2 -14  -5    7.80    3.90
  -2  14   5    7.00    2.60
  -2 -14  -5   10.20    2.90
  -2 -14  -5    6.30    2.80
   2 -14   5    7.80    2.80
  -2  14  -5   11.30    2.90
  -2 -14   5    6.70    3.10
   2 -14  -5   10.40    3.70
  -3 -14  -5   75.09    7.50
  -3  14   5   76.79    6.20
  -3 -14  -5   80.49    7.10
  -3 -14  -5   77.99    6.90
   3 -14   5   71.69    6.10
  -3  14  -5   76.79    6.00
  -3 -14   5   86.79    6.80
  -3 -14   5   81.69    6.90
  -4 -14  -5   12.20    3.50
  -4  14   5    7.80    2.30
   4 -14   5   12.40    3.10
  -4 -14   5   18.50    4.10
  -4 -14   5   15.00    3.70
  -5 -14  -5   13.10    3.40
  -5  14   5   16.70    2.50
  -5  14  -5   15.50    2.30
  -5 -14   5   13.00    3.80
   0 -15   5   42.70    5.40
   0 -15   5   43.40    6.10
   0 -15   5   27.10    3.80
   0 -15  -5   38.30    5.60
   1 -15   5    7.60    2.80
   1 -15   5    3.20    3.70
  -1 -15  -5    6.70    2.50
  -1  15   5    6.90    3.30
  -1 -15  -5    7.00    3.00
   1 -15  -5    1.40    3.10
  -1 -15   5    1.90    2.90
  -1 -15   5    5.30    3.40
  -1 -15   5    2.00    2.90
   2 -15   5    4.60    2.60
  -2 -15  -5    1.50    4.40
  -2  15   5    9.00    2.90
  -2 -15  -5   10.00    3.10
  -2 -15  -5   11.30    3.10
  -2 -15   5    3.00    3.10
  -2  15  -5    7.50    2.60
   2 -15  -5   10.90    4.10
  -3 -15  -5   59.19    6.10
   3 -15   5   73.29    5.70
  -3 -15  -5   64.29    6.80
  -3  15   5   70.79    5.60
  -3 -15  -5   64.69    7.20
  -3  15  -5   67.89    5.50
  -3 -15   5   72.09    6.40
  -3 -15   5   67.29    6.20
  -4  15   5    3.00    2.00
   4 -15   5    2.80    2.90
  -4 -15  -5    3.90    3.60
  -4 -15   5   -0.60    3.20
  -4 -15   5    4.70    3.90
  -4  15  -5    4.70    2.10
   0 -16   5   52.19    5.90
   0 -16   5   54.99    7.00
   0 -16  -5   69.49    6.20
   0 -16  -5   56.49    5.60
  -1 -16  -5   28.00    4.00
  -1  16   5   22.00    4.10
   1 -16   5   21.80    3.20
  -1 -16  -5   25.30    3.60
  -1 -16   5   18.60    4.20
  -1 -16   5   23.30    4.30
   1 -16  -5   19.30    3.60
   1 -16  -5   19.90    3.50
  -2 -16  -5    3.70    2.60
   2 -16   5    1.60    2.50
  -2  16   5    1.50    2.50
  -2 -16  -5    1.60    2.80
  -2 -16   5    4.80    3.30
  -2 -16   5    3.10    2.90
   2 -16  -5    4.70    3.10
  -2  16  -5    3.80    3.20
   3 -16   5   15.60    2.90
  -3  16   5   10.30    2.70
  -3 -16  -5   15.40    3.10
  -3 -16  -5   11.00    4.90
  -3 -16   5    9.90    3.10
  -3  16  -5   13.00    2.80
  -3 -16   5   11.10    3.60
   4 -16   5   23.30    4.00
  -4  16   5   30.00    3.90
  -4  16  -5   30.10    3.80
   0 -17  -5    4.00    2.90
   0 -17   5   -2.80    4.90
   0 -17   5    6.40    3.10
   0 -17  -5    6.10    2.90
  -1 -17  -5   46.10    5.10
   1 -17   5   39.60    4.90
  -1 -17  -5   38.90    5.10
  -1 -17   5   28.90    4.60
  -1 -17   5   42.50    5.60
   1 -17  -5   47.40    6.00
   1 -17  -5   38.80    5.20
  -2 -17  -5   26.90    3.60
  -2  17   5   29.80    3.90
   2 -17   5   22.80    3.10
  -2 -17  -5   27.90    3.90
   2 -17  -5   29.60    4.30
  -2 -17   5   30.80    4.50
  -2 -17   5   26.40    3.50
  -3 -17   5   25.40    4.10
  -3 -17   5   21.20    3.40
   0 -18   5   35.10    4.30
   0 -18  -5   33.80    4.80
   0 -18  -5   23.30    3.60
   0 -18   5   21.50    3.70
  -1 -18  -5   38.70    5.00
  -1 -18  -5   33.70    4.60
   1 -18   5   38.40    4.80
  -1 -18   5   40.30    4.80
   1 -18  -5   42.60    5.40
  -2 -18  -5    8.90    3.30
   2 -18   5   11.00    2.90
  -2 -18  -5   11.30    2.70
  -2 -18   5   12.00    3.20
   0   0  -6  328.97   14.10
   0   0   6  311.37   13.80
  -1   0   6 1037.50   43.50
  -1   0  -6 1070.79   43.60
   1   0   6 1082.09   43.40
  -2   0  -6   50.99    4.40
   2   0   6   51.99    3.40
  -2   0  -6   47.30    3.80
   2   0  -6   47.50    4.70
  -3   0  -6  681.73   31.30
  -3   0   6  668.23   27.50
  -3   0   6  689.83   28.00
  -3   0   6  643.04   29.40
  -3   0  -6  684.43   29.10
  -3   0  -6  663.43   29.80
   3   0  -6  662.43   28.10
  -3   0   6  675.63   31.50
   3   0  -6  648.54   28.40
  -3   0  -6  646.24   26.50
  -4   0   6  202.28   11.60
  -4   0  -6  215.58   11.00
  -4   0  -6  208.08   11.20
  -4   0  -6  206.48   11.60
  -4   0  -6  207.28    9.80
  -4   0   6  219.18   13.50
  -4   0   6  218.98   11.30
  -5   0   6   -0.50    2.60
  -5   0  -6    4.50    2.90
  -5   0  -6    3.50    3.30
  -5   0  -6    2.70    3.30
  -6   0   6  195.98    9.70
  -6   0   6  198.18   12.00
  -6   0  -6  198.08   12.70
  -6   0  -6  189.88   11.30
  -7   0   6   26.00    4.40
  -7   0   6   28.70    3.50
  -7   0  -6   28.50    5.20
   0  -1  -6  571.94   24.60
   0   1   6  569.04   24.40
   0   1  -6  611.14   24.60
   0  -1   6  589.34   24.40
  -1  -1  -6  676.43   29.50
   1   1  -6  738.73   29.60
  -1   1   6  713.83   29.40
   1  -1   6  690.13   29.20
   1  -1  -6  717.13   29.60
  -1   1  -6  692.33   29.40
   1   1   6  727.93   29.40
  -2  -1  -6  157.78    6.90
  -2  -1  -6  159.68    7.20
   2  -1  -6  122.19    7.40
   2   1   6  125.19    6.50
  -2  -1   6  113.09    7.60
  -2   1  -6  116.59    6.70
  -2  -1   6  120.19    6.90
  -2   1  -6  133.29    6.80
  -2   1  -6  110.69    7.00
  -3   1   6   90.79    6.40
  -3   1   6  103.19    6.90
  -3  -1  -6   90.09    5.50
  -3  -1  -6   95.49    5.60
   3   1  -6   81.19    7.00
  -3   1   6   86.29    6.80
  -3   1   6   91.89    6.70
  -3  -1  -6   97.59    6.10
   3   1  -6   92.39    6.10
  -3  -1  -6   86.79    6.40
  -3   1  -6   92.19    6.00
  -3  -1   6   73.89    8.00
  -3   1  -6   90.49    6.60
  -3  -1   6   94.99    6.40
   3  -1  -6   92.19    6.20
  -3  -1   6  101.89    6.70
  -3   1  -6   92.79    5.70
  -3  -1   6   98.09    6.60
  -3   1  -6   94.49    5.10
   3  -1  -6   87.09    6.90
  -4   1   6  300.77   14.50
  -4  -1  -6  304.07   16.10
  -4  -1  -6  289.57   15.60
  -4  -1  -6  311.07   15.00
  -4   1   6  303.47   16.30
  -4   1   6  306.57   17.20
  -4  -1   6  314.47   16.40
  -4   1  -6  330.87   13.60
  -4   1  -6  322.07   16.30
  -4  -1   6  325.27   15.00
  -4  -1   6  325.17   17.20
  -4   1  -6  325.17   15.10
  -4   1  -6  337.97   15.40
  -5   1   6  127.69    9.00
  -5  -1  -6  128.59    8.60
  -5   1   6  128.09    7.00
  -5  -1  -6  116.79    9.50
  -5  -1  -6  138.49    8.40
  -5   1  -6  114.89    8.70
  -5   1  -6  117.19    7.00
  -5   1  -6  114.39    9.10
  -5   1  -6  119.69    8.20
  -5  -1   6  137.09    9.20
  -6  -1  -6    5.70    3.70
  -6   1   6    3.90    2.60
  -6  -1  -6    0.50    3.40
  -6  -1  -6    1.10    4.30
  -6   1   6    5.90    3.50
  -6   1  -6    4.30    4.00
  -6  -1   6    2.40    3.10
  -6   1  -6   -0.30    3.40
  -6  -1   6    5.80    2.50
  -7  -1  -6   29.30    4.70
  -7   1   6   24.70    3.50
  -7   1   6   28.70    4.90
  -7   1  -6   26.20    4.50
  -7  -1   6   27.30    3.70
  -7  -1   6   23.30    4.20
   0   2  -6  401.06   16.90
   0  -2  -6  379.66   16.90
   0   2   6  394.86   16.70
   0   2  -6  381.86   17.00
  -1  -2  -6 1909.41   81.59
   1   2  -6 2002.00   81.89
   1   2  -6 2069.99   81.79
  -1   2   6 2018.90   81.59
   1   2   6 2039.20   81.59
   1  -2  -6 2115.09   81.89
  -1   2  -6 1972.60   81.59
  -1   2  -6 2012.20   81.69
  -2   2   6   48.40    4.50
   2   2  -6   47.70    4.00
  -2  -2  -6   48.20    4.10
  -2   2   6   50.69    4.10
  -2  -2  -6   49.40    4.20
   2   2  -6   51.59    4.90
  -2  -2  -6   44.50    5.10
  -2  -2   6   39.00    4.60
   2   2   6   50.49    3.80
   2  -2  -6   51.89    4.80
  -2   2  -6   46.50    5.00
  -2  -2   6   43.60    4.20
  -2   2  -6   54.89    5.00
  -2   2  -6   47.60    3.80
  -2   2  -6   50.39    4.20
  -3   2   6  663.33   28.50
  -3  -2  -6  668.83   32.20
  -3   2   6  640.34   33.80
  -3   2   6  692.33   32.40
  -3  -2  -6  675.53   29.90
  -3   2   6  645.04   30.90
  -3   2   6  643.04   30.20
  -3  -2  -6  623.64   28.70
  -3   2   6  669.03   28.10
   3   2  -6  664.03   29.00
  -3  -2   6  693.93   30.00
  -3  -2   6  729.53   29.20
  -3   2  -6  721.93   27.30
  -3  -2   6  715.53   28.20
  -3   2  -6  727.53   30.70
  -3   2  -6  727.53   29.90
  -3  -2   6  707.63   30.40
  -3  -2   6  676.33   32.40
   3   2   6  734.73   28.60
  -4   2   6    4.00    2.70
  -4   2   6    3.10    3.30
  -4  -2  -6    4.30    2.20
  -4  -2  -6    3.40    2.20
  -4   2   6    4.50    2.40
  -4   2   6    0.40    4.20
  -4   2   6    3.20    3.00
  -4   2  -6    3.50    2.00
  -4   2  -6    2.30    2.30
  -4  -2   6    1.00    4.40
  -4   2  -6    3.20    2.60
  -4  -2   6    0.20    2.70
  -4   2  -6    1.00    1.90
  -4  -2   6    2.80    2.30
  -5  -2  -6  192.38   11.30
  -5   2   6  194.58   10.00
  -5  -2  -6  181.68   11.80
  -5   2   6  196.88   12.40
  -5  -2   6  223.58   12.90
  -5  -2   6  233.58   12.70
  -5   2  -6  220.18   11.40
  -5   2  -6  222.18   13.20
  -5   2  -6  215.78   10.00
  -5   2  -6  221.68   11.60
  -6  -2  -6  132.59    9.20
  -6  -2  -6  127.29    8.70
  -6  -2  -6  138.79    9.90
  -6   2   6  128.09    7.10
  -6   2   6  127.39    9.40
  -6   2  -6  116.99    9.30
  -6   2  -6  122.09    9.50
  -6  -2   6  119.59    7.10
  -6  -2   6  116.39    9.00
  -7   2   6  137.99    7.00
  -7   2   6  133.59   10.70
  -7  -2  -6  128.89    9.40
  -7  -2   6  145.29    9.30
  -7   2  -6  123.49    9.10
  -7  -2   6  136.79    7.20
   0   3  -6  563.24   25.20
   0  -3  -6  608.44   25.40
   0   3   6  609.04   25.10
   0   3  -6  602.24   25.20
   1   3  -6 1444.66   58.09
  -1   3   6 1481.75   57.99
   1   3  -6 1495.35   58.19
  -1  -3  -6 1452.35   58.19
   1  -3  -6 1369.76   58.09
   1   3   6 1408.16   57.79
  -1   3  -6 1350.66   57.89
  -1   3  -6 1353.76   57.89
  -2   3   6  960.00   40.70
   2   3  -6 1042.80   42.00
  -2  -3  -6 1035.20   42.90
  -2  -3  -6 1015.70   46.40
  -2   3   6 1061.89   41.80
  -2   3   6  968.50   40.00
   2   3  -6 1034.00   42.00
  -2  -3  -6  986.10   41.20
  -2   3  -6  942.11   41.60
  -2   3  -6  954.40   48.90
   2  -3  -6 1038.50   42.00
  -2  -3   6  967.30   42.40
  -2  -3   6 1004.50   40.00
  -2   3  -6 1089.09   44.30
  -2   3  -6 1016.00   39.40
  -2  -3   6 1011.80   46.50
   2   3   6  997.30   41.50
  -2   3  -6  998.00   42.80
  -2   3  -6 1010.40   41.60
  -3   3   6  141.59    8.50
   3   3  -6  146.29    8.20
  -3   3   6  138.29    7.70
  -3  -3  -6  138.89    7.50
  -3   3   6  151.58    8.50
  -3  -3  -6  142.29    8.00
  -3   3  -6  139.29    7.40
  -3  -3   6  135.79    8.70
  -3   3  -6  139.89    6.60
  -3   3  -6  138.79    8.90
  -3   3  -6  130.29    7.50
   3   3   6  138.49    7.60
  -3  -3   6  130.19    8.00
  -3  -3   6  131.19    8.10
  -3  -3   6  131.49    8.30
  -4   3   6  158.58    7.70
  -4   3   6  154.08   12.00
  -4  -3  -6  164.08    9.20
  -4   3   6  125.19    9.40
  -4   3   6  149.99    9.20
  -4   3   6  151.18    9.50
  -4  -3  -6  164.68    8.60
  -4  -3   6  153.48    9.60
  -4   3  -6  169.08    8.90
  -4   3  -6  155.18    7.60
  -4  -3   6  155.58   11.80
  -4  -3   6  127.69    9.20
  -4   3  -6  142.59    8.60
  -4   3  -6  174.38   10.30
  -4  -3   6  164.18    9.80
  -5   3   6  271.07   15.00
  -5  -3  -6  248.68   13.60
  -5   3   6  250.77   12.10
  -5  -3  -6  260.57   14.40
  -5   3  -6  263.87   15.50
  -5   3  -6  283.37   13.70
  -5   3  -6  270.97   11.90
  -5  -3   6  272.07   15.00
  -5  -3   6  255.17   14.30
  -5   3  -6  272.17   13.50
  -6  -3  -6  141.09    9.00
  -6   3   6  127.09    7.30
  -6  -3  -6  118.69   10.10
  -6  -3  -6  136.89    9.30
  -6   3   6  134.59   10.10
  -6  -3   6  144.79    9.50
  -6   3  -6  138.29    7.60
  -6   3  -6  128.09    9.80
  -6  -3   6  142.79    7.60
  -7   3   6    9.90    2.40
  -7  -3  -6    5.40    4.00
  -7   3  -6   11.40    3.80
  -7  -3   6   12.10    3.10
  -7  -3   6   13.30    3.40
   0  -4  -6  530.45   23.90
   0   4  -6  556.94   23.60
   0   4  -6  532.05   23.60
   0   4   6  572.84   23.40
  -1  -4  -6  183.88   10.10
  -1   4   6  197.48    9.00
   1   4  -6  190.08    9.70
  -1  -4  -6  178.08    9.50
   1   4  -6  190.08    9.10
  -1   4  -6  160.48    9.20
   1  -4  -6  170.68    9.50
  -1   4  -6  168.88    9.00
   1   4   6  185.08    8.90
  -1   4  -6  168.58    8.70
  -2   4   6  362.76   15.50
  -2   4   6  347.07   14.10
   2   4  -6  362.56   15.80
   2   4  -6  350.16   16.10
  -2  -4  -6  339.07   14.80
  -2  -4  -6  352.16   16.70
  -2   4   6  351.66   14.60
  -2  -4  -6  335.47   15.50
  -2  -4   6  330.87   16.80
  -2  -4   6  344.47   15.70
  -2   4  -6  338.07   14.00
  -2   4  -6  320.87   17.60
   2  -4  -6  328.17   16.20
  -2   4  -6  312.77   15.80
   2   4   6  322.07   15.20
  -2   4  -6  333.07   15.30
  -2   4  -6  351.46   15.40
  -2  -4   6  327.37   14.50
  -3   4   6   11.60    2.40
  -3   4   6   13.80    2.60
  -3  -4  -6   12.50    2.40
  -3   4   6   13.50    2.10
  -3  -4  -6    8.30    2.20
  -3   4   6   11.70    2.40
   3   4  -6    8.70    3.00
  -3  -4   6    9.10    2.30
  -3   4  -6   10.50    2.70
  -3   4  -6    7.30    2.00
  -3   4  -6   10.50    2.30
  -3  -4   6    8.90    2.30
  -3  -4   6    8.00    3.30
  -3   4  -6   10.30    1.80
  -3  -4   6   10.20    2.40
   3   4   6    7.00    2.60
  -4   4   6  170.78   11.20
  -4   4   6  197.38   10.80
  -4  -4  -6  206.28   10.60
  -4   4   6  206.18   11.70
  -4   4   6  212.38    9.60
  -4  -4  -6  207.08   11.30
  -4   4   6  214.18   14.30
  -4   4  -6  212.88    9.40
  -4  -4   6  195.18   11.60
  -4   4  -6  214.68   10.60
  -4   4  -6  209.58   10.70
  -4   4  -6  190.58   12.00
  -4  -4   6  202.98   11.00
  -4  -4   6  190.78   11.20
  -5  -4  -6   87.99    7.20
  -5   4   6   94.09    5.90
  -5  -4  -6   98.79    7.70
  -5   4   6  116.39    8.90
  -5   4   6  110.29    8.60
  -5   4  -6   99.79    6.00
  -5  -4   6  107.39    8.10
  -5   4  -6  108.69    7.90
  -5   4  -6  105.49    8.30
  -5  -4   6   87.89    9.60
  -5  -4   6   93.09    9.70
  -5   4  -6  107.89    7.30
  -6  -4  -6  300.57   15.60
  -6   4   6  269.17   16.20
  -6  -4  -6  266.57   16.90
  -6   4   6  297.67   13.00
  -6  -4  -6  294.67   14.70
  -6  -4   6  282.57   13.00
  -6   4  -6  277.27   14.80
  -6   4  -6  256.87   16.10
  -6  -4   6  313.07   16.00
  -7  -4  -6   -1.40    4.60
  -7   4   6    5.40    2.20
  -7  -4  -6    2.50    4.20
  -7  -4  -6    4.70    4.70
  -7  -4   6    5.10    3.30
  -7  -4   6    7.40    3.50
   0  -5  -6  274.67   14.20
   0   5  -6  290.87   13.60
   0   5   6  307.57   13.60
   0   5   6  294.37   12.50
   0  -5   6  279.77   15.00
   1  -5   6  110.09    5.90
   1   5  -6  108.99    6.50
  -1  -5  -6  107.89    6.10
  -1  -5  -6  111.89    5.90
  -1  -5  -6  105.29    6.40
  -1   5   6  107.39    6.00
  -1   5   6  112.09    6.50
   1  -5  -6   90.59    7.70
  -1  -5   6   99.29    5.80
  -1  -5   6   98.39    5.70
  -1   5  -6  103.19    6.30
   1   5   6  108.39    6.30
   2   5  -6  519.65   23.30
  -2   5   6  526.25   21.30
  -2   5   6  511.75   23.20
   2   5  -6  495.65   24.00
  -2   5   6  507.65   21.60
  -2  -5  -6  515.75   25.00
  -2  -5  -6  531.55   23.30
  -2   5  -6  549.85   23.10
  -2  -5   6  544.45   23.40
  -2  -5   6  529.65   25.20
   2  -5  -6  529.45   24.30
  -2   5  -6  538.45   26.40
  -2  -5   6  550.74   21.80
   2  -5  -6  490.45   23.00
  -2   5  -6  522.45   23.10
  -2   5  -6  548.35   23.80
   2   5   6  537.45   23.00
  -2   5  -6  540.15   21.20
  -2  -5   6  503.45   22.40
  -3   5   6   94.99    6.40
  -3  -5  -6   76.69    7.80
   3   5  -6   85.59    7.80
  -3   5   6   83.49    4.70
  -3  -5  -6   93.99    5.90
  -3  -5  -6   87.49    5.60
  -3   5   6   81.99    6.10
  -3   5   6   89.99    7.50
  -3   5  -6   73.29    4.50
  -3   5  -6   73.09    6.10
  -3  -5   6   73.89    5.50
  -3  -5   6   83.49    7.60
  -3   5  -6   73.59    5.50
  -3   5  -6   69.49    5.30
  -3  -5   6   77.29    6.00
  -3  -5   6   71.29    5.90
   3   5   6   75.59    7.10
  -4   5   6   31.20    7.10
  -4   5   6   31.80    3.50
  -4  -5  -6   32.70    4.70
  -4   5   6   28.80    3.80
  -4   5   6   26.50    3.60
  -4   5   6   29.10    4.10
  -4  -5  -6   27.60    4.10
  -4   5  -6   30.80    5.00
  -4  -5   6   30.30    4.30
  -4   5  -6   27.00    4.40
  -4   5  -6   30.30    3.30
  -4  -5   6   31.70    4.10
  -4   5  -6   34.80    4.90
  -4  -5   6   31.10    5.10
  -5  -5  -6   36.70    5.40
  -5  -5  -6   22.40    3.60
  -5   5   6   27.00    3.60
  -5   5   6   26.20    4.10
  -5   5   6   27.90    4.70
  -5   5  -6   27.40    4.20
  -5   5  -6   29.00    3.70
  -5   5  -6   36.00    4.80
  -5  -5   6   25.40    4.10
  -5  -5   6   23.30    4.80
  -5   5  -6   21.20    3.20
  -5  -5   6   28.40    5.10
  -6   5   6  250.37   11.20
  -6  -5  -6  245.68   12.80
  -6  -5  -6  251.27   13.50
  -6  -5  -6  235.98   14.80
  -6   5  -6  220.68   12.60
  -6  -5   6  235.08   11.30
  -6   5  -6  228.18   14.00
  -6  -5   6  229.88   13.50
  -7   5   6    5.30    2.10
  -7  -5  -6    2.50    4.70
  -7  -5  -6    8.50    4.30
  -7  -5   6    3.10    3.20
   0   6   6   10.80    2.40
   0  -6  -6   11.60    2.10
   0  -6   6   14.40    2.20
   0  -6   6    9.60    1.90
   0   6  -6    9.60    2.50
   0   6   6   13.80    1.90
   0  -6   6   10.80    1.70
   0  -6  -6   12.70    2.40
  -1  -6  -6   90.09    5.40
   1   6  -6   91.99    6.20
  -1   6   6   93.89    5.10
   1  -6   6   81.19    9.70
  -1  -6  -6   95.39    5.90
  -1   6   6   94.09    6.20
  -1  -6  -6   90.69    5.90
  -1  -6  -6   84.69    5.80
  -1  -6   6   84.69    6.30
  -1  -6   6   86.89    5.30
  -1   6  -6   75.49    6.10
  -1  -6   6   77.19    5.90
  -1   6  -6   79.79    5.80
   1  -6  -6   72.89    5.80
  -1  -6   6   86.09    5.40
   1   6   6   87.79    5.90
   1  -6  -6   92.49    9.40
  -2   6   6  496.95   20.20
   2   6  -6  487.45   22.20
  -2  -6  -6  500.65   21.90
  -2   6   6  503.25   19.80
  -2  -6  -6  533.05   23.50
  -2   6   6  479.95   22.00
  -2  -6  -6  502.25   21.80
   2   6  -6  447.66   23.80
  -2  -6   6  475.65   21.80
  -2  -6   6  452.05   20.90
  -2   6  -6  459.15   22.10
  -2   6  -6  483.25   22.10
  -2   6  -6  488.45   24.70
   2   6   6  489.35   21.80
   2  -6  -6  475.85   21.70
  -2  -6   6  490.75   23.60
  -3   6   6   51.59    3.90
  -3   6   6   49.80    4.70
  -3   6   6   50.79    7.30
   3   6  -6   54.29    7.90
  -3  -6  -6   46.10    6.70
  -3  -6  -6   48.20    4.70
  -3   6   6   41.70    5.00
  -3  -6  -6   56.29    4.90
  -3  -6  -6   45.40    6.60
  -3  -6   6   46.10    5.60
  -3   6  -6   48.20    5.40
  -3   6  -6   44.20    3.40
  -3  -6   6   45.80    5.20
  -3   6  -6   47.20    4.60
  -3  -6   6   38.20    5.00
   3  -6  -6   50.19    4.70
   3   6   6   35.40    5.20
  -3   6  -6   47.60    4.80
  -4  -6  -6  126.29    8.40
  -4   6   6  121.29    8.30
  -4   6   6  123.89    9.20
  -4   6   6  122.59    6.80
  -4  -6  -6  122.49    7.90
  -4   6   6  116.39   14.50
  -4   6   6  109.79    8.20
  -4   6  -6  129.59    6.60
  -4  -6   6  136.89    8.80
  -4  -6   6  123.69    8.40
  -4   6  -6  124.29    8.20
  -4  -6   6  123.79    8.70
  -4   6  -6  133.49    7.80
  -4   6  -6  121.29    8.80
  -5  -6  -6  127.69    8.20
  -5   6   6  130.69    8.90
  -5   6   6  105.49   10.40
  -5   6   6  127.79    7.10
  -5  -6  -6  132.49    8.70
  -5   6  -6  126.69    8.10
  -5   6  -6  130.19    6.80
  -5   6  -6  135.79    9.30
  -5  -6   6  106.89    8.80
  -5  -6   6  112.09   10.10
  -5  -6   6  118.19    9.40
  -6  -6  -6   52.09    6.10
  -6  -6  -6   46.10    5.70
  -6   6   6   42.30    4.20
  -6  -6  -6   40.60    7.40
  -6   6  -6   48.50    5.90
  -6  -6   6   53.39    6.00
  -6   6  -6   59.69    5.60
  -6  -6   6   52.59    5.00
  -7   6   6   19.90    2.90
  -7  -6  -6   24.50    4.50
  -7  -6   6   22.30    3.80
   0   7  -6   77.49    6.50
   0  -7  -6   78.49    5.40
   0  -7   6   81.59    5.30
   0  -7   6   76.19    4.90
   0  -7  -6   79.29    5.50
   0   7   6   80.89    6.20
  -1  -7  -6  469.05   19.50
   1  -7   6  448.06   19.30
  -1  -7  -6  475.15   20.40
   1   7  -6  488.25   21.20
  -1   7   6  463.95   18.60
  -1  -7  -6  457.15   20.40
  -1   7   6  466.95   20.90
  -1   7   6  453.25   18.90
  -1  -7  -6  480.95   22.10
  -1  -7   6  433.66   20.50
   1   7   6  473.75   20.80
  -1  -7   6  457.35   19.30
  -1  -7   6  429.66   19.30
   1  -7  -6  433.66   19.60
  -1   7  -6  432.56   20.80
  -1   7  -6  441.46   21.10
   1  -7  -6  423.56   20.10
  -2   7   6   49.70    4.60
   2   7  -6   45.90    7.10
  -2  -7  -6   50.89    5.30
  -2  -7  -6   58.49    4.90
  -2  -7  -6   47.10    4.80
  -2   7   6   51.49    6.00
  -2   7   6   51.99    3.90
  -2   7  -6   51.09    4.60
  -2   7  -6   40.60    5.30
  -2   7  -6   50.69    5.40
  -2  -7   6   46.50    5.80
   2  -7  -6   60.89    5.50
   2   7   6   50.89    6.40
  -2  -7   6   39.90    5.80
   3   7  -6  222.88   14.60
  -3   7   6  202.68   14.00
  -3   7   6  230.18   10.80
  -3   7   6  235.58   10.20
  -3  -7  -6  223.28   12.20
  -3  -7  -6  221.88   12.00
  -3  -7  -6  211.58   11.60
  -3  -7  -6  218.68   11.30
  -3   7   6  226.78   11.80
  -3  -7   6  228.28   11.60
   3  -7  -6  225.88   12.10
  -3  -7   6  222.18   10.90
  -3  -7   6  200.98   12.30
   3   7   6  221.48   13.90
  -3   7  -6  215.88   11.40
  -3   7  -6  235.58   13.00
   4  -7   6   29.60    4.50
  -4  -7  -6   25.20    3.80
  -4  -7  -6   31.80    4.90
  -4   7   6   24.50    4.50
  -4   7   6   26.20    3.50
  -4   7   6   25.90    3.60
  -4   7  -6   34.50    4.80
  -4  -7   6   32.00    4.60
  -4  -7   6   30.70    4.20
  -4   7  -6   31.70    4.60
  -4  -7   6   32.00    5.20
  -4   7  -6   24.50    3.30
  -5  -7  -6   42.20    5.40
  -5  -7  -6   36.50    5.00
  -5   7   6   39.10    4.10
  -5   7   6   45.80    5.80
  -5  -7   6   42.90    5.70
  -5  -7   6   28.40    4.60
  -5  -7   6   33.20    5.30
  -5   7  -6   43.70    6.00
  -5   7  -6   38.40    4.80
  -6  -7  -6   11.70    4.50
  -6  -7  -6   12.50    3.40
  -6   7   6   16.50    2.70
  -6   7   6   13.90    3.90
  -6  -7  -6    9.20    3.30
  -6  -7   6   13.80    3.60
  -6  -7   6   17.40    3.40
  -6   7  -6   15.70    3.00
  -7   7   6   -0.50    2.10
  -7  -7   6    3.00    3.20
   0   8   6  132.89    8.80
   0  -8   6  107.99    8.00
   0  -8  -6  121.59    7.10
   0  -8   6  129.09    6.70
   0  -8  -6  127.19    6.80
   0   8  -6  124.19    9.10
   0  -8   6  117.89    6.60
   0   8  -6  125.29    8.30
   1  -8   6  620.34   26.80
  -1  -8  -6  644.94   28.30
   1   8  -6  666.23   29.30
  -1  -8  -6  661.63   28.40
  -1   8   6  648.44   26.00
  -1   8   6  550.14   28.80
  -1  -8  -6  622.94   30.60
   1  -8  -6  650.73   27.40
  -1   8  -6  644.54   29.30
  -1  -8   6  654.13   28.60
  -1  -8   6  661.43   26.80
   1  -8  -6  642.74   28.20
  -1   8  -6  692.43   29.20
   1   8   6  655.93   28.90
  -1  -8   6  676.43   27.00
  -2   8   6   85.89    5.10
  -2   8   6   92.89    6.40
  -2  -8  -6   90.99    6.30
  -2  -8  -6   93.39    6.70
   2   8  -6  110.69    9.90
  -2  -8  -6   94.99    6.30
  -2  -8   6   84.99    7.20
   2  -8  -6   78.69    6.60
  -2   8  -6   79.49    5.70
  -2  -8   6   90.39    7.20
   2   8   6   84.29    8.30
  -3  -8  -6   20.70    3.40
  -3   8   6   15.00    2.70
  -3  -8  -6   17.10    3.50
  -3  -8  -6   17.00    3.20
  -3   8   6   15.30    2.40
  -3  -8  -6   16.80    3.30
  -3  -8   6   11.80    2.80
  -3   8  -6    9.80    2.20
  -3  -8   6   15.60    3.40
   3  -8  -6   10.40    3.30
  -3  -8   6   14.70    3.00
  -3   8  -6   12.40    3.10
  -4  -8  -6   29.70    5.30
  -4   8   6   28.10    3.70
  -4  -8  -6   29.80    4.20
  -4   8   6   25.60    3.70
  -4  -8  -6   29.70    4.90
   4  -8   6   36.90    4.60
  -4  -8   6   47.10    6.00
  -4  -8   6   42.30    4.60
  -4  -8   6   45.20    6.20
  -4   8  -6   39.60    5.70
  -4   8  -6   40.20    4.70
  -5   8   6   98.09    6.00
  -5  -8  -6  102.59    7.40
  -5  -8  -6  103.89    7.90
  -5   8   6   94.99    7.30
  -5  -8   6   97.89    9.50
  -5   8  -6  103.39    6.80
  -5  -8   6  104.79    8.20
  -5  -8   6   82.49    8.10
  -6  -8  -6   76.49    8.90
  -6   8   6   82.59    5.20
  -6  -8  -6   87.89    6.70
  -6  -8  -6   85.49    6.90
  -6   8   6   83.09    7.20
  -6  -8   6   92.69    7.30
  -6   8  -6   90.09    6.20
  -6  -8   6   88.09    6.70
   0  -9   6  274.17   13.60
   0  -9   6  303.57   13.60
   0   9  -6  325.97   17.70
   0   9  -6  294.17   15.20
   0  -9   6  303.57   14.90
   0   9   6  313.97   17.10
   0  -9  -6  314.27   14.30
   1   9  -6 1013.10   46.30
  -1  -9  -6 1115.59   45.30
  -1   9   6 1058.99   46.50
   1  -9   6 1008.70   43.00
  -1  -9  -6 1036.70   45.30
  -1   9  -6 1057.09   46.70
   1   9   6 1031.40   45.70
   1  -9  -6 1081.49   45.20
  -1  -9   6 1072.69   45.50
  -1   9  -6 1033.80   46.50
  -1  -9   6 1044.50   42.90
  -1  -9   6 1100.99   43.30
  -2  -9  -6   21.30    3.40
  -2  -9  -6   22.50    3.10
  -2   9   6   23.60    3.50
  -2  -9  -6   21.20    3.30
  -2   9   6   31.70    4.50
  -2  -9   6   21.20    3.90
   2  -9  -6   18.40    3.00
  -2  -9   6   24.10    3.50
  -2   9  -6   22.10    3.70
  -3   9   6  233.58   10.60
  -3  -9  -6  237.68   12.10
  -3  -9  -6  234.58   13.10
  -3  -9  -6  245.18   12.10
  -3  -9  -6  229.78   12.60
  -3   9   6  232.18   12.40
  -3  -9   6  238.38   11.40
  -3  -9   6  230.88   12.30
   3  -9  -6  215.98   13.00
  -3   9  -6  216.98   12.00
  -3  -9   6  214.18   13.10
  -4  -9  -6   19.20    3.90
  -4  -9  -6   20.80    3.50
  -4  -9  -6   25.80    4.80
  -4   9   6   21.10    3.60
   4  -9   6   19.20    3.90
  -4   9   6   16.80    2.80
  -4  -9   6   30.40    4.50
  -4   9  -6   25.50    4.20
  -4  -9   6   23.00    4.10
  -4  -9   6   24.90    3.80
  -5  -9  -6    7.40    3.10
  -5  -9  -6   10.20    3.00
  -5   9   6   15.90    2.70
  -5   9   6   10.00    3.00
  -5  -9   6    2.00    3.80
  -5   9  -6   11.10    2.70
  -5  -9   6    7.20    4.70
  -5  -9   6   10.50    3.90
  -6  -9  -6  113.29    8.20
  -6  -9  -6  120.59    7.90
  -6   9   6  123.49    6.50
  -6   9   6  126.19    7.70
  -6  -9  -6   98.49   10.10
  -6   9  -6  128.49    7.50
  -6  -9   6  130.29    8.60
   0 -10   6   20.40    2.70
   0  10   6   22.70    6.60
   0  10  -6   20.60    6.80
   0 -10   6   22.20    2.90
   0 -10   6   20.70    3.60
   0 -10  -6   23.40    3.20
  -1 -10  -6   78.49    6.30
  -1  10   6   77.49    6.30
  -1 -10  -6   83.69    6.70
  -1  10   6   90.69   13.50
   1 -10   6   74.29    6.20
  -1  10  -6   77.19    6.40
  -1 -10   6   78.79    6.20
  -1 -10   6   87.79    6.30
   1 -10  -6   88.19    6.50
  -1  10  -6   89.99   10.60
  -1 -10   6   87.29    5.80
  -2 -10  -6   86.79    7.10
  -2  10   6   82.79    6.80
  -2 -10  -6   98.69    6.90
  -2  10   6   91.69    5.80
  -2 -10  -6  100.79    7.20
  -2 -10   6  105.99    8.00
  -2  10  -6  107.29    6.80
   2 -10  -6   98.59    7.40
  -3  10   6  129.39    7.20
  -3 -10  -6  120.09    8.60
  -3  10   6  129.89    8.60
  -3 -10  -6  129.99    9.00
  -3 -10  -6  136.69    9.20
  -3 -10  -6  135.89    8.80
  -3 -10   6  138.09    8.80
  -3  10  -6  134.89    8.30
  -3 -10   6  144.49    8.40
  -3 -10   6  141.79    9.70
   3 -10  -6  152.18   10.40
  -4 -10  -6   35.40    5.00
  -4  10   6   38.20    4.10
   4 -10   6   34.10    4.20
  -4  10   6   40.80    5.40
  -4 -10  -6   41.40    5.80
  -4 -10  -6   38.40    5.50
  -4 -10   6   48.10    6.90
  -4 -10   6   44.30    6.40
  -4  10  -6   44.70    4.80
  -4 -10   6   46.40    6.20
  -5 -10  -6   34.60    5.30
  -5  10   6   30.60    3.70
  -5 -10  -6   30.20    4.90
  -5  10   6   24.60    3.40
  -5 -10   6   29.70    5.30
  -5 -10   6   38.00    6.00
  -5 -10   6   25.80    4.60
  -5  10  -6   36.70    4.30
  -6 -10  -6   14.90    3.30
  -6 -10  -6   19.80    3.50
  -6  10   6   20.50    2.80
  -6 -10  -6   14.00    5.50
  -6 -10   6    8.90    3.80
  -6  10  -6   12.10    2.50
   0 -11  -6  352.06   16.60
   0 -11   6  349.07   15.80
   0 -11   6  322.77   16.80
   0 -11   6  357.16   15.80
   0  11   6  352.46   17.30
   1 -11   6  150.48    9.00
  -1 -11  -6  164.88    9.30
  -1  11   6  165.98    9.50
  -1 -11  -6  162.48    9.70
  -1 -11   6  159.48    9.70
   1 -11  -6  151.68    9.30
  -1  11  -6  156.58    9.40
  -1 -11   6  155.78    9.00
  -1 -11   6  168.68    9.00
  -2  11   6   59.49    5.70
  -2 -11  -6   63.09    6.30
  -2 -11  -6   59.89    6.00
   2 -11  -6   46.80    6.40
  -2  11  -6   40.90    5.40
  -2 -11   6   45.90    5.00
  -3 -11  -6  180.48   10.80
  -3 -11  -6  177.08   10.30
  -3  11   6  175.58    8.70
  -3  11   6  168.88   10.30
  -3 -11  -6  173.98   11.00
  -3 -11  -6  182.08   10.30
  -3 -11   6  180.78    9.70
  -3 -11   6  160.38   11.40
  -3 -11   6  179.88   10.60
  -3  11  -6  170.08   10.00
  -4 -11  -6   21.30    4.60
  -4  11   6   20.60    3.20
   4 -11   6   19.70    3.50
  -4 -11  -6   26.20    4.30
  -4  11   6   25.10    3.60
  -4 -11  -6   26.70    4.20
  -4 -11   6   25.40    4.10
  -4 -11   6   39.10    5.60
  -4 -11   6   33.40    5.10
  -4  11  -6   30.60    4.40
  -5 -11  -6   28.20    4.10
  -5 -11  -6   20.30    3.50
  -5  11   6   19.70    3.10
  -5  11   6   23.50    3.50
  -5 -11   6   24.10    5.30
  -5  11  -6   22.20    3.70
  -5 -11   6   26.20    4.70
  -5 -11   6   19.40    4.60
  -6  11   6   19.90    3.30
  -6 -11  -6   20.20    3.60
  -6  11  -6   18.40    2.70
   0 -12   6  498.15   21.50
   0 -12  -6  497.35   22.50
   0 -12   6  497.45   21.30
   0 -12   6  474.15   22.70
   0  12   6  472.75   23.30
  -1 -12  -6   85.69    8.00
  -1 -12  -6   92.29    6.80
   1 -12   6   84.09    6.90
  -1  12   6   90.19    7.00
  -1 -12   6   79.39    6.90
  -1 -12   6   85.19    6.20
  -1  12  -6   77.99    7.20
   1 -12  -6   76.59    6.70
  -2 -12  -6  107.19    7.40
  -2 -12  -6  112.09    7.20
  -2 -12  -6  115.69    8.00
  -2  12   6  113.99    7.80
  -2 -12   6   92.19    8.90
  -2 -12   6   98.39    7.60
  -2  12  -6   92.89    7.30
   2 -12  -6   94.39    8.20
  -3  12   6   76.59    6.60
  -3 -12  -6   74.89    7.50
   3 -12   6   85.79    6.60
  -3 -12  -6   83.19    7.20
  -3 -12  -6   94.59    7.80
  -3  12  -6   74.89    6.20
  -3 -12   6   89.59    6.90
  -3 -12   6   87.39    7.20
  -4  12   6   95.39    7.00
  -4 -12  -6  104.99    7.40
  -4 -12  -6  106.89    8.80
  -4 -12  -6  101.79    7.90
   4 -12   6  104.29    7.30
  -4  12  -6   94.99    6.60
  -4 -12   6   89.19    9.90
  -4 -12   6   92.79    7.90
  -4 -12   6   93.69    7.90
  -5 -12  -6   51.09    5.30
  -5  12   6   49.20    4.70
  -5 -12   6   43.90    7.10
  -5 -12   6   40.60    6.10
  -5  12  -6   44.90    4.40
  -5 -12   6   40.00    5.90
   0  13   6   66.19    7.90
   0 -13   6   58.39    6.30
   0 -13   6   72.29    6.00
   0 -13  -6   67.59    6.20
  -1 -13  -6   99.89    7.50
  -1  13   6   94.39    7.80
   1 -13   6   98.89    7.00
  -1 -13  -6  108.29    9.00
   1 -13   6   98.09    7.90
  -1  13  -6  101.99    8.10
   1 -13  -6  106.49    7.70
  -1 -13   6  109.79    7.30
  -1 -13   6  116.39    7.70
  -2 -13  -6  626.94   28.00
  -2 -13  -6  626.34   26.60
  -2 -13  -6  600.24   27.80
  -2  13   6  646.84   28.70
   2 -13  -6  577.74   27.70
  -2 -13   6  607.84   28.00
  -2  13  -6  606.44   28.30
  -2 -13   6  600.54   27.00
  -3 -13  -6  107.59    8.10
  -3 -13  -6  106.79    8.20
   3 -13   6  108.99    7.30
  -3  13   6  100.69    7.40
  -3 -13  -6  103.89    7.80
  -3  13  -6   99.69    7.00
  -3 -13   6  106.19    7.90
  -3 -13   6  108.49    7.70
  -4 -13  -6   67.39    7.60
  -4  13   6   68.79    5.70
   4 -13   6   64.49    6.20
  -4 -13  -6   68.69    6.30
  -4 -13   6   74.99    7.10
  -4 -13   6   74.89    6.80
  -4  13  -6   76.69    5.50
  -5 -13  -6   31.30    4.70
  -5  13   6   30.10    4.00
  -5 -13   6   38.50    6.00
  -5  13  -6   27.90    3.60
  -5 -13   6   22.10    6.60
   0 -14   6   12.60    2.80
   0 -14  -6   14.70    3.30
   0 -14   6   13.00    3.30
  -1 -14  -6  175.98   10.00
  -1  14   6  192.28   10.80
   1 -14   6  178.38    9.90
  -1 -14  -6  176.78   10.50
   1 -14   6  168.58   10.50
   1 -14  -6  186.08   10.70
  -1 -14   6  188.68   10.80
  -1 -14   6  185.88   10.40
   2 -14   6  169.78    9.80
  -2 -14  -6  166.78   10.90
  -2  14   6  182.68   10.50
  -2 -14  -6  180.88   10.30
  -2 -14  -6  177.58   10.40
  -2 -14   6  189.18   10.70
   2 -14  -6  196.18   11.30
  -2  14  -6  180.98   10.20
   3 -14   6   40.70    4.90
  -3 -14  -6   35.00    4.90
  -3 -14  -6   41.70    6.00
  -3  14   6   37.10    4.80
  -3 -14   6   41.90    4.60
  -3  14  -6   42.10    4.60
  -3 -14   6   42.40    5.50
  -4  14   6   36.50    4.20
   4 -14   6   36.70    5.00
  -4 -14  -6   41.90    5.30
  -4 -14   6   22.90    3.90
  -4  14  -6   28.20    3.90
  -4 -14   6   26.30    4.10
  -5  14   6   57.99    4.60
  -5  14  -6   52.99    4.20
   0 -15  -6  561.54   25.20
   0 -15   6  532.05   23.80
  -1  15   6   23.30    3.70
   1 -15   6   18.70    3.30
  -1 -15  -6   17.40    3.40
  -1 -15  -6   19.10    3.60
  -1 -15   6   13.80    3.40
   1 -15  -6   22.20    3.70
  -1 -15   6   20.30    3.90
  -2 -15  -6   19.20    3.50
  -2  15   6   13.20    3.00
   2 -15   6   18.00    3.30
  -2 -15  -6   16.10    3.20
  -2 -15  -6   23.80    5.30
  -2 -15   6   29.70    4.40
   2 -15  -6   23.30    4.20
  -2 -15   6   23.80    3.50
  -2  15  -6   24.50    3.40
   3 -15   6   16.40    2.90
  -3  15   6   15.50    2.90
  -3 -15  -6   12.30    3.30
  -3 -15  -6   15.00    4.20
  -3 -15  -6   17.60    4.50
  -3 -15   6   20.00    3.90
  -3  15  -6   16.80    3.00
  -3 -15   6   15.50    3.50
  -4  15   6    5.10    2.00
  -4 -15  -6    5.90    3.70
   4 -15   6   10.30    3.30
  -4 -15   6    9.90    4.00
  -4  15  -6    5.80    2.10
  -4 -15   6    1.40    3.30
   0 -16   6  112.19    7.50
   0 -16  -6  116.59    8.00
   0 -16   6  107.89    8.30
   0 -16  -6  119.29    7.50
  -1 -16  -6   43.30    5.20
  -1 -16  -6   45.40    5.50
  -1  16   6   39.90    4.60
   1 -16   6   41.50    4.90
   1 -16  -6   40.60    5.90
  -1 -16   6   35.90    4.80
  -1 -16   6   42.10    5.20
   1 -16  -6   40.00    5.10
   2 -16   6    8.90    2.60
  -2  16   6    4.20    2.70
  -2 -16  -6    5.40    3.00
  -2 -16  -6    5.90    2.80
   2 -16  -6    6.50    3.00
  -2 -16   6    2.00    2.80
  -2 -16   6    5.70    3.20
   3 -16   6   46.10    4.80
  -3 -16  -6   51.79    7.20
  -3 -16  -6   41.40    6.40
  -3  16   6   45.50    4.60
  -3 -16  -6   45.80    5.20
  -3 -16   6   39.50    5.10
  -3 -16   6   37.80    5.30
  -3  16  -6   38.10    4.80
  -4  16   6   32.80    3.80
  -4  16  -6   31.70    4.30
   0 -17  -6   91.59    6.50
   0 -17   6   75.09    8.40
   0 -17   6   87.39    6.80
   0 -17  -6   98.89    6.80
   1 -17   6   46.50    5.00
   1 -17   6   49.10    5.40
  -1 -17  -6   54.69    5.40
  -1 -17  -6   53.59    5.40
  -1 -17   6   49.80    6.60
   1 -17  -6   58.29    6.20
  -1 -17   6   65.39    7.80
   1 -17  -6   39.90    5.10
  -1 -17   6   42.00    5.20
  -2 -17  -6   55.89    5.90
  -2  17   6   58.39    6.40
   2 -17   6   61.59    5.20
  -2 -17  -6   56.79    5.30
  -2 -17   6   75.89    6.60
   2 -17  -6   76.89    6.70
  -3  17   6   14.00    2.60
   3 -17   6   15.70    3.00
  -3 -17   6   12.70    3.80
  -3 -17   6   12.90    3.20
   0 -18  -6    3.30    2.70
   0 -18   6   -0.50    3.50
   0 -18  -6    2.00    2.60
   0 -18   6    4.60    3.70
   1 -18   6   66.19    5.50
  -1 -18  -6   63.29    5.70
  -1 -18  -6   63.79    5.40
  -1 -18   6   58.99    5.90
   1 -18  -6   67.49    6.20
   1 -18  -6   54.89    7.20
   2 -18   6   67.79    5.20
  -2 -18   6   76.39    5.60
   0   0  -7   -1.80    1.40
   0   0   7    0.00    1.00
   1   0   7 2242.08   89.29
   1   0  -7 2256.27   89.69
  -1   0  -7 2164.78   89.49
  -1   0   7 2180.18   89.39
  -2   0  -7   21.30    3.00
  -2   0   7   21.30    2.60
  -2   0  -7   20.60    2.50
   2   0   7   21.00    2.70
   2   0  -7   18.50    3.00
  -3   0   7  277.87   13.80
  -3   0   7  252.87   12.50
  -3   0   7  286.47   13.80
  -3   0  -7  249.88   13.00
   3   0  -7  247.78   12.80
  -3   0  -7  269.67   13.70
  -3   0   7  286.67   13.10
  -3   0  -7  269.07   12.80
  -4   0  -7   56.99    6.00
  -4   0  -7   69.39    6.20
  -4   0   7   62.19    6.70
  -4   0   7   55.29    8.80
  -4   0   7   66.09    6.20
  -4   0  -7   71.09    5.60
  -5   0  -7   36.90    4.90
  -5   0   7   39.80    5.10
  -5   0  -7   36.90    5.40
  -5   0  -7   35.60    6.20
  -5   0   7   33.90    4.90
  -6   0   7   58.19    6.40
  -6   0  -7   47.60    6.80
  -6   0  -7   51.99    6.30
  -6   0   7   47.10    4.50
  -7   0  -7    9.30    3.70
  -7   0   7   11.50    4.10
  -7   0   7    4.20    2.20
   0  -1   7 2513.55  102.59
   0   1   7 2582.34  102.59
   0   1  -7 2522.05  102.79
   0  -1  -7 2560.74  102.79
   1  -1   7  154.28    7.80
  -1  -1  -7  152.48    8.60
   1   1  -7  157.88    8.40
  -1   1   7  170.18    8.20
   1   1   7  170.28    7.90
  -1   1  -7  164.78    8.50
   1  -1  -7  168.58    8.50
  -2  -1  -7  417.86   18.50
  -2  -1  -7  343.77   16.80
   2   1  -7  365.76   16.80
  -2   1   7  367.46   16.50
  -2   1   7  371.36   15.90
   2   1  -7  374.56   17.10
  -2  -1  -7  366.76   16.70
   2   1   7  400.16   16.30
  -2   1  -7  393.06   16.60
  -2  -1   7  365.16   15.90
   2  -1  -7  319.17   16.80
  -2  -1   7  375.86   18.10
  -2   1  -7  381.56   16.70
  -2   1  -7  364.76   16.90
  -3   1   7  175.08    9.20
  -3  -1  -7  164.68    8.90
  -3   1   7  166.28    9.30
  -3  -1  -7  172.28    9.30
  -3  -1  -7  153.38    8.40
  -3   1   7  177.58    8.70
   3   1  -7  175.78    9.10
  -3  -1   7  171.08    9.30
  -3   1  -7  158.78    8.70
  -3  -1   7  155.58    8.50
  -3   1  -7  152.78    7.70
  -3  -1   7  151.08    9.40
  -3  -1   7  154.58    9.50
  -3   1  -7  153.98    9.70
  -3   1  -7  158.48    8.40
  -4  -1  -7   15.00    3.10
  -4  -1  -7   10.60    2.70
  -4   1   7   17.40    3.20
  -4   1   7   11.50    4.60
  -4   1   7   11.80    2.70
  -4  -1  -7   14.60    3.10
  -4   1  -7   23.00    3.60
  -4  -1   7   20.90    3.40
  -4   1  -7   19.90    3.00
  -4  -1   7   20.70    3.30
  -4   1  -7   16.40    2.90
  -4   1  -7   17.80    3.80
  -4   1  -7   22.40    2.80
  -4  -1   7   16.80    5.00
  -5   1   7   54.89    6.40
  -5   1   7   47.20    4.20
  -5  -1  -7   56.19    6.50
  -5  -1  -7   47.90    5.50
  -5   1   7   43.60    5.40
  -5  -1  -7   49.10    6.80
  -5   1  -7   42.60    6.20
  -5  -1   7   55.99    7.90
  -5   1  -7   47.30    5.70
  -5  -1   7   39.10    6.20
  -5   1  -7   44.30    6.40
  -6   1   7  128.59    9.70
  -6  -1  -7  119.59   10.00
  -6   1   7  124.49    7.40
  -6  -1  -7  127.49    8.90
  -6  -1  -7  124.19   10.70
  -6   1  -7  146.69    9.10
  -6  -1   7  156.18    7.70
  -6   1  -7  139.79   10.30
  -6  -1   7  148.29    9.60
  -7  -1  -7   17.10    3.80
  -7   1   7   27.60    4.70
  -7   1   7   19.20    2.80
  -7   1  -7   20.30    4.20
  -7  -1   7   24.70    4.40
  -7  -1   7   17.00    2.80
   0  -2  -7  826.52   35.10
   0   2  -7  855.21   35.10
   0   2   7  845.62   34.80
   0   2  -7  821.62   34.90
  -1  -2  -7  189.78    8.70
   1   2  -7  193.88    8.50
  -1   2  -7  141.29    7.80
  -1   2  -7  152.98    8.50
   1  -2  -7  154.38    8.50
  -1   2  -7  146.89    8.10
   1   2   7  150.48    7.90
   2   2  -7 1008.30   42.70
  -2  -2  -7  998.80   43.60
  -2  -2  -7  999.50   41.90
  -2   2   7 1017.10   42.50
  -2   2   7  987.90   41.60
  -2   2   7  999.40   40.90
   2   2  -7  996.70   42.80
  -2  -2  -7  983.50   47.20
  -2   2  -7 1060.29   49.90
  -2   2  -7 1047.40   45.10
  -2   2  -7 1037.50   42.70
  -2   2  -7 1051.39   43.70
  -2  -2   7 1056.89   47.40
   2   2   7 1080.69   42.40
   2  -2  -7 1077.29   43.00
  -2   2  -7 1035.40   42.40
  -2  -2   7  994.80   40.90
  -3  -2  -7   98.39    5.80
   3   2  -7   94.29    7.00
  -3   2   7  104.39    6.50
  -3  -2  -7   89.09    6.80
  -3   2   7   92.79    6.80
  -3  -2  -7   98.19    6.40
  -3   2   7   99.39    6.70
  -3   2  -7   79.09    6.00
  -3   2  -7  106.49    7.00
  -3   2  -7   97.59    5.30
  -3  -2   7   88.29    6.50
   3  -2  -7   91.49    6.50
  -3  -2   7   90.39    7.40
  -3   2  -7   94.69    6.10
  -3  -2   7   92.99    7.40
  -3  -2   7   90.99    7.30
   3   2   7   94.49    6.00
  -3  -2   7   97.69    6.60
  -4  -2  -7   27.30    4.30
  -4   2   7   32.90    3.70
  -4   2   7   30.20    5.10
  -4  -2  -7   36.00    4.40
  -4   2   7   31.20    5.40
  -4   2   7   33.10    4.10
  -4   2  -7   30.30    3.70
  -4  -2   7   26.20    5.50
  -4  -2   7   25.70    3.80
  -4   2  -7   26.60    4.50
  -4   2  -7   24.40    3.40
  -4  -2   7   19.20    3.40
  -4   2  -7   23.10    4.00
  -5  -2  -7   77.69    6.70
  -5   2   7   69.69    5.20
  -5   2   7   86.69    7.70
  -5  -2  -7   82.69    7.20
  -5   2  -7   92.29    7.90
  -5   2  -7   76.89    6.80
  -5   2  -7   84.69    5.70
  -5  -2   7   88.19    7.30
  -5  -2   7   64.09    8.80
  -5   2  -7   76.79    6.90
  -6   2   7   38.70    4.10
  -6   2   7   38.80    6.60
  -6  -2  -7   47.60    6.60
  -6  -2  -7   42.80    5.60
  -6  -2  -7   35.30    5.90
  -6  -2   7   41.60    6.10
  -6   2  -7   33.90    6.10
  -6  -2   7   37.00    4.20
  -6   2  -7   44.20    5.30
  -7   2   7    4.40    2.20
  -7   2   7   11.30    5.10
  -7  -2  -7   -0.40    3.60
  -7  -2   7    7.10    3.50
  -7  -2   7    5.00    2.60
  -7   2  -7    3.20    3.70
   0   3  -7 1915.61   79.09
   0  -3  -7 1938.51   79.19
   0   3   7 1975.30   78.89
   0   3  -7 1939.21   78.99
  -1  -3  -7  285.07   14.00
   1   3  -7  294.07   13.50
  -1  -3  -7  329.37   14.60
  -1   3   7  294.37   13.20
   1   3  -7  300.27   13.70
  -1   3  -7  275.47   13.50
   1  -3  -7  273.27   13.70
  -1   3  -7  273.47   13.00
  -1   3  -7  284.57   13.40
   1   3   7  280.17   13.10
   2   3  -7  260.47   13.10
  -2   3   7  238.68   11.70
  -2  -3  -7  245.18   12.00
  -2   3   7  237.68   12.20
  -2  -3  -7  247.68   11.50
  -2   3   7  242.48   11.60
   2   3  -7  255.07   12.50
  -2  -3  -7  243.08   12.90
   2  -3  -7  261.07   13.20
  -2  -3   7  270.47   11.50
   2   3   7  274.17   12.00
  -2   3  -7  274.47   12.10
  -2   3  -7  260.07   12.20
  -2   3  -7  266.37   14.00
  -2  -3   7  273.37   13.10
  -2   3  -7  243.78   12.20
  -3  -3  -7    3.10    2.00
  -3  -3  -7    8.00    2.80
  -3   3   7    0.70    1.90
  -3   3   7    2.40    2.30
  -3  -3  -7    0.20    1.80
  -3   3   7    1.10    2.00
   3   3  -7    4.00    2.80
  -3   3  -7    1.30    1.50
  -3   3  -7    0.60    1.60
  -3  -3   7    0.20    2.10
  -3  -3   7   -0.80    2.90
  -3  -3   7    0.80    2.00
  -3  -3   7    2.60    2.60
  -3  -3   7    3.60    3.30
   3   3   7    2.30    2.40
  -3   3  -7    2.00    2.10
  -4   3   7  379.36   20.80
  -4   3   7  373.06   16.30
  -4   3   7  376.56   18.80
  -4   3   7  373.16   17.20
  -4  -3  -7  388.66   18.00
  -4   3   7  417.46   19.70
  -4  -3  -7  392.46   19.30
  -4  -3   7  370.76   20.70
  -4   3  -7  386.86   20.70
  -4   3  -7  386.36   16.20
  -4   3  -7  389.16   18.30
  -4  -3   7  365.46   18.50
  -4  -3   7  395.96   19.70
  -4  -3   7  382.16   17.40
  -4   3  -7  372.06   17.90
  -5   3   7  474.65   23.90
  -5   3   7  476.65   20.00
  -5  -3  -7  477.45   22.00
  -5  -3  -7  464.65   23.50
  -5   3  -7  449.76   22.00
  -5  -3   7  482.85   24.00
  -5   3  -7  461.35   21.60
  -5   3  -7  484.95   25.10
  -5   3  -7  460.15   19.60
  -5  -3   7  455.55   21.30
  -6   3   7   89.29    5.90
  -6  -3  -7   85.89    7.30
  -6   3   7   84.39    8.50
  -6  -3  -7   95.59    8.30
  -6  -3  -7   87.79    8.70
  -6  -3   7  110.69    6.40
  -6   3  -7  111.09    8.40
  -6  -3   7  114.39    8.30
  -7  -3  -7   22.20    5.10
  -7  -3  -7   19.30    4.50
  -7   3   7   24.60    3.20
  -7  -3   7   23.20    3.30
  -7   3  -7   19.10    4.00
  -7  -3   7   26.90    4.40
   0  -4  -7  373.56   17.80
   0   4  -7  367.96   17.50
   0   4   7  395.26   17.10
   0   4  -7  400.26   17.40
  -1  -4  -7 1954.60   80.39
  -1   4   7 1990.40   78.19
   1   4  -7 1961.10   78.49
  -1  -4  -7 1946.91   77.39
  -1   4   7 1881.51   76.29
   1   4  -7 2000.00   78.49
  -1  -4  -7 1928.01   87.29
  -1   4   7 1895.51   74.99
  -1   4  -7 1882.41   78.19
   1  -4  -7 1907.71   78.69
  -1   4  -7 1880.21   80.39
   1   4   7 1833.82   77.99
  -1  -4   7 1859.01   74.99
  -2   4   7  154.78    9.30
  -2   4   7  155.88    8.50
  -2   4   7  167.08    9.00
  -2  -4  -7  176.48    8.80
  -2  -4  -7  156.08    8.30
   2   4  -7  158.78   11.30
  -2  -4  -7  160.28    9.50
   2  -4   7  146.39    8.70
  -2   4  -7  191.08    9.50
   2   4   7  190.58    9.10
  -2   4  -7  179.98    8.90
  -2  -4   7  180.48    9.40
  -2  -4   7  182.48    9.60
  -2   4  -7  176.38   10.30
   2  -4  -7  184.48   11.40
  -2  -4   7  180.98    9.40
  -2  -4   7  188.08    8.50
  -2   4  -7  190.18    8.80
  -3   4   7   28.00    3.30
  -3  -4  -7   28.60    3.90
   3   4  -7   23.30    4.00
  -3   4   7   26.80    3.10
  -3  -4  -7   25.40    4.10
   3  -4   7   26.80    3.80
  -3  -4   7   41.20    4.90
   3   4   7   35.70    5.50
  -3  -4   7   38.30    4.50
  -3   4  -7   40.10    3.90
  -3   4  -7   39.60    3.30
  -3  -4   7   38.90    5.00
  -3   4  -7   32.10    5.00
  -3  -4   7   30.30    3.50
  -3  -4   7   31.30    4.70
  -3   4  -7   40.10    3.80
  -4   4   7  160.68    9.30
  -4   4   7  146.09    9.40
  -4  -4  -7  153.08    9.10
  -4  -4  -7  146.59    8.20
  -4   4   7  158.08   13.10
  -4   4   7  135.39    8.80
  -4   4   7  146.29    7.40
  -4  -4   7  121.39    9.10
  -4  -4   7  126.19   11.90
  -4   4  -7  130.19    8.10
  -4   4  -7  142.29    9.70
  -4   4  -7  143.39    8.40
  -4  -4   7  146.09    9.10
  -4   4  -7  148.59    7.20
  -4  -4   7  131.29    9.40
  -5   4   7  252.87   12.00
  -5  -4  -7  257.67   14.30
  -5   4   7  253.77   14.50
  -5   4   7  259.57   14.80
  -5  -4  -7  256.27   13.50
  -5   4  -7  220.08   14.90
  -5  -4   7  280.77   14.20
  -5  -4   7  291.67   15.00
  -5   4  -7  264.37   11.80
  -5   4  -7  263.07   13.50
  -5   4  -7  254.57   13.30
  -6  -4  -7   50.19    6.60
  -6  -4  -7   48.80    7.10
  -6  -4  -7   60.29    6.00
  -6   4   7   51.89    4.40
  -6   4   7   42.90    5.60
  -6   4  -7   53.39    6.50
  -6  -4   7   55.19    6.20
  -6  -4   7   58.09    4.80
  -6   4  -7   55.29    6.40
  -7   4   7   12.70    2.40
  -7  -4  -7    7.60    4.40
  -7  -4   7   16.10    3.90
  -7  -4   7   14.00    3.40
   0  -5   7    5.40    1.80
   0   5   7    4.50    2.00
   0   5   7    5.20    1.80
   0  -5  -7    4.30    1.80
   0   5  -7    5.20    2.20
  -1  -5  -7  806.12   37.20
  -1   5   7  793.22   32.00
   1  -5   7  761.32   32.40
   1   5  -7  807.32   34.20
  -1  -5  -7  796.82   32.90
   1   5  -7  752.32   34.50
  -1  -5  -7  841.42   34.40
  -1   5   7  823.22   33.90
   1  -5  -7  769.12   34.70
  -1  -5   7  774.12   32.60
   1   5   7  823.72   33.90
  -1   5  -7  854.61   34.20
  -1   5  -7  777.52   35.40
  -2   5   7   42.40    4.20
  -2  -5  -7   42.40    4.20
   2   5  -7   39.70    6.20
  -2  -5  -7   45.20    5.80
  -2  -5  -7   41.40    3.90
   2   5  -7   51.69    5.70
  -2   5   7   44.20    3.70
  -2  -5  -7   39.70    4.50
  -2   5   7   38.00    5.70
  -2  -5   7   39.70    5.00
  -2  -5   7   41.50    4.10
  -2  -5   7   38.70    5.20
  -2   5  -7   42.20    5.20
   2   5   7   44.50    4.90
   2  -5  -7   44.40    4.80
  -2   5  -7   46.20    4.10
  -2  -5   7   43.00    4.00
  -2   5  -7   44.50    5.80
  -2   5  -7   42.70    4.10
   2  -5  -7   44.30    6.60
  -3   5   7  481.45   20.60
   3   5  -7  443.96   20.70
  -3  -5  -7  458.95   21.30
   3  -5   7  411.56   18.80
  -3   5   7  460.55   18.10
  -3  -5  -7  407.56   20.40
  -3  -5  -7  442.16   19.70
  -3   5   7  451.25   18.60
  -3  -5   7  433.56   21.00
  -3  -5   7  438.06   21.50
  -3   5  -7  427.26   19.50
  -3  -5   7  397.16   19.70
   3  -5  -7  395.96   19.50
  -3  -5   7  433.46   18.70
  -3   5  -7  403.06   22.30
   3   5   7  405.36   19.90
  -3   5  -7  437.46   17.80
  -3  -5   7  428.66   19.80
  -3   5  -7  431.16   20.10
  -4   5   7   81.89    6.60
  -4   5   7   77.19    5.00
  -4  -5  -7   79.69    6.40
  -4   5   7   90.39   10.00
  -4   5   7   82.19    7.10
  -4   5   7   78.29    6.60
  -4  -5  -7   69.39    5.60
  -4  -5   7   66.29    6.40
  -4   5  -7   61.19    6.00
  -4   5  -7   72.59    6.40
  -4  -5   7   58.99    7.40
  -4   5  -7   65.89    5.70
  -4  -5   7   72.09    6.80
  -4   5  -7   75.29    4.70
  -5  -5  -7  506.65   25.40
  -5  -5  -7  492.85   23.70
  -5   5   7  494.25   21.60
  -5   5   7  485.45   24.50
  -5   5   7  507.25   25.80
  -5  -5   7  533.15   25.90
  -5   5  -7  528.25   27.00
  -5  -5   7  521.25   22.90
  -5   5  -7  542.35   23.70
  -5  -5   7  494.95   24.20
  -5   5  -7  520.25   24.10
  -6   5   7  180.08    8.90
  -6  -5  -7  180.18   10.30
  -6  -5  -7  177.68   11.00
  -6  -5  -7  170.98   12.10
  -6   5   7  168.08   12.30
  -6  -5   7  179.98   11.00
  -6   5  -7  175.58   10.20
  -6   5  -7  174.88   11.30
  -7   5   7   31.20    3.20
  -7  -5  -7   28.10    5.30
  -7  -5   7   35.40    5.20
   0  -6   7   93.29    5.40
   0  -6  -7   85.09    5.40
   0   6   7   97.29    6.50
   0  -6  -7  100.49    6.00
   0   6   7   91.29    5.30
   0  -6   7   99.99    5.60
   0   6  -7   98.79    6.70
  -1   6   7   81.09    5.10
  -1  -6  -7   77.59    5.70
  -1   6   7   78.39    6.20
  -1  -6  -7   67.99    5.40
   1   6  -7   78.49    6.10
  -1  -6  -7   73.39    5.60
  -1  -6  -7   83.09    4.90
  -1   6  -7   68.19    6.60
   1  -6  -7   73.39    5.60
  -1  -6   7   69.09    5.20
  -1   6  -7   72.39    5.40
  -1  -6   7   74.29    5.20
   1   6   7   73.79    5.60
  -2   6   7   62.49    4.70
  -2   6   7   68.19    4.40
  -2  -6  -7   56.09    5.50
  -2   6   7   70.59    8.00
   2   6  -7   59.09    7.00
  -2  -6  -7   60.89    5.20
  -2  -6  -7   60.79    5.20
  -2   6  -7   75.89    6.30
  -2  -6   7   64.29    6.10
  -2  -6   7   73.89    5.00
   2   6   7   77.69    6.50
  -2   6  -7   68.19    5.20
  -2  -6   7   72.29    6.20
   2  -6  -7   73.99    5.40
  -2  -6   7   69.69    6.30
  -2   6  -7   57.99    7.70
  -3  -6  -7  457.55   20.80
  -3  -6  -7  443.46   21.10
  -3   6   7  481.25   21.40
  -3  -6  -7  474.75   22.40
   3  -6   7  449.16   19.60
   3   6  -7  430.06   22.10
  -3   6   7  473.65   18.90
  -3   6   7  463.75   19.40
  -3  -6   7  441.46   22.20
  -3  -6   7  473.05   22.60
  -3   6  -7  446.36   21.00
   3   6   7  447.96   21.60
  -3   6  -7  440.16   20.50
  -3   6  -7  417.76   23.30
  -3  -6   7  478.75   21.00
   3  -6  -7  435.26   20.70
  -3  -6   7  437.16   19.40
  -4   6   7   73.49   10.40
  -4   6   7   90.09    7.20
  -4   6   7   88.39    7.90
  -4   6   7   86.09    6.80
  -4  -6  -7   88.89    6.70
  -4   6   7   81.39    5.40
  -4  -6  -7   81.39    6.50
  -4  -6   7   90.49    7.40
  -4   6  -7   90.69    6.90
  -4  -6   7   85.29    7.70
  -4   6  -7   94.09    7.50
  -4   6  -7   85.19    6.20
  -4  -6   7   92.69    7.00
  -5   6   7   17.20    2.90
  -5   6   7   15.50    4.50
  -5  -6  -7   16.10    3.20
  -5  -6  -7   14.80    3.50
  -5   6   7   14.40    3.30
  -5  -6   7    9.90    4.60
  -5   6  -7    9.60    2.80
  -5   6  -7   13.30    3.60
  -5  -6   7    8.50    3.50
  -5  -6   7   18.90    4.50
  -6  -6  -7   30.80    4.30
  -6   6   7   34.10    3.80
  -6  -6  -7   36.60    5.70
  -6  -6  -7   35.00    5.60
  -6   6  -7   37.10    5.50
  -6   6  -7   30.20    3.80
  -6  -6   7   36.10    5.60
  -7   6   7   59.29    4.10
  -7  -6   7   55.79    5.70
   0  -7   7  291.37   13.30
   0  -7  -7  289.97   13.80
   0   7  -7  304.27   15.10
   0  -7   7  308.07   13.20
   0  -7  -7  285.97   13.40
   0   7   7  311.57   14.90
  -1  -7  -7  604.74   26.70
   1   7  -7  593.94   27.30
   1  -7   7  597.54   25.50
  -1   7   7  603.34   27.40
  -1   7   7  619.04   24.50
  -1  -7  -7  582.04   28.80
  -1   7   7  607.24   24.90
  -1  -7  -7  590.44   26.60
  -1  -7  -7  619.74   25.60
   1   7   7  611.44   27.20
   1  -7  -7  599.94   25.60
  -1   7  -7  658.33   27.50
  -1  -7   7  620.44   25.40
   1  -7  -7  601.84   26.50
  -1  -7   7  620.24   25.40
  -1   7  -7  592.64   27.30
   2   7  -7   42.40    6.60
  -2  -7  -7   35.50    4.60
  -2   7   7   41.30    3.90
  -2   7   7   40.00    5.80
  -2  -7  -7   42.60    4.40
  -2   7   7   39.30    4.40
  -2  -7  -7   39.00    5.50
   2  -7  -7   50.49    5.20
   2   7   7   45.30    5.50
  -2  -7   7   52.19    4.30
  -2   7  -7   39.90    4.40
  -2  -7   7   44.20    4.20
  -2  -7   7   47.20    5.90
  -2   7  -7   43.70    5.30
  -3  -7  -7  145.29   10.00
  -3   7   7  174.58    9.80
  -3   7   7  173.48    9.30
  -3  -7  -7  167.68    9.50
  -3  -7  -7  169.38   10.60
  -3  -7  -7  173.48   10.10
  -3   7   7  171.48    8.50
  -3   7   7  174.08   13.20
  -3   7  -7  178.08    9.50
  -3  -7   7  176.78   10.70
  -3   7  -7  190.38   11.00
  -3  -7   7  191.28   10.00
   3  -7  -7  188.88   10.20
  -3  -7   7  184.18    9.30
   3   7   7  184.08   14.20
  -4   7   7   95.29    8.60
  -4   7   7   91.19    7.20
  -4  -7  -7   87.09    7.10
  -4  -7  -7   88.19    6.70
  -4   7   7   86.09    5.60
   4  -7   7   90.69    8.40
  -4   7   7   85.89    6.80
  -4  -7   7   83.69    7.50
  -4   7  -7   95.79    6.50
  -4  -7   7   79.29    7.50
  -4  -7   7  100.09    7.70
  -4   7  -7   98.09    7.80
  -5   7   7  285.27   13.70
  -5   7   7  303.67   15.70
  -5  -7  -7  299.77   15.40
  -5  -7  -7  320.67   16.60
  -5  -7   7  309.37   15.80
  -5   7  -7  313.77   15.30
  -5  -7   7  293.27   16.10
  -5  -7   7  301.47   16.80
  -5   7  -7  317.37   17.50
  -6  -7  -7   33.10    5.40
  -6  -7  -7   28.40    4.20
  -6   7   7   34.00    3.50
  -6  -7  -7   32.80    5.40
  -6   7  -7   29.70    4.80
  -6  -7   7   23.50    4.20
   0  -8   7 1248.68   51.69
   0   8  -7 1289.97   54.39
   0  -8   7 1306.07   51.49
   0   8  -7 1184.58   55.99
   0  -8  -7 1289.07   52.19
   0   8   7 1310.07   54.29
   0  -8  -7 1310.57   54.19
  -1  -8  -7  390.36   17.00
   1  -8   7  339.97   16.10
  -1   8   7  368.96   18.70
  -1  -8  -7  365.56   16.70
   1   8  -7  358.56   18.90
   1   8   7  377.66   18.20
  -1   8  -7  387.56   17.20
  -1  -8   7  357.16   16.00
   1  -8  -7  356.06   16.60
  -1   8  -7  302.87   18.20
   1  -8  -7  370.96   16.40
  -1  -8   7  376.16   16.00
  -2  -8  -7  109.99    6.90
   2   8  -7   93.29   10.00
  -2   8   7  111.29    6.50
  -2   8   7  110.59    5.80
  -2  -8  -7  113.19    7.30
  -2  -8  -7  100.59    6.80
  -2   8   7  106.99    7.10
  -2   8  -7   88.99    6.50
   2  -8  -7   89.19    6.80
  -2  -8   7   80.69    7.40
   2   8   7   98.09    9.20
  -2  -8   7  107.99    8.00
  -3  -8  -7  184.58    9.90
  -3   8   7  180.58   10.30
  -3   8   7  187.68    9.40
  -3   8   7  182.38    8.70
  -3  -8  -7  174.78   10.70
  -3  -8  -7  184.58   10.70
  -3  -8  -7  178.58   10.30
  -3   8  -7  164.58    9.60
  -3  -8   7  184.28   10.20
  -3   8  -7  172.28   11.10
  -3  -8   7  178.78    9.40
   3  -8  -7  163.58   10.50
  -3  -8   7  191.68   11.10
  -4  -8  -7  141.69    9.60
  -4  -8  -7  149.79    8.90
  -4   8   7  146.19   10.80
  -4   8   7  145.49    9.20
  -4  -8  -7  128.29   11.10
   4  -8   7  162.88    9.70
  -4   8   7  132.99    7.50
  -4   8  -7  145.79    8.60
  -4  -8   7  154.08    9.50
  -4  -8   7  152.28    9.20
  -4  -8   7  130.39    9.70
  -4   8  -7  140.19    9.90
  -5  -8  -7   26.00    4.10
  -5   8   7   33.10    5.40
  -5   8   7   32.10    3.70
  -5  -8  -7   31.80    4.90
  -5   8  -7   26.80    4.40
  -5  -8   7   29.40    5.10
  -5  -8   7   24.40    4.10
  -5  -8   7   31.20    5.30
  -6   8   7   32.90    4.20
  -6   8   7   32.90    3.40
  -6  -8  -7   27.50    4.10
  -6  -8  -7   30.10    5.70
  -6  -8  -7   30.40    5.30
  -6   8  -7   28.50    4.40
  -6  -8   7   37.90    5.60
  -6  -8   7   38.40    5.10
   0  -9   7   86.49    5.70
   0   9   7   85.49    9.60
   0  -9  -7   86.79    6.20
   0   9  -7   76.79    9.90
   0  -9   7   76.69    5.80
   0   9  -7   77.39    7.30
   1   9  -7  212.18   14.80
  -1  -9  -7  202.98   10.60
  -1  -9  -7  189.68   10.10
  -1   9   7  176.78   14.00
   1  -9   7  184.38   10.00
  -1  -9   7  190.98    9.50
   1  -9  -7  199.58   10.20
  -1   9  -7  162.48   14.20
  -1  -9   7  192.28    9.90
   1   9   7  207.08   13.20
  -1   9  -7  193.18   10.30
  -2  -9  -7   43.00    5.40
  -2   9   7   45.90    5.40
  -2  -9  -7   47.10    5.30
  -2  -9  -7   47.80    5.60
  -2   9   7   42.20    4.20
  -2  -9   7   45.20    5.20
  -2   9  -7   46.00    5.00
   2  -9  -7   48.20    5.50
  -2  -9   7   46.20    4.70
  -3  -9  -7   11.80    3.30
  -3  -9  -7   16.10    3.50
  -3  -9  -7   14.70    3.30
  -3  -9  -7   13.80    3.20
  -3   9   7   14.60    2.70
  -3  -9   7   14.50    3.80
  -3  -9   7   20.30    3.20
  -3   9  -7   20.40    2.90
   3  -9  -7   17.80    3.60
  -3  -9   7   20.80    3.60
  -4  -9  -7   40.30    5.80
  -4  -9  -7   38.70    5.20
  -4   9   7   41.10    4.00
   4  -9   7   49.50    6.40
  -4   9   7   38.30    5.40
  -4  -9  -7   39.10    5.10
  -4   9  -7   34.20    4.70
  -4  -9   7   38.70    6.20
  -4  -9   7   36.10    4.70
  -4  -9   7   44.70    6.50
  -5   9   7   97.79    5.80
  -5  -9  -7   94.09    7.10
  -5   9   7   89.29    6.80
  -5  -9  -7   90.59    7.20
  -5  -9   7   89.39    7.80
  -5   9  -7   95.19    6.60
  -5  -9   7   85.79    8.20
  -5  -9   7   92.89    8.70
  -6   9   7   73.89    4.70
  -6  -9  -7   75.09    6.40
  -6   9   7   73.09    6.40
  -6  -9  -7   73.69    6.10
  -6  -9  -7   56.19    8.40
  -6   9  -7   74.99    5.50
  -6  -9   7   76.39    6.90
   0  10  -7  479.75   26.80
   0 -10  -7  508.25   22.80
   0 -10   7  530.75   21.70
   0  10   7  502.05   27.30
   0 -10   7  494.25   21.70
  -1  10   7   63.39   10.90
  -1 -10  -7   55.09    5.40
  -1 -10  -7   76.79    6.80
   1 -10   7   66.89    5.50
  -1  10   7   63.19    5.90
   1 -10   7   63.39    6.40
   1 -10  -7   72.69    5.90
  -1  10  -7   68.79    6.10
  -1 -10   7   65.39    5.50
  -1 -10   7   74.99    6.00
  -2  10   7  137.99    7.40
  -2 -10  -7  151.48    8.80
  -2 -10  -7  152.98    9.00
  -2 -10  -7  145.29    9.20
  -2  10   7  151.68    8.80
   2 -10  -7  122.59    8.70
  -2  10  -7  119.39    8.20
  -3  10   7   12.20    2.60
   3 -10   7   10.80    3.00
  -3 -10  -7   12.70    3.30
  -3  10   7   10.80    2.60
  -3 -10  -7   11.90    3.50
  -3 -10  -7   13.40    3.40
  -3 -10  -7   13.90    3.30
  -3  10  -7    9.60    2.30
  -3 -10   7    9.40    2.90
  -3 -10   7    6.30    4.00
   3 -10  -7   12.90    4.00
  -3 -10   7   14.50    3.40
  -4  10   7   70.89    5.30
  -4 -10  -7   80.59    6.60
   4 -10   7   83.59    7.10
  -4 -10  -7   84.69    8.90
  -4 -10  -7   85.99    7.20
  -4  10   7   84.69    6.70
  -4  10  -7   71.19    5.90
  -4 -10   7   67.09    7.20
  -4 -10   7   70.29    7.80
  -4 -10   7   62.99    7.00
  -5  10   7   29.80    3.70
  -5 -10  -7   21.90    3.90
  -5 -10  -7   24.10    3.60
  -5  10   7   28.40    3.60
  -5  10  -7   27.00    4.10
  -5 -10   7   24.00    4.90
  -5 -10   7   26.30    4.80
  -5 -10   7   27.60    4.80
  -6  10   7   35.60    5.00
  -6 -10  -7   20.60    5.40
  -6  10   7   24.40    3.10
  -6 -10  -7   21.60    3.80
  -6 -10   7   20.10    4.50
  -6  10  -7   22.70    3.10
   0 -11  -7   -0.10    2.10
   0 -11   7    1.70    2.10
   0  11   7    5.50    2.60
   0 -11   7   -0.10    2.40
  -1 -11  -7   17.50    4.00
  -1  11   7   12.60    2.80
   1 -11   7   14.60    3.40
   1 -11   7   12.70    2.60
  -1 -11  -7    9.50    2.60
   1 -11  -7   13.20    2.80
  -1 -11   7   12.30    2.70
  -1 -11   7   11.40    2.80
  -1  11  -7   17.90    2.90
  -2 -11  -7  194.78   11.20
   2 -11   7  205.38   10.40
  -2 -11  -7  214.68   11.40
  -2  11   7  204.18   11.30
  -2 -11   7  190.18   11.50
   2 -11  -7  193.28   11.00
  -2  11  -7  196.98   10.90
  -3 -11  -7   69.59    7.00
  -3  11   7   63.69    4.90
   3 -11   7   66.79    6.30
  -3 -11  -7   69.99    7.20
  -3  11   7   62.79    6.20
  -3 -11  -7   73.89    6.60
  -3 -11  -7   63.29    7.10
   3 -11  -7   69.69    8.60
  -3 -11   7   62.99    8.10
  -3 -11   7   64.79    6.50
  -3 -11   7   72.99    6.40
  -3  11  -7   68.29    5.80
  -4  11   7    4.10    2.30
  -4  11   7    3.70    2.40
   4 -11   7    2.90    3.00
  -4 -11  -7    1.20    4.00
  -4 -11  -7    5.10    3.20
  -4 -11  -7    5.60    3.30
  -4 -11   7    6.40    4.30
  -4 -11   7    6.10    3.20
  -4 -11   7    3.30    3.30
  -4  11  -7    4.10    2.10
  -5  11   7   88.39    5.40
  -5 -11  -7  100.09    6.80
  -5 -11  -7   93.99    7.20
  -5  11   7   95.19    6.50
  -5  11  -7   82.49    6.00
  -5 -11   7   64.29    7.60
  -5 -11   7   78.79    8.50
  -5 -11   7   82.29    8.00
  -6  11  -7   66.99    4.90
   0 -12   7  553.54   23.80
   0 -12   7  547.45   24.00
   0 -12  -7  559.34   25.10
   0  12   7  551.54   26.00
   1 -12   7   73.49    5.90
   1 -12   7   68.49    7.10
  -1  12   7   62.09    6.60
  -1 -12  -7   59.39    7.90
  -1 -12  -7   66.99    6.40
   1 -12  -7   74.19    6.80
  -1 -12   7   77.59    6.20
  -1 -12   7   92.39    6.80
  -1  12  -7   74.59    6.70
  -2 -12  -7  160.98    9.50
  -2  12   7  145.39    9.80
   2 -12   7  159.68    9.20
  -2 -12  -7  154.48   10.10
  -2 -12  -7  149.69    9.80
  -2 -12   7  186.18   10.90
  -2  12  -7  183.38    9.70
   2 -12  -7  170.28   10.20
  -3 -12  -7  145.59    9.60
  -3 -12  -7  140.19    9.60
   3 -12   7  133.39    8.50
  -3  12   7  141.79    9.10
  -3 -12  -7  135.49    9.10
  -3 -12   7  156.08    9.60
  -3  12  -7  153.18    8.70
  -3 -12   7  150.38    9.00
  -4 -12  -7   96.79    9.30
   4 -12   7  119.79    7.60
  -4  12   7  102.79    7.40
  -4 -12  -7  103.69    7.70
  -4 -12   7   96.59   10.20
  -4 -12   7  121.29    8.10
  -4  12  -7  110.69    7.10
  -4 -12   7  124.99    8.60
  -5 -12  -7   59.59    5.50
  -5  12   7   59.79    5.00
  -5 -12   7   56.59    8.30
  -5  12  -7   57.39    4.70
  -5 -12   7   45.30    6.80
  -5 -12   7   53.49    6.30
   0 -13   7   -0.90    2.90
   0 -13  -7    0.10    2.30
   0  13   7   -0.70    3.10
   0 -13   7   -1.90    2.40
  -1 -13  -7   22.70    3.50
  -1  13   7   33.40    5.40
   1 -13   7   20.50    3.10
   1 -13  -7   29.40    4.10
  -1  13  -7   27.00    3.80
  -1 -13   7   26.80    3.80
  -2 -13  -7   25.30    4.00
  -2 -13  -7   24.80    3.80
  -2 -13  -7   26.40    4.30
  -2  13   7   18.10    3.10
  -2 -13   7   30.80    4.90
  -2 -13   7   16.40    3.40
  -2 -13   7   18.20    3.60
   2 -13  -7   15.60    3.50
  -2  13  -7   17.70    3.20
  -3  13   7   21.80    3.30
  -3 -13  -7   23.10    4.30
  -3 -13  -7   26.80    4.20
  -3 -13  -7   17.10    4.00
   3 -13   7   18.90    3.20
  -3  13  -7   17.40    3.00
  -3 -13   7   14.90    3.40
  -3 -13   7   12.20    3.50
  -4  13   7   43.90    5.00
  -4 -13  -7   46.70    5.70
   4 -13   7   53.29    5.80
  -4 -13  -7   46.60    7.00
  -4  13  -7   50.99    4.70
  -4 -13   7   55.49    6.40
  -4 -13   7   51.59    6.20
  -5  13   7   13.70    2.60
  -5 -13  -7   18.00    3.60
  -5  13  -7    8.40    2.10
  -5 -13   7   13.50    4.00
  -5 -13   7   10.70    6.40
   0 -14   7   -1.70    2.60
   0  14   7    0.70    3.50
   0 -14  -7    2.20    2.60
  -1 -14  -7   47.70    6.00
   1 -14   7   53.09    5.60
  -1  14   7   56.59    6.50
   1 -14  -7   65.19    6.40
  -1 -14   7   70.09    6.60
  -2 -14  -7   65.39    6.40
   2 -14   7   60.29    5.60
  -2 -14  -7   61.89    7.90
  -2 -14  -7   64.69    6.40
  -2  14   7   54.89    5.90
  -2 -14   7   56.49    6.00
  -2  14  -7   49.40    5.90
  -2 -14   7   60.89    6.20
   2 -14  -7   47.90    7.10
  -2 -14   7   51.59    6.30
  -3 -14  -7   97.79    8.10
  -3 -14  -7  108.99    7.70
  -3  14   7  103.29    7.00
  -3 -14  -7   91.89    7.60
   3 -14   7  113.19    6.90
  -3 -14   7   84.29    6.80
  -3  14  -7   83.89    6.50
  -3 -14   7   89.59    7.30
  -4 -14  -7  116.19    8.10
   4 -14   7  117.09    7.70
  -4  14   7  131.39    7.70
  -4 -14   7  145.59    8.60
  -4  14  -7  129.49    7.40
  -4 -14   7  120.09    8.40
  -5  14   7   10.00    2.10
  -5  14  -7    6.50    2.20
   0 -15  -7   22.60    3.70
   0 -15   7   19.00    3.60
  -1  15   7   42.90    6.00
  -1 -15  -7   35.80    5.20
  -1 -15  -7   34.40    5.10
   1 -15   7   47.90    5.00
   1 -15  -7   37.10    4.70
  -1 -15   7   28.10    4.20
  -1 -15   7   32.80    4.70
  -2  15   7  322.07   16.30
   2 -15   7  330.27   15.10
  -2 -15  -7  338.97   15.60
  -2 -15  -7  342.37   16.30
  -2 -15   7  330.27   15.20
   2 -15  -7  316.07   16.10
  -2  15  -7  315.37   16.00
  -2 -15   7  312.17   16.20
  -3  15   7   50.09    5.10
  -3 -15  -7   50.79    5.80
  -3 -15  -7   52.09    7.00
   3 -15   7   58.89    5.30
  -3 -15  -7   57.99    6.90
  -3 -15   7   64.19    6.10
  -3  15  -7   53.19    5.20
  -3 -15   7   58.79    5.50
  -4 -15  -7   81.59    7.30
  -4  15   7   66.79    5.10
   4 -15   7   74.29    6.60
  -4 -15   7   60.39    6.30
  -4 -15   7   76.99    6.30
  -4  15  -7   67.99    5.10
   0 -16   7    1.10    2.90
   0 -16   7    3.60    3.80
   0 -16  -7    0.30    2.70
   0 -16  -7    2.50    2.40
   1 -16   7  183.88   11.10
  -1 -16  -7  220.18   10.90
   1 -16   7  218.28   10.80
  -1  16   7  186.18   11.70
  -1 -16  -7  219.18   11.40
   1 -16   7  200.88   12.50
  -1 -16   7  209.58   10.80
  -1 -16   7  222.28   11.60
   1 -16  -7  211.28   11.50
  -1 -16   7  207.38   11.40
  -2 -16  -7  108.39    7.30
   2 -16   7   96.49    6.70
  -2 -16  -7  111.39    7.30
  -2  16   7   98.79    7.10
  -2 -16   7  101.69    7.50
  -2 -16   7  104.39    7.00
  -3 -16  -7  148.19    9.10
  -3  16   7  156.88    8.80
  -3 -16  -7  146.19    9.70
   3 -16   7  156.08    8.40
  -3 -16   7  166.38    8.80
  -3 -16   7  159.28    9.20
  -3  16  -7  163.08    8.90
  -4  16   7    5.30    2.10
   0 -17   7   37.70    5.40
   0 -17   7   40.90    5.60
   0 -17  -7   45.30    5.20
   0 -17   7   46.70    5.40
   0 -17  -7   47.00    5.30
  -1 -17  -7   22.90    3.50
   1 -17   7   25.00    3.50
  -1 -17  -7   32.20    4.50
  -1 -17   7   32.80    5.00
  -1 -17   7   27.20    4.40
   1 -17  -7   26.70    3.60
  -1 -17   7   18.60    3.40
   1 -17  -7   35.70    5.50
  -2  17   7    8.80    3.30
  -2 -17  -7    5.40    3.10
  -2 -17  -7    6.30    2.70
   2 -17   7    9.00    2.80
  -2 -17   7   18.40    4.10
   2 -17  -7    8.10    3.50
  -2 -17   7   11.40    3.00
  -3  17   7    9.60    2.90
   3 -17   7   11.10    3.00
  -3 -17   7   19.50    3.60
   0 -18   7   -0.80    3.80
   0 -18  -7   -0.60    2.50
   0 -18   7    1.60    3.80
   0 -18  -7    3.10    2.50
   1 -18   7   86.89    6.00
  -1 -18  -7   86.39    6.00
  -1 -18  -7   80.59    6.20
   1 -18  -7   75.19    7.40
  -1 -18   7   74.79    6.40
   1 -18  -7   85.19    6.40
   2 -18   7   14.80    3.00
  -2 -18  -7   14.90    2.70
  -2 -18   7   17.50    3.40
   0   0   8  361.56   15.60
   0   0  -8  345.27   16.10
   1   0  -8   98.09    6.70
  -1   0   8   95.09    5.80
   1   0   8   95.79    5.40
  -1   0  -8   92.59    5.60
  -1   0  -8   90.59    6.90
  -2   0   8   66.19    5.50
  -2   0  -8   67.69    4.50
  -2   0  -8   65.09    5.00
  -2   0   8   69.69    5.70
   2   0  -8   68.89    7.00
   2   0   8   64.09    4.60
  -3   0  -8   53.59    6.20
  -3   0  -8   68.39    5.20
  -3   0  -8   68.79    5.00
  -3   0   8   58.99    5.70
   3   0  -8   64.29    6.60
  -3   0   8   53.79    5.20
  -3   0   8   65.49    6.40
  -3   0  -8   64.59    5.90
  -4   0  -8  498.15   22.70
  -4   0  -8  484.35   24.40
  -4   0  -8  462.75   23.00
  -4   0   8  504.55   21.60
  -4   0   8  518.25   25.30
  -4   0   8  522.05   24.80
  -5   0  -8  936.71   40.60
  -5   0   8  915.21   38.10
  -5   0  -8  904.21   43.70
  -5   0  -8  857.61   46.40
  -5   0   8  999.80   44.40
  -6   0   8   82.29    5.60
  -6   0  -8   89.09    7.10
  -6   0  -8   77.29    7.80
  -6   0   8   86.89    7.80
  -7   0  -8   35.60    5.20
  -7   0   8   28.30    3.40
   0  -1  -8  124.69    7.40
   0  -1   8  124.89    6.50
   0   1  -8  111.19    7.10
   0   1   8  121.59    6.50
   1   1  -8  836.42   33.70
  -1   1   8  810.02   33.20
   1  -1   8  820.52   33.10
  -1  -1  -8  767.22   33.50
  -1  -1  -8  720.63   33.80
   1  -1  -8  821.42   33.70
  -1   1  -8  772.02   33.50
  -1   1  -8  750.22   33.80
   1   1   8  843.72   33.20
  -2  -1  -8  321.67   13.30
  -2   1   8  288.87   13.20
  -2  -1  -8  302.77   14.80
  -2  -1  -8  310.17   13.60
  -2   1   8  309.17   13.20
   2   1  -8  310.97   14.20
   2   1  -8  308.37   14.60
  -2  -1  -8  291.87   14.00
  -2   1   8  305.67   13.80
   2  -1  -8  279.57   14.40
  -2   1  -8  278.37   13.80
  -2   1  -8  284.87   13.50
  -2  -1   8  271.87   12.90
   2   1   8  279.37   13.30
  -2   1  -8  270.87   13.70
  -2  -1   8  275.97   13.50
  -3  -1  -8   -0.40    1.60
  -3  -1  -8    1.30    2.20
  -3   1   8    1.10    1.90
  -3  -1  -8   -0.50    2.00
   3   1  -8    1.60    2.80
  -3   1   8   -0.20    2.00
  -3   1   8    3.60    2.40
  -3   1  -8   -4.60    3.10
  -3   1  -8    0.70    1.80
  -3  -1   8    2.30    3.00
  -3  -1   8   -3.20    2.40
  -3   1  -8    2.50    1.80
   3  -1  -8    1.50    3.20
  -3  -1   8    1.40    1.80
  -3  -1   8   -0.50    2.00
  -3   1  -8   -1.00    2.10
  -4   1   8  436.66   18.20
  -4  -1  -8  420.96   19.10
  -4  -1  -8  431.96   20.50
  -4   1   8  423.76   22.10
  -4   1   8  425.16   20.80
  -4  -1  -8  402.96   19.40
  -4   1  -8  380.06   19.20
  -4   1  -8  406.46   19.00
  -4  -1   8  414.66   20.80
  -4   1  -8  365.66   21.70
  -4  -1   8  414.76   18.40
  -4  -1   8  382.36   21.70
  -5   1   8  238.68   13.50
  -5   1   8  260.97   15.00
  -5  -1  -8  249.08   13.30
  -5  -1  -8  252.17   14.60
  -5   1   8  242.78   12.10
  -5  -1  -8  285.57   15.90
  -5  -1   8  283.17   15.10
  -5  -1   8  284.07   13.80
  -5   1  -8  263.57   15.60
  -5   1  -8  253.97   13.70
  -5   1  -8  268.07   13.40
  -6  -1  -8   17.50    4.20
  -6  -1  -8   31.10    4.50
  -6   1   8   23.10    4.40
  -6   1   8   24.00    3.40
  -6  -1   8   24.30    3.70
  -6   1  -8   21.60    4.20
  -6  -1   8   27.50    4.70
  -6   1  -8   18.80    4.40
  -7   1   8   16.00    4.30
  -7  -1  -8    8.50    3.60
  -7   1   8    9.00    2.50
  -7  -1   8   15.40    2.70
  -7   1  -8   15.00    3.90
  -7  -1   8   17.90    4.10
   0  -2  -8  199.68   10.70
   0   2  -8  212.98   10.60
   0   2   8  210.58    9.90
   0   2  -8  202.28   10.30
   1   2  -8  244.78   11.90
  -1  -2  -8  281.07   11.40
  -1  -2  -8  229.68   12.50
  -1   2   8  227.48   11.00
   1   2  -8  233.68   12.10
  -1  -2  -8  223.48   11.30
  -1   2   8  242.78   11.60
  -1   2  -8  233.08   12.30
  -1   2  -8  250.57   11.30
  -1  -2   8  242.98   11.10
  -1   2  -8  255.27   11.90
   1   2   8  257.17   11.50
   1  -2  -8  257.57   12.40
  -2  -2  -8  817.92   33.60
  -2   2   8  831.42   34.40
  -2  -2  -8  822.12   36.20
   2   2  -8  853.41   34.80
  -2   2   8  813.12   33.40
  -2  -2  -8  835.42   37.90
  -2  -2  -8  833.82   35.00
  -2   2   8  795.32   32.80
   2   2  -8  810.62   35.10
  -2  -2   8  801.22   33.50
   2  -2  -8  770.42   33.40
  -2   2  -8  796.42   34.40
   2   2   8  869.51   34.20
   2  -2  -8  802.92   34.90
  -2   2  -8  806.82   34.90
  -2   2  -8  825.92   36.10
  -2  -2   8  816.82   32.80
  -2   2  -8  803.42   40.10
  -2  -2   8  764.62   37.90
  -3   2   8  109.29    7.20
  -3  -2  -8  101.99    7.40
  -3   2   8  103.29    7.40
   3   2  -8  108.29    8.20
  -3  -2  -8  117.59    7.50
  -3   2   8  111.49    7.70
  -3  -2  -8  114.19    6.90
  -3  -2   8  127.59    8.10
  -3  -2   8  128.19    7.10
  -3  -2   8  127.39    8.30
  -3  -2   8  106.69    8.50
  -3  -2   8  124.09    7.80
   3   2   8  123.39    7.50
  -3   2  -8  121.99    6.20
  -3   2  -8  127.79    8.40
  -3   2  -8  127.99    6.80
  -3   2  -8  129.99    7.20
   3  -2  -8  119.99    7.20
  -4  -2  -8  194.28   11.20
  -4   2   8  199.28   10.40
  -4   2   8  192.48   14.40
  -4  -2  -8  189.98   10.30
  -4   2   8  207.78   11.80
  -4   2   8  183.98   11.90
  -4  -2   8  195.28   11.60
  -4   2  -8  201.08   12.20
  -4   2  -8  202.88   10.50
  -4  -2   8  205.38   10.70
  -4   2  -8  198.28    9.30
  -4   2  -8  210.88   10.60
  -4  -2   8  187.58   14.30
  -5   2   8  293.27   13.70
  -5   2   8  298.57   16.80
  -5   2   8  296.67   14.90
  -5  -2  -8  308.97   17.80
  -5  -2  -8  289.77   16.30
  -5  -2   8  315.27   15.20
  -5   2  -8  305.97   15.40
  -5   2  -8  290.67   17.40
  -5  -2   8  322.77   16.70
  -5   2  -8  318.37   15.30
  -6   2   8   63.19    4.90
  -6   2   8   72.79    7.30
  -6  -2  -8   69.29    8.00
  -6  -2  -8   72.79    6.50
  -6  -2  -8   71.49    7.50
  -6  -2   8   75.29    7.10
  -6   2  -8   63.29    7.10
  -6  -2   8   63.79    5.00
  -6   2  -8   54.79    7.10
  -7   2   8    2.70    2.10
  -7   2   8    7.10    4.80
  -7  -2  -8    4.10    3.60
  -7  -2   8    5.90    3.40
  -7   2  -8    5.80    3.50
  -7  -2   8    9.60    2.70
   0   3   8   10.70    1.90
   0   3  -8    9.30    2.20
   0  -3  -8   14.00    3.20
   0   3  -8   12.90    2.80
  -1   3   8   67.79    5.50
  -1  -3  -8   63.59    5.10
  -1  -3  -8   69.99    4.90
  -1   3   8   69.49    5.20
   1   3  -8   71.29    5.30
   1   3  -8   73.19    6.80
  -1   3   8   70.09    4.90
  -1  -3   8   77.59    5.00
  -1   3  -8   81.19    5.50
   1  -3  -8   70.89    6.70
  -1  -3   8   87.69    5.50
  -1   3  -8   83.79    4.90
   1   3   8   79.09    5.00
  -2   3   8  292.37   13.70
  -2  -3  -8  296.47   14.20
  -2   3   8  302.07   12.50
  -2  -3  -8  303.07   13.10
   2   3  -8  294.87   15.30
  -2  -3  -8  293.67   12.60
  -2   3   8  301.87   13.10
   2   3  -8  277.07   13.60
  -2   3  -8  284.17   13.00
   2   3   8  267.67   13.20
  -2   3  -8  272.07   13.40
  -2   3  -8  283.37   15.20
  -2  -3   8  258.97   13.00
  -2   3  -8  265.07   13.60
  -2  -3   8  254.47   12.50
   2  -3  -8  264.67   12.50
   2  -3  -8  267.67   15.30
  -2  -3   8  269.27   14.30
  -3  -3  -8  195.68   10.10
  -3   3   8  181.18   10.30
  -3  -3  -8  187.48   10.60
  -3  -3  -8  176.78   10.80
  -3   3   8  184.78    9.70
   3   3  -8  192.68   11.30
  -3  -3   8  195.48   10.60
  -3   3  -8  213.98    9.00
  -3  -3   8  209.28   10.20
  -3   3  -8  186.28   10.00
  -3   3  -8  202.78   11.50
  -3  -3   8  205.88   11.80
  -3  -3   8  197.28   11.10
  -3   3  -8  202.38    9.90
   3   3   8  195.48   10.80
  -3  -3   8  220.58   11.10
  -4   3   8  513.25   26.30
  -4  -3  -8  513.15   23.30
  -4   3   8  498.65   21.20
  -4   3   8  491.95   24.10
  -4   3   8  517.85   22.00
  -4   3   8  518.25   25.30
  -4  -3  -8  537.25   25.00
  -4  -3   8  511.05   26.00
  -4   3  -8  516.65   26.50
  -4  -3   8  507.95   25.30
  -4   3  -8  495.35   20.90
  -4   3  -8  495.45   23.00
  -4  -3   8  510.05   22.10
  -4   3  -8  491.25   23.50
  -5  -3  -8   87.89    7.60
  -5   3   8  103.39    8.10
  -5   3   8   86.89    5.90
  -5   3   8   74.29    8.50
  -5  -3  -8   83.79    7.20
  -5  -3   8  111.49    8.20
  -5   3  -8  104.79    7.20
  -5  -3   8  106.29    8.90
  -5   3  -8  103.19    7.10
  -6  -3  -8    7.20    3.60
  -6  -3  -8    7.50    3.60
  -6   3   8    6.00    2.40
  -6  -3  -8    7.90    3.90
  -6   3   8    3.30    4.00
  -6   3  -8    5.00    3.40
  -6   3  -8    8.80    4.40
  -6  -3   8    6.10    3.20
  -6  -3   8    9.90    2.80
  -7  -3  -8   48.10    6.30
  -7   3   8   52.69    4.10
  -7  -3   8   54.59    4.50
  -7   3  -8   64.39    5.90
  -7  -3   8   59.89    6.30
   0  -4   8  385.46   17.60
   0   4   8  393.46   17.40
   0  -4  -8  467.45   20.30
   0  -4  -8  412.96   17.70
   0   4   8  429.56   18.60
   0   4  -8  417.46   18.90
  -1   4   8  362.86   15.30
  -1   4   8  372.46   16.10
   1  -4   8  350.16   15.00
  -1  -4  -8  357.36   15.10
   1   4  -8  364.16   17.30
  -1  -4  -8  352.86   17.00
   1   4  -8  359.66   16.30
  -1  -4  -8  376.66   15.90
  -1   4   8  365.56   15.00
  -1  -4   8  330.97   15.20
  -1   4  -8  341.67   15.60
   1  -4  -8  322.47   17.20
   1  -4  -8  328.57   15.00
  -1  -4   8  333.47   14.90
  -1   4  -8  336.67   16.10
   1   4   8  337.07   15.90
  -1   4  -8  326.37   16.10
  -2  -4  -8   66.29    4.90
   2  -4   8   60.69    5.50
  -2   4   8   57.09    4.90
  -2  -4  -8   66.99    4.80
   2   4  -8   65.59    6.50
  -2  -4  -8   64.39    5.40
  -2   4   8   65.99    5.30
  -2   4   8   54.59    6.50
   2   4  -8   53.39    6.70
   2  -4  -8   78.49    5.30
  -2  -4   8   78.29    5.30
  -2   4  -8   73.89    6.40
  -2   4  -8   83.39    5.00
  -2  -4   8   79.19    6.00
   2  -4  -8   91.59   10.80
   2   4   8   83.79    5.80
  -2  -4   8   80.89    6.40
  -2   4  -8   82.79    5.10
  -2   4  -8   81.99    6.90
   3  -4   8  215.78   12.10
  -3   4   8  217.58   10.90
  -3  -4  -8  229.98   12.30
  -3   4   8  218.08   10.30
   3   4  -8  215.28   13.20
  -3  -4  -8  206.68   11.40
  -3  -4   8  254.57   12.00
   3   4   8  233.58   12.50
  -3  -4   8  236.98   11.20
  -3   4  -8  209.78   11.50
  -3   4  -8  256.97   11.60
  -3  -4   8  238.68   12.50
  -3   4  -8  260.77   13.50
  -3  -4   8  239.18   12.60
  -3  -4   8  237.68   13.10
  -4  -4  -8  330.87   17.20
  -4   4   8  334.77   15.50
  -4  -4  -8  316.57   16.00
  -4   4   8  316.47   16.80
  -4   4   8  327.77   14.70
  -4   4   8  308.87   20.20
  -4   4   8  329.37   17.60
  -4   4  -8  355.16   14.50
   4  -4  -8  347.27   16.60
  -4  -4   8  352.46   15.80
  -4  -4   8  314.07   19.90
  -4  -4   8  355.76   17.80
  -4  -4   8  324.17   16.90
  -4   4  -8  371.66   16.50
  -4   4  -8  334.87   18.40
  -4   4  -8  334.57   16.00
  -5   4   8   13.60    4.00
  -5  -4  -8   13.30    3.60
  -5   4   8   11.20    4.00
  -5   4   8   10.70    2.60
  -5  -4  -8    8.90    3.10
  -5   4   8    9.00    4.00
  -5   4  -8    8.10    3.70
  -5  -4   8    3.50    3.20
  -5  -4   8    9.70    4.20
  -5   4  -8    6.30    3.30
  -5   4  -8    6.50    2.60
  -6  -4  -8   10.70    3.90
  -6   4   8    8.20    4.30
  -6   4   8    8.50    2.40
  -6  -4  -8   11.40    3.80
  -6  -4  -8   11.80    3.70
  -6   4  -8   10.80    3.40
  -6  -4   8   11.50    3.60
  -6  -4   8   14.60    3.10
  -6   4  -8    8.20    3.40
  -7  -4  -8   31.60    5.00
  -7   4   8   43.50    3.50
  -7  -4   8   45.80    5.70
  -7  -4   8   43.60    4.50
   0  -5   8 1865.31   76.89
   0   5   8 1952.10   75.69
   0  -5  -8 1887.31   80.99
   0  -5  -8 1933.21   77.99
   0   5  -8 1953.90   79.49
   0   5   8 1930.21   76.99
   0   5   8 2009.90   79.19
   1  -5   8  252.47   11.40
  -1  -5  -8  259.57   12.30
  -1   5   8  255.77   11.40
  -1   5   8  283.27   12.10
  -1   5   8  266.07   13.00
   1   5  -8  271.27   13.10
  -1  -5  -8  252.97   12.20
  -1  -5  -8  258.87   11.50
  -1   5  -8  225.18   14.20
   1   5   8  229.78   12.30
  -1  -5   8  257.67   11.40
   1  -5  -8  254.77   12.10
   1  -5  -8  236.88   11.60
  -1   5  -8  257.17   12.30
  -1  -5   8  259.27   11.80
  -1   5  -8  261.47   12.90
  -2   5   8   51.09    4.10
  -2   5   8   53.79    4.60
   2  -5   8   55.29    5.10
   2   5  -8   51.29    6.40
  -2  -5  -8   55.89    4.40
  -2  -5  -8   55.39    4.70
  -2   5   8   56.59    6.30
  -2  -5  -8   57.89    4.60
  -2  -5  -8   49.10    6.00
  -2   5  -8   56.29    4.60
   2   5   8   61.89    5.90
  -2  -5   8   48.00    5.80
  -2   5  -8   47.50    4.50
  -2  -5   8   60.59    5.90
  -2  -5   8   52.89    5.40
  -2  -5   8   59.49    4.90
  -2   5  -8   63.29    5.70
  -2   5  -8   59.29    7.00
   2  -5  -8   60.39    4.80
   2  -5  -8   47.30    5.60
   3  -5   8    4.90    2.80
  -3   5   8    4.30    2.30
   3   5  -8    9.00    4.30
  -3   5   8    3.50    2.20
  -3  -5  -8    4.40    2.10
  -3  -5  -8    5.50    2.30
  -3   5   8    5.00    1.90
  -3  -5   8    4.90    2.40
  -3  -5   8   -0.10    2.10
  -3   5  -8    0.80    1.60
  -3  -5   8    0.90    2.40
  -3  -5   8    6.70    3.70
  -3  -5   8    4.30    4.20
  -3   5  -8    2.60    1.90
  -3   5  -8    4.30    2.30
   3  -5  -8    3.00    2.30
   3   5   8    1.40    4.00
  -4   5   8  163.38   10.30
  -4   5   8  152.08   16.00
  -4  -5  -8  155.48   10.00
  -4   5   8  158.98    8.20
  -4   5   8  155.68   10.00
  -4   5   8  153.98    9.30
  -4  -5  -8  152.38    9.10
  -4  -5   8  177.58   10.60
  -4   5  -8  192.08   10.80
   4  -5  -8  154.08   10.70
  -4  -5   8  171.68    9.90
  -4   5  -8  157.68    9.40
  -4  -5   8  161.68   10.60
  -4   5  -8  173.98    9.40
  -5   5   8  143.09   10.00
  -5   5   8  125.99    7.40
  -5   5   8  129.19   10.00
  -5  -5  -8  141.69    9.40
  -5  -5  -8  138.19    8.80
  -5  -5   8  130.99    9.60
  -5   5  -8  132.19    9.00
  -5   5  -8  143.49    8.50
  -5  -5   8  145.79   10.00
  -5   5  -8  135.79    9.80
  -6  -5  -8  166.28    9.70
  -6  -5  -8  154.98   11.40
  -6   5   8  160.78    8.30
  -6  -5  -8  170.88   10.60
  -6   5   8  153.38   11.80
  -6  -5   8  174.88   10.70
  -6   5  -8  161.88    9.70
  -6   5  -8  174.48   11.00
  -7   5   8    2.00    2.10
  -7  -5  -8   -4.70    4.30
  -7  -5   8    2.60    3.50
   0   6   8  967.10   38.70
   0  -6  -8  953.90   39.80
   0   6   8  985.10   41.30
   0   6  -8  977.60   41.50
   0  -6  -8  986.10   41.50
   0  -6   8  956.50   39.30
  -1  -6  -8   78.39    6.10
  -1   6   8   83.89    5.30
  -1  -6  -8   87.49    5.90
   1   6  -8   85.49    7.00
  -1   6   8   72.89    6.90
   1  -6   8   84.19    5.40
  -1  -6  -8   82.99    5.30
  -1  -6   8  101.29    6.10
  -1   6  -8  100.79    7.40
   1   6   8  104.99    6.80
  -1  -6   8   95.59    6.00
  -1   6  -8  103.19    6.00
   1  -6  -8   91.69    6.00
   1  -6  -8   94.29    5.90
   2  -6   8  127.69    7.20
  -2   6   8  108.09    9.50
  -2  -6  -8  122.79    8.00
  -2  -6  -8  124.99    7.80
   2   6  -8  120.79    9.70
  -2   6   8  134.69    6.70
  -2  -6  -8  128.39    7.40
  -2  -6  -8  124.79    7.00
  -2   6  -8  135.39    8.80
  -2   6  -8  136.99    7.50
  -2  -6   8  140.29    9.00
  -2  -6   8  131.49    8.30
  -2   6  -8  130.69   10.40
  -2  -6   8  144.69    8.70
   2   6   8  131.49    9.10
   2  -6  -8  135.69    7.90
  -2  -6   8  141.79    7.50
  -3   6   8   49.50    5.30
  -3  -6  -8   38.70    4.60
  -3   6   8   49.10    3.80
  -3   6   8   38.10    4.90
  -3  -6  -8   37.80    4.40
   3  -6   8   40.10    5.70
  -3  -6  -8   42.40    4.60
   3   6  -8   38.30    6.60
  -3  -6   8   36.40    5.60
  -3   6  -8   38.10    4.50
  -3   6  -8   36.70    5.30
  -3  -6   8   39.80    6.50
   3  -6  -8   40.70    5.70
  -3   6  -8   38.30    4.10
  -3  -6   8   33.90    4.50
   3   6   8   28.20    5.80
  -3  -6   8   39.60    5.20
  -3  -6   8   35.40    5.30
  -4   6   8  117.79    7.70
  -4   6   8  109.99    8.40
  -4  -6  -8  112.09    7.40
  -4   6   8  109.59    6.50
  -4  -6  -8  112.39    8.00
  -4   6   8  114.49    9.00
  -4   6   8   89.29   11.80
  -4   6  -8  121.29    8.90
  -4   6  -8  139.59    8.00
  -4  -6   8  128.39    9.00
  -4  -6   8  135.39    8.40
  -4  -6   8  137.29    9.00
  -4   6  -8  117.69    7.60
  -5  -6  -8   24.40    4.20
  -5   6   8   24.00    3.50
  -5   6   8   27.90    5.00
  -5   6   8   21.70    3.70
  -5  -6  -8   24.30    4.10
  -5   6  -8   20.10    3.20
  -5   6  -8   17.40    4.10
  -5  -6   8   12.30    5.00
  -5  -6   8   15.00    4.00
  -5  -6   8   26.30    4.80
  -6  -6  -8   31.00    5.10
  -6  -6  -8   39.20    5.90
  -6  -6  -8   43.90    5.40
  -6   6   8   40.40    3.90
  -6   6  -8   47.30    5.30
  -6  -6   8   52.69    5.90
  -6   6  -8   47.10    5.70
  -7   6   8    4.60    2.20
  -7  -6   8    6.40    3.70
   0  -7  -8  203.08    9.70
   0   7  -8  206.38   11.90
   0  -7  -8  194.58   10.00
   0   7   8  208.58   11.50
   0   7  -8  192.78   10.70
   0  -7   8  193.18    9.40
  -1  -7  -8   37.50    3.90
   1  -7   8   37.80    4.30
  -1  -7  -8   29.80    4.40
  -1   7   8   38.70    3.90
  -1  -7  -8   39.80    5.00
   1   7  -8   37.40    5.00
  -1   7  -8   41.60    5.50
   1   7   8   43.30    6.60
   1  -7  -8   49.10    4.40
  -1  -7   8   43.80    4.40
  -1  -7   8   40.90    5.30
  -1   7  -8   37.20    4.40
   1  -7  -8   35.60    4.60
  -2  -7  -8   64.29    5.10
  -2  -7  -8   63.29    5.40
   2   7  -8   72.69    8.20
  -2  -7  -8   57.29    6.00
  -2   7   8   67.29    4.90
   2  -7   8   60.39    5.30
  -2   7   8   64.09    4.70
  -2  -7   8   69.19    7.80
  -2   7  -8   65.49    6.30
   2   7   8   72.99    8.40
  -2  -7   8   64.39    6.30
  -2   7  -8   67.59    5.30
  -2  -7   8   72.89    7.00
  -2  -7   8   70.89    5.40
   2  -7  -8   59.49    5.90
  -3   7   8   64.79    5.50
  -3   7   8   58.89    4.50
  -3   7   8   68.39    6.10
  -3  -7  -8   53.99    7.40
   3  -7   8   57.39    5.90
  -3  -7  -8   64.29    5.40
  -3  -7  -8   61.49    5.60
  -3  -7   8   60.69    5.60
  -3  -7   8   63.79    6.10
  -3  -7   8   64.29    5.80
   3  -7  -8   58.29    6.60
  -3   7  -8   59.89    6.50
  -3  -7   8   61.59    6.60
  -3   7  -8   71.49    5.30
  -4  -7  -8   63.19    6.50
  -4   7   8   57.79    4.60
  -4   7   8   63.49    7.40
  -4  -7  -8   55.59    5.90
  -4   7   8   54.39    6.10
  -4   7   8   62.39    6.40
  -4  -7   8   68.39    7.00
  -4   7  -8   65.39    5.50
  -4   7  -8   66.19    6.80
  -4  -7   8   66.19    6.50
  -4  -7   8   60.89    7.20
  -5  -7  -8  150.98    9.50
  -5   7   8  139.29    7.40
  -5   7   8  124.09   11.20
  -5  -7  -8  141.79    8.70
  -5   7   8  136.19    9.20
  -5  -7   8  143.09   10.10
  -5  -7   8  125.19    9.40
  -5  -7   8  121.39   10.20
  -5   7  -8  133.69    8.30
  -5   7  -8  138.69    9.90
  -6   7   8  151.78    7.80
  -6  -7  -8  158.48    9.90
  -6  -7  -8  144.79   11.10
  -6   7  -8  157.68    8.90
  -6  -7   8  159.18   10.00
   0   8  -8  232.58   12.30
   0  -8   8  228.78   11.10
   0   8   8  228.18   13.70
   0   8  -8  239.88   14.80
   0  -8   8  232.88   10.90
   0  -8  -8  237.78   11.50
   0  -8  -8  238.88   11.10
  -1  -8  -8    0.50    1.80
   1   8  -8    6.10    4.20
   1  -8   8    0.10    1.70
  -1  -8  -8    1.00    2.60
  -1  -8  -8    1.30    2.00
  -1   8   8    0.20    5.20
  -1   8  -8    0.40    1.60
   1  -8  -8   -0.30    1.80
  -1  -8   8    1.30    2.00
  -1   8  -8    1.50    4.60
   1  -8  -8    1.50    2.40
   1   8   8    0.90    4.10
  -2  -8  -8  113.29    7.70
  -2   8   8  116.49    7.00
   2   8  -8  120.29   11.30
  -2  -8  -8  119.69    7.50
  -2  -8  -8  117.39    7.80
  -2   8   8  114.39    6.40
   2  -8   8  119.89    6.90
   2  -8  -8  116.29    7.50
  -2   8  -8  123.29    7.30
   2   8   8  128.99   11.30
  -2  -8   8  112.29    8.00
  -2  -8   8  124.59    7.30
  -2  -8   8  102.09    9.10
  -3  -8  -8   55.69    7.00
   3  -8   8   50.89    5.70
  -3   8   8   54.19    5.40
  -3   8   8   62.39    5.40
  -3  -8  -8   47.10    4.70
  -3  -8  -8   57.19    5.30
  -3   8   8   54.69    4.40
  -3  -8  -8   50.29    5.00
  -3  -8   8   37.00    6.30
  -3   8  -8   46.20    4.50
  -3  -8   8   40.70    5.70
  -3  -8   8   42.60    5.50
   3  -8  -8   42.10    4.60
  -4  -8  -8   74.79    6.80
   4  -8   8   74.59    6.50
  -4   8   8   64.69    5.00
  -4   8   8   73.09    6.80
  -4  -8  -8   81.19    6.60
  -4   8   8   76.99    8.40
  -4  -8   8   67.99    7.20
  -4  -8   8   85.19    7.40
  -4   8  -8   72.69    5.90
  -4   8  -8   78.99    7.20
  -4  -8   8   67.79    7.30
  -5   8   8   23.00    3.70
  -5  -8  -8   24.70    4.10
  -5  -8  -8   21.20    3.90
  -5   8   8   22.90    3.10
  -5  -8   8   29.70    4.90
  -5  -8   8   21.80    4.20
  -5   8  -8   19.30    2.90
  -5  -8   8   20.30    4.90
  -6  -8  -8   53.29    5.90
  -6   8   8   49.20    6.90
  -6   8   8   51.29    4.10
  -6  -8  -8   48.20    5.40
  -6  -8  -8   42.20    7.30
  -6  -8   8   46.70    6.00
  -6   8  -8   50.19    5.00
   0  -9   8   27.30    4.10
   0   9  -8   38.30    6.40
   0   9   8   28.30    6.30
   0   9  -8   23.70    6.90
   0  -9  -8   25.50    3.20
   0  -9   8   27.30    4.20
  -1  -9  -8  766.12   32.00
  -1  -9  -8  775.72   32.00
  -1   9   8  723.03   35.10
   1  -9   8  727.93   30.30
   1   9  -8  701.33   34.20
   1   9   8  707.03   34.10
  -1  -9   8  728.13   30.30
  -1   9  -8  693.03   34.60
   1  -9  -8  700.73   30.60
  -1   9  -8  733.23   32.80
   1  -9  -8  728.43   31.90
  -2  -9  -8   82.29    6.90
   2  -9   8   84.39    6.20
  -2  -9  -8   75.39    6.80
  -2  -9  -8   84.79    6.60
  -2   9   8   78.99    6.40
  -2   9   8   79.19    5.50
  -2  -9   8   91.39    6.30
   2  -9  -8   84.19    6.60
  -2  -9   8   84.79    7.20
  -2   9  -8   90.59    6.20
  -3  -9  -8  190.78   11.10
  -3  -9  -8  168.28   10.70
  -3  -9  -8  184.28   10.40
  -3  -9  -8  171.98   11.00
  -3   9   8  176.68    8.90
  -3   9   8  190.68   10.70
   3  -9   8  186.88   10.00
  -3  -9   8  178.88    9.90
   3  -9  -8  180.58   10.80
  -3   9  -8  192.08   10.10
  -3  -9   8  170.78   11.30
  -3  -9   8  182.08   10.60
   4  -9   8   54.79    7.20
  -4  -9  -8   57.89    6.40
  -4  -9  -8   59.99    6.10
  -4   9   8   59.59    4.90
  -4   9   8   57.99    6.40
  -4   9  -8   69.99    5.70
  -4  -9   8   69.09    7.10
  -4  -9   8   84.39    7.40
  -4  -9   8   80.89    7.40
  -5  -9  -8    2.00    2.90
  -5  -9  -8    4.50    2.90
  -5   9   8    1.90    2.20
  -5   9   8    2.70    2.70
  -5  -9   8   -5.10    4.30
  -5  -9   8    2.60    3.70
  -5  -9   8   -2.80    4.20
  -5   9  -8   -0.60    2.00
  -6   9   8   79.89    5.00
  -6  -9  -8   79.29    8.40
  -6   9   8   75.99    7.00
  -6  -9  -8   77.29    6.20
  -6   9  -8   90.59    5.90
  -6  -9   8   81.19    7.10
  -6  -9   8   85.89    6.90
   0 -10   8   35.00    4.70
   0 -10   8   32.60    4.70
   0 -10  -8   31.60    4.80
   1 -10   8  532.15   22.30
  -1 -10  -8  529.55   23.40
  -1 -10  -8  507.55   23.60
  -1  10   8  503.55   31.20
  -1 -10   8  521.25   22.30
   1 -10  -8  506.35   23.40
  -1  10  -8  508.35   23.90
  -2 -10  -8   11.40    2.80
  -2  10   8   10.20    2.50
  -2 -10  -8    9.90    3.00
   2 -10   8   11.20    2.70
  -2  10   8   10.90    3.00
  -2 -10   8    8.50    2.60
  -2 -10   8    3.70    3.20
   2 -10  -8    7.50    2.80
  -2  10  -8    9.50    2.40
  -3 -10  -8  397.96   20.60
  -3 -10  -8  424.96   19.70
  -3 -10  -8  386.46   19.10
   3 -10   8  385.96   18.00
  -3  10   8  411.76   19.70
  -3  10   8  395.16   17.10
  -3 -10  -8  390.16   18.60
  -3 -10   8  424.96   19.60
  -3  10  -8  391.46   19.20
  -3 -10   8  395.86   18.00
   3 -10  -8  389.96   19.20
  -3 -10   8  403.56   20.90
  -4  10   8   15.60    2.80
   4 -10   8   22.70    3.80
  -4 -10  -8   22.80    4.90
  -4 -10  -8   24.10    4.00
  -4 -10  -8   17.90    3.80
  -4  10   8   23.30    3.60
  -4 -10   8   17.40    3.70
  -4 -10   8   24.10    4.80
  -4  10  -8   12.40    2.80
  -4 -10   8   15.50    3.90
  -5  10   8   54.09    5.70
  -5  10   8   67.69    4.70
  -5 -10  -8   63.49    5.80
  -5 -10  -8   65.09    6.20
  -5 -10   8   64.79    8.00
  -5 -10   8   47.10    7.50
  -5 -10   8   66.29    7.30
  -5  10  -8   69.29    5.30
  -6 -10  -8   18.90    4.90
  -6 -10  -8   26.50    3.70
  -6  10   8   24.10    3.80
  -6 -10   8   22.50    4.70
  -6  10  -8   22.60    3.10
   0 -11   8   60.39    5.70
   0  11   8   62.49    6.60
   0 -11  -8   62.99    5.80
  -1 -11  -8  147.49    9.00
  -1 -11  -8  134.59    9.90
  -1  11   8  157.38    9.40
   1 -11   8  140.69    8.30
  -1  11  -8  143.49    9.00
   1 -11  -8  149.88    9.00
  -1 -11   8  160.28    8.90
  -2 -11  -8  114.79    7.70
  -2 -11  -8  108.79    8.00
  -2  11   8  111.69    8.00
   2 -11   8  122.19    7.20
  -2  11  -8  111.09    7.40
   2 -11  -8  111.79    8.10
  -2 -11   8  119.29    7.60
  -2 -11   8   88.99    8.70
  -3  11   8   10.40    2.80
  -3  11   8   11.90    3.00
  -3 -11  -8    9.90    3.50
  -3 -11  -8   15.80    3.90
  -3 -11  -8   12.40    3.50
   3 -11   8   14.40    3.20
  -3  11  -8   11.20    2.80
   3 -11  -8   14.00    4.10
  -3 -11   8   10.80    3.30
  -3 -11   8    6.10    2.80
  -4  11   8  120.59    6.70
  -4 -11  -8  129.79    8.00
  -4 -11  -8   98.89    9.90
   4 -11   8  122.29    8.10
  -4  11   8  124.89    8.00
  -4 -11   8  109.59    8.30
  -4  11  -8  112.19    7.40
  -4 -11   8  108.89    8.40
  -4 -11   8  102.79    9.50
  -5  11   8   58.49    5.20
  -5 -11  -8   51.89    5.50
  -5  11  -8   51.69    4.70
  -5 -11   8   54.49    7.70
  -5 -11   8   52.09    6.00
  -5 -11   8   46.30    5.80
  -6  11  -8   14.40    2.60
   0  12   8   45.10    6.30
   0 -12  -8   24.80    3.70
   0 -12   8   33.00    3.80
  -1 -12  -8  656.03   29.10
   1 -12   8  620.54   27.50
  -1  12   8  666.73   30.10
   1 -12  -8  646.84   29.00
  -1 -12   8  639.24   27.70
  -1  12  -8  643.54   29.60
  -2 -12  -8   80.79    7.20
   2 -12   8   81.19    6.30
  -2 -12  -8   79.69    6.70
  -2  12   8   79.89    6.70
  -2 -12  -8   83.59    7.20
  -2 -12   8   78.79    6.50
  -2 -12   8   58.89    8.30
  -2  12  -8   66.09    6.00
   2 -12  -8   72.79    7.10
  -3 -12  -8   19.30    3.80
  -3 -12  -8   22.80    4.50
  -3  12   8   18.40    3.10
   3 -12   8   17.30    3.30
  -3 -12  -8   22.00    4.10
  -3 -12   8   14.70    3.50
   3 -12  -8   10.70    4.10
  -4 -12  -8    9.40    3.50
  -4  12   8   13.30    3.00
  -4 -12  -8    6.50    4.10
   4 -12   8   11.40    3.60
  -4 -12   8   12.90    3.60
  -4 -12   8   10.60    3.90
  -4  12  -8    8.60    2.40
  -5 -12  -8   59.89    5.50
  -5  12   8   51.69    4.90
  -5 -12   8   44.20    5.70
  -5  12  -8   44.90    4.20
   0 -13  -8  281.07   14.30
   0 -13   8  284.67   13.70
   0  13   8  277.37   15.00
  -1 -13  -8  200.98   11.00
  -1  13   8  203.58   11.40
   1 -13   8  208.78   10.60
  -1 -13   8  180.78   10.80
   1 -13  -8  191.98   11.10
  -1  13  -8  190.68   11.50
  -2 -13  -8    0.70    2.60
  -2  13   8    3.40    2.60
  -2 -13  -8    2.80    3.00
   2 -13   8    2.10    2.50
  -2 -13  -8    6.30    4.10
  -2  13  -8   -1.90    2.30
  -2 -13   8    0.70    2.70
   2 -13  -8   -0.60    2.90
  -2 -13   8   -0.80    2.60
  -2 -13   8    1.60    4.10
   3 -13   8   70.09    6.00
  -3 -13  -8   52.19    6.60
  -3  13   8   64.79    6.10
  -3 -13  -8   81.89    7.30
  -3 -13  -8   66.09    7.30
  -3 -13   8   68.49    6.90
  -3  13  -8   70.89    5.70
  -3 -13   8   81.29    6.40
  -4  13   8  298.07   14.50
  -4 -13  -8  261.67   15.00
   4 -13   8  295.57   13.60
  -4 -13  -8  292.17   14.40
  -4  13  -8  272.57   14.10
  -4 -13   8  273.57   14.70
  -4 -13   8  301.97   14.00
  -5  13   8   26.70    3.90
  -5 -13  -8   33.10    5.10
  -5  13  -8   38.80    3.70
  -5 -13   8   42.40    6.90
   0 -14  -8   45.20    5.80
   0 -14   8   43.30    5.50
   0  14   8   48.40    7.30
  -1 -14  -8   56.89    6.40
   1 -14   8   65.79    6.00
  -1  14   8   65.99    6.60
  -1 -14   8   61.89    6.70
   1 -14  -8   66.79    6.50
   2 -14   8  188.98   10.10
  -2 -14  -8  176.08   10.50
  -2 -14  -8  174.28   10.70
  -2  14   8  193.98   10.90
  -2 -14   8  194.18   11.10
   2 -14  -8  196.08   11.10
  -2 -14   8  185.38   10.30
  -2  14  -8  190.98   10.60
  -2 -14   8  192.28   12.20
  -3 -14  -8    6.10    4.00
  -3 -14  -8    9.40    4.10
  -3  14   8    9.10    2.60
   3 -14   8    9.10    2.90
  -3 -14  -8    9.50    3.00
  -3  14  -8    7.00    2.30
  -3 -14   8    5.60    3.00
  -3 -14   8    5.80    3.00
  -4  14   8   58.29    5.00
   4 -14   8   54.09    6.30
  -4 -14  -8   67.19    6.30
  -4  14  -8   56.79    4.90
  -4 -14   8   60.79    6.30
  -4 -14   8   69.99    6.00
   0 -15   8   84.99    6.80
   0 -15  -8   77.09    6.80
  -1 -15  -8   37.40    5.40
   1 -15   8   27.70    4.60
  -1  15   8   41.90    5.80
   1 -15   8   35.60    5.00
  -1 -15  -8   42.60    5.30
  -1 -15   8   34.50    4.20
  -1 -15   8   42.20    5.50
   1 -15  -8   45.90    5.80
  -1 -15   8   44.70    6.20
   2 -15   8   12.90    3.10
  -2 -15  -8   13.50    3.40
  -2  15   8    9.40    2.60
  -2 -15  -8   11.60    3.20
  -2  15  -8    4.80    3.00
  -2 -15   8    6.30    3.30
  -2 -15   8    6.40    3.20
   2 -15  -8    6.20    3.50
  -3 -15  -8    1.90    4.10
  -3 -15  -8   -1.10    2.60
   3 -15   8    2.10    2.60
  -3 -15  -8    8.80    5.00
  -3  15   8    2.20    2.10
  -3  15  -8    2.50    2.30
  -3 -15   8    2.80    2.80
  -3 -15   8    2.70    3.40
  -4  15   8    7.90    2.30
   4 -15   8    7.10    4.00
  -4 -15   8    8.00    3.70
  -4 -15   8    2.40    3.60
  -4  15  -8   10.40    2.30
   0 -16  -8   57.39    5.40
   0 -16   8   48.10    6.10
   0 -16   8   44.40    6.40
   0 -16  -8   55.59    5.80
   0 -16   8   52.79    5.70
   1 -16   8   62.99    5.70
  -1 -16  -8   65.19    5.80
  -1 -16  -8   61.79    5.90
   1 -16   8   51.29    7.90
  -1  16   8   54.79    6.90
  -1 -16   8   68.29    6.80
   1 -16  -8   58.39    6.00
  -1 -16   8   66.39    6.30
  -1 -16   8   49.80    5.80
  -2 -16  -8   51.19    5.60
  -2 -16  -8   56.39    5.40
  -2  16   8   38.20    5.30
   2 -16   8   42.00    5.00
  -2 -16   8   48.30    5.30
  -2 -16   8   55.89    5.90
   2 -16  -8   58.49    7.50
  -3 -16  -8   29.10    4.70
  -3  16   8   32.00    4.20
   3 -16   8   30.80    4.60
  -3 -16   8   36.30    5.00
  -3  16  -8   31.40    5.20
  -3 -16   8   38.80    5.10
   0 -17  -8    5.00    2.50
   0 -17   8    5.60    4.40
   0 -17   8    0.80    3.60
   0 -17   8    4.80    3.10
   0 -17  -8    4.30    2.70
   1 -17   8    6.50    3.00
  -1 -17  -8    8.30    2.70
  -1 -17  -8    7.20    3.00
  -1 -17   8    0.50    3.40
   1 -17  -8    6.00    2.70
  -1 -17   8    6.60    3.20
  -1 -17   8   12.70    4.60
   1 -17  -8    9.00    3.10
  -2 -17  -8   31.10    4.20
  -2  17   8   31.10    4.00
  -2 -17  -8   32.10    4.10
   2 -17   8   32.50    4.50
   2 -17  -8   36.60    4.10
  -2 -17   8   38.00    5.50
  -2 -17   8   33.80    4.80
   3 -17   8  125.49    7.30
   0 -18  -8   14.80    3.10
   0 -18  -8   15.70    3.00
   0 -18   8   18.80    3.90
   1 -18   8  122.29    7.10
  -1 -18  -8  111.99    7.00
   1 -18  -8  114.69    7.50
  -1 -18   8  109.89    7.40
   0   0  -9    3.10    2.50
   0   0   9    0.30    1.40
  -1   0  -9  450.75   20.20
   1   0  -9  463.45   21.10
  -1   0  -9  493.85   19.80
  -1   0   9  450.95   19.30
  -1   0   9  438.86   19.60
   1   0   9  463.15   20.10
  -1   0   9  461.75   20.20
  -2   0  -9    3.80    1.70
  -2   0   9    6.20    2.10
   2   0   9    3.90    2.10
  -2   0  -9    3.10    1.70
  -2   0   9    3.70    1.90
   2   0  -9    0.90    4.10
  -2   0  -9    4.20    2.50
  -2   0  -9    5.50    2.10
  -3   0  -9  201.38   10.70
  -3   0  -9  203.68   11.00
   3   0  -9  206.18   12.30
  -3   0   9  199.58   11.00
  -3   0  -9  219.68   10.50
  -3   0  -9  201.98   11.50
  -3   0   9  217.98   10.40
  -3   0   9  220.28   11.60
  -4   0  -9  374.46   19.90
  -4   0  -9  375.26   18.20
  -4   0   9  376.16   21.60
  -4   0   9  378.66   17.60
  -4   0   9  419.96   20.10
  -4   0  -9  372.46   18.50
  -4   0   9  431.46   18.20
  -5   0  -9   32.70    5.30
  -5   0  -9   44.00    5.30
  -5   0   9   45.90    6.80
  -5   0   9   44.60    6.30
  -5   0  -9   41.00    4.80
  -6   0  -9   82.59    7.00
  -6   0  -9   76.79    7.60
  -6   0   9   84.89    5.60
  -6   0   9   79.39    7.60
  -7   0   9    4.70    3.80
  -7   0   9    3.00    2.20
  -7   0  -9    2.00    3.40
   0   1  -9   13.20    2.90
   0  -1  -9   14.20    2.00
   0   1   9   14.80    2.30
   0  -1  -9   16.30    3.30
   0  -1   9   14.70    2.40
   1  -1   9 1073.09   41.30
  -1   1   9 1046.10   39.60
  -1  -1  -9  977.10   40.40
  -1   1   9 1056.99   41.40
  -1  -1  -9  986.00   42.00
  -1   1   9 1002.30   40.20
   1   1  -9 1006.90   41.90
   1  -1  -9  948.51   41.80
   1  -1  -9  998.10   40.40
  -1  -1   9  929.91   39.50
  -1  -1   9  877.21   39.90
   1   1   9 1009.60   41.30
  -1   1  -9  944.91   42.00
   2   1  -9   11.30    2.70
  -2   1   9   13.60    3.20
  -2  -1  -9   15.50    2.40
  -2   1   9   17.90    2.80
  -2  -1  -9   17.10    2.50
  -2  -1  -9   13.50    2.30
  -2   1   9   12.10    2.30
  -2  -1  -9   13.80    2.70
   2   1  -9   13.60    4.30
  -2  -1   9   18.70    2.70
   2  -1  -9   16.80    4.80
  -2   1  -9   15.30    2.30
  -2  -1   9   16.80    2.70
   2   1   9   17.70    2.70
  -2   1  -9   20.20    2.90
  -2   1  -9   16.10    3.30
  -2   1  -9   17.00    2.30
  -3  -1  -9  311.37   15.30
  -3  -1  -9  323.77   16.70
   3   1  -9  288.77   16.50
  -3   1   9  312.97   14.70
  -3   1   9  323.97   15.20
  -3   1   9  316.37   16.80
  -3  -1  -9  305.87   15.70
  -3  -1  -9  319.47   15.20
  -3  -1   9  354.56   15.30
  -3   1  -9  359.46   15.50
  -3  -1   9  368.66   17.00
  -3   1  -9  341.97   15.70
  -3  -1   9  347.97   15.10
   3  -1  -9  348.27   17.10
  -4  -1  -9  166.68    9.80
  -4  -1  -9  170.88   10.60
  -4   1   9  171.28   10.60
  -4   1   9  169.88    9.70
  -4  -1  -9  173.68    9.70
  -4   1   9  165.88   13.90
  -4   1  -9  170.98   11.10
  -4  -1   9  181.78   14.10
  -4  -1   9  151.48   10.80
  -4   1  -9  172.58    9.70
  -4  -1   9  176.48    9.80
  -4  -1   9  188.48   10.70
   4  -1  -9  188.38    9.50
  -4   1  -9  176.58    9.60
  -5   1   9  242.98   13.80
  -5   1   9  220.98   10.90
  -5  -1  -9  191.68   14.20
  -5  -1  -9  234.68   13.50
  -5   1   9  215.08   12.30
  -5  -1  -9  227.48   12.30
  -5   1  -9  242.88   12.30
  -5  -1   9  259.87   13.80
  -5   1  -9  233.68   12.30
  -5  -1   9  257.17   12.80
  -5   1  -9  219.38   14.20
  -6   1   9   76.99    5.40
  -6   1   9   83.39    8.00
  -6  -1  -9   85.19    8.00
  -6  -1  -9   75.29    6.80
  -6   1  -9   79.99    6.80
  -6  -1   9   80.29    5.50
  -6   1  -9   72.59    7.50
  -6  -1   9   88.59    7.60
  -7  -1  -9    9.70    3.50
  -7   1   9   13.00    2.60
  -7   1   9   18.70    4.30
  -7   1  -9    8.70    3.50
  -7  -1   9   18.50    4.10
  -7  -1   9   10.30    2.50
   0   2  -9  609.04   26.90
   0   2  -9  618.64   26.80
   0  -2  -9  613.44   27.10
   0  -2  -9  605.94   25.40
   0   2   9  631.74   26.30
   0   2  -9  596.04   26.40
  -1   2   9 1438.46   59.99
  -1   2   9 1533.75   61.59
  -1  -2  -9 1454.75   62.99
  -1  -2  -9 1448.66   60.69
   1   2  -9 1559.84   62.19
  -1   2   9 1483.95   58.99
   1   2  -9 1498.75   62.09
  -1   2  -9 1506.25   62.99
   1   2   9 1616.54   61.59
   1  -2  -9 1455.75   60.49
  -1   2  -9 1445.66   61.79
   1  -2  -9 1525.65   62.29
  -1   2  -9 1490.95   65.29
  -1  -2   9 1474.95   58.99
  -1  -2   9 1529.55   59.99
  -2  -2  -9  518.65   24.20
  -2   2   9  509.45   23.50
   2   2  -9  525.25   24.00
  -2  -2  -9  555.34   23.60
   2   2  -9  506.15   25.10
  -2   2   9  529.55   22.20
  -2  -2  -9  500.55   25.30
  -2  -2  -9  527.05   22.70
  -2   2   9  506.95   22.60
  -2   2  -9  548.65   23.50
  -2  -2   9  568.44   22.40
   2  -2  -9  538.45   25.20
   2   2   9  567.64   23.40
  -2  -2   9  548.45   22.80
  -2   2  -9  520.45   24.10
  -2   2  -9  532.55   27.00
  -2  -2   9  580.54   25.80
  -2   2  -9  538.75   23.90
  -3   2   9  543.15   22.20
  -3  -2  -9  463.35   25.30
  -3  -2  -9  525.95   24.20
   3   2  -9  549.25   24.70
  -3   2   9  537.55   25.70
  -3   2   9  584.84   22.80
  -3  -2  -9  557.94   22.90
  -3  -2  -9  537.85   23.60
  -3   2  -9  536.05   27.10
   3   2   9  518.35   23.40
  -3   2  -9  525.15   23.50
  -3  -2   9  519.55   22.90
  -3   2  -9  524.25   24.10
  -3  -2   9  520.35   25.60
   3  -2  -9  462.15   22.30
  -3  -2   9  539.65   25.00
  -3  -2   9  538.55   22.50
  -4   2   9  134.89    9.20
  -4   2   9  137.49   10.30
  -4   2   9  145.29   13.70
  -4  -2  -9  146.09    9.20
  -4  -2  -9  139.39    9.30
  -4   2   9  138.49    8.40
  -4  -2  -9  133.99    8.50
  -4   2  -9  156.88    8.70
  -4   2  -9  152.48   10.20
  -4   2  -9  155.78    8.40
  -4  -2   9  140.69    8.90
  -4  -2   9  151.28    9.30
  -4  -2   9  153.68   13.60
  -5   2   9   75.79    7.60
  -5  -2  -9   85.09    7.70
  -5  -2  -9   85.79    6.70
  -5   2   9   66.29    5.30
  -5   2   9   84.09    7.80
  -5  -2  -9   87.59    8.20
  -5  -2   9   80.79    8.00
  -5   2  -9   86.99    7.80
  -5  -2   9   66.29    7.50
  -5   2  -9   77.99    6.80
  -5   2  -9   94.89    6.90
  -6   2   9   94.29    8.00
  -6   2   9   87.09    5.50
  -6  -2  -9   82.89    6.70
  -6  -2  -9   82.79    7.90
  -6  -2   9   77.09    5.40
  -6  -2   9   70.99    7.10
  -6   2  -9   65.09    7.30
  -6   2  -9   68.59    7.00
  -7   2   9  100.29    5.70
  -7  -2  -9   85.09    7.70
  -7   2   9  112.89    9.50
  -7  -2   9  104.69    7.90
  -7  -2   9  103.69    5.90
  -7   2  -9  116.89    7.80
   0   3   9    3.10    2.00
   0   3  -9    0.40    2.10
   0  -3   9    0.10    2.00
   0   3   9    2.50    1.80
   0  -3  -9    0.00    1.50
  -1  -3  -9  134.79    7.90
   1   3  -9  141.09    8.50
  -1   3   9  141.69    7.50
   1  -3   9  124.59    7.90
  -1   3   9  139.29    8.30
  -1   3   9  143.29    8.20
   1   3  -9  150.78   11.10
  -1  -3  -9  144.89    7.40
   1  -3  -9  154.98   10.50
  -1   3  -9  157.38    7.90
   1   3   9  171.98    8.40
   1  -3  -9  163.78    7.40
  -1  -3   9  154.68    8.00
  -1   3  -9  168.28    9.20
  -1   3  -9  171.08    7.70
  -1  -3   9  157.28    7.70
  -2   3   9  896.51   36.60
  -2  -3  -9  892.21   35.40
   2   3  -9  894.61   36.80
  -2   3   9  890.51   34.50
  -2  -3  -9  878.51   39.80
   2   3  -9  859.91   37.80
  -2  -3  -9  923.91   36.80
  -2   3   9  888.11   35.10
   2  -3   9  817.52   34.90
  -2   3  -9  793.92   37.70
   2  -3  -9  808.92   35.10
  -2   3  -9  862.11   36.60
  -2  -3   9  848.92   39.90
  -2   3  -9  782.72   36.50
  -2   3  -9  815.82   41.90
   2   3   9  844.42   36.10
  -2  -3   9  836.12   34.50
  -2  -3   9  862.71   35.10
   2  -3  -9  808.42   37.60
  -3   3   9  174.18    8.80
  -3  -3  -9  181.78    9.70
  -3  -3  -9  162.88    8.80
   3   3  -9  170.88   11.50
  -3   3   9  161.18    9.20
  -3  -3   9  170.68    9.80
  -3  -3   9  170.78    9.90
  -3   3  -9  163.78    8.90
   3   3   9  163.68   10.40
  -3  -3   9  170.28    9.20
  -3  -3   9  180.48   11.20
  -3   3  -9  163.68    8.90
  -3   3  -9  163.08   10.50
  -3  -3   9  163.08    9.90
   3  -3  -9  164.28    9.00
  -4  -3  -9   27.60    3.90
  -4  -3  -9   26.20    3.80
  -4   3   9   24.00    3.70
  -4   3   9   25.00    4.00
  -4   3   9   23.90    3.80
  -4   3   9   23.70    7.00
  -4   3   9   25.10    3.40
  -4  -3   9   21.80    3.70
  -4   3  -9   27.40    4.20
  -4   3  -9   26.00    4.40
  -4   3  -9   24.10    3.90
  -4  -3   9   22.00    3.70
  -4  -3   9   28.50    7.10
  -5  -3  -9   53.59    5.90
  -5   3   9   70.59    7.30
  -5   3   9   57.29    4.70
  -5  -3  -9   55.29    6.80
  -5   3   9   54.19    7.40
  -5  -3   9   48.00    6.70
  -5  -3   9   61.69    7.30
  -5   3  -9   58.89    5.80
  -5   3  -9   50.89    6.70
  -5   3  -9   52.59    5.80
  -6  -3  -9    2.70    3.80
  -6  -3  -9    4.60    3.10
  -6   3   9   -1.10    3.60
  -6  -3  -9    3.40    4.40
  -6   3   9    1.10    2.10
  -6   3  -9    3.50    3.10
  -6   3  -9    2.30    3.90
  -6  -3   9    4.40    3.20
  -6  -3   9    2.20    2.20
  -6   3  -9   -1.90    3.70
  -7   3   9    1.10    2.10
  -7  -3  -9    3.50    3.80
  -7  -3   9    1.80    3.40
  -7  -3   9    0.90    2.50
  -7   3  -9    4.80    3.20
   0  -4   9 2183.48   88.09
   0   4  -9 2314.77   92.39
   0   4   9 2345.07   92.09
   0  -4   9 2272.07   89.59
   0   4   9 2187.88   89.69
   0  -4  -9 2208.18   94.29
   0  -4  -9 2279.17   90.89
   0   4   9 2262.17   88.19
  -1   4   9  260.17   11.80
  -1   4   9  261.47   12.60
  -1  -4  -9  254.37   11.50
   1  -4   9  249.58   11.60
  -1  -4  -9  253.47   12.10
  -1   4   9  258.97   11.40
   1   4  -9  270.87   13.00
  -1  -4   9  236.98   11.60
   1  -4  -9  295.87   16.20
  -1  -4   9  231.28   13.20
   1  -4  -9  236.78   11.40
  -1   4  -9  265.77   11.90
  -1   4  -9  239.98   12.80
  -1   4  -9  253.17   12.30
  -1  -4   9  259.37   11.50
   1   4   9  236.98   11.80
   1   4   9  261.07   12.40
   2  -4   9   17.10    2.80
  -2  -4  -9   15.70    3.30
  -2   4   9   12.60    2.50
   2   4  -9   14.60    3.60
  -2  -4  -9   17.80    2.60
  -2   4   9   10.20    3.50
  -2   4   9   13.80    2.40
  -2  -4  -9   14.70    2.30
  -2  -4  -9   15.40    2.60
  -2  -4   9   10.20    2.30
   2   4   9   11.80    2.80
   2  -4  -9   12.00    2.30
  -2  -4   9   12.80    2.60
  -2   4  -9    8.80    3.60
  -2  -4   9   11.50    2.60
  -2   4  -9   12.50    3.10
  -2   4  -9   13.30    2.20
  -2   4  -9    8.20    2.00
  -3  -4  -9  253.57   13.50
   3   4  -9  242.68   15.00
  -3   4   9  251.47   11.30
  -3  -4  -9  251.17   12.50
  -3   4   9  252.17   12.00
  -3  -4   9  245.08   14.60
  -3  -4   9  250.37   13.00
  -3   4  -9  244.68   12.30
  -3  -4   9  257.27   13.00
  -3  -4   9  261.77   13.60
   3   4   9  223.88   13.70
  -3   4  -9  262.87   12.60
  -3   4  -9  269.57   14.40
  -3  -4   9  247.98   12.10
  -4   4   9   51.69    6.10
  -4  -4  -9   46.30    4.60
  -4   4   9   50.79    9.30
  -4   4   9   48.10    5.70
  -4   4   9   40.80    3.90
  -4  -4  -9   40.30    5.50
  -4   4   9   44.10    6.10
  -4   4  -9   35.50    4.90
  -4  -4   9   30.50    5.10
  -4  -4   9   38.00    8.90
  -4   4  -9   42.80    6.10
  -4  -4   9   32.80    5.20
   4  -4  -9   46.80    6.40
  -4   4  -9   39.50    4.70
  -4  -4   9   34.70    4.40
  -5   4   9  177.78   12.00
  -5   4   9  179.78   11.60
  -5  -4  -9  178.78   10.50
  -5   4   9  178.78   10.80
  -5  -4  -9  182.98   11.30
  -5   4   9  169.88    9.10
  -5  -4   9  185.28   11.10
  -5   4  -9  176.28   11.80
  -5  -4   9  188.28   11.80
  -5   4  -9  187.58   10.40
  -5   4  -9  183.18   10.30
  -6   4   9  125.49    9.80
  -6  -4  -9  125.89    9.80
  -6   4   9  115.89    6.90
  -6  -4  -9  119.19    8.30
  -6  -4  -9  130.29    9.50
  -6   4  -9  147.09    9.50
  -6   4  -9  141.49    8.70
  -6  -4   9  130.59    9.20
  -7   4   9   44.40    3.50
  -7  -4  -9   35.60    6.20
  -7  -4   9   34.20    4.30
   0  -5   9  121.99    6.90
   0   5   9  119.49    6.50
   0   5  -9  129.59    7.70
   0  -5   9  126.09    7.00
   0   5   9  130.19    7.80
   0   5   9  125.29    7.50
   0   5  -9  122.49    8.20
   0  -5  -9  121.19    6.70
   0  -5  -9  116.29    7.00
   1  -5   9  890.51   36.80
  -1   5   9  935.71   37.10
  -1   5   9  905.91   36.30
   1   5  -9  909.31   39.00
  -1  -5  -9  890.41   38.70
  -1   5   9  877.41   38.50
  -1  -5  -9  890.01   37.20
  -1  -5  -9  909.91   38.70
   1  -5  -9  904.01   38.60
   1   5   9  929.61   38.60
  -1   5  -9  847.42   44.10
  -1   5  -9  928.51   39.10
  -1   5  -9  868.01   37.10
  -1  -5   9  879.01   42.10
   1  -5  -9  909.41   37.20
  -1   5  -9  950.80   40.10
  -1  -5   9  944.91   36.30
  -1  -5   9  903.71   36.90
   2  -5   9  243.28   11.80
  -2  -5  -9  250.77   12.20
  -2   5   9  244.98   11.20
  -2  -5  -9  271.37   12.10
   2   5  -9  246.18   13.70
  -2  -5  -9  257.27   12.80
  -2   5   9  260.27   14.30
  -2  -5  -9  250.67   13.30
  -2   5   9  240.18   11.70
  -2  -5   9  260.57   13.30
  -2   5  -9  250.87   14.10
  -2   5  -9  269.47   12.50
  -2  -5   9  248.28   13.50
  -2   5  -9  247.88   14.40
  -2  -5   9  255.97   12.20
  -2   5  -9  265.37   12.20
   2  -5  -9  248.08   11.80
   2  -5  -9  257.07   12.40
   2   5   9  250.57   13.30
  -3  -5  -9  101.59    7.00
   3   5  -9   91.69   11.10
  -3   5   9  104.19    6.80
  -3  -5  -9  100.79    6.40
   3  -5   9  114.09    9.20
  -3   5   9  103.89    5.80
  -3   5  -9  103.99    6.30
  -3   5  -9   95.79    6.60
  -3   5  -9  112.69    7.90
  -3  -5   9  108.39    8.70
  -3  -5   9  100.79    7.10
   3  -5  -9  103.49    7.00
  -3  -5   9  107.09    7.70
  -3  -5   9   87.09    9.70
   3   5   9   80.99    9.60
  -4  -5  -9   32.80    5.40
  -4   5   9   36.00    6.10
  -4   5   9   38.60    6.10
  -4   5   9   44.90   10.20
  -4   5   9   39.80    3.90
  -4   5   9   38.80    5.70
  -4  -5  -9   34.40    4.80
  -4  -5   9   34.10    5.80
  -4  -5   9   33.80    9.70
  -4  -5   9   40.80    6.00
  -4  -5   9   44.00    5.30
   4  -5  -9   34.20    4.30
  -4   5  -9   37.90    5.10
  -4   5  -9   39.10    4.70
  -4   5  -9   43.60    5.90
  -5  -5  -9   74.89    6.20
  -5   5   9   84.19    7.70
  -5   5   9   83.29    8.00
  -5  -5  -9   79.49    7.10
  -5   5   9   72.29    7.70
  -5   5   9   68.79    5.10
  -5  -5   9   74.49    7.90
  -5  -5   9   75.69    7.40
  -5   5  -9   63.89    7.20
  -5   5  -9   78.39    6.10
  -5   5  -9   65.49    6.90
  -6   5   9  120.79   10.50
  -6  -5  -9  138.09    9.50
  -6  -5  -9  125.19    8.30
  -6   5   9  118.69    6.90
  -6  -5  -9  132.59   10.10
  -6   5  -9  146.19    8.50
  -6  -5   9  127.69    9.10
  -6   5  -9  132.69    9.40
  -7   5   9   12.70    2.50
  -7  -5   9   14.10    3.70
   0   6  -9  499.85   23.40
   0  -6   9  545.65   21.70
   0   6  -9  514.75   23.80
   0   6   9  514.65   21.20
   0  -6  -9  500.15   21.70
   0   6   9  535.45   23.70
   0  -6   9  512.15   21.20
   0  -6  -9  484.45   22.60
   1  -6   9  306.87   14.50
  -1  -6  -9  319.37   15.00
   1   6  -9  309.97   16.30
  -1   6   9  316.37   14.00
  -1   6   9  328.57   16.30
  -1  -6  -9  316.07   14.20
   1  -6   9  328.97   14.20
  -1  -6  -9  304.87   14.90
  -1  -6   9  324.27   15.10
  -1  -6   9  339.07   14.10
  -1   6  -9  327.67   15.20
  -1   6  -9  293.57   14.20
  -1  -6   9  333.27   14.40
   1   6   9  334.57   15.90
   1  -6  -9  314.77   14.30
  -1   6  -9  327.17   16.90
   1  -6  -9  317.37   15.00
  -2  -6  -9  222.08   10.70
  -2  -6  -9  249.88   11.60
  -2   6   9  221.08   10.50
   2   6  -9  216.88   13.00
  -2   6   9  205.88   13.60
  -2  -6  -9  239.58   11.10
  -2  -6  -9  211.18   11.80
   2  -6   9  211.08   10.50
  -2   6   9  222.38   10.00
  -2  -6   9  206.38   11.00
  -2   6  -9  205.78   12.60
  -2  -6   9  206.18   10.30
   2  -6  -9  217.98   11.10
  -2  -6   9  224.28   12.50
  -2   6  -9  208.98   11.00
   2   6   9  213.78   12.80
   2  -6  -9  220.38   11.20
  -2  -6   9  217.08   12.30
  -3  -6  -9   37.40    4.70
  -3   6   9   38.40    5.00
   3  -6   9   34.50    3.90
  -3  -6  -9   38.60    4.60
  -3   6   9   35.20    5.10
  -3  -6  -9   35.90    4.70
  -3   6   9   34.70    3.80
  -3  -6   9   50.09    7.30
  -3  -6   9   45.50    5.30
  -3  -6   9   46.20    5.30
  -3   6  -9   39.10    4.40
  -3  -6   9   29.90    6.40
  -3   6  -9   47.10    4.80
  -3   6  -9   43.80    5.60
   3  -6  -9   40.10    5.70
  -4   6   9  158.38   20.40
  -4   6   9  178.08    9.60
  -4  -6  -9  169.48   10.40
  -4   6   9  176.68   11.00
  -4  -6  -9  163.38    9.60
  -4   6   9  171.18   10.40
  -4   6   9  169.38    8.50
  -4  -6   9  177.68   10.00
   4  -6  -9  167.88   11.00
  -4   6  -9  163.38   10.90
  -4  -6   9  165.58   10.80
  -4   6  -9  163.18    9.50
  -4  -6   9  153.08   10.70
  -4   6  -9  169.48    9.70
  -5   6   9  301.77   15.10
  -5   6   9  275.67   14.10
  -5   6   9  299.17   16.20
  -5  -6  -9  297.27   15.70
  -5  -6  -9  293.07   14.50
  -5   6   9  287.57   12.90
  -5  -6   9  267.27   15.80
  -5   6  -9  263.87   14.30
  -5  -6   9  277.67   14.50
  -5   6  -9  273.77   16.40
  -6   6   9   69.49    4.90
  -6  -6  -9   73.89    7.60
  -6  -6  -9   77.19    6.30
  -6  -6  -9   74.39    7.20
  -6   6  -9   73.49    6.80
  -6  -6   9   75.49    7.00
  -6   6  -9   74.29    6.20
   0  -7   9  420.96   17.80
   0  -7  -9  405.46   18.60
   0   7  -9  417.06   20.40
   0  -7  -9  414.16   18.00
   0   7  -9  394.36   19.20
   0   7   9  416.36   20.00
   1  -7   9   61.39    5.20
  -1  -7  -9   66.49    5.20
   1   7  -9   59.49    8.00
  -1  -7  -9   69.99    5.40
  -1  -7  -9   61.99    6.00
  -1   7   9   74.79    8.50
  -1   7   9   65.99    5.10
  -1   7  -9   73.39    8.80
  -1  -7   9   70.09    5.60
   1  -7  -9   67.59    5.50
  -1  -7   9   72.09    5.10
   1   7   9   60.79    8.10
  -1   7  -9   69.99    5.40
  -1  -7   9   67.19    7.00
   1  -7  -9   68.89    5.40
  -2   7   9   32.10    4.30
   2  -7   9   29.60    3.30
  -2   7   9   25.10    2.90
  -2  -7  -9   31.60    4.50
   2   7  -9   31.60    6.00
  -2  -7  -9   23.50    3.40
  -2  -7  -9   27.20    3.60
   2  -7  -9   18.90    2.80
  -2  -7   9   19.80    2.90
  -2  -7   9   29.10    4.40
  -2  -7   9   17.20    3.30
  -2   7  -9   20.00    2.80
  -2  -7   9   25.40    5.10
  -2   7  -9   20.40    3.50
   2   7   9   19.80    5.50
  -3   7   9   67.89    4.70
  -3   7   9   65.39    6.20
  -3  -7  -9   62.99    6.10
   3  -7   9   57.49    6.20
  -3   7   9   69.79    5.80
  -3  -7  -9   67.89    7.70
  -3  -7  -9   61.29    5.40
  -3  -7   9   69.09    6.50
  -3   7  -9   61.79    6.60
   3  -7  -9   56.69    6.60
  -3   7  -9   63.49    5.30
  -3  -7   9   67.49    6.80
  -3  -7   9   70.89    6.00
  -3  -7   9   51.29    7.90
  -4  -7  -9   24.40    3.80
  -4  -7  -9   30.80    4.80
  -4   7   9   28.70    4.50
  -4   7   9   27.50    3.50
  -4   7   9   24.30    3.50
  -4   7   9   24.80    3.60
  -4  -7   9   19.40    4.70
   4  -7  -9   26.70    4.70
  -4  -7   9   17.50    3.60
  -4  -7   9   23.90    4.50
  -4   7  -9   17.90    2.90
  -4   7  -9   19.20    3.80
  -5   7   9   28.10    3.60
  -5   7   9   28.20    5.50
  -5  -7  -9   23.90    4.10
  -5  -7  -9   27.10    4.00
  -5   7   9   29.70    4.10
  -5   7  -9   33.40    5.70
  -5  -7   9   25.60    5.40
  -5   7  -9   27.30    3.60
  -5  -7   9   24.30    4.60
  -5  -7   9   21.10    4.20
  -6  -7  -9    3.90    3.10
  -6  -7  -9    8.70    4.00
  -6   7   9    6.60    2.20
  -6  -7   9   11.10    3.80
  -6   7  -9    6.60    2.80
   0   8  -9    1.70    2.40
   0   8  -9   -3.20    4.70
   0  -8  -9   -0.10    1.80
   0  -8   9    0.20    1.90
   0  -8  -9    1.40    2.10
   0   8   9    4.20    4.70
  -1  -8  -9  266.47   12.10
  -1  -8  -9  245.38   12.80
  -1   8   9  254.07   16.30
   1  -8   9  271.37   12.10
   1   8  -9  268.97   16.90
  -1   8   9  259.87   11.70
   1  -8  -9  271.77   12.40
  -1   8  -9  233.78   17.30
  -1   8  -9  268.07   12.80
  -1  -8   9  248.88   12.00
  -1  -8   9  260.87   11.80
   1   8   9  253.87   15.10
   1  -8  -9  214.78   12.50
  -2  -8  -9   52.19    5.20
  -2  -8  -9   49.80    5.40
  -2   8   9   64.39    5.00
  -2  -8  -9   51.99    6.00
   2  -8   9   53.59    5.20
  -2   8   9   58.09    5.20
   2  -8  -9   59.39    5.70
  -2  -8   9   57.69    8.00
  -2  -8   9   59.39    5.30
  -2  -8   9   62.99    6.30
  -2   8  -9   55.29    4.90
  -3   8   9    5.80    2.30
  -3  -8  -9    6.00    2.70
  -3   8   9    6.60    2.40
   3  -8   9    6.90    2.70
  -3   8   9    7.20    2.40
  -3  -8  -9    8.40    3.30
  -3  -8  -9    9.10    2.90
  -3  -8   9    6.40    3.20
  -3   8  -9    8.30    2.20
  -3  -8   9    8.90    4.30
  -3  -8   9    7.50    2.80
  -3  -8   9   10.40    3.80
   3  -8  -9    5.10    2.80
  -4   8   9   95.69    7.60
  -4   8   9  109.29    6.20
  -4   8   9   80.79    8.60
   4  -8   9  106.69    9.20
  -4  -8  -9   91.59    7.40
  -4  -8  -9   91.29    7.10
  -4   8  -9   93.89    6.70
  -4  -8   9   95.79    7.70
  -4  -8   9   87.79    8.00
  -4  -8   9   91.79    8.20
  -5  -8  -9  129.19    8.30
  -5   8   9  119.49    6.80
  -5   8   9  116.69    8.50
  -5  -8  -9  127.49    9.00
  -5  -8   9  125.59    9.40
  -5  -8   9  120.59    9.90
  -5  -8   9  133.29    9.20
  -5   8  -9  129.69    7.90
  -6   8   9   31.70    3.40
  -6  -8  -9   35.90    4.80
  -6  -8  -9   29.20    4.80
  -6  -8   9   25.80    4.40
  -6   8  -9   36.40    4.60
   0  -9  -9 1362.76   54.29
   0  -9   9 1334.47   53.59
   0   9  -9 1303.97   58.19
   0   9   9 1291.37   57.59
   0   9  -9 1284.47   58.09
   0  -9  -9 1347.77   56.39
  -1  -9  -9   80.89    7.10
  -1  -9  -9   81.79    6.00
  -1   9   9   74.49   10.50
   1  -9   9   84.99    6.00
  -1   9  -9   73.89   11.50
   1  -9  -9   79.89    6.70
  -1   9  -9   85.29    6.40
   1  -9  -9   82.09    6.20
  -1  -9   9   81.59    6.30
   2  -9   9  538.95   23.70
  -2  -9  -9  540.65   25.20
  -2   9   9  543.55   22.90
  -2   9   9  576.84   26.10
  -2  -9  -9  554.74   25.20
  -2   9  -9  559.44   25.60
  -2  -9   9  561.14   24.20
  -2  -9   9  567.84   23.60
   2  -9  -9  552.74   25.00
  -3  -9  -9  283.27   14.90
  -3  -9  -9  277.17   15.80
  -3  -9  -9  320.57   15.50
  -3   9   9  291.07   13.10
  -3   9   9  296.27   15.20
  -3  -9  -9  303.47   14.90
   3  -9   9  276.57   14.00
  -3  -9   9  297.07   14.00
  -3  -9   9  276.37   16.20
  -3  -9   9  309.47   16.20
  -3  -9   9  300.77   15.20
  -3   9  -9  302.97   14.80
   3  -9  -9  299.27   14.90
  -4   9   9  192.68   10.80
  -4  -9  -9  177.58   11.20
  -4   9   9  155.68   12.30
   4  -9   9  164.28   10.60
  -4   9   9  176.08    9.00
  -4  -9  -9  165.08   12.60
  -4  -9  -9  165.38   10.20
  -4   9  -9  192.08   10.10
  -4  -9   9  182.08   10.60
  -4  -9   9  176.78   11.00
  -4  -9   9  205.58   11.90
  -5  -9  -9   77.09    6.70
  -5   9   9   71.19    6.40
  -5   9   9   79.19    5.20
  -5  -9  -9   75.49    6.40
  -5   9  -9   78.59    5.80
  -5  -9   9   70.69    8.20
  -5  -9   9   71.59    7.50
  -5  -9   9   81.69    8.10
  -6  -9  -9   15.70    3.30
  -6  -9  -9   15.00    4.30
  -6   9   9   18.70    2.90
  -6   9  -9   14.30    2.80
  -6  -9   9   12.80    4.00
  -6  -9   9   11.70    4.20
   0 -10  -9   -0.90    2.00
   0 -10   9   -1.20    2.10
   1 -10   9    9.00    2.40
  -1 -10  -9   13.70    3.70
  -1 -10  -9   11.20    2.90
  -1 -10   9   11.40    2.80
   1 -10  -9    7.70    2.30
  -1  10  -9    6.70    2.30
  -2 -10  -9   68.89    6.50
   2 -10   9   72.99    6.00
  -2  10   9   69.19    6.30
  -2 -10  -9   67.99    6.50
  -2 -10   9   69.39    7.20
  -2  10  -9   68.49    5.80
  -2 -10   9   72.49    6.00
   2 -10  -9   68.29    6.50
  -3 -10  -9  170.18   11.60
  -3 -10  -9  209.98   12.00
   3 -10   9  196.48   10.70
  -3  10   9  181.68   11.20
  -3 -10  -9  195.68   11.10
  -3  10   9  196.98    9.80
  -3 -10   9  225.68   11.90
  -3 -10   9  206.88   13.10
   3 -10  -9  214.48   11.80
  -3  10  -9  206.88   11.00
  -3 -10   9  214.68   10.90
  -4 -10  -9   19.80    4.90
  -4  10   9   31.10    5.10
   4 -10   9   35.00    4.70
  -4 -10  -9   23.70    3.80
  -4  10   9   31.20    4.00
  -4 -10   9   29.20    4.90
  -4 -10   9   27.20    4.80
  -4 -10   9   20.30    3.90
  -4  10  -9   19.80    3.00
  -5 -10  -9   58.49    5.60
  -5  10   9   52.39    4.50
  -5  10   9   51.89    5.50
  -5 -10   9   70.99    7.30
  -5 -10   9   49.00    7.50
  -5 -10   9   67.59    7.30
  -5  10  -9   58.79    5.00
  -6 -10  -9   51.99    5.30
  -6 -10  -9   46.40    7.20
  -6  10  -9   61.19    4.80
   0 -11   9  705.13   29.70
   0 -11  -9  697.83   31.20
  -1  11   9  489.45   22.60
   1 -11   9  483.25   20.70
  -1 -11  -9  496.95   21.90
  -1 -11   9  436.96   20.60
   1 -11  -9  451.55   21.60
  -1  11  -9  457.35   22.10
  -2  11   9  427.76   19.70
   2 -11   9  404.56   17.90
  -2 -11  -9  386.76   19.10
  -2 -11  -9  382.06   18.90
   2 -11  -9  390.46   18.90
  -2 -11   9  385.46   18.60
  -2 -11   9  394.46   17.80
  -2  11  -9  397.26   19.10
  -3  11   9   32.30    5.20
  -3 -11  -9   38.50    4.70
  -3 -11  -9   40.90    5.00
  -3 -11  -9   39.80    5.60
  -3  11   9   37.50    4.90
   3 -11  -9   37.50    4.60
  -3 -11   9   27.40    4.50
  -3  11  -9   32.80    4.70
  -3 -11   9   33.10    4.20
  -4  11   9  153.58    8.20
  -4 -11  -9  125.69   11.10
   4 -11   9  156.88    9.70
  -4  11   9  170.28    9.60
  -4 -11  -9  159.08    9.50
  -4  11  -9  161.18    9.10
  -4 -11   9  164.38   10.40
  -4 -11   9  161.98    9.60
  -4 -11   9  158.28   11.80
  -5 -11  -9    8.90    3.20
  -5  11   9    7.30    2.50
  -5 -11   9    6.10    4.30
  -5 -11   9    7.60    5.20
  -5 -11   9    0.90    4.50
  -5  11  -9    7.20    2.10
   0 -12   9   33.90    5.10
   0  12   9   31.00    4.10
   0 -12  -9   26.20    3.80
   1 -12   9  113.59    7.60
  -1 -12  -9  119.29    7.90
  -1  12   9  132.99    8.50
  -1 -12   9  122.69    7.80
   1 -12  -9  107.99    8.00
  -1 -12   9  109.49    8.00
  -1  12  -9  115.99    8.30
   2 -12   9    2.60    2.60
  -2 -12  -9    1.50    2.80
  -2 -12  -9    4.00    3.70
  -2  12   9   -0.20    2.30
  -2 -12   9    3.00    3.80
  -2  12  -9   -0.30    2.30
   2 -12  -9    2.70    3.00
  -2 -12   9    2.20    2.70
  -3 -12  -9    7.60    3.30
  -3 -12  -9    8.80    3.60
   3 -12   9    9.00    2.90
  -3 -12  -9   12.60    4.30
  -3  12   9    8.80    2.70
   3 -12  -9    8.30    3.80
  -3 -12   9    4.50    3.00
  -3 -12   9    6.40    3.30
  -3  12  -9    4.30    2.30
  -4 -12  -9   60.69    8.30
   4 -12   9   78.79    7.20
  -4  12   9   81.99    6.30
  -4 -12  -9   80.39    6.60
  -4 -12   9   80.49    6.90
  -4 -12   9   81.49    7.30
  -4  12  -9   81.09    5.80
  -5  12   9   11.10    2.50
  -5 -12  -9   13.00    3.50
  -5 -12   9    2.90    4.50
  -5 -12   9   -0.70    4.40
  -5  12  -9    6.90    2.20
   0 -13   9   40.30    5.30
   0 -13  -9   33.60    4.30
   0  13   9   37.70    4.80
   1 -13   9  483.35   21.30
  -1 -13  -9  509.05   22.70
  -1  13   9  501.65   23.30
  -1  13  -9  468.85   23.00
  -1 -13   9  469.45   21.10
  -1 -13   9  460.55   21.40
   1 -13  -9  479.05   22.40
  -2  13   9  213.48   12.10
  -2 -13  -9  210.18   11.60
  -2 -13  -9  223.58   12.90
  -2 -13  -9  211.78   12.00
   2 -13   9  221.38   11.30
  -2 -13   9  217.68   12.60
   2 -13  -9  218.28   12.10
  -2 -13   9  236.78   12.40
  -2  13  -9  214.68   11.80
  -2 -13   9  218.98   11.50
  -3 -13  -9   40.20    5.20
  -3  13   9   43.80    5.20
  -3 -13  -9   52.29    6.40
  -3 -13  -9   37.20    5.90
   3 -13   9   39.00    5.50
  -3 -13   9   31.70    4.20
  -3  13  -9   38.50    4.80
  -3 -13   9   40.50    5.60
  -4 -13  -9   63.29    7.90
   4 -13   9   67.99    6.90
  -4 -13  -9   69.39    6.40
  -4  13   9   67.59    5.60
  -4  13  -9   73.39    5.30
  -4 -13   9   70.39    6.80
  -4 -13   9   71.19    6.50
  -5  13   9   16.50    2.70
  -5  13  -9   24.80    3.20
   0 -14   9  107.69    8.00
   0  14   9  110.19    8.80
   0 -14  -9  115.39    7.90
   0 -14   9  114.89    7.60
   1 -14   9   97.09    7.10
   1 -14   9   95.49    8.50
  -1 -14  -9   95.29    7.50
  -1  14   9  103.49    7.70
  -1 -14   9   93.19    7.20
  -1 -14   9   91.89    7.60
   1 -14  -9  100.29    7.40
  -2  14   9    8.10    2.90
   2 -14   9    5.30    2.70
  -2 -14  -9    6.10    3.10
  -2 -14  -9    8.20    3.00
  -2 -14   9    1.10    3.20
   2 -14  -9    4.50    3.20
  -2  14  -9    1.50    2.60
  -2 -14   9    6.20    3.10
  -2 -14   9    2.00    4.60
   3 -14   9   38.50    4.90
  -3 -14  -9   28.40    4.80
  -3  14   9   37.40    4.60
  -3 -14  -9   32.00    4.90
  -3 -14   9   27.40    4.40
  -3  14  -9   21.30    3.00
  -3 -14   9   24.50    3.80
  -4  14   9   57.19    4.90
   4 -14   9   60.79    6.50
  -4 -14  -9   61.19    6.70
  -4  14  -9   73.09    5.00
  -4 -14   9   66.89    6.50
  -4 -14   9   63.99    6.20
   0 -15  -9   33.70    4.30
   0 -15   9   28.10    4.20
   0 -15   9   29.00    4.10
   1 -15   9   77.79    8.80
  -1  15   9   96.89    7.50
  -1 -15  -9   95.49    6.90
   1 -15   9   86.29    6.60
  -1 -15  -9   96.09    7.10
  -1 -15   9   85.39    6.90
   1 -15  -9   87.59    7.10
  -1 -15   9   91.49    7.30
  -1 -15   9   82.89    6.80
  -2 -15  -9   55.39    6.30
   2 -15   9   56.79    5.50
  -2 -15  -9   54.29    5.90
  -2  15   9   60.99    5.60
   2 -15  -9   46.90    6.50
  -2 -15   9   57.49    5.80
  -2  15  -9   50.29    6.50
  -2 -15   9   56.99    5.90
  -3 -15  -9   42.00    5.70
  -3  15   9   48.60    4.90
  -3 -15  -9   43.70    5.40
   3 -15   9   45.90    5.20
  -3 -15   9   46.20    5.30
  -3 -15   9   50.39    5.70
  -3  15  -9   44.50    4.80
  -4  15   9    8.10    2.20
  -4  15  -9    7.20    2.50
  -4 -15   9    4.00    3.90
  -4 -15   9   11.70    3.80
   0 -16  -9   99.79    6.90
   0 -16   9   94.59    7.80
   0 -16  -9  105.39    7.30
   0 -16   9  100.79    7.10
   0 -16   9  109.49    7.70
  -1 -16  -9   21.10    3.40
  -1  16   9   15.40    3.80
   1 -16   9   21.20    3.40
  -1 -16  -9   18.70    3.40
  -1 -16   9   23.10    4.20
  -1 -16   9   12.10    3.10
  -1 -16   9   20.00    4.00
   1 -16  -9   18.60    3.20
  -2 -16  -9   66.59    5.60
   2 -16   9   62.19    5.30
  -2  16   9   56.49    5.60
  -2 -16  -9   60.19    6.10
   2 -16  -9   55.39    7.20
  -2 -16   9   54.79    5.80
  -2 -16   9   54.19    5.50
   3 -16   9   48.20    4.90
  -3 -16  -9   39.50    5.00
  -3  16   9   40.00    4.40
  -3  16  -9   41.90    5.70
  -3 -16   9   45.10    5.60
  -3 -16   9   52.59    5.40
   0 -17  -9   25.40    3.30
   0 -17  -9   22.40    3.30
   0 -17   9   36.50    4.90
   0 -17   9   37.10    5.10
   0 -17   9   33.00    4.60
  -1 -17  -9   22.50    3.20
   1 -17   9   26.00    3.70
  -1 -17  -9   20.40    3.40
  -1 -17   9   27.30    4.80
  -1 -17   9   20.10    3.50
   1 -17  -9   19.20    3.20
   1 -17  -9   25.40    3.70
   2 -17   9  130.29    7.30
  -2  17   9  121.59    8.20
  -2 -17  -9  122.39    8.40
  -2 -17  -9  131.89    7.70
  -2 -17   9  135.69    7.70
   2 -17  -9  129.09    7.90
  -2 -17   9  137.69    8.60
   0 -18  -9   -2.10    2.30
   0 -18  -9    1.00    2.50
   0 -18   9   -4.30    3.70
  -1 -18  -9   14.90    2.70
   1 -18   9   21.40    3.30
   0   0 -10  173.48    8.60
   0   0 -10  167.18    8.00
   0   0  10  168.28    8.50
   0   0  10  173.28    8.90
   1   0 -10   28.00    2.90
   1   0  10   24.60    3.50
  -1   0 -10   25.00    3.10
  -1   0  10   29.60    3.10
  -1   0  10   30.40    4.10
   1   0 -10   20.90    4.70
  -1   0 -10   25.10    3.70
  -1   0 -10   23.70    3.40
  -1   0  10   31.70    4.10
  -2   0 -10  143.89    9.90
   2   0 -10  124.79   12.80
  -2   0 -10  130.69    7.30
   2   0  10  141.79    7.90
  -2   0 -10  129.99    7.60
  -2   0 -10  127.09    7.40
  -2   0  10  131.59    7.60
  -2   0  10  131.99    7.80
  -3   0 -10  150.68    8.20
  -3   0  10  152.38    9.20
  -3   0 -10  150.28    8.30
   3   0 -10  151.28   11.70
  -3   0  10  144.49    8.90
  -3   0  10  153.78    8.30
  -3   0 -10  146.59    9.50
  -3   0 -10  158.48    9.20
  -4   0 -10  203.38   12.60
  -4   0 -10  198.48   10.80
  -4   0  10  197.78   11.50
  -4   0 -10  189.78   12.30
  -4   0  10  209.08   12.00
  -4   0  10  197.48   15.90
  -4   0  10  193.98   10.60
  -4   0 -10  206.08   10.60
  -5   0 -10   21.60    4.70
  -5   0 -10   18.10    3.90
  -5   0  10   15.20    3.80
  -5   0 -10   17.60    3.60
  -5   0  10   15.80    3.70
  -6   0 -10  156.88    9.30
  -6   0  10  157.88   10.70
  -6   0 -10  173.08   11.10
  -6   0  10  149.99    8.20
  -7   0  10   -1.80    3.80
  -7   0 -10    1.80    3.50
  -7   0  10    1.00    2.10
   0   1 -10  174.68    8.50
   0   1  10  168.18    8.90
   0   1  10  169.18    8.90
   0  -1  10  167.08    8.50
   0  -1 -10  164.08    7.90
   0  -1  10  171.18    8.90
   0   1 -10  159.08    7.90
   1  -1  10  977.40   40.60
  -1  -1 -10  972.30   42.70
  -1   1  10  997.20   40.80
   1   1 -10  937.51   41.70
  -1  -1 -10  924.71   39.60
  -1  -1 -10 1015.30   41.30
  -1   1  10  991.10   38.80
  -1   1  10  907.21   39.20
   1  -1 -10  941.01   41.70
  -1  -1  10  957.00   38.80
  -1  -1  10  950.10   39.30
  -1   1 -10 1024.10   41.30
   1   1  10  959.10   40.60
   1  -1 -10 1000.50   39.60
  -1   1 -10  976.80   39.60
  -1   1 -10 1011.20   41.50
  -1   1 -10  918.61   42.60
  -2  -1 -10  304.67   14.30
  -2  -1 -10  306.37   15.00
   2   1 -10  307.87   18.10
  -2   1  10  309.17   15.70
  -2   1  10  317.67   14.10
   2   1 -10  307.77   15.90
  -2  -1 -10  312.77   14.70
  -2   1  10  309.37   14.50
  -2   1 -10  329.97   14.60
   2  -1 -10  273.47   13.90
  -2   1 -10  330.77   15.00
  -2   1 -10  349.17   14.80
   2   1  10  336.87   15.10
  -2  -1  10  333.57   14.50
  -2   1 -10  336.67   16.30
  -2  -1  10  331.67   14.30
   2  -1 -10  324.17   19.10
  -3  -1 -10   65.09    6.20
  -3  -1 -10   69.19    5.30
  -3   1  10   65.09    5.90
   3   1 -10   62.89    8.90
  -3   1  10   62.69    5.80
  -3   1  10   58.99    6.30
  -3  -1 -10   67.79    6.20
  -3  -1 -10   60.59    5.30
   3  -1 -10   79.29    9.90
  -3   1 -10   72.79    5.10
  -3  -1  10   72.09    5.90
   3  -1 -10   78.09    5.20
  -3  -1  10   72.59    5.60
  -3   1 -10   77.49    5.40
  -3  -1  10   77.29    6.40
  -4   1  10  135.29    8.90
  -4   1  10  123.39   13.40
  -4   1  10  132.89    8.10
  -4  -1 -10  122.69    8.00
  -4  -1 -10  121.39    8.60
  -4  -1 -10  124.79    7.40
  -4  -1  10  120.99   13.30
  -4  -1  10  111.39    8.20
  -4   1 -10  116.19    9.00
  -4   1 -10  113.99    7.60
  -4   1 -10  112.19    7.50
  -4  -1  10  118.69    8.60
   4  -1 -10  104.59    7.50
  -4  -1  10  111.59    9.10
  -5  -1 -10   13.10    3.10
  -5  -1 -10   13.30    4.30
  -5   1  10    8.70    3.80
  -5  -1 -10    9.60    4.30
  -5   1  10   10.60    2.50
  -5   1  10    3.20    3.40
  -5  -1  10    8.80    3.30
  -5   1 -10   13.30    4.30
  -5   1 -10   16.40    3.30
  -5   1 -10   14.40    3.20
  -5  -1  10   10.60    3.70
  -6  -1 -10  118.09    9.10
  -6   1  10  112.99    9.10
  -6   1  10  116.49    6.60
  -6  -1 -10  122.09    7.80
  -6   1 -10  114.19    7.90
  -6  -1  10   99.99    8.70
  -6  -1  10  106.59    6.50
  -7   1  10   20.10    4.40
  -7  -1 -10   15.60    3.70
  -7   1  10   11.60    2.50
  -7   1 -10   14.80    3.80
  -7  -1  10   16.00    2.60
  -7  -1  10   23.30    4.20
   0   2 -10  251.07   12.40
   0   2  10  297.27   13.60
   0  -2  10  322.37   13.50
   0   2  10  270.37   12.50
   0  -2 -10  281.67   12.50
   0   2 -10  303.77   14.30
   0   2 -10  283.87   13.20
   0   2  10  279.57   13.10
   0  -2  10  283.97   13.00
  -1   2  10  251.27   12.10
   1  -2  10  229.68   12.10
   1   2 -10  254.67   13.50
  -1  -2 -10  237.68   12.10
  -1   2  10  243.28   11.70
  -1  -2 -10  250.77   11.70
  -1   2  10  265.77   12.90
   1  -2 -10  286.67   11.70
  -1   2 -10  257.57   12.40
  -1  -2  10  268.37   11.80
   1   2  10  277.07   12.70
  -1   2 -10  270.77   12.20
   1  -2 -10  253.17   15.70
  -1   2 -10  270.77   13.40
  -1   2 -10  287.77   11.80
  -1  -2  10  262.97   12.10
   2   2 -10   92.49    7.30
  -2  -2 -10  102.49    6.00
   2  -2  10   71.59    8.00
  -2   2  10  104.89    6.20
   2   2 -10   88.09   12.00
  -2  -2 -10  104.09    5.90
  -2  -2 -10   92.49    6.40
  -2   2  10  106.99    7.90
  -2  -2 -10  103.39    6.00
  -2   2  10   97.99    6.20
   2  -2 -10   86.09    5.40
  -2   2 -10   81.29    5.40
  -2  -2  10   81.89    6.50
  -2   2 -10   68.19    6.60
  -2  -2  10   77.09    5.80
  -2   2 -10   73.09    8.40
   2   2  10   84.39    6.20
  -2  -2  10   80.69    6.50
  -2   2 -10   85.29    5.40
  -2   2 -10   82.99    7.30
  -3  -2 -10  197.98    9.90
  -3  -2 -10  187.18   10.10
   3   2 -10  178.38   12.70
  -3  -2 -10  162.08    9.80
  -3   2  10  192.88    9.50
  -3  -2 -10  195.28   10.70
  -3   2  10  195.28   10.00
  -3   2 -10  188.08   11.60
   3  -2 -10  175.48    9.20
  -3   2 -10  187.58    9.60
  -3   2 -10  186.08    9.90
  -3  -2  10  200.28   11.00
   3   2  10  182.08   11.40
  -3  -2  10  187.38   10.30
  -3  -2  10  203.78   12.20
  -3  -2  10  187.28    9.90
  -4   2  10  337.87   16.90
  -4   2  10  312.67   14.40
  -4   2  10  305.37   16.60
  -4  -2 -10  310.77   16.30
  -4   2  10  293.57   19.80
  -4  -2 -10  321.17   15.20
  -4  -2 -10  294.67   15.50
  -4   2 -10  298.67   14.90
  -4  -2  10  306.67   14.70
  -4  -2  10  285.57   16.30
  -4  -2  10  290.27   19.50
  -4   2 -10  308.07   15.20
  -4  -2  10  308.07   15.70
  -4   2 -10  318.67   17.50
  -5   2  10  148.19    7.90
  -5   2  10  138.79    9.10
  -5   2  10  158.28   10.50
  -5  -2 -10  146.39    9.00
  -5  -2 -10  157.28   10.20
  -5  -2 -10  155.28   11.00
  -5   2 -10  134.09   10.30
  -5   2 -10  132.19    8.70
  -5   2 -10  128.49    8.90
  -5  -2  10  149.49   10.30
  -5  -2  10  144.89    9.60
  -6   2  10   40.70    4.00
  -6   2  10   31.00    5.00
  -6  -2 -10   40.80    6.20
  -6  -2 -10   37.10    5.20
  -6  -2  10   33.90    5.70
  -6  -2  10   33.00    4.00
  -6   2 -10   35.20    4.50
  -7   2  10   87.89    5.00
  -7  -2 -10   74.69    6.80
  -7  -2  10   85.99    7.20
  -7  -2  10   88.19    5.30
  -7   2 -10   85.89    6.90
   0  -3  10   65.29    6.40
   0   3  10   77.99    5.80
   0   3  10   82.59    6.00
   0  -3 -10   90.89    5.60
   0   3 -10   84.39    5.80
   0  -3  10   80.09    5.80
   0  -3 -10   82.69    5.10
   0   3 -10   92.79    7.20
   0   3  10   87.79    6.10
  -1  -3 -10  271.97   13.00
   1  -3  10  269.97   12.60
   1   3 -10  297.97   14.50
  -1   3  10  282.27   13.70
  -1   3  10  292.77   12.40
  -1  -3 -10  287.37   12.50
  -1   3  10  283.97   12.80
  -1  -3  10  256.17   12.60
  -1   3 -10  273.47   13.30
  -1   3 -10  278.27   12.90
   1  -3 -10  276.07   12.30
   1   3  10  268.77   13.40
  -1   3 -10  286.17   12.60
  -1   3 -10  276.47   14.40
  -1  -3  10  264.47   12.50
  -2  -3 -10  175.38    9.40
   2   3 -10  179.58   10.90
  -2   3  10  170.48   10.90
  -2   3  10  181.98    9.20
  -2  -3 -10  167.38    9.40
  -2  -3 -10  176.88   10.30
   2  -3  10  182.28   10.00
  -2   3  10  173.18    9.50
  -2  -3  10  190.58   10.50
  -2   3 -10  210.88    9.80
  -2   3 -10  199.58   12.10
   2  -3 -10  179.58    9.10
  -2   3 -10  200.08   11.40
  -2  -3  10  205.18    9.60
  -2   3 -10  204.68    9.60
  -2  -3  10  203.28    9.40
   2   3  10  207.58   10.60
  -3  -3 -10   20.50    3.00
  -3   3  10   17.80    3.00
  -3   3  10   19.90    2.90
   3   3 -10   21.80    5.70
  -3  -3 -10   19.20    3.20
  -3  -3 -10   19.20    2.90
  -3  -3  10   27.10    3.30
   3  -3 -10   24.30    3.20
  -3  -3  10   27.20    3.70
  -3   3 -10   24.90    3.70
  -3  -3  10   32.30    4.30
  -3  -3  10   17.60    4.80
  -3  -3  10   39.80    6.00
   3   3  10   25.70    4.80
  -3   3 -10   26.70    3.80
  -3   3 -10   27.40    3.50
  -4   3  10  133.29    7.20
  -4   3  10  124.69   15.40
  -4   3  10  150.18    9.60
  -4   3  10  143.59    9.70
  -4  -3 -10  140.79    8.40
  -4   3  10  127.29    8.40
  -4  -3 -10  136.39    9.00
  -4   3 -10  128.69    8.10
  -4  -3  10  128.79    8.80
  -4   3 -10  130.79    8.00
  -4   3 -10  135.49    9.70
  -4  -3  10  124.39   14.90
  -4  -3  10  143.29    9.50
  -5   3  10  316.87   16.90
  -5  -3 -10  307.57   16.50
  -5  -3 -10  299.87   15.20
  -5   3  10  286.27   13.60
  -5   3  10  293.77   14.60
  -5   3 -10  302.17   15.10
  -5   3 -10  306.37   15.20
  -5  -3  10  311.07   17.00
  -5   3 -10  299.47   17.50
  -5  -3  10  302.67   15.10
  -6  -3 -10   42.30    5.20
  -6   3  10   37.00    6.60
  -6   3  10   38.60    4.00
  -6  -3 -10   41.80    6.60
  -6   3 -10   38.10    4.90
  -6   3 -10   44.40    5.80
  -6  -3  10   41.50    4.10
  -6  -3  10   45.40    6.20
  -6   3 -10   43.20    6.70
  -7  -3 -10   14.90    4.10
  -7   3  10   19.50    2.90
  -7   3 -10   13.40    3.40
  -7  -3  10   18.60    4.00
  -7  -3  10   12.70    2.70
   0  -4 -10 1294.57   52.09
   0   4 -10 1183.38   55.99
   0  -4 -10 1335.67   54.19
   0  -4  10 1321.37   51.49
   0   4  10 1298.97   51.69
   0  -4  10 1255.87   50.59
   0   4  10 1277.67   50.69
   0   4  10 1265.97   53.39
   0   4 -10 1282.27   53.89
  -1  -4 -10  146.79    8.20
  -1  -4 -10  140.59    8.70
  -1  -4 -10  135.19    7.70
  -1   4  10  144.89    8.10
   1   4 -10  147.09    9.40
  -1   4  10  139.29    7.60
   1  -4  10  131.29    7.90
  -1   4  10  150.58    9.10
   1   4  10  177.38   10.10
  -1   4 -10  163.38    8.00
   1   4  10  149.09    8.50
  -1  -4  10  148.29    7.90
  -1  -4  10  170.78    7.90
  -1   4 -10  164.48    8.20
  -1   4 -10  155.28   10.20
  -1   4 -10  145.89    7.90
  -1  -4  10  154.58    9.40
   1  -4 -10  160.08    7.50
   1   4  10  162.18    9.10
  -2   4  10  342.87   15.00
  -2  -4 -10  307.47   15.90
  -2  -4 -10  315.17   16.40
  -2  -4 -10  360.26   15.40
  -2   4  10  312.87   16.50
   2  -4  10  321.87   14.90
   2   4 -10  340.97   17.20
  -2  -4 -10  379.06   15.00
   2   4  10  318.77   16.20
  -2  -4  10  330.37   15.00
  -2   4 -10  337.97   15.10
  -2   4 -10  280.77   17.10
  -2   4 -10  326.87   15.50
  -2  -4  10  294.47   14.40
  -2  -4  10  340.37   16.80
   2  -4 -10  332.87   14.60
  -2   4 -10  321.47   17.60
   3   4 -10   47.80    7.10
  -3  -4 -10   51.49    4.60
  -3  -4 -10   53.39    5.50
  -3   4  10   47.10    5.30
  -3   4  10   49.60    4.00
  -3  -4  10   49.70    6.90
  -3   4 -10   49.90    4.60
  -3  -4  10   60.69    7.20
  -3   4 -10   49.99    4.60
   3   4  10   43.00    6.10
  -3   4 -10   41.30    6.00
  -3  -4  10   48.20    5.60
   3  -4 -10   58.59    5.90
  -3  -4  10   44.30    5.10
  -4   4  10   40.50    6.20
  -4   4  10   27.50    9.50
  -4  -4 -10   41.50    4.90
  -4  -4 -10   44.00    5.50
  -4   4  10   46.80    5.80
  -4   4  10   40.80    6.90
  -4   4  10   41.50    3.90
  -4  -4  10   31.90    9.00
  -4   4 -10   48.30    6.30
  -4   4 -10   45.80    5.10
  -4  -4  10   49.90    5.70
  -4   4 -10   44.30    4.80
   4  -4 -10   50.79    6.30
  -4  -4  10   41.70    5.90
  -5  -4 -10  254.77   13.30
  -5   4  10  262.17   13.00
  -5   4  10  289.47   15.00
  -5   4  10  248.88   11.80
  -5  -4 -10  257.27   14.50
  -5  -4  10  246.48   13.40
  -5   4 -10  259.47   13.30
  -5  -4  10  232.38   14.70
  -5   4 -10  248.28   13.20
  -5   4 -10  247.18   15.10
  -6   4  10   98.59    5.90
  -6  -4 -10  113.99    7.30
  -6  -4 -10  101.59    8.50
  -6   4  10   99.29    9.00
  -6   4 -10   99.29    7.60
  -6   4 -10   98.69    8.00
  -6  -4  10   79.89    7.60
  -7   4  10   65.99    4.50
  -7  -4 -10   72.89    7.00
  -7  -4  10   72.49    6.70
   0  -5  10    0.30    1.70
   0  -5 -10   -0.40    1.90
   0   5 -10    3.70    3.40
   0   5  10    2.20    1.80
   0  -5 -10    1.20    1.60
   0   5  10   -0.70    2.10
   0   5 -10    0.90    2.00
   0   5  10    6.00    3.00
   0  -5  10   -1.00    2.20
  -1   5  10   51.79    4.80
   1   5 -10   63.39    6.90
  -1  -5 -10   50.49    5.00
  -1  -5 -10   50.79    4.60
   1  -5  10   53.99    5.00
  -1  -5 -10   55.19    5.70
  -1   5  10   57.19    7.40
  -1   5  10   49.90    5.10
  -1   5 -10   63.19    5.10
  -1   5 -10   70.09    4.90
   1   5  10   65.29    6.00
  -1   5 -10   65.39    7.50
  -1  -5  10   70.89    5.20
  -1  -5  10   70.29    7.00
  -1  -5  10   54.39    5.20
   1  -5 -10   66.09    4.80
   1  -5 -10   63.19    4.70
  -1   5 -10   51.79    7.30
  -2   5  10  285.47   12.90
  -2  -5 -10  299.17   12.90
  -2   5  10  247.08   16.00
   2   5 -10  272.37   15.20
  -2   5  10  284.77   12.50
  -2  -5 -10  267.77   13.60
  -2  -5 -10  290.27   13.20
   2  -5  10  269.27   12.70
  -2  -5 -10  276.07   14.10
  -2   5  10  271.07   12.00
  -2  -5  10  267.37   13.00
   2  -5 -10  254.27   12.50
  -2  -5  10  269.87   14.50
  -2  -5  10  275.27   14.50
   2  -5 -10  272.67   13.10
   2   5  10  264.57   14.50
  -2   5 -10  263.97   15.10
  -2   5 -10  279.67   13.00
  -2   5 -10  253.07   13.20
  -2  -5  10  273.67   12.70
  -3  -5 -10   90.79    6.60
  -3   5  10   87.49    5.20
   3  -5  10   90.79    8.20
  -3   5  10   99.79    6.50
  -3  -5 -10   79.69    5.80
  -3   5 -10   78.29    7.10
   3   5  10   85.09   10.90
   3  -5 -10   74.39    6.20
  -3   5 -10   74.39    5.70
  -3  -5  10   82.69    7.00
  -3  -5  10   72.89   10.30
  -3   5 -10   70.79    5.80
  -3  -5  10   65.39    7.60
  -3  -5  10   74.19    6.40
  -4   5  10   86.79    6.70
  -4   5  10   83.19   12.20
  -4  -5 -10   78.19    6.40
  -4   5  10   71.69    7.40
  -4   5  10   79.09    5.30
  -4  -5 -10   68.79    6.30
  -4   5  10   75.79    7.20
  -4  -5  10   74.69    6.80
  -4   5 -10   69.69    7.10
  -4  -5  10   55.39    8.20
  -4  -5  10   70.39    7.20
  -4  -5  10   67.79   11.00
   4  -5 -10   68.19    7.00
  -4   5 -10   78.79    5.90
  -4   5 -10   67.69    6.30
  -5  -5 -10  161.28    9.40
  -5   5  10  151.18    7.90
  -5  -5 -10  161.78   10.10
  -5   5  10  169.98   10.60
  -5   5  10  149.88    9.50
  -5  -5  10  133.59   10.20
  -5   5 -10  131.99    9.20
  -5   5 -10  141.79   10.40
  -5   5 -10  145.59    9.00
  -5  -5  10  154.48    9.90
  -6  -5 -10  145.29    8.70
  -6   5  10  139.09    7.30
  -6   5  10  133.99   10.40
  -6  -5 -10  143.49   10.30
  -6   5 -10  125.69    9.40
  -6  -5  10  141.79    9.50
  -6   5 -10  145.99    8.70
   0   6  10  421.66   18.10
   0   6  10  445.46   20.80
   0  -6  10  417.96   18.30
   0   6 -10  412.56   20.00
   0  -6  10  431.16   18.60
   0   6 -10  437.76   21.20
   0  -6 -10  436.36   19.40
   0  -6 -10  448.96   18.80
  -1  -6 -10  230.78   11.10
  -1   6  10  218.98   12.80
  -1   6  10  217.38   10.20
   1   6 -10  225.38   13.20
  -1  -6 -10  224.78   10.40
   1  -6  10  217.78   10.40
   1  -6  10  216.48   11.60
  -1  -6 -10  215.08   11.10
  -1  -6  10  200.08   10.50
  -1  -6  10  219.98   10.50
  -1   6 -10  209.38   10.80
  -1   6 -10  219.68   14.00
   1  -6 -10  215.98   10.80
   1  -6 -10  221.48   10.50
   1   6  10  212.08   12.30
  -1   6 -10  197.08   10.50
   2   6 -10  211.08   13.30
   2  -6  10  216.88   10.10
  -2  -6 -10  222.58   10.00
  -2  -6 -10  205.58   10.70
  -2   6  10  206.18    9.30
  -2  -6 -10  196.78   10.90
  -2   6  10  200.98    9.70
  -2  -6 -10  221.58   10.40
  -2  -6  10  180.18   12.30
  -2  -6  10  180.88   11.50
  -2   6 -10  186.38   10.10
   2  -6 -10  183.88   10.10
  -2   6 -10  180.88   11.90
   2   6  10  183.58   12.70
   2  -6 -10  185.48   10.00
  -2  -6  10  180.88   10.20
  -2  -6  10  186.58    9.80
  -3  -6 -10   17.50    3.20
  -3  -6 -10   19.90    4.20
  -3   6  10   16.20    2.60
  -3   6  10   12.90    2.80
  -3  -6 -10   12.70    2.80
  -3   6  10   15.20    3.10
   3  -6  10   19.60    3.60
  -3  -6  10   20.30    3.80
   3  -6 -10   16.30    2.80
  -3   6 -10   24.50    3.00
  -3  -6  10   20.00    6.90
  -3   6 -10   22.20    3.80
  -3  -6  10   21.20    4.10
  -3  -6  10   15.90    3.10
  -4   6  10  102.29    7.70
  -4  -6 -10  104.79    7.70
  -4   6  10  112.79    8.30
  -4   6  10  103.99    6.40
  -4   6  10   99.29    9.00
  -4  -6 -10  105.29    8.20
  -4   6 -10  126.29    8.90
  -4   6 -10  125.39    7.50
   4  -6 -10  119.09    8.80
  -4   6 -10  126.39    7.90
  -4  -6  10  107.29    9.30
  -4  -6  10  117.39    8.80
  -4  -6  10  123.69    8.40
  -5   6  10  104.59    8.30
  -5   6  10  103.49    9.10
  -5  -6 -10  110.89    8.60
  -5  -6 -10  105.49    7.60
  -5   6  10  114.39    8.70
  -5   6  10  101.59    6.30
  -5  -6  10  129.19    8.80
  -5  -6  10  122.09    8.70
  -5   6 -10  112.39    9.00
  -5   6 -10  105.39    7.30
  -6   6  10  138.69    7.00
  -6  -6 -10  128.89    9.80
  -6  -6 -10  126.09    8.30
  -6   6 -10  136.99    8.30
  -6   6 -10  133.19    9.20
   0   7 -10   27.00    6.00
   0  -7  10   35.70    4.50
   0   7 -10   35.50    5.40
   0   7  10   29.40    5.30
   0  -7 -10   25.90    4.10
   0  -7 -10   33.60    3.40
   0   7  10   33.80    4.50
   0  -7  10   32.90    3.40
   1  -7  10  286.17   13.40
  -1  -7 -10  278.17   13.40
  -1   7  10  273.97   16.40
   1   7 -10  269.77   15.90
   1  -7  10  265.37   12.60
  -1  -7 -10  287.87   12.90
  -1   7  10  285.57   12.50
  -1  -7 -10  262.57   13.40
  -1   7 -10  249.48   17.20
   1   7  10  267.07   15.30
  -1  -7  10  255.97   12.70
  -1  -7  10  272.47   12.60
   1  -7 -10  266.87   12.70
  -1   7 -10  281.47   13.50
   1  -7 -10  286.77   13.30
   2  -7  10   69.09    5.80
  -2  -7 -10   74.79    6.50
  -2  -7 -10   72.69    5.20
  -2   7  10   76.39    5.40
  -2   7  10   74.79    5.50
  -2  -7 -10   66.09    5.90
  -2  -7  10   68.59    7.80
  -2   7 -10   67.09    5.10
   2  -7 -10   61.09    5.80
  -2  -7  10   80.09    7.80
  -2  -7  10   57.39    6.60
   2  -7 -10   66.49    7.00
  -2   7 -10   65.59    6.90
  -2  -7  10   65.79    5.30
  -3  -7 -10   64.79    5.50
  -3  -7 -10   58.99    8.20
  -3   7  10   60.79    6.30
   3  -7  10   61.19    6.70
  -3  -7 -10   53.59    6.10
  -3   7  10   61.89    4.90
  -3   7  10   62.59    5.70
  -3   7 -10   78.09    7.20
  -3   7 -10   75.79    5.60
  -3  -7  10   71.59    7.20
   3  -7 -10   70.99    6.60
  -3  -7  10   68.59    7.90
  -3  -7  10   75.69    6.20
  -4   7  10  298.97   13.80
  -4  -7 -10  239.38   15.50
  -4   7  10  285.17   15.20
  -4  -7 -10  309.57   14.70
  -4   7  10  280.47   16.10
  -4   7  10  284.77   13.00
   4  -7 -10  304.37   15.20
  -4  -7  10  289.27   14.20
  -4  -7  10  285.37   15.40
  -4   7 -10  306.67   14.70
  -4  -7  10  297.87   16.10
  -5   7  10   55.89    8.50
  -5   7  10   69.69    6.80
  -5  -7 -10   65.19    6.90
  -5  -7 -10   65.69    6.20
  -5   7  10   53.99    4.80
  -5   7 -10   69.19    7.10
  -5   7 -10   69.89    5.80
  -5  -7  10   82.49    7.60
  -5  -7  10   71.79    7.10
  -6   7  10   94.89    5.60
  -6  -7 -10   90.99    6.90
  -6  -7 -10   93.19    8.30
  -6  -7  10  104.69    7.80
  -6   7 -10  104.39    6.60
   0   8 -10   10.70    2.80
   0  -8 -10   10.40    2.40
   0  -8 -10   12.50    2.50
   0  -8  10   11.10    2.50
   0   8 -10   15.90    6.10
   0   8  10   12.60    6.40
   0  -8  10    9.10    2.20
  -1  -8 -10  240.08   11.60
   1  -8  10  232.98   11.20
   1   8 -10  234.78   17.60
  -1  -8 -10  230.28   11.90
   1  -8  10  240.28   12.20
  -1  -8 -10  227.48   12.10
  -1   8  10  240.08   11.10
   1  -8 -10  241.88   12.00
  -1   8 -10  248.08   12.20
   1  -8 -10  240.48   11.70
  -1  -8  10  240.78   11.70
   1   8  10  208.78   16.00
  -1  -8  10  242.08   11.40
  -1   8 -10  238.08   19.00
  -2   8  10   53.99    5.10
  -2  -8 -10   45.50    6.10
  -2   8  10   46.40    4.90
  -2  -8 -10   41.00    5.20
   2  -8  10   37.00    5.10
  -2  -8  10   43.00    4.60
   2  -8 -10   46.80    5.10
  -2   8 -10   37.50    4.70
  -2  -8  10   37.90    5.40
  -2  -8  10   38.70    4.30
   3  -8  10   80.39    6.80
  -3   8  10   74.89    6.10
  -3  -8 -10   75.39    8.10
  -3  -8 -10   68.19    6.10
  -3   8  10   87.39    6.80
  -3  -8 -10   69.29    6.00
  -3   8  10   74.99    5.40
  -3  -8  10   69.29    6.50
  -3  -8  10   64.89    7.00
  -3  -8  10   55.79    7.50
  -3   8 -10   64.69    5.60
  -3  -8  10   63.69    6.10
   3  -8 -10   72.69    6.60
  -4   8  10  169.38    9.90
  -4   8  10  143.19   10.90
  -4  -8 -10  158.48    9.40
  -4  -8 -10  166.88   10.50
  -4   8  10  162.68    8.30
  -4  -8  10  156.08    9.70
  -4  -8  10  143.29   10.50
   4  -8 -10  145.89   10.70
  -4   8 -10  162.48    9.20
  -4  -8  10  150.98   10.70
  -5   8  10   -0.40    2.10
  -5   8  10   -0.20    2.60
  -5  -8 -10    2.40    2.70
  -5  -8  10   -5.30    5.10
  -5  -8  10    5.20    3.60
  -5  -8  10    5.80    4.20
  -5   8 -10    0.00    2.20
  -6  -8 -10   53.59    5.30
  -6   8  10   52.49    4.00
  -6  -8 -10   50.69    6.40
  -6   8 -10   47.70    4.70
  -6  -8  10   44.40    6.20
   0   9 -10   16.00    3.20
   0  -9  10   12.50    2.70
   0  -9 -10   13.20    2.70
   0   9 -10    9.30    8.50
   0  -9 -10   12.60    2.60
   0  -9  10   15.80    2.90
   1  -9  10  411.46   17.30
  -1   9  10  391.96   25.60
   1  -9  10  388.76   17.60
  -1  -9 -10  372.56   18.40
  -1  -9 -10  370.96   18.20
  -1   9 -10  398.66   18.50
   1  -9 -10  373.36   17.60
  -1  -9  10  382.26   17.40
  -1  -9  10  389.16   17.00
   1  -9 -10  387.96   18.20
  -2  -9 -10  211.28   11.40
   2  -9  10  196.18   10.40
  -2  -9 -10  205.68   11.30
  -2  -9  10  194.78   11.10
   2  -9 -10  203.58   10.80
  -2  -9  10  201.28   10.60
  -2   9 -10  202.78   10.90
  -3  -9 -10  200.58   11.90
  -3  -9 -10  195.98   10.60
  -3   9  10  201.88   11.00
  -3   9  10  192.58    9.40
   3  -9  10  191.28   10.50
   3  -9 -10  172.58   10.80
  -3  -9  10  182.68   12.20
  -3  -9  10  179.88   11.90
  -3   9 -10  186.08   10.50
  -3  -9  10  184.08   11.10
  -3  -9  10  190.28   10.30
  -4   9  10   47.20    5.90
  -4   9  10   48.40    4.70
  -4  -9 -10   48.70    5.50
  -4   9  10   42.80    6.10
   4  -9  10   52.29    5.60
  -4  -9  10   65.29    7.20
  -4   9 -10   57.29    5.30
  -4  -9  10   49.40    7.00
  -4  -9  10   58.79    6.40
  -5   9  10   57.39    6.00
  -5  -9 -10   60.79    5.60
  -5   9  10   63.69    4.70
  -5  -9  10   65.19    7.40
  -5   9 -10   56.49    5.20
  -5  -9  10   44.30    6.30
  -5  -9  10   62.69    7.20
  -6  -9 -10   18.90    4.50
  -6   9  10   15.50    2.70
  -6  -9 -10   11.90    3.10
  -6  -9  10   14.00    4.30
  -6   9 -10   17.90    2.80
   0 -10 -10    4.60    2.30
   0 -10  10    5.10    2.40
   0 -10  10    5.20    2.60
  -1 -10 -10   13.60    2.70
   1 -10  10   11.00    3.50
   1 -10  10   14.40    2.80
  -1 -10  10   17.80    3.20
  -1 -10  10   18.10    3.30
  -1  10 -10   13.30    2.70
   1 -10 -10   16.10    3.10
  -2 -10 -10  482.85   23.60
   2 -10  10  480.35   22.30
  -2  10  10  522.15   24.50
  -2 -10 -10  502.65   23.70
   2 -10 -10  537.25   23.70
  -2 -10  10  528.95   22.30
  -2  10 -10  525.45   24.10
  -2 -10  10  530.25   23.00
  -3  10  10  114.39    9.30
  -3  10  10  133.29    8.80
  -3 -10 -10  128.69    8.50
  -3 -10 -10  126.59   10.00
  -3 -10 -10  130.09    9.60
   3 -10  10  129.09    8.60
  -3 -10  10  136.59    8.50
   3 -10 -10  130.19    9.10
  -3 -10  10  134.99    9.30
  -3  10 -10  142.59    8.30
   4 -10  10   72.69    7.90
  -4 -10 -10   77.79    6.50
  -4  10  10   73.19    6.40
  -4  10  10   75.09    5.30
  -4 -10  10   55.19    7.00
  -4  10 -10   60.29    5.50
  -4 -10  10   53.79    6.60
  -4 -10  10   63.79    8.60
  -5 -10 -10   -0.70    2.80
  -5  10  10    4.00    2.50
  -5  10  10    3.00    2.70
  -5 -10  10   -1.40    4.00
  -5  10 -10    0.20    2.20
  -5 -10  10    3.70    4.50
  -5 -10  10   -0.20    4.90
  -6  10 -10   53.49    4.50
   0 -11  10  302.17   14.30
   0 -11 -10  295.17   14.90
   0 -11  10  307.27   14.40
   1 -11  10  220.58   12.10
   1 -11  10  216.78   11.40
  -1  11  10  222.58   12.30
  -1 -11 -10  228.08   12.10
  -1 -11  10  219.98   11.20
   1 -11 -10  230.48   12.10
  -1  11 -10  218.18   12.00
  -1 -11  10  223.68   11.60
  -2  11  10   88.09    7.00
  -2 -11 -10   74.99    7.50
  -2 -11 -10   76.59    7.30
   2 -11  10   79.69    6.50
  -2 -11  10   84.99    7.90
   2 -11 -10   86.39    7.10
  -2 -11  10   89.39    6.80
  -2  11 -10   87.89    6.70
  -3 -11 -10  320.87   16.90
   3 -11  10  345.17   16.00
  -3 -11 -10  336.67   16.80
  -3 -11 -10  353.36   17.40
  -3  11  10  359.86   17.40
   3 -11 -10  357.06   16.90
  -3 -11  10  333.57   17.30
  -3  11 -10  317.07   16.60
  -3 -11  10  342.17   16.10
   4 -11  10    7.80    4.00
  -4 -11 -10    2.80    4.50
  -4 -11 -10   10.80    3.30
  -4  11  10   11.40    3.00
  -4  11  10    6.60    3.30
  -4 -11  10    5.50    3.50
  -4  11 -10    8.30    2.30
  -4 -11  10    6.80    4.10
  -5 -11 -10    9.00    3.40
  -5  11  10    8.80    2.70
  -5 -11  10    8.80    4.20
  -5  11 -10    8.50    2.30
  -5 -11  10    0.10    4.90
   0 -12  10    4.90    3.00
   0 -12 -10   -0.60    2.40
   0 -12  10   -0.40    2.50
   0  12  10    1.30    2.90
  -1  12  10  226.98   12.20
   1 -12  10  201.18   12.30
   1 -12  10  208.28   11.10
  -1 -12 -10  213.18   11.70
  -1  12 -10  217.58   12.00
  -1 -12  10  218.38   11.20
   1 -12 -10  217.98   11.90
  -1 -12  10  215.78   11.60
  -2  12  10   92.69    7.10
  -2 -12 -10   88.59    8.20
   2 -12  10   88.29    6.70
  -2 -12 -10   91.09    7.30
  -2  12 -10   61.49    6.30
  -2 -12  10   75.89    8.10
  -2 -12  10   70.99    6.40
   2 -12 -10   67.09    6.90
  -3 -12 -10   76.79    7.40
  -3  12  10   71.79    6.60
   3 -12  10   70.29    6.40
  -3 -12 -10   68.49    8.20
  -3 -12 -10   70.39    7.00
  -3 -12  10   77.69    6.70
  -3 -12  10   86.29    7.20
  -3  12 -10   80.59    6.00
   3 -12 -10   80.19    7.80
   4 -12  10   48.40    6.80
  -4  12  10   49.10    5.10
  -4 -12 -10   52.19    6.00
  -4 -12 -10   46.80    5.70
  -4  12 -10   38.20    4.40
  -4 -12  10   36.30    5.70
  -5  12  10    1.40    2.30
  -5 -12 -10    2.50    3.20
  -5  12 -10    1.90    1.90
  -5 -12  10    8.60    4.40
   0 -13  10   76.99    7.10
   0 -13 -10   74.69    6.70
   0 -13  10   89.99    6.70
   0  13  10   65.09    7.20
   1 -13  10  102.69    6.90
   1 -13  10   85.69    8.60
  -1  13  10  109.99    7.60
  -1 -13 -10   93.89    7.40
  -1 -13  10  101.49    7.50
  -1 -13  10   81.29    7.10
  -1  13 -10   77.99    8.40
   1 -13 -10   78.99    7.20
  -2 -13 -10   18.00    3.30
  -2 -13 -10   21.80    3.90
  -2  13  10   25.60    3.80
   2 -13  10   23.70    3.50
  -2  13 -10   21.50    3.20
  -2 -13  10   21.30    3.80
   2 -13 -10   28.50    4.10
  -2 -13  10   24.80    4.50
  -2 -13  10   29.00    4.10
  -3 -13 -10   17.60    3.60
  -3 -13 -10   29.40    5.00
  -3  13  10   24.60    3.50
  -3 -13 -10   22.20    4.20
   3 -13  10   20.70    3.40
  -3 -13  10   24.30    4.00
  -3 -13  10   23.00    4.60
   3 -13 -10   22.20    4.40
  -3  13 -10   20.60    3.10
   4 -13  10   26.60    4.50
  -4  13  10   18.40    2.80
  -4 -13 -10   27.80    4.20
  -4 -13 -10   23.70    4.60
  -4 -13  10   24.50    4.50
  -4  13 -10   22.00    2.90
  -4 -13  10   14.40    3.50
  -5  13  10   37.00    4.10
  -5  13 -10   40.60    3.80
   0 -14  10  196.18   10.70
   0 -14 -10  200.68   11.00
   0  14  10  188.98   11.50
   0 -14  10  192.18   10.50
  -1  14  10   60.39    6.50
   1 -14  10   63.29    5.80
   1 -14  10   58.49    6.10
  -1 -14 -10   59.19    6.20
  -1 -14  10   69.59    6.60
  -1 -14  10   60.89    6.20
   1 -14 -10   66.69    6.40
  -2 -14 -10    4.00    3.20
  -2 -14 -10    6.80    2.90
   2 -14  10    5.40    2.90
  -2  14  10    5.20    2.50
  -2  14 -10    3.30    2.80
  -2 -14  10    4.20    3.10
   2 -14 -10    5.80    3.20
  -2 -14  10    4.10    3.00
  -2 -14  10    4.10    4.50
  -3 -14 -10   54.09    7.80
  -3  14  10   44.30    4.80
   3 -14  10   37.90    5.30
  -3 -14 -10   35.90    5.50
  -3 -14 -10   43.00    5.70
  -3 -14  10   27.60    4.30
  -3 -14  10   36.70    5.40
  -3  14 -10   29.80    4.70
  -4  14  10    0.00    1.90
   4 -14  10    5.50    4.40
  -4 -14  10    0.00    3.70
  -4  14 -10    3.90    2.10
  -4 -14  10    8.30    3.40
   0 -15  10  118.09    8.60
   0 -15 -10  122.59    8.30
   0 -15  10  126.09    8.00
  -1  15  10   83.89    7.10
  -1 -15 -10   81.89    6.70
  -1 -15 -10   85.79    6.50
   1 -15  10   79.59    6.40
  -1 -15  10   80.59    6.90
  -1 -15  10   84.09    6.70
   1 -15 -10   81.19    6.70
  -1 -15  10   87.39    7.20
  -2 -15 -10  162.08    9.50
  -2  15  10  173.98    9.50
  -2 -15 -10  163.88    9.50
   2 -15  10  176.38    9.00
  -2 -15  10  152.78    9.60
  -2 -15  10  150.98    9.00
   2 -15 -10  142.09    9.70
  -3 -15 -10    4.60    3.00
   3 -15  10    6.90    2.90
  -3  15  10    4.50    2.20
  -3 -15  10    5.80    3.40
  -3  15 -10    5.30    2.60
  -3 -15  10    3.10    3.20
  -4  15  10    0.00    2.10
  -4  15 -10    1.20    2.50
   0 -16  10  347.87   16.20
   0 -16  10  361.46   16.20
   0 -16 -10  375.56   17.10
   0 -16  10  336.17   17.30
   0 -16 -10  352.06   16.20
   1 -16  10   38.60    4.80
  -1  16  10   37.10    4.30
  -1 -16 -10   28.10    3.70
  -1 -16 -10   38.20    4.90
   1 -16 -10   33.10    5.40
  -1 -16  10   34.80    4.20
  -1 -16  10   36.40    4.60
  -1 -16  10   31.00    4.40
  -2  16  10   59.39    5.60
  -2 -16 -10   68.49    6.30
  -2 -16 -10   72.99    5.70
   2 -16  10   67.09    5.50
  -2 -16  10   70.29    5.90
   2 -16 -10   64.19    7.30
  -2 -16  10   61.59    6.10
   3 -16  10   22.70    3.50
  -3  16  10   18.50    2.80
  -3 -16 -10   20.90    3.40
  -3 -16  10   28.70    3.90
  -3 -16  10   21.00    3.90
   0 -17 -10   31.00    4.80
   0 -17  10   39.60    5.10
   0 -17  10   29.50    5.40
   0 -17  10   38.00    5.20
   0 -17 -10   36.40    4.70
  -1 -17 -10  148.59    8.50
   1 -17  10  156.18    8.20
  -1 -17 -10  156.98    8.50
  -1 -17  10  141.69    9.20
   1 -17 -10  156.78    8.90
  -1 -17  10  145.29    9.40
  -1 -17  10  138.79    8.90
  -2 -17 -10   75.99    5.50
  -2 -17  10   76.09    6.90
   0 -18 -10   19.30    3.00
   0   0  11   -2.00    2.10
   0   0 -11   -5.30    1.80
   0   0  11   -3.00    2.00
   0   0 -11   -0.70    1.30
   0   0  11    0.80    2.30
  -1   0  11  151.08    8.10
  -1   0 -11  153.48    8.10
   1   0  11  164.18    9.00
   1   0  11  141.79    8.60
  -1   0 -11  146.19    7.90
   1   0 -11  138.79    7.50
  -1   0  11  162.38    9.10
  -1   0  11  162.58    8.10
  -1   0 -11  160.68    7.80
   2   0  11  215.68   11.50
  -2   0 -11  211.78   10.50
  -2   0 -11  206.78   10.60
  -2   0 -11  218.38   13.70
  -2   0 -11  221.48   10.90
   2   0 -11  219.28   13.00
  -2   0  11  210.78   10.40
  -2   0  11  220.08   10.80
  -3   0  11   -0.50    2.10
  -3   0 -11    2.60    3.00
  -3   0 -11    3.00    1.90
  -3   0  11    4.30    2.30
  -3   0  11    0.30    2.40
  -3   0 -11   -0.10    1.70
   3   0 -11    3.10    5.40
   4   0 -11   23.70    3.20
  -4   0  11   15.20    3.50
  -4   0  11   19.50    3.90
  -4   0  11   21.90    3.70
  -4   0  11   17.30    7.70
  -4   0 -11   23.60    3.50
  -4   0 -11   25.20    4.50
  -4   0 -11   24.40    3.40
  -5   0  11  297.97   16.60
  -5   0  11  282.57   14.20
  -5   0 -11  288.47   14.60
  -5   0 -11  274.37   14.90
  -5   0 -11  308.47   17.30
  -6   0  11    3.60    3.90
  -6   0 -11    1.70    2.90
  -6   0 -11    5.70    3.50
  -6   0  11    3.90    2.30
  -7   0  11   17.30    4.30
  -7   0  11   24.90    3.10
  -7   0 -11   27.10    4.20
   0  -1  11  267.27   12.90
   0   1 -11  258.27   12.50
   0   1 -11  260.57   12.10
   0   1 -11  285.07   11.70
   0   1  11  248.48   12.20
   0  -1  11  248.68   12.00
   0   1  11  250.97   12.00
   0  -1  11  258.27   12.10
   0  -1 -11  248.78   12.20
   0  -1 -11  275.27   11.70
   0   1  11  266.47   12.90
  -1   1  11  163.18    8.30
  -1  -1 -11  156.58    8.40
  -1   1  11  166.48    8.50
  -1  -1 -11  151.28    8.20
   1  -1  11  153.28    8.70
  -1  -1 -11  153.28    8.10
   1   1 -11  167.38   10.10
  -1   1  11  162.18    9.30
  -1  -1  11  156.28    8.30
  -1   1 -11  164.48    8.20
  -1   1 -11  162.28    8.50
   1   1  11  158.38    9.30
   1   1  11  165.88    9.30
  -1  -1  11  159.38    8.30
  -1   1 -11  168.08   10.30
  -1   1 -11  166.08    8.10
   1  -1 -11  174.58    7.90
  -2  -1 -11   24.60    2.90
  -2  -1 -11   26.20    3.80
  -2   1  11   26.10    3.30
  -2  -1 -11   26.30    3.40
  -2   1  11   21.10    3.00
   2   1 -11   23.30    4.30
  -2   1  11   28.00    4.80
   2  -1  11   24.90    3.90
  -2  -1  11   24.20    3.10
  -2   1 -11   20.90    5.10
  -2   1 -11   26.30    3.20
  -2  -1  11   25.70    3.20
  -2   1 -11   23.70    3.10
  -2   1 -11   21.30    3.50
   2  -1 -11   22.20    3.10
   2   1  11   20.00    3.80
   3   1 -11    1.70    5.40
  -3  -1 -11    1.40    1.90
  -3  -1 -11    2.10    2.60
  -3  -1 -11    3.80    2.10
  -3   1  11   -0.10    2.30
  -3   1  11    0.30    2.40
  -3   1  11    0.40    2.00
  -3   1 -11    0.40    2.00
   3  -1 -11    1.10    2.00
  -3  -1  11    0.70    2.40
  -3   1 -11    1.00    1.70
  -3   1 -11    2.70    2.80
  -3  -1  11    1.10    2.40
  -3  -1  11    3.20    2.20
   3  -1 -11    4.40    5.60
  -4   1  11  283.07   15.50
  -4   1  11  285.87   20.20
  -4   1  11  275.07   13.40
  -4  -1 -11  279.17   13.90
  -4  -1 -11  279.97   14.10
  -4   1  11  284.47   14.10
  -4  -1 -11  262.67   15.20
  -4  -1  11  289.37   15.50
  -4  -1  11  280.37   20.40
  -4   1 -11  273.77   13.80
  -4  -1  11  278.77   13.70
   4  -1 -11  275.67   13.20
  -4   1 -11  270.47   16.10
  -4  -1  11  270.57   14.20
  -4   1 -11  268.67   14.00
  -5  -1 -11   10.70    3.00
  -5  -1 -11    9.00    3.80
  -5   1  11   14.20    2.70
  -5   1  11   11.40    3.70
  -5   1  11    7.80    3.70
  -5  -1  11   10.70    3.80
  -5   1 -11   10.50    4.00
  -5  -1  11   11.40    3.70
  -5   1 -11   12.10    3.40
  -5   1 -11   11.40    3.20
  -6  -1 -11   62.39    6.90
  -6  -1 -11   68.89    6.00
  -6   1  11   57.89    7.20
  -6   1  11   69.19    5.00
  -6  -1  11   72.39    5.00
  -6   1 -11   67.79    6.20
  -6   1 -11   67.79    7.00
  -6  -1  11   71.99    7.20
  -7   1  11   84.19    5.00
  -7  -1 -11   88.29    7.00
  -7  -1  11   90.49    7.30
  -7   1 -11   92.99    7.10
  -7  -1  11   92.09    5.20
   0   2  11  142.19    8.30
   0  -2 -11  150.68    8.00
   0  -2 -11  150.18    7.40
   0   2 -11  153.48    9.60
   0   2 -11  141.09    7.10
   0   2  11  159.28    8.80
   0   2 -11  147.99    8.10
   0  -2  11  143.39    7.80
   0   2  11  138.69    7.90
   0  -2  11  149.99    8.50
  -1   2  11  553.34   22.80
  -1   2  11  558.94   24.60
   1   2 -11  551.04   25.20
  -1  -2 -11  566.44   23.30
   1  -2  11  572.84   23.30
  -1   2  11  557.34   23.20
  -1  -2 -11  557.84   24.20
   1   2  11  541.55   24.40
  -1   2 -11  562.44   25.30
   1   2  11  511.55   23.40
   1  -2 -11  533.85   23.10
  -1   2 -11  551.14   24.90
  -1  -2  11  535.35   22.80
  -1   2 -11  556.34   23.20
  -1   2 -11  550.64   24.10
  -1  -2  11  548.65   23.30
  -2  -2 -11  501.45   21.60
  -2   2  11  474.85   21.10
   2  -2  11  507.05   21.90
  -2   2  11  497.15   23.50
  -2  -2 -11  497.35   23.00
   2   2 -11  477.55   23.50
  -2  -2 -11  519.95   22.50
  -2   2  11  500.75   21.60
  -2  -2  11  536.35   21.60
  -2  -2  11  499.35   21.20
  -2   2 -11  511.65   22.30
  -2   2 -11  510.65   25.70
   2  -2 -11  509.05   21.30
  -2  -2  11  505.35   24.40
   2   2  11  492.45   22.80
  -2   2 -11  507.15   24.10
  -2   2 -11  523.15   22.90
  -2   2 -11  455.75   21.60
  -3   2  11  370.36   15.70
   3   2 -11  330.67   19.50
  -3  -2 -11  359.06   17.80
  -3  -2 -11  369.86   16.80
  -3   2  11  359.36   16.00
  -3  -2 -11  361.26   16.50
  -3  -2 -11  341.87   16.00
  -3  -2  11  350.46   18.00
  -3   2 -11  342.27   16.20
  -3  -2  11  343.17   15.90
   3   2  11  326.07   17.90
  -3   2 -11  342.97   18.90
   3  -2 -11  306.37   15.30
  -3   2 -11  358.66   16.70
  -3  -2  11  348.47   16.20
  -4   2  11  173.78    9.70
  -4   2  11  165.98   11.90
  -4  -2 -11  173.78   10.90
  -4   2  11  191.88   11.20
  -4   2  11  198.48   17.70
  -4  -2 -11  175.08    9.70
  -4   2 -11  171.08    9.80
  -4  -2  11  183.48   10.00
  -4   2 -11  168.88    9.70
  -4  -2  11  187.28   17.30
  -4   2 -11  173.18   11.50
  -4  -2  11  176.78   11.30
  -4  -2  11  164.58   10.70
  -5  -2 -11  116.99    9.40
   5   2 -11  106.69    7.40
  -5  -2 -11  104.59    7.30
  -5   2  11  107.09    8.20
  -5   2  11  106.89    8.80
  -5   2  11  102.59    6.40
  -5   2 -11   97.49    7.10
  -5   2 -11   98.89    7.40
  -5  -2  11   99.79    8.40
  -5  -2  11  115.79    8.90
  -5   2 -11  112.59    9.10
  -6  -2 -11   10.60    3.70
  -6   2  11   10.20    4.40
  -6  -2 -11   17.90    3.60
  -6   2  11   15.80    2.70
  -6   2 -11   13.30    3.50
  -6  -2  11   18.10    4.20
  -6  -2  11   21.60    3.20
  -7   2  11   22.70    3.10
  -7  -2 -11   23.40    4.10
  -7  -2  11   26.90    3.40
  -7  -2  11   27.80    4.50
  -7   2 -11   16.60    3.80
   0   3 -11    7.30    1.60
   0  -3 -11    5.60    1.70
   0   3  11    4.40    2.20
   0   3  11    0.50    2.70
   0  -3  11    8.40    2.60
   0  -3 -11   11.20    2.80
   0   3 -11    8.20    2.10
   0   3 -11    6.10    3.10
   0   3  11    5.00    2.00
   0  -3  11    7.40    2.10
   0  -3 -11    8.80    2.00
  -1  -3 -11  226.88   11.60
  -1  -3 -11  224.28   11.20
  -1   3  11  231.88   12.70
   1   3 -11  239.38   13.20
  -1  -3 -11  229.38   10.90
  -1   3  11  233.18   11.30
  -1   3  11  230.68   10.80
   1  -3  11  236.38   11.10
  -1   3 -11  228.08   11.30
  -1  -3  11  232.68   11.20
   1  -3 -11  235.18   10.60
   1   3  11  225.78   12.20
  -1   3 -11  237.28   11.10
  -1  -3  11  241.18   10.90
   1   3  11  228.18   12.00
  -1   3 -11  230.98   13.50
   1   3  11  226.08   11.50
  -1   3 -11  236.58   10.90
  -2   3  11  197.98    9.60
   2   3 -11  205.88   12.70
   2  -3  11  178.48   10.40
  -2  -3 -11  192.68    9.90
  -2  -3 -11  197.58   11.70
  -2   3  11  203.28   10.20
  -2   3  11  184.38   12.90
  -2  -3 -11  195.88   10.10
  -2   3 -11  207.78   10.20
  -2  -3  11  188.38   11.10
  -2   3 -11  201.18   12.00
  -2  -3  11  199.98   10.00
  -2   3 -11  207.18    9.90
   2   3  11  198.58   11.40
   2  -3 -11  198.98    9.30
  -2   3 -11  227.88   14.70
  -2   3 -11  169.88   10.50
  -2  -3  11  197.18   10.20
  -3   3  11  105.49    7.30
  -3  -3 -11  102.99    6.80
  -3   3  11   98.79    6.70
   3   3 -11   93.09   12.40
  -3  -3 -11   96.49    7.00
  -3  -3 -11   89.49    7.20
  -3   3 -11   96.29    6.30
  -3  -3  11  100.59    7.60
  -3  -3  11  106.69    6.90
   3   3  11  103.29   10.60
  -3  -3  11   93.49    8.50
  -3   3 -11  100.39    6.30
  -3  -3  11   94.19    9.90
   3  -3 -11   93.59    6.40
  -3  -3  11  114.09    7.80
  -3   3 -11  109.19    8.20
  -4   3  11  278.97   12.40
  -4  -3 -11  285.67   13.90
  -4   3  11  301.27   21.20
  -4  -3 -11  293.67   15.00
  -4   3  11  297.97   13.30
  -4   3  11  280.17   15.10
  -4   3  11  278.27   15.00
  -4  -3  11  245.58   13.10
  -4  -3  11  237.08   20.40
  -4   3 -11  250.87   13.60
  -4  -3  11  252.57   14.90
  -4   3 -11  267.37   15.70
  -4  -3  11  247.88   14.60
  -5   3  11   82.99    7.30
  -5   3  11   73.59    5.30
  -5   3  11   86.79    7.80
  -5  -3 -11   68.49    6.30
  -5  -3 -11   88.69    7.70
  -5  -3  11   68.19    7.60
   5  -3 -11   68.59    8.30
  -5   3 -11   74.19    6.20
  -5   3 -11   66.39    6.20
  -5   3 -11   63.89    7.50
  -5  -3  11   67.69    7.50
  -6  -3 -11  166.78   10.80
  -6   3  11  167.98    8.00
  -6  -3 -11  160.68    9.10
  -6   3  11  157.98   10.70
  -6  -3  11  144.19   10.10
  -6  -3  11  148.39    8.00
  -6   3 -11  147.69    9.80
  -6   3 -11  133.59    9.40
  -7   3  11   95.09    5.30
  -7  -3  11   88.19    7.40
  -7   3 -11  101.69    7.40
   0   4 -11  510.05   24.20
   0   4  11  535.75   23.90
   0   4  11  515.55   21.70
   0  -4 -11  515.75   23.00
   0   4  11  525.85   22.20
   0   4 -11  497.55   23.70
   0  -4  11  543.85   22.20
   0  -4  11  505.85   21.90
   0  -4 -11  539.75   22.10
  -1   4  11  223.68   10.30
  -1   4  11  222.18    9.90
   1   4 -11  215.18   12.10
  -1  -4 -11  216.68   10.20
  -1  -4 -11  210.98    9.70
  -1   4  11  203.68   12.20
   1  -4  11  221.38   10.10
  -1  -4 -11  218.68   10.70
   1   4  11  188.78   10.10
  -1   4 -11  193.28    9.80
  -1   4 -11  196.38   10.10
   1   4  11  191.88   11.30
  -1   4 -11  186.88   12.10
  -1  -4  11  187.98    9.80
  -1   4 -11  188.88    9.70
  -1  -4  11  181.68   11.40
   1   4  11  171.38   11.20
  -1  -4  11  192.28    9.80
   1  -4 -11  194.38    9.50
  -2  -4 -11   39.90    4.50
  -2  -4 -11   40.30    4.30
  -2  -4 -11   37.80    4.40
  -2   4  11   37.90    4.70
   2  -4  11   47.80    5.60
  -2   4  11   36.80    4.60
  -2   4  11   30.90    5.90
   2   4 -11   36.10    5.60
   2   4  11   38.90    5.30
  -2   4 -11   33.40    4.00
  -2   4 -11   33.70    3.80
   2  -4 -11   33.00    4.10
  -2  -4  11   33.10    4.90
  -2  -4  11   40.60    5.20
  -2   4 -11   46.10    6.10
  -2  -4  11   41.60    5.30
  -3  -4 -11  204.68   12.10
  -3   4  11  214.38   10.70
  -3  -4 -11  211.38   11.10
  -3   4  11  196.88   10.00
   3  -4 -11  232.78   11.00
  -3   4 -11  218.68   11.10
  -3  -4  11  225.28   15.10
  -3  -4  11  215.38   12.40
  -3  -4  11  212.98   11.70
  -3  -4  11  224.68   11.00
  -3   4 -11  221.28   11.30
  -3   4 -11  229.98   13.10
  -4   4  11   71.29   12.20
  -4  -4 -11   61.39    5.80
  -4   4  11   56.49    7.10
  -4   4  11   60.19    6.20
  -4   4  11   59.89    4.70
  -4  -4 -11   53.79    6.50
  -4   4  11   50.49    7.50
  -4  -4  11   66.39    6.90
  -4   4 -11   72.19    5.80
  -4   4 -11   67.99    7.00
   4  -4 -11   76.69    6.50
  -4  -4  11   73.59    6.90
  -4   4 -11   66.99    5.70
  -4  -4  11   79.19   12.30
  -5  -4 -11   18.80    4.00
  -5   4  11   14.20    3.70
  -5   4  11   15.00    4.00
  -5  -4 -11   14.70    3.30
  -5   4  11   13.30    2.70
  -5  -4  11   15.30    4.00
  -5  -4  11   21.00    4.30
  -5   4 -11   23.10    3.90
  -5   4 -11   16.20    3.80
  -5   4 -11   18.60    3.10
  -6  -4 -11   21.40    4.30
  -6  -4 -11   17.80    3.60
  -6   4  11   22.80    3.10
  -6   4 -11   19.50    4.30
  -6  -4  11   22.10    4.40
  -6   4 -11   16.90    3.70
   0  -5  11  227.78   10.70
   0   5 -11  231.38   13.60
   0   5  11  218.48   12.90
   0  -5 -11  229.38   10.50
   0   5 -11  211.48   11.30
   0  -5 -11  227.18   11.00
   0  -5  11  223.38   10.90
   0   5  11  222.28   10.40
   0   5  11  214.68   11.10
   1   5 -11  146.89   10.80
  -1   5  11  131.89    7.70
  -1  -5 -11  149.39    7.70
  -1   5  11  150.48   11.10
  -1  -5 -11  134.99    8.40
  -1   5  11  134.89    7.90
   1  -5  11  144.29    7.70
  -1  -5 -11  134.59    8.10
  -1   5 -11  156.88   11.90
   1   5  11  126.49    9.70
  -1   5 -11  144.49    7.90
   1  -5 -11  143.49    7.60
  -1  -5  11  149.99    8.10
  -1   5 -11  133.39    7.70
  -1  -5  11  148.59    9.90
   1   5  11  140.19   10.00
   1  -5 -11  148.49    7.90
  -1  -5  11  150.38    7.80
  -2   5  11   61.59    5.30
  -2  -5 -11   66.19    5.20
  -2   5  11   56.79    5.50
  -2  -5 -11   65.89    5.10
  -2  -5 -11   59.99    6.60
  -2   5  11   58.99    4.80
   2  -5  11   57.99    5.70
   2   5 -11   58.09    7.20
  -2  -5  11   66.09    6.60
   2  -5 -11   66.79    5.10
  -2  -5  11   65.09    5.30
  -2  -5  11   63.99    8.20
  -2   5 -11   67.99    5.10
  -2  -5  11   64.89    5.90
   2  -5 -11   56.19    5.10
   2   5  11   66.49    7.80
  -2   5 -11   63.49    4.90
  -3   5  11  323.27   14.60
  -3  -5 -11  309.87   16.50
  -3  -5 -11  308.67   15.20
   3  -5  11  341.77   15.60
  -3   5  11  320.07   13.80
  -3  -5  11  301.97   16.70
  -3   5 -11  314.77   17.40
   3  -5 -11  294.67   15.00
  -3   5 -11  307.37   15.30
  -3  -5  11  306.07   15.40
  -3   5 -11  314.17   15.10
  -3  -5  11  327.27   19.10
  -3  -5  11  319.27   14.60
  -4   5  11   95.99    8.70
  -4   5  11  103.99    6.20
  -4   5  11  104.99    7.60
  -4   5  11  105.59    8.30
  -4  -5 -11   97.09    8.00
  -4  -5 -11  107.09    7.30
  -4  -5  11  103.19    8.30
   4  -5 -11  108.29    7.80
  -4   5 -11  106.89    8.50
  -4  -5  11  105.59   10.00
  -4   5 -11  101.69    7.00
  -4  -5  11  108.99    8.00
  -4   5 -11  100.99    7.30
  -5  -5 -11  322.27   17.30
  -5  -5 -11  316.77   16.10
  -5   5  11  305.67   14.40
  -5   5  11  328.07   17.20
  -5   5  11  304.37   15.20
  -5   5  11  323.17   17.70
  -5  -5  11  334.77   17.80
  -5   5 -11  333.67   16.10
  -5   5 -11  340.97   16.10
  -5  -5  11  336.17   16.00
  -6  -5 -11   20.70    4.10
  -6  -5 -11   30.10    4.70
  -6   5  11   22.80    3.30
  -6   5  11   31.70    5.40
  -6   5 -11   28.90    5.20
  -6  -5  11   19.30    4.00
  -6   5 -11   36.90    5.30
   0   6  11   29.50    5.30
   0   6  11   28.00    3.00
   0  -6 -11   30.30    4.60
   0  -6  11   33.70    3.50
   0  -6  11   20.60    2.90
   0   6 -11   25.60    5.40
   0   6 -11   30.60    3.30
   0  -6 -11   26.20    4.10
   1   6 -11  148.19   11.40
  -1  -6 -11  138.09    8.60
  -1  -6 -11  128.89    8.40
  -1  -6 -11  130.99    7.60
  -1   6  11  137.79    7.80
  -1   6  11  144.99   12.50
   1  -6  11  139.99    7.80
   1  -6 -11  155.18    8.10
  -1   6 -11  146.09    8.10
  -1   6 -11  146.59   12.20
  -1  -6  11  148.19    7.80
   1   6  11  149.49   11.00
   1  -6 -11  142.99    7.80
  -1   6 -11  143.59    8.10
  -1  -6  11  147.49    7.90
  -2  -6 -11  184.48   10.20
  -2  -6 -11  170.08   10.30
   2  -6  11  175.88   10.20
  -2   6  11  168.38    9.70
  -2  -6 -11  173.28   10.80
  -2  -6  11  226.18   10.90
   2  -6 -11  209.48   10.40
  -2   6 -11  216.48   10.60
   2  -6 -11  209.78   10.40
   2   6  11  201.78   13.80
  -2  -6  11  218.58   13.70
  -2   6 -11  212.98   12.50
  -2  -6  11  223.48   10.40
  -2  -6  11  222.58   12.10
  -3   6  11  176.68    8.70
  -3   6  11  188.18    9.40
  -3  -6 -11  200.28   11.80
  -3  -6 -11  167.98    9.80
   3  -6  11  197.88   10.60
  -3  -6 -11  178.68   10.50
  -3   6 -11  170.08    9.70
  -3  -6  11  180.28   11.00
  -3  -6  11  169.88   15.50
  -3  -6  11  165.08   11.00
  -3   6 -11  174.88    9.70
  -3   6 -11  167.38   11.20
   3  -6 -11  169.88    9.80
  -3  -6  11  168.08    9.80
  -4   6  11  103.89    8.30
  -4   6  11  109.19    6.30
  -4  -6 -11  118.99    7.50
  -4   6  11  105.09    8.80
  -4   6  11  108.19    7.60
  -4  -6 -11  112.19    8.20
  -4   6 -11  101.09    8.40
  -4  -6  11   80.39    9.40
  -4  -6  11   94.39    8.00
  -4  -6  11   99.79    8.40
   4  -6 -11   96.09    8.00
  -4   6 -11   96.19    6.90
  -5   6  11  107.69    6.40
  -5   6  11  111.89    8.00
  -5   6  11  106.79    9.00
  -5  -6 -11  104.39    7.60
  -5   6  11  123.69    8.70
  -5   6 -11  110.99    8.90
  -5   6 -11  113.99    7.50
  -5  -6  11  110.29    8.60
  -5  -6  11  111.29    8.80
  -6  -6 -11   11.90    3.90
  -6  -6 -11   10.20    3.10
  -6   6  11    7.90    2.30
  -6  -6  11   13.40    3.70
  -6   6 -11    6.00    2.90
   0  -7 -11   98.29    7.00
   0   7 -11  118.89   12.20
   0  -7  11  125.79    7.20
   0   7 -11  110.09    7.60
   0   7  11  113.99    6.60
   0  -7 -11  114.19    6.80
   0   7  11  115.09   10.90
   0  -7  11  109.49    7.10
  -1   7  11  171.78    8.50
   1  -7  11  169.68   10.40
  -1  -7 -11  162.88    9.30
  -1  -7 -11  170.38    8.80
   1   7 -11  168.78   15.00
   1  -7  11  165.08    8.80
  -1  -7 -11  173.68    9.40
  -1   7  11  145.79   14.90
  -1   7 -11  160.18    9.00
  -1  -7  11  161.68    9.00
   1  -7 -11  162.28    8.70
  -1   7 -11  168.58    9.10
   1  -7 -11  158.28    9.10
  -1  -7  11  160.98    8.80
  -1   7 -11  134.89   14.40
   1   7  11  165.48   13.30
   2  -7  11    4.30    2.30
  -2  -7 -11    2.50    2.50
  -2  -7 -11    3.30    2.20
  -2   7  11    5.00    2.20
  -2  -7 -11    2.50    2.60
  -2  -7  11    4.30    2.40
  -2  -7  11    5.70    3.90
   2  -7 -11    3.80    2.90
   2  -7 -11    2.00    2.00
  -2  -7  11    2.30    2.70
  -2   7 -11    3.50    2.00
  -3   7  11   57.09    5.60
  -3  -7 -11   40.20    5.10
  -3   7  11   48.50    5.80
  -3  -7 -11   56.09    8.10
   3  -7  11   49.70    6.80
  -3   7  11   51.09    4.50
  -3  -7  11   45.40    5.40
  -3   7 -11   33.70    6.30
  -3  -7  11   47.00    6.90
  -3  -7  11   37.60    5.30
   3  -7 -11   37.20    5.40
  -3   7 -11   37.30    4.70
  -4  -7 -11   50.19    6.30
  -4   7  11   51.89    5.90
  -4   7  11   49.30    6.40
  -4  -7 -11   58.49    5.90
  -4   7  11   50.29    4.60
  -4   7  11   49.50    7.20
  -4   7 -11   54.29    5.20
   4  -7 -11   58.59    7.00
  -4   7 -11   51.89    7.00
  -4  -7  11   45.90    6.50
  -4  -7  11   44.90    6.60
  -4  -7  11   58.59    7.90
  -5   7  11  170.38   11.90
  -5   7  11  186.88   10.80
  -5   7  11  176.78    8.90
  -5  -7 -11  185.08   10.40
  -5  -7  11  177.98   10.70
  -5   7 -11  171.58    9.80
  -5   7 -11  177.48   11.60
  -5  -7  11  182.98   11.30
  -6  -7 -11   87.89    7.80
   6   7 -11   84.49    6.60
  -6   7  11   97.69    5.40
  -6  -7 -11   92.59    6.60
  -6   7 -11   97.29    6.50
  -6  -7  11   94.79    7.60
   0   8 -11   41.00    6.00
   0   8  11   47.50    8.20
   0   8 -11   49.90    9.10
   0  -8  11   42.80    4.70
   0  -8  11   41.60    5.50
   0  -8 -11   49.00    4.90
   0  -8 -11   41.20    4.70
   1  -8  11   31.40    4.80
  -1   8  11   31.90    9.30
  -1  -8 -11   23.40    3.20
  -1   8  11   28.60    4.30
   1  -8  11   28.80    4.10
  -1  -8 -11   32.30    4.10
  -1  -8 -11   30.10    4.10
   1  -8 -11   31.70    4.60
  -1   8 -11   34.80    4.80
  -1  -8  11   29.50    3.60
   1  -8 -11   28.60    3.40
  -1  -8  11   33.40    4.90
  -2  -8 -11   52.99    6.40
   2  -8  11   51.99    5.50
  -2  -8 -11   53.49    5.90
  -2   8  11   56.09    5.00
  -2  -8  11   74.99    6.00
  -2  -8  11   81.49    6.80
  -3  -8 -11  173.08   11.30
  -3   8  11  164.98   10.30
  -3   8  11  164.68    8.80
   3  -8  11  171.18   10.00
  -3  -8 -11  165.58    9.90
  -3   8  11  181.48    9.60
  -3   8 -11  178.48    9.70
  -3  -8  11  161.98    9.50
  -3  -8  11  169.78   11.40
  -3  -8  11  174.58   11.20
   3  -8 -11  179.78   10.10
  -4  -8 -11   19.90    3.70
  -4   8  11   20.40    3.20
  -4   8  11   19.30    4.70
  -4   8  11   13.90    3.10
  -4  -8  11   25.10    4.70
  -4   8 -11   17.40    2.90
  -4  -8  11   20.80    4.00
   4  -8 -11   20.70    4.10
  -4  -8  11   12.90    4.20
  -5  -8 -11  106.09    7.40
  -5   8  11   87.29   10.40
  -5   8  11  108.49    7.70
  -5   8  11  102.19    6.20
  -5  -8  11  109.99    8.50
  -5  -8  11  112.69    8.10
  -5   8 -11  105.59    6.90
  -6   8  11   19.80    3.10
  -6  -8 -11   16.50    4.10
  -6  -8 -11   20.00    3.40
  -6  -8  11   26.20    4.60
  -6   8 -11   25.50    4.10
   0  -9  11    4.00    2.50
   0  -9 -11    7.80    2.30
   0  -9  11    4.70    2.50
   0   9 -11    5.70    3.10
   0  -9 -11    7.20    2.60
   1  -9  11   20.90    3.10
  -1  -9 -11   26.90    3.60
   1  -9  11   25.20    4.20
  -1  -9  11   27.70    3.60
  -1  -9  11   26.40    3.40
  -1   9 -11   30.70    4.80
   1  -9 -11   26.50    3.50
   1  -9 -11   30.00    3.90
  -2  -9 -11  171.78   10.10
   2  -9  11  178.58    9.70
  -2  -9 -11  170.58   10.50
  -2  -9  11  168.38   10.30
  -2  -9  11  168.88    9.50
   2  -9 -11  172.18    9.90
  -2   9 -11  193.08   10.00
  -3   9  11    7.70    3.30
   3  -9  11    8.00    3.10
  -3  -9 -11    8.70    3.00
  -3   9  11    7.20    2.60
  -3  -9 -11   12.10    4.00
  -3  -9  11   10.10    3.50
  -3  -9  11   10.30    4.40
   3  -9 -11    6.80    2.90
  -3   9 -11    8.10    2.50
  -3  -9  11    8.30    3.20
  -3  -9  11   12.30    4.70
  -4  -9 -11   20.30    3.90
  -4   9  11   16.60    3.20
  -4   9  11   16.40    3.00
  -4   9  11   10.60    4.70
  -4   9 -11   10.40    2.50
  -4  -9  11   10.70    3.50
  -4  -9  11   13.90    4.20
  -4  -9  11   13.30    4.50
  -5   9  11  185.08    9.00
  -5   9  11  190.28   10.50
  -5  -9 -11  187.88   10.40
  -5   9 -11  187.18   10.00
  -5  -9  11  188.78   10.60
  -5  -9  11  175.28   11.80
  -6  -9 -11    7.70    3.90
  -6  -9 -11    3.20    2.70
  -6   9 -11    6.60    2.60
   0 -10  11  408.96   18.20
   0 -10 -11  397.46   19.00
   0 -10  11  397.16   17.90
   1 -10  11   16.40    4.30
   1 -10  11   11.50    2.90
  -1 -10 -11    8.20    2.70
  -1 -10  11   11.50    3.00
  -1  10 -11    9.10    2.70
   1 -10 -11    5.40    2.40
  -1 -10  11    6.40    2.90
   2 -10  11  667.53   27.90
  -2 -10 -11  643.94   29.40
  -2  10  11  666.43   30.40
  -2 -10 -11  623.74   29.30
  -2 -10  11  656.83   28.20
  -2  10 -11  640.44   29.90
  -2 -10  11  654.23   27.70
   2 -10 -11  651.83   29.20
  -3  10  11   49.40    6.10
  -3 -10 -11   55.29    6.00
  -3 -10 -11   44.90    7.20
   3 -10  11   47.90    6.40
   3 -10 -11   51.39    6.70
  -3 -10  11   62.39    8.80
  -3 -10  11   50.09    6.50
  -3  10 -11   59.99    5.40
  -3 -10  11   59.49    6.20
  -4  10  11  100.69    7.20
  -4  10  11   90.29    6.30
   4 -10  11   85.79    8.80
  -4 -10 -11  108.09    7.40
  -4 -10  11   85.89    7.40
  -4 -10  11   90.99    9.80
  -4 -10  11   83.39    8.10
  -4  10 -11   85.69    6.40
  -5 -10 -11   45.30    5.20
  -5  10  11   51.39    5.00
  -5  10  11   52.19    4.60
  -5 -10  11   39.90    6.60
  -5 -10  11   46.70    6.40
  -5 -10  11   47.40    7.50
  -5  10 -11   48.40    4.60
   0 -11  11   59.89    6.50
   0 -11 -11   69.99    6.00
   0 -11  11   65.49    6.10
   1 -11  11   52.49    5.30
   1 -11  11   55.79    5.70
  -1 -11 -11   44.70    5.80
  -1  11  11   42.30    5.90
  -1 -11  11   42.60    6.00
  -1  11 -11   55.69    6.20
  -1 -11  11   48.10    5.90
   1 -11 -11   42.20    5.80
  -2 -11 -11  151.18    9.70
   2 -11  11  154.98    8.90
  -2 -11 -11  157.38    9.80
  -2  11  11  170.08    9.80
  -2  11 -11  149.69    9.00
  -2 -11  11  135.79    9.90
   2 -11 -11  138.59    9.30
  -2 -11  11  149.39    9.10
  -3  11  11   38.40    5.90
  -3 -11 -11   39.10    5.00
  -3  11  11   33.40    5.10
  -3 -11 -11   42.40    6.00
   3 -11  11   39.80    6.00
  -3 -11  11   33.10    4.40
   3 -11 -11   50.69    6.30
  -3  11 -11   37.70    4.80
  -3 -11  11   40.20    6.10
  -4 -11 -11   21.30    3.90
  -4  11  11   20.30    3.20
   4 -11  11   23.30    4.80
  -4 -11  11   25.10    4.90
  -4 -11  11   15.80    3.60
  -4  11 -11   23.90    4.00
  -5 -11 -11   36.10    5.00
  -5  11  11   26.30    4.10
  -5  11 -11   32.40    3.70
  -5 -11  11   25.00    6.30
  -5 -11  11   31.20    4.60
   0 -12  11  215.68   11.50
   0  12  11  214.38   12.30
   0 -12  11  227.98   11.60
   0 -12 -11  208.58   11.70
   1 -12  11   34.70    5.20
  -1  12  11   43.10    5.90
   1 -12  11   32.20    4.40
  -1 -12 -11   32.90    5.40
  -1 -12  11   42.10    4.80
  -1  12 -11   51.09    7.00
   1  12  11   44.40    5.30
  -1 -12  11   36.80    5.60
   1 -12 -11   48.00    5.90
   2 -12  11  192.58   10.40
  -2 -12 -11  182.58   11.10
  -2  12  11  195.08   11.20
  -2 -12  11  187.18   11.10
  -2  12 -11  195.68   10.70
  -2 -12  11  190.08   10.50
   2 -12 -11  193.78   10.90
  -3 -12 -11   71.89    7.30
   3 -12  11   70.69    6.70
  -3  12  11   63.49    6.50
  -3 -12 -11   67.89    7.20
  -3 -12  11   89.49    6.80
  -3 -12  11   92.39    7.60
  -3  12 -11   91.09    6.10
   3 -12 -11   76.89    7.60
  -4  12  11   66.29    5.40
  -4 -12 -11   50.49    6.00
   4 -12  11   63.99    7.50
  -4 -12  11   55.59    6.00
  -4 -12  11   54.99    6.90
  -4  12 -11   47.70    4.70
  -5  12  11    6.20    2.40
  -5 -12 -11    7.60    3.60
  -5 -12  11    7.70    5.00
   0 -13  11   20.20    4.00
   0  13  11   14.50    3.40
   0 -13  11   22.20    3.70
   0 -13 -11   17.20    3.30
  -1  13  11   78.99    7.10
   1 -13  11   83.29    6.70
  -1 -13 -11   80.99    6.80
  -1 -13  11   77.49    7.00
  -1 -13  11   77.19    7.00
   1 -13 -11   75.99    6.80
   2 -13  11   20.20    3.70
  -2 -13 -11   16.50    3.50
  -2  13  11   16.40    3.20
  -2 -13 -11   15.50    3.60
  -2 -13  11   15.80    4.00
   2 -13 -11   18.60    3.50
  -2 -13  11   17.30    4.50
  -2  13 -11   13.20    3.00
  -2 -13  11   11.10    3.30
   3 -13  11   14.10    3.40
  -3  13  11   14.40    3.00
  -3 -13 -11   13.20    3.50
  -3 -13 -11   21.40    4.80
  -3 -13  11   14.60    4.00
  -3  13 -11   17.90    3.10
   3 -13 -11   16.10    4.00
  -3 -13  11   18.20    3.80
  -4  13  11  107.19    6.80
   4 -13  11  101.59    8.60
  -4 -13 -11   88.19    7.80
  -4 -13  11  110.49    7.40
  -4 -13  11  106.99    8.20
  -4  13 -11  105.09    6.40
   0 -14  11   26.70    3.80
   0 -14 -11   33.30    5.00
   0 -14  11   28.50    4.10
   0  14  11   26.40    4.10
   1 -14  11  210.88   11.00
  -1 -14 -11  208.88   11.50
  -1  14  11  216.08   11.80
  -1 -14  11  204.98   11.00
  -1 -14  11  201.78   11.10
   1 -14 -11  203.38   11.30
   2 -14  11   19.90    3.40
  -2 -14 -11   24.90    4.00
  -2 -14 -11   21.30    3.60
  -2  14  11   19.00    3.10
  -2 -14  11   16.20    3.30
   2 -14 -11   23.60    3.70
  -2 -14  11   19.50    4.10
  -2  14 -11   20.00    3.40
  -2 -14  11   18.50    4.50
  -3  14  11  123.59    7.30
  -3 -14 -11  118.39    7.80
   3 -14  11  112.79    7.40
  -3 -14  11  104.69    7.30
  -3 -14  11   96.59    7.80
  -3  14 -11   98.39    7.00
  -4  14  11   22.10    3.60
  -4 -14  11   25.80    4.60
  -4  14 -11   22.90    3.50
  -4 -14  11   19.80    3.70
   0 -15  11   22.60    4.30
   0 -15  11   20.50    3.70
   0 -15 -11   17.20    3.30
  -1 -15 -11   12.00    2.80
  -1 -15 -11   16.40    3.30
   1 -15  11   18.60    3.50
  -1  15  11   12.00    3.10
   1 -15 -11   10.60    2.90
  -1 -15  11   14.40    3.70
  -1 -15  11   16.10    3.80
  -1 -15  11   15.00    3.50
  -2  15  11   13.50    3.00
   2 -15  11   16.60    3.20
  -2 -15 -11   18.70    3.30
  -2 -15 -11   19.40    3.90
   2 -15 -11   10.90    3.30
  -2 -15  11   13.70    3.40
  -3 -15 -11    4.40    2.90
  -3  15  11    5.20    2.30
   3 -15  11   10.50    3.20
  -3 -15  11    5.10    3.20
  -3  15 -11    5.40    2.90
  -3 -15  11    3.00    3.20
   0 -16  11   94.79    6.70
   0 -16 -11   93.29    6.60
   0 -16  11   93.79    7.30
   0 -16 -11   89.39    6.30
   0 -16  11   88.69    8.30
  -1  16  11   80.69    7.10
  -1 -16 -11   80.79    6.20
   1 -16  11   82.89    6.00
  -1 -16 -11   74.19    6.20
  -1 -16  11   82.19    6.70
  -1 -16  11   90.29    7.10
   1 -16 -11   82.99    6.30
  -1 -16  11   85.99    6.90
  -2  16  11  125.59    7.80
  -2 -16 -11  124.69    8.40
  -2 -16  11  131.49    8.00
   2 -16 -11  123.19    8.70
  -2 -16  11  131.99    8.30
  -3  16  11   90.09    5.90
  -3 -16 -11   86.69    6.70
  -3 -16  11   90.59    6.40
   0 -17  11   79.19    7.20
   0 -17  11   70.29    6.00
   0 -17 -11   71.49    5.80
   0 -17 -11   83.69    5.90
  -1 -17 -11   44.50    4.60
  -1 -17 -11   38.90    5.20
   1 -17  11   50.19    4.90
  -1 -17  11   57.59    6.70
  -1 -17  11   41.80    4.90
   1 -17 -11   41.70    5.10
  -2 -17 -11  115.89    7.10
   2 -17  11  130.39    7.10
   0   0 -12  262.37   11.90
   0   0 -12  266.77   12.60
   0   0  12  272.47   12.50
   0   0  12  271.17   13.60
   0   0  12  260.07   12.40
  -1   0  12  158.88   10.20
  -1   0  12  152.88    8.50
  -1   0  12  152.08    8.30
   1   0 -12  164.38    7.70
   1   0  12  165.48    9.40
  -1   0 -12  158.88    8.20
  -1   0 -12  154.38    8.40
  -1   0 -12  160.28    8.00
  -2   0 -12  193.38    9.70
  -2   0 -12  178.88    9.60
   2   0 -12  163.48    8.80
  -2   0  12  188.58    9.80
  -2   0  12  183.48    9.30
  -2   0 -12  187.58    9.30
   2   0 -12  190.78   12.30
  -3   0 -12  100.89    6.60
  -3   0  12  105.19    7.90
   3   0 -12  103.59    6.20
  -3   0  12   97.69    7.60
  -3   0 -12  105.49    8.00
  -3   0  12  103.49    7.10
  -3   0 -12  103.49    6.70
  -4   0  12  102.19    7.50
  -4   0 -12  108.29    7.40
  -4   0  12  100.39   12.90
   4   0 -12  107.39    6.90
  -4   0  12  107.19    8.60
  -4   0  12  106.69    8.60
  -4   0 -12  113.19    8.90
  -4   0 -12  110.19    7.20
  -5   0  12  277.87   13.60
  -5   0 -12  275.97   13.90
  -5   0 -12  261.17   14.30
  -5   0  12  275.57   15.90
  -6   0 -12   58.49    6.90
  -6   0  12   64.09    4.70
  -6   0 -12   65.19    5.70
  -6   0  12   58.29    6.80
   0  -1  12  269.57   12.40
   0   1 -12  283.07   12.10
   0  -1 -12  274.37   12.10
   0   1 -12  276.47   12.80
   0  -1 -12  277.57   12.70
   0   1  12  258.17   13.60
   0   1  12  253.17   12.50
   0   1  12  282.67   12.70
   0  -1  12  259.57   12.60
  -1  -1 -12  339.97   15.10
  -1  -1 -12  336.97   15.60
  -1   1  12  337.47   15.00
  -1   1  12  356.76   15.40
  -1  -1 -12  320.47   16.10
   1   1 -12  356.36   17.80
   1  -1  12  360.26   15.50
  -1   1  12  329.97   17.00
   1   1 -12  359.96   15.00
   1  -1 -12  344.57   14.90
  -1   1 -12  347.77   15.10
  -1   1 -12  342.87   18.40
  -1   1 -12  351.76   16.20
  -1  -1  12  337.17   15.30
  -1   1 -12  336.87   15.50
  -1  -1  12  337.57   15.10
   1   1  12  319.97   15.60
   1   1  12  349.17   16.40
   2  -1  12  123.59    9.20
  -2  -1 -12  117.29    7.20
   2   1 -12  132.09   10.10
  -2   1  12  121.09   11.00
  -2   1  12  119.79    7.00
  -2  -1 -12  119.49    7.00
  -2  -1 -12  126.19    7.00
  -2  -1  12  112.49    7.00
  -2   1 -12  113.99    6.80
  -2   1 -12  118.19    6.70
   2   1  12  114.69    8.90
  -2  -1  12  125.49    7.20
  -2   1 -12  107.79    7.30
  -3  -1 -12   42.50    4.80
  -3  -1 -12   39.00    6.10
  -3  -1 -12   39.00    4.80
  -3   1  12   38.90    5.70
  -3   1  12   50.89    5.80
  -3   1  12   35.70    4.80
  -3  -1  12   42.20    5.30
  -3   1 -12   47.90    4.80
  -3   1 -12   53.29    6.50
  -3   1 -12   47.10    4.30
   3  -1 -12   44.00    4.40
  -3  -1  12   52.19    5.20
  -3  -1  12   46.40    6.00
  -4   1  12  108.29    8.40
  -4   1  12  114.89   13.70
  -4   1  12  106.49    8.80
   4   1 -12  108.79    6.80
  -4  -1 -12  111.39    7.60
  -4   1  12  105.39    7.60
  -4  -1 -12  101.79    7.00
   4  -1 -12  106.49    7.00
  -4   1 -12  114.99    9.10
  -4   1 -12  120.59    7.50
  -4  -1  12  123.19    9.00
  -4  -1  12  104.59    8.70
  -4   1 -12  116.49    7.30
  -4  -1  12  116.99   14.00
  -4  -1  12  124.09    8.20
  -5   1  12  257.37   11.80
  -5  -1 -12  252.77   12.90
  -5   1  12  242.48   14.90
  -5   1  12  276.87   13.00
  -5  -1 -12  283.07   15.60
  -5  -1  12  242.18   12.80
  -5   1 -12  235.48   13.10
  -5   1 -12  250.37   12.90
  -5  -1  12  223.48   14.50
  -5   1 -12  237.88   15.10
  -6   1  12   30.60    3.50
  -6  -1 -12   30.00    4.00
  -6   1  12   20.10    4.30
  -6  -1 -12   30.90    4.70
  -6  -1  12   19.70    4.40
  -6   1 -12   23.30    4.40
  -6   1 -12   29.90    3.90
  -6  -1  12   28.00    3.60
   0  -2 -12    3.20    2.40
   0   2 -12    1.10    1.40
   0   2 -12    3.50    1.80
   0   2  12    1.40    2.20
   0   2 -12    2.00    3.30
   0  -2  12    1.60    2.70
   0  -2 -12    3.40    1.50
   0   2  12   -0.20    2.10
   0   2  12    1.90    2.90
   0  -2  12    3.50    2.10
   1  -2  12  307.27   14.00
  -1   2  12  262.57   15.10
  -1  -2 -12  310.37   13.60
  -1   2  12  331.17   13.70
   1   2 -12  325.07   16.20
  -1  -2 -12  295.77   14.70
  -1   2  12  334.77   14.00
  -1  -2 -12  313.77   14.10
   1   2  12  288.37   14.30
  -1  -2  12  310.67   13.90
  -1   2 -12  309.17   13.60
  -1  -2  12  308.57   13.90
  -1   2 -12  296.37   16.80
   1  -2 -12  290.87   13.40
  -1   2 -12  287.67   13.90
  -1   2 -12  295.67   14.50
   1   2  12  300.07   15.00
   1   2  12  276.17   14.40
  -2   2  12  647.24   26.90
   2  -2  12  644.34   27.60
  -2  -2 -12  688.43   28.60
  -2   2  12  650.43   27.50
  -2   2  12  630.64   30.10
   2   2 -12  620.94   30.20
  -2  -2 -12  603.34   27.40
  -2  -2  12  599.94   27.20
   2   2  12  654.13   29.10
  -2  -2  12  695.53   27.20
  -2   2 -12  686.23   28.50
  -2   2 -12  658.53   27.50
  -2   2 -12  655.23   32.70
  -2   2 -12  620.04   29.30
  -2  -2  12  675.83   31.20
   2  -2 -12  656.13   27.20
  -3  -2 -12  122.09    6.90
  -3   2  12  124.09    7.70
  -3   2  12  112.19    7.20
  -3  -2 -12  123.19    7.70
   3  -2 -12  102.49    6.40
  -3   2 -12  106.89    6.90
  -3  -2  12  103.79    8.00
  -3   2 -12   92.29    8.50
  -3   2 -12   98.79    6.50
  -3  -2  12  107.49    7.80
   3   2  12  106.19   11.60
  -3  -2  12   98.79    7.20
  -4   2  12  302.47   17.10
  -4   2  12  302.67   14.70
  -4   2  12  273.67   17.00
  -4  -2 -12  299.67   15.30
  -4  -2  12  322.97   15.90
  -4   2 -12  319.87   15.30
  -4   2 -12  332.07   15.70
  -4  -2  12  323.57   15.10
   4  -2 -12  304.47   14.70
  -4   2 -12  340.47   18.00
  -4  -2  12  343.27   23.80
  -4  -2  12  311.67   17.10
   5   2 -12   27.50    3.90
  -5   2  12   24.60    3.70
  -5   2  12   29.20    4.00
  -5  -2 -12   32.20    4.90
  -5   2  12   21.50    4.30
  -5  -2 -12   20.80    4.40
  -5  -2  12   24.50    4.40
  -5   2 -12   28.90    4.70
  -5   2 -12   20.10    3.40
  -5  -2  12   19.70    4.10
  -5   2 -12   24.60    3.60
  -6   2  12    4.40    2.30
  -6   2  12   -1.30    3.40
  -6  -2 -12    2.80    2.80
  -6  -2 -12    2.00    3.60
  -6  -2  12    2.20    2.10
  -6   2 -12    0.00    3.40
  -6   2 -12    1.80    3.10
  -6  -2  12   -1.10    3.40
   0  -3  12    3.60    2.70
   0   3  12    1.90    2.00
   0  -3  12    0.80    2.10
   0  -3 -12    4.60    2.70
   0   3  12    0.30    2.30
   0   3 -12    2.70    3.60
   0  -3 -12    3.30    1.70
   0   3  12   -3.90    3.00
   0   3 -12    2.20    1.40
   0   3 -12    1.00    1.90
   0  -3 -12   -1.10    1.40
  -1  -3 -12  417.16   18.60
   1   3 -12  398.26   20.10
  -1   3  12  408.06   17.80
   1  -3  12  422.46   17.90
  -1   3  12  408.96   17.40
  -1   3  12  392.46   19.60
  -1  -3 -12  405.06   18.30
  -1  -3 -12  401.56   17.70
  -1   3 -12  400.16   20.40
   1  -3 -12  400.76   17.50
   1   3  12  385.76   17.70
   1   3  12  413.56   19.50
  -1   3 -12  419.06   18.30
   1   3  12  385.06   18.20
  -1   3 -12  399.26   18.80
  -1   3 -12  429.26   17.60
  -1  -3  12  391.56   17.70
  -1  -3  12  410.26   17.50
  -2   3  12    8.50    5.60
   2   3 -12   12.50    5.00
   2  -3  12    9.70    3.00
  -2   3  12    6.10    2.40
  -2   3  12    4.60    2.30
  -2  -3 -12    3.10    3.40
  -2   3 -12   10.30    2.20
  -2  -3  12    6.50    2.70
  -2  -3  12   15.40    2.90
  -2   3 -12   13.30    3.10
  -2   3 -12    9.60    3.50
   2   3  12   10.30    4.50
  -2  -3  12   13.20    2.60
   2  -3 -12   11.80    2.20
  -2   3 -12   11.90    2.20
  -3  -3 -12  279.67   14.40
  -3   3  12  285.67   14.30
  -3  -3 -12  294.67   14.30
  -3   3  12  283.57   13.70
  -3  -3  12  301.37   15.80
  -3  -3  12  288.97   17.80
  -3   3 -12  304.87   14.40
   3  -3 -12  297.77   13.70
  -3   3 -12  296.77   16.70
  -3   3 -12  306.67   14.70
  -3  -3  12  300.07   14.00
  -3  -3  12  326.97   14.60
  -4   3  12   57.29    7.40
  -4   3  12   48.80    4.20
  -4   3  12   47.40    6.50
  -4   3  12   39.00    5.50
  -4  -3 -12   44.60    5.10
  -4   3 -12   42.40    4.90
  -4  -3  12   51.29    6.30
  -4   3 -12   47.20    5.10
  -4   3 -12   42.90    6.50
  -4  -3  12   40.50    5.10
  -4  -3  12   50.09    6.60
  -5  -3 -12   56.69    7.70
  -5   3  12   64.39    7.10
  -5   3  12   59.59    4.90
  -5  -3 -12   64.09    5.80
  -5   3  12   68.29    7.00
   5  -3 -12   74.39    7.10
  -5   3 -12   66.89    6.00
  -5  -3  12   70.09    7.10
  -5   3 -12   72.69    6.00
  -5  -3  12   56.69    7.20
  -5   3 -12   64.69    7.30
  -6   3  12  115.19    6.30
  -6   3  12   98.69    8.70
  -6  -3 -12  112.59    7.40
  -6  -3 -12  114.99    8.80
  -6  -3  12  115.79    8.70
  -6   3 -12  106.09    8.00
  -6   3 -12  115.19    8.60
  -6   3 -12  117.49    8.40
  -6  -3  12  117.99    6.50
   0  -4  12   33.80    3.80
   0   4  12   28.80    3.10
   0   4  12   28.70    4.70
   0   4 -12   27.40    5.00
   0  -4 -12   31.70    3.50
   0  -4 -12   34.40    4.10
   0   4 -12   35.80    3.30
   0   4 -12   29.90    4.40
   0  -4  12   34.90    4.60
   0   4  12   27.20    3.30
  -1  -4 -12  126.09    7.30
  -1   4  12  132.09   10.00
  -1   4  12  144.09    8.00
  -1   4  12  132.39    7.30
   1  -4  12  130.89    7.60
  -1  -4 -12  133.69    8.20
  -1  -4 -12  123.89    7.70
   1   4 -12  151.58   10.80
   1   4  12  125.79    9.20
  -1   4 -12  137.09   12.20
   1   4  12  136.09    9.90
   1   4  12  133.99    8.20
  -1  -4  12  131.79    7.60
  -1   4 -12  141.19    7.40
   1  -4 -12  132.79    7.20
  -1  -4  12  130.79    7.80
   1  -4 -12  142.69    7.60
  -1  -4  12  128.59    9.20
  -1   4 -12  140.19    7.70
  -1   4 -12  140.49    7.40
  -2   4  12  593.44   24.50
  -2   4  12  598.54   25.10
  -2  -4 -12  596.94   26.10
   2   4 -12  563.04   28.70
  -2  -4 -12  514.05   26.30
   2  -4  12  555.64   25.00
  -2  -4 -12  576.34   25.10
  -2   4 -12  626.94   26.10
  -2  -4  12  615.04   24.80
  -2   4 -12  582.44   29.80
  -2  -4  12  586.94   25.00
  -2  -4  12  586.74   28.40
   2   4  12  559.64   27.20
  -2   4 -12  612.04   26.80
   2  -4 -12  609.04   24.80
  -3  -4 -12   96.49    6.60
  -3  -4 -12  102.19    6.90
  -3   4  12   96.19    5.60
  -3   4  12   96.29    6.30
   3  -4 -12   90.59    6.60
  -3   4 -12   83.39    7.80
  -3   4 -12   89.99    6.30
  -3  -4  12   81.79    7.50
  -3  -4  12   83.69    7.60
  -3  -4  12   76.89    9.70
  -3   4 -12   83.59    6.10
  -3  -4  12   80.89    6.90
  -4  -4 -12  186.38   10.30
  -4   4  12  147.49   11.20
  -4   4  12  184.78   10.00
  -4   4  12  184.78   11.40
  -4   4  12  171.58    8.90
   4  -4 -12  187.88   10.10
  -4   4 -12  175.68   10.00
  -4  -4  12  176.58   12.10
  -4   4 -12  181.38   10.00
  -4   4 -12  175.58   11.60
  -4  -4  12  185.18   11.50
  -4  -4  12  181.28   10.30
  -5   4  12   89.89    8.20
  -5   4  12   97.99    7.40
  -5   4  12   91.09    5.80
  -5  -4 -12   96.09    7.00
  -5   4 -12   83.79    7.90
  -5  -4  12   79.69    7.80
  -5  -4  12   80.89    8.10
  -5   4 -12   92.99    6.70
  -5   4 -12   91.19    7.00
  -6   4  12   10.60    2.40
  -6  -4 -12    2.40    2.80
  -6  -4 -12    4.40    3.40
  -6   4  12    1.80    4.00
  -6  -4  12    3.40    3.50
  -6   4 -12    5.40    3.30
  -6   4 -12    6.90    3.50
  -6  -4  12    4.90    2.40
   0   5  12 2894.91  113.99
   0   5 -12 2861.31  124.29
   0   5 -12 2932.61  118.39
   0  -5  12 2542.55  113.79
   0  -5 -12 2970.20  115.49
   0   5  12 2859.71  111.99
   0  -5 -12 2990.60  119.79
   0  -5  12 2865.91  112.09
   0   5  12 2876.11  117.69
  -1   5  12   30.50    5.70
  -1   5  12   36.20    5.10
  -1  -5 -12   32.00    5.20
   1   5 -12   35.50    6.00
   1  -5  12   40.00    4.90
  -1  -5 -12   37.50    5.10
  -1  -5 -12   35.60    3.80
   1  -5 -12   23.20    3.10
   1  -5 -12   26.20    3.70
  -1   5 -12   32.00    3.30
  -1  -5  12   24.30    4.00
  -1   5 -12   26.50    6.20
  -1  -5  12   23.20    3.20
  -1   5 -12   27.50    4.20
  -1  -5  12   24.00    3.30
   1   5  12   19.80    3.70
   1   5  12   27.60    5.00
  -2   5  12   10.60    2.50
  -2   5  12   14.10    2.90
  -2  -5 -12   11.30    2.50
   2  -5  12   10.50    2.80
  -2   5  12   11.80    2.70
  -2  -5 -12    8.90    2.50
  -2  -5 -12   10.10    3.10
  -2  -5  12    8.10    2.60
  -2  -5  12    8.40    3.00
  -2   5 -12   10.70    2.40
   2   5  12   -3.70    5.00
   2  -5 -12    9.60    2.20
   2  -5 -12    9.20    2.50
  -2   5 -12   11.30    2.30
  -2  -5  12    9.40    2.60
  -2   5 -12    8.90    3.40
   3  -5  12   67.29    8.90
  -3   5  12   77.19    5.60
  -3  -5 -12   75.29    6.10
  -3   5  12   80.99    6.20
  -3  -5  12  117.79   14.60
   3  -5 -12   89.29    7.80
  -3   5 -12   93.39    6.10
  -3  -5  12   91.89    8.00
   3  -5 -12   94.39    6.60
  -3   5 -12   87.99    7.90
  -3  -5  12   88.59    7.00
  -3  -5  12   96.99    7.90
  -3   5 -12   97.39    6.50
  -4   5  12  120.69   10.20
  -4   5  12  141.69    9.90
  -4   5  12  150.48    8.00
  -4  -5 -12  148.89    9.10
  -4   5  12  155.38    9.20
  -4  -5  12  155.08   10.40
  -4   5 -12  147.59    8.80
  -4   5 -12  157.98    9.00
   4  -5 -12  148.89    9.40
  -4   5 -12  155.58   10.40
  -4  -5  12  161.48    9.50
  -5   5  12   50.59    8.10
  -5  -5 -12   50.59    5.60
  -5   5  12   63.29    7.10
  -5   5  12   50.29    4.60
  -5   5  12   46.20    6.50
  -5   5 -12   56.19    5.50
  -5  -5  12   65.69    6.90
  -5   5 -12   54.19    6.70
  -5  -5  12   54.69    6.90
  -6   5  12   49.20    7.80
  -6  -5 -12   58.49    6.50
  -6   5  12   48.50    4.10
  -6  -5 -12   51.09    5.10
  -6   5 -12   46.00    5.70
  -6   5 -12   52.99    5.80
  -6  -5  12   38.30    6.00
   0  -6 -12   76.49    5.80
   0  -6  12   59.39    5.50
   0   6  12   77.09    9.40
   0   6 -12   68.89   10.80
   0  -6 -12   59.59    5.10
   0  -6  12   55.89    6.10
   0   6 -12   56.39    5.80
   0   6  12   71.79    5.60
  -1   6  12  178.98   15.40
  -1  -6 -12  180.88    9.20
   1   6 -12  171.18   14.40
  -1  -6 -12  194.98   10.20
   1  -6  12  183.38    9.60
  -1   6  12  189.18    9.10
  -1  -6 -12  181.28   10.00
   1  -6 -12  180.98    9.30
   1  -6 -12  184.88    9.60
  -1   6 -12  169.88    9.50
  -1   6 -12  173.78   16.40
  -1  -6  12  183.68    9.60
  -1  -6  12  181.48    9.60
   1   6  12  183.68   12.80
  -1   6 -12  178.98    9.80
  -2  -6 -12   39.10    4.90
   2  -6  12   36.40    5.50
  -2  -6 -12   43.10    6.20
  -2   6  12   38.20    4.60
  -2  -6 -12   43.40    4.90
  -2  -6  12   39.30    5.60
  -2  -6  12   42.60    7.40
   2  -6 -12   31.30    3.70
  -2   6 -12   30.70    4.20
  -2  -6  12   41.50    5.10
  -2  -6  12   29.90    3.80
   2  -6 -12   29.60    4.70
  -2   6 -12   38.90    4.90
  -3   6  12  145.29    8.30
   3  -6  12  151.28    9.90
  -3  -6 -12  135.19    8.50
  -3   6  12  136.69    7.60
   3  -6 -12  146.09    8.60
  -3   6 -12  146.39    8.50
  -3  -6  12  145.69    8.90
  -3  -6  12  118.59   18.20
  -3  -6  12  136.99    9.60
  -3   6 -12  149.29   10.30
  -3  -6  12  137.79    9.80
  -4   6  12   23.20    4.00
  -4   6  12   24.20    3.60
  -4   6  12   23.20    3.40
  -4  -6 -12   22.00    3.80
  -4   6  12   19.60    4.20
  -4  -6  12   20.20    5.30
  -4  -6  12   15.90    4.10
  -4   6 -12   18.30    4.50
   4  -6 -12   13.00    3.30
  -4   6 -12   15.20    3.00
  -4  -6  12   17.30    3.80
  -5   6  12   28.60    3.50
  -5  -6 -12   21.40    3.70
  -5   6  12   20.50    3.80
  -5   6  12   24.80    4.20
  -5   6  12   37.00    6.40
  -5   6 -12   31.60    4.50
  -5  -6  12   24.10    4.40
  -5  -6  12   31.10    4.60
  -5   6 -12   26.90    4.60
  -6  -6 -12  123.99    9.10
  -6   6  12  127.69    6.70
  -6   6 -12  138.49    7.90
  -6  -6  12  137.99    9.00
   0  -7  12    4.30    2.60
   0   7  12   -4.10    6.30
   0  -7 -12   -0.10    1.90
   0  -7  12    0.70    2.30
   0  -7 -12   -1.60    1.80
   0   7 -12    1.20    7.10
   0   7 -12   -1.70    2.30
   0   7  12    2.30    2.20
  -1   7  12   68.39   10.50
  -1   7  12   75.29    5.30
  -1  -7 -12   75.09    5.60
   1  -7  12   72.09    5.40
  -1  -7 -12   74.09    5.80
  -1  -7 -12   67.89    6.70
   1  -7 -12   60.39    5.70
  -1  -7  12   56.19    5.90
   1  -7 -12   55.89    5.60
  -1   7 -12   46.70    6.30
  -1   7 -12   64.19    5.50
  -1  -7  12   64.89    5.80
  -1   7 -12   53.79    9.70
  -2  -7 -12   47.70    5.20
   2  -7  12   48.00    5.70
  -2  -7 -12   36.80    6.10
  -2  -7 -12   41.40    5.50
  -2   7  12   49.80    5.20
   2  -7 -12   43.40    6.20
  -2   7 -12   45.40    4.80
   2  -7 -12   45.20    5.00
  -2  -7  12   40.40    5.50
  -2  -7  12   42.70    5.70
  -2  -7  12   43.60    5.00
  -3   7  12   51.69    5.40
   3  -7  12   47.50    6.90
  -3  -7 -12   36.60    5.50
  -3   7  12   47.70    4.80
  -3   7  12   38.50    5.80
  -3  -7 -12   52.19    8.00
  -3  -7  12   51.69    7.20
  -3   7 -12   40.20    5.10
  -3  -7  12   44.40    5.20
   3  -7 -12   37.90    5.60
  -3   7 -12   44.80    4.90
  -3  -7  12   40.70    5.80
  -4   7  12  279.77   13.20
  -4   7  12  273.67   12.40
  -4  -7 -12  259.97   14.00
  -4   7  12  303.67   14.70
  -4   7  12  266.37   15.50
  -4   7 -12  263.77   15.80
  -4  -7  12  262.57   15.40
  -4   7 -12  271.47   13.90
   4  -7 -12  267.97   14.10
  -4  -7  12  277.47   15.10
  -4  -7  12  261.67   13.80
  -5   7  12   49.50    7.40
  -5   7  12   49.40    6.30
  -5   7  12   47.20    4.20
  -5  -7 -12   40.30    5.20
  -5  -7  12   29.80    4.80
  -5   7 -12   40.90    4.70
  -5  -7  12   42.20    5.40
  -6  -7 -12   66.89    5.60
  -6  -7 -12   62.39    6.60
   6   7 -12   67.79    6.10
  -6   7  12   69.69    4.70
  -6  -7  12   60.89    6.80
  -6   7 -12   59.39    5.20
   0  -8 -12   -0.50    2.00
   0  -8  12    1.90    2.60
   0   8 -12    1.80    2.60
   0  -8 -12   -1.40    2.00
   0  -8  12    2.40    2.20
  -1  -8 -12  276.07   13.40
  -1  -8 -12  272.17   14.10
  -1  -8 -12  259.77   14.80
  -1   8  12  265.17   13.00
   1  -8  12  265.17   13.30
  -1  -8  12  300.17   13.50
  -1   8 -12  301.87   14.30
   1  -8 -12  298.07   14.00
   1  -8 -12  287.07   13.50
  -1  -8  12  288.57   13.20
  -2  -8 -12   11.00    3.20
  -2  -8 -12    6.40    3.10
   2  -8  12    7.50    3.00
  -2   8  12    7.70    2.60
  -2   8 -12   11.00    2.50
  -2  -8  12    9.60    2.80
   2  -8 -12   14.30    2.90
   2  -8 -12    9.30    3.70
  -2  -8  12   13.10    3.30
  -3   8  12   57.89    6.20
   3  -8  12   43.80    6.60
  -3   8  12   50.49    5.60
  -3  -8 -12   39.60    5.10
  -3  -8 -12   44.40    5.70
  -3   8  12   54.79    5.30
  -3  -8  12   44.50    6.00
  -3  -8  12   38.30    5.40
  -3  -8  12   39.60    5.50
   3  -8 -12   45.00    5.70
  -3   8 -12   42.50    4.80
  -4   8  12   39.00    5.70
  -4  -8 -12   51.19    5.70
  -4   8  12   43.60    5.90
  -4   8  12   47.60    7.30
  -4   8  12   42.40    4.80
  -4   8 -12   53.79    5.20
  -4  -8  12   57.79    6.50
   4  -8 -12   58.39    6.70
  -4  -8  12   38.50    5.50
  -5   8  12   26.20    5.90
  -5   8  12   38.20    4.20
  -5  -8 -12   42.90    5.10
  -5   8  12   40.50    5.60
  -5  -8  12   33.40    4.60
  -5  -8  12   43.10    6.70
  -5   8 -12   37.40    4.50
  -6  -8 -12  101.79    6.70
  -6  -8 -12   94.69    7.80
  -6  -8  12   98.69    8.20
  -6   8 -12   91.79    6.20
   0   9 -12   46.10    7.10
   0  -9  12   49.50    6.00
   0  -9 -12   48.70    5.30
   0  -9  12   43.50    5.10
   0  -9 -12   52.99    5.30
  -1  -9 -12  230.68   12.00
  -1  -9 -12  239.38   12.40
   1  -9  12  247.58   11.90
  -1  -9  12  242.38   12.00
   1  -9 -12  239.28   12.50
   1  -9 -12  252.37   12.40
  -1  -9  12  228.28   12.10
  -1   9 -12  245.58   12.70
  -2  -9 -12   40.60    6.30
   2  -9  12   43.90    5.50
  -2  -9 -12   49.60    6.20
  -2  -9  12   43.00    5.50
   2  -9 -12   44.00    5.40
  -2   9 -12   43.20    5.10
  -2  -9  12   39.20    4.60
  -3  -9 -12  337.07   16.80
  -3  -9 -12  304.77   17.50
  -3   9  12  353.86   17.30
   3  -9  12  357.56   16.20
   3  -9 -12  348.07   16.70
  -3   9 -12  338.97   16.80
  -3  -9  12  343.47   17.10
  -3  -9  12  371.36   16.40
  -3  -9  12  307.17   17.10
  -4   9  12   21.30    3.80
  -4  -9 -12   22.80    4.20
  -4   9  12   17.30    5.00
  -4   9  12   20.70    3.60
  -4   9 -12   22.20    3.30
  -4  -9  12   28.00    5.20
   4  -9 -12   18.60    4.30
  -4  -9  12   29.20    5.10
  -4  -9  12   22.20    4.10
  -5   9  12   29.60    4.00
  -5   9  12   33.70    3.80
  -5  -9 -12   24.90    4.00
  -5  -9  12   40.50    6.80
  -5   9 -12   32.90    4.10
  -5  -9  12   39.80    4.90
  -6   9 -12   18.90    3.00
   0 -10  12   46.70    6.20
   0 -10 -12   50.39    5.20
   0 -10  12   44.00    5.20
  -1 -10 -12   48.50    6.00
   1 -10  12   51.19    5.40
   1 -10 -12   47.70    5.70
  -1 -10  12   43.20    5.80
  -1  10 -12   45.50    5.90
  -1 -10  12   43.90    5.40
   1 -10 -12   45.30    6.20
  -2 -10 -12  129.79    9.30
   2 -10  12  126.79    8.40
  -2 -10 -12  127.59    9.10
  -2  10  12  134.19    8.80
  -2 -10  12  138.69    8.40
   2 -10 -12  144.29    8.70
  -2  10 -12  143.19    8.50
  -2 -10  12  134.89    9.10
  -3  10  12  204.38   11.90
   3 -10  12  222.48   11.50
  -3 -10 -12  194.98   12.30
  -3 -10 -12  209.48   11.70
  -3  10 -12  220.28   11.40
  -3 -10  12  205.08   12.70
  -3 -10  12  199.18   12.10
   3 -10 -12  222.08   11.80
  -3 -10  12  217.38   11.50
  -4 -10 -12   49.90    5.70
  -4  10  12   49.60    5.60
  -4  10 -12   58.29    5.20
  -4 -10  12   54.19    6.40
  -4 -10  12   56.89    7.50
  -5  10  12   16.90    3.20
  -5 -10 -12   13.50    3.30
  -5  10 -12   11.90    2.60
  -5 -10  12   18.00    4.20
   0 -11  12  448.46   20.10
   0 -11  12  464.25   20.40
   0 -11 -12  440.36   21.10
   1 -11  12  290.57   14.60
  -1 -11 -12  293.47   15.20
  -1 -11  12  289.67   14.70
  -1 -11  12  311.67   14.50
  -1  11 -12  313.97   15.40
   1 -11 -12  313.77   15.20
   2 -11  12   48.70    5.70
  -2 -11 -12   56.19    6.10
  -2 -11 -12   55.49    7.50
  -2  11  12   37.90    5.80
  -2 -11  12   34.60    4.40
   2 -11 -12   42.10    4.70
  -2 -11  12   47.20    6.70
  -2  11 -12   37.90    5.40
  -3  11  12   50.39    5.70
  -3 -11 -12   54.09    7.40
  -3  11  12   51.19    7.80
   3 -11  12   51.79    6.20
  -3 -11 -12   58.49    6.70
  -3  11 -12   48.20    5.20
   3 -11 -12   61.69    6.50
  -3 -11  12   58.69    6.40
  -3 -11  12   52.19    6.60
  -4  11  12   33.00    4.80
  -4 -11 -12   31.30    4.30
  -4 -11  12   32.40    4.50
  -4  11 -12   29.30    4.10
  -4 -11  12   25.40    4.70
  -5 -11 -12    8.20    3.20
  -5  11  12    8.30    2.60
  -5  11 -12   12.90    2.40
  -5 -11  12   13.50    4.30
   0  12  12   74.39    7.00
   0 -12  12   80.79    7.30
   0 -12  12   61.29    6.30
   0 -12 -12   77.19    6.50
   1 -12  12   55.69    5.60
  -1  12  12   45.80    6.10
  -1 -12 -12   58.29    6.00
   1  12  12   59.89    7.60
  -1 -12  12   55.19    6.40
  -1  12 -12   49.10    6.60
   1 -12 -12   52.29    5.60
  -1 -12  12   45.30    5.80
  -2  12  12   68.19    6.40
   2 -12  12   67.09    6.20
  -2 -12 -12   70.89    6.70
  -2 -12  12   63.99    7.50
  -2 -12  12   61.69    6.10
  -2  12 -12   59.99    6.10
   2 -12 -12   64.79    6.50
  -3 -12 -12   42.20    5.20
  -3  12  12   32.80    5.00
   3 -12  12   38.20    4.50
  -3 -12 -12   46.20    6.10
   3 -12 -12   21.70    4.00
  -3 -12  12   27.90    4.00
  -3  12 -12   30.40    4.50
  -3 -12  12   33.60    4.90
  -4 -12 -12   35.90    5.60
  -4  12  12   39.40    4.60
  -4 -12  12   31.60    4.30
  -4 -12  12   29.50    4.80
  -4  12 -12   28.80    4.10
  -5  12  12   16.20    2.80
  -5  12 -12   14.40    2.50
   0 -13  12  199.08   11.10
   0  13  12  198.08   11.70
   0 -13  12  222.58   11.20
   0 -13 -12  191.68   11.00
   1 -13  12  111.89    7.50
  -1 -13 -12   95.59    7.60
  -1  13  12  105.89    7.90
  -1 -13  12  107.29    7.80
   1 -13 -12  113.19    7.60
  -1 -13  12  109.39    7.80
   2 -13  12   46.50    5.60
  -2  13  12   44.60    5.50
  -2 -13 -12   47.10    6.30
  -2 -13 -12   39.70    5.80
  -2 -13  12   59.39    6.50
  -2 -13  12   59.79    7.00
  -2  13 -12   58.79    5.90
  -2 -13  12   55.19    6.20
   2 -13 -12   60.39    5.90
  -3 -13 -12   19.10    3.50
   3 -13  12   21.20    3.60
  -3  13  12   14.30    2.80
  -3  13 -12   15.30    2.90
  -3 -13  12    9.80    3.90
  -3 -13  12   15.20    3.70
   3 -13 -12   10.20    3.60
  -4 -13 -12   41.30    5.30
  -4  13  12   28.70    4.00
  -4  13 -12   35.10    3.90
  -4 -13  12   32.00    4.20
  -4 -13  12   39.30    5.10
   0 -14  12    4.20    3.00
   0 -14  12   -2.30    3.80
   0  14  12    2.40    3.40
   0 -14 -12    7.10    2.90
  -1 -14 -12   68.09    6.30
  -1  14  12   71.29    6.40
   1 -14  12   69.69    6.30
   1 -14 -12   72.39    6.30
  -1 -14  12   71.89    6.70
  -1 -14  12   64.99    6.20
  -2  14  12  130.99    8.50
  -2 -14 -12  135.39    8.70
   2 -14  12  120.99    8.20
  -2 -14 -12  132.39    8.90
  -2 -14  12  131.09    8.90
   2 -14 -12  147.39    8.70
  -2 -14  12  150.58    8.70
  -2  14 -12  152.98    8.80
  -2 -14  12  138.79    9.60
  -3  14  12   -0.60    2.10
  -3 -14 -12    3.30    3.00
  -3 -14  12    3.20    3.30
  -3 -14  12    2.50    3.50
  -3  14 -12   -1.00    2.40
  -4  14  12   49.90    4.30
  -4  14 -12   55.29    4.40
   0 -15 -12   15.90    3.10
   0 -15  12   20.80    5.00
   0 -15  12   19.20    3.40
  -1  15  12   35.30    5.20
  -1 -15 -12   45.30    5.20
  -1 -15 -12   46.40    5.10
   1 -15  12   48.50    5.20
   1 -15 -12   41.30    5.00
  -1 -15  12   46.60    5.80
  -1 -15  12   41.40    5.90
  -1 -15  12   41.80    5.70
   2 -15  12   28.90    3.80
  -2 -15 -12   23.40    4.00
  -2  15  12   20.80    3.10
  -2 -15 -12   28.10    4.60
   2 -15 -12   27.00    3.80
  -2 -15  12   20.30    3.70
  -2 -15  12   27.20    4.00
  -3 -15 -12   88.59    6.50
  -3  15  12   91.29    6.00
   3 -15  12  102.29    6.80
  -3 -15  12   86.99    6.90
  -3  15 -12   84.59    6.50
  -3 -15  12   75.79    6.20
   0 -16  12   56.19    5.60
   0 -16 -12   60.69    5.40
   0 -16  12   68.29    6.40
   0 -16 -12   63.19    5.40
   1 -16  12   67.69    5.40
  -1 -16 -12   63.29    5.40
  -1 -16 -12   69.99    5.80
  -1  16  12   57.19    6.50
  -1 -16  12   60.79    6.50
  -1 -16  12   54.09    6.00
  -1 -16  12   62.99    6.80
   1 -16 -12   54.19    5.60
  -2  16  12   71.19    5.80
  -2 -16 -12   82.89    5.70
   2 -16  12   82.59    5.70
  -2 -16  12   57.99    6.00
  -2 -16  12   62.59    6.10
   2 -16 -12   60.39    6.90
   0 -17 -12   13.50    2.60
   0 -17  12   15.10    3.70
   0 -17 -12   11.30    2.70
  -1 -17 -12   63.19    4.90
   1 -17  12   60.79    5.10
   1 -17 -12   64.09    5.40
   1 -17 -12   52.39    5.30
   0   0 -13    0.70    1.40
   0   0  13    0.20    2.10
   0   0  13   -2.10    2.30
   0   0  13    3.20    3.40
   0   0 -13    0.40    2.00
  -1   0  13   64.99    7.70
  -1   0 -13   72.39    5.00
   1   0  13   71.99    6.40
  -1   0 -13   70.49    5.00
  -1   0  13   68.09    5.40
   1   0  13   76.59    7.00
  -1   0  13   69.49    5.50
  -1   0 -13   69.09    5.00
  -2   0 -13  272.37   13.00
  -2   0  13  271.27   12.80
  -2   0 -13  273.07   12.80
   2   0 -13  272.27   16.50
  -2   0 -13  264.67   13.30
   2   0 -13  275.17   12.30
  -2   0  13  266.47   13.00
  -3   0  13  202.38   12.10
  -3   0 -13  200.68   10.70
  -3   0 -13  183.28   11.00
   3   0 -13  214.48   10.10
  -3   0 -13  197.98   10.60
  -3   0  13  206.38   10.70
  -3   0  13  204.58   11.00
  -4   0  13    2.50    2.80
  -4   0 -13    1.90    2.30
  -4   0 -13    2.80    2.40
  -4   0  13    0.10    3.00
  -4   0  13   -0.70    3.20
  -4   0 -13    3.00    3.40
   4   0 -13   -2.00    2.50
  -5   0 -13   15.10    3.10
  -5   0  13    7.60    4.00
  -5   0 -13   11.40    3.80
  -5   0  13   15.00    3.60
  -6   0 -13   40.10    6.00
  -6   0 -13   45.00    5.00
  -6   0  13   38.70    6.20
  -6   0  13   49.80    4.00
   0  -1  13    9.00    2.40
   0   1  13    9.00    2.50
   0  -1 -13    8.50    1.80
   0   1  13    7.50    2.50
   0   1  13    6.10    3.90
   0   1 -13   12.40    4.90
   0  -1 -13    5.70    2.30
   0   1 -13    9.20    1.90
   0  -1  13    7.00    2.60
  -1  -1 -13  101.29    7.80
  -1  -1 -13  113.39    6.70
  -1   1  13  111.69   10.40
   1   1 -13  106.79    6.20
   1   1 -13  119.39   11.30
  -1  -1 -13  110.09    6.90
  -1   1  13  113.89    6.90
  -1   1  13  122.79    7.10
   1  -1  13  131.39    7.70
  -1  -1  13  124.39    7.20
  -1  -1  13  126.69    7.60
   1   1  13  126.29    8.70
  -1   1 -13  131.89    6.80
  -1   1 -13  132.39    7.20
   1  -1 -13  109.19    6.20
  -1   1 -13  129.19    6.90
   1   1  13  128.89    8.10
  -1   1 -13  107.69   12.30
  -2   1  13   12.50    2.70
  -2  -1 -13   14.60    2.50
   2  -1  13   13.20    3.70
   2   1 -13   15.60    2.40
  -2  -1 -13   13.70    2.50
   2   1 -13   10.50    5.50
  -2   1  13    9.10    2.30
  -2  -1 -13   13.30    2.60
  -2  -1  13   15.20    2.80
  -2   1 -13   19.70    3.10
   2  -1 -13   10.10    2.10
  -2  -1  13   12.10    2.70
  -2   1 -13   16.80    2.60
  -2   1 -13   13.20    2.30
  -2   1 -13   17.90    3.80
   2   1  13   16.30    4.60
  -3  -1 -13   30.40    4.30
  -3   1  13   29.70    4.30
  -3   1  13   32.90    4.60
  -3  -1 -13   27.80    4.00
  -3  -1 -13   26.10    4.50
   3   1 -13   33.30    4.00
  -3   1  13   28.00    3.80
  -3   1 -13   35.20    4.50
  -3  -1  13   38.50    5.30
  -3   1 -13   39.70    6.50
  -3  -1  13   42.50    6.00
   3  -1 -13   40.20    4.10
  -3  -1  13   37.50    5.20
  -3   1 -13   43.60    4.50
  -4   1  13    3.60    2.80
  -4  -1 -13    9.40    3.60
  -4   1  13   11.60    3.70
  -4   1  13    9.30    3.50
   4   1 -13    8.00    2.50
  -4  -1 -13    8.10    2.70
   4  -1 -13    8.60    2.90
  -4  -1  13    6.80    3.50
  -4   1 -13    8.40    3.70
  -4   1 -13    6.60    2.70
  -4  -1  13   10.80    3.10
  -4  -1  13    3.60    3.20
  -4   1 -13    6.10    2.70
  -5  -1 -13   35.00    5.40
  -5  -1 -13   30.70    4.80
  -5   1  13   28.40    4.00
  -5   1  13   23.90    4.40
  -5   1  13   30.50    3.70
   5   1 -13   31.20    4.60
  -5   1 -13   22.40    4.50
  -5  -1  13   26.80    5.00
  -5   1 -13   27.20    3.90
  -5  -1  13   25.20    4.40
  -5   1 -13   28.40    4.60
  -6  -1 -13   68.79    5.70
  -6   1  13   72.89    4.80
  -6  -1 -13   77.79    7.10
  -6   1  13   56.59    7.20
  -6   1 -13   70.89    6.70
  -6  -1  13   58.89    6.90
  -6   1 -13   77.99    6.00
  -6  -1  13   70.89    4.80
   0  -2  13   25.10    3.00
   0   2  13   24.60    4.80
   0  -2 -13   24.70    3.40
   0   2 -13   22.40    5.50
   0   2  13   22.50    3.10
   0   2 -13   25.00    2.70
   0  -2 -13   30.00    4.50
   0   2  13   21.20    3.00
   0  -2  13   25.10    3.40
  -1  -2 -13   59.79    6.40
  -1  -2 -13   66.89    5.00
  -1  -2 -13   45.90    4.40
  -1   2  13   75.79    8.00
  -1   2  13   63.39    5.40
   1  -2  13   58.39    5.80
  -1   2  13   60.89    5.50
   1   2 -13   60.79    7.30
   1   2 -13   67.69    4.20
   1  -2 -13   61.49    4.20
  -1   2 -13   59.69    4.40
  -1   2 -13   56.29    4.40
  -1  -2  13   52.49    5.40
   1   2  13   61.49    5.00
  -1  -2  13   58.09    5.80
  -1   2 -13   59.39    4.80
  -1   2 -13   56.19    7.00
   1   2  13   55.69    6.90
   1   2  13   56.19    6.60
  -2   2  13  136.19    8.20
   2  -2  13  123.89    9.00
   2   2 -13  153.58   12.00
  -2  -2 -13  144.79    7.80
  -2  -2 -13  131.39    7.60
  -2   2  13  142.39    7.90
  -2  -2  13  136.79    8.50
  -2   2 -13  133.49    7.80
  -2   2 -13  133.19    9.80
  -2  -2  13  132.59    7.90
   2   2  13  134.99   10.90
  -2  -2  13  131.49    7.80
  -2   2 -13  122.89    8.10
   2  -2 -13  130.79    7.20
  -2   2 -13  134.79    7.60
  -3   2  13   75.89    6.30
  -3   2  13   76.39    6.60
  -3  -2 -13   85.99    6.20
  -3  -2 -13   73.39    6.80
   3  -2 -13   76.29    5.60
  -3   2 -13   86.99    5.70
  -3   2 -13   74.49    5.80
  -3  -2  13   75.59    7.00
  -3  -2  13   83.69    6.60
  -3  -2  13   83.39    7.10
  -3   2 -13   79.79    7.60
  -4   2  13  246.88   12.20
  -4   2  13  232.28   14.30
  -4  -2 -13  252.37   12.60
  -4   2 -13  246.88   14.80
  -4  -2  13  250.97   12.60
   4  -2 -13  238.58   12.20
  -4  -2  13  236.28   14.30
  -4  -2  13  246.18   13.50
  -4   2 -13  254.27   12.50
  -4   2 -13  237.08   12.60
  -5  -2 -13   61.89    7.60
  -5  -2 -13   69.59    5.80
  -5   2  13   62.29    7.30
  -5   2  13   71.19    6.60
  -5   2  13   71.39    5.10
   5   2 -13   73.09    6.20
  -5  -2  13   69.89    7.00
  -5   2 -13   69.59    6.30
  -5   2 -13   60.09    7.50
  -5  -2  13   67.69    7.40
  -5   2 -13   67.39    6.00
  -6  -2 -13   34.50    4.70
  -6  -2 -13   45.20    6.10
  -6   2  13   42.50    3.90
  -6   2 -13   53.89    6.00
  -6   2 -13   50.69    5.70
  -6  -2  13   55.79    6.30
  -6  -2  13   51.29    4.20
   0   3  13   45.30    7.00
   0  -3 -13   49.40    4.40
   0   3  13   48.10    5.00
   0  -3 -13   43.30    3.80
   0  -3  13   46.80    6.10
   0  -3  13   42.70    5.00
   0   3 -13   49.10    4.60
   0   3  13   41.50    5.70
   0   3 -13   41.20    6.10
   0   3 -13   45.70    3.70
   1  -3  13  523.75   22.30
  -1   3  13  515.75   21.80
  -1  -3 -13  526.95   22.10
  -1   3  13  516.15   22.30
  -1   3  13  492.35   24.90
  -1  -3 -13  494.25   23.20
   1   3 -13  489.95   25.60
  -1   3 -13  506.45   26.20
  -1  -3  13  511.15   22.10
  -1  -3  13  545.05   22.10
  -1   3 -13  533.65   23.70
   1   3  13  507.05   21.90
  -1   3 -13  537.55   22.90
   1  -3 -13  535.35   22.00
   1   3  13  503.55   24.10
  -1   3 -13  524.85   21.90
   1   3  13  490.75   22.40
  -2  -3 -13  158.28    8.40
  -2   3  13  167.58    8.90
  -2  -3 -13  154.58    8.40
   2   3 -13  151.58   12.80
  -2   3  13  157.68    8.20
   2  -3  13  149.09    9.60
   2   3  13  139.59   12.10
  -2   3 -13  153.08    8.50
  -2   3 -13  130.79   10.60
   2  -3 -13  162.78    7.90
  -2   3 -13  150.08    8.30
  -2  -3  13  136.19    9.20
  -2  -3  13  140.89    8.50
  -2  -3  13  159.08    8.80
  -2   3 -13  148.89    9.10
  -3  -3 -13   84.49    7.00
  -3   3  13   86.39    7.10
  -3  -3 -13   90.19    6.30
  -3   3  13   90.19    6.20
  -3  -3  13   87.99    7.40
  -3  -3  13   88.59   13.50
  -3   3 -13   92.59    6.30
  -3   3 -13   79.99    7.90
  -3  -3  13   84.79    7.00
  -3   3 -13   80.79    5.70
  -3  -3  13   77.89    6.80
   3  -3 -13   85.69    5.90
  -4   3  13    0.70    2.20
  -4  -3 -13    2.30    2.90
  -4   3  13    3.00    3.40
  -4   3  13    7.50    3.60
  -4   3  13    1.60    2.70
  -4   3 -13    4.00    2.40
  -4  -3  13    3.70    3.10
  -4   3 -13    6.50    3.60
  -4   3 -13    2.00    2.30
  -4  -3  13    4.10    3.00
  -4  -3  13    4.60    3.90
  -5  -3 -13   65.49    5.80
  -5   3  13   67.99    6.60
  -5   3  13   55.79    6.80
   5   3 -13   67.19    5.60
  -5   3  13   58.69    4.80
  -5  -3 -13   62.99    7.50
   5  -3 -13   64.49    6.60
  -5   3 -13   66.19    5.90
  -5  -3  13   59.49    7.30
  -5   3 -13   52.19    5.80
  -5  -3  13   57.69    6.70
  -5   3 -13   51.59    7.00
  -6  -3 -13    4.40    3.60
  -6   3  13    6.90    2.50
  -6   3  13    2.60    3.90
  -6  -3 -13    6.40    2.80
  -6  -3  13    3.90    3.50
  -6   3 -13    4.40    3.50
  -6  -3  13    3.40    2.30
   0  -4 -13  357.76   16.40
   0  -4  13  338.87   16.00
   0  -4 -13  332.17   15.60
   0   4 -13  347.47   16.80
   0   4  13  335.47   18.20
   0   4  13  352.06   15.50
   0   4 -13  352.96   19.50
   0  -4  13  370.36   16.00
   0   4 -13  406.16   15.70
   0   4  13  337.17   16.10
  -1  -4 -13  158.08    8.80
  -1   4  13  145.89   12.10
   1   4 -13  173.38   13.80
  -1  -4 -13  158.98    9.20
  -1   4  13  161.48    8.50
  -1   4  13  161.88    9.00
  -1  -4 -13  156.68    8.30
   1  -4  13  145.29    8.50
  -1  -4  13  151.58   10.30
   1   4  13  155.18   10.00
  -1   4 -13  155.28   15.00
  -1  -4  13  158.88    8.60
  -1  -4  13  159.78    8.90
   1  -4 -13  167.68    8.60
  -1   4 -13  159.08    8.30
   1   4  13  151.28    9.20
   1  -4 -13  159.68    8.00
  -1   4 -13  164.38    8.80
   1   4  13  145.79   10.80
  -2   4  13   49.10    5.10
   2  -4  13   54.19    6.50
  -2   4  13   57.59    5.70
  -2  -4 -13   49.30    4.60
  -2   4  13   48.40    4.90
  -2  -4 -13   42.40    5.10
  -2  -4 -13   41.70    6.90
  -2   4 -13   47.70    4.50
  -2   4 -13   49.99    7.50
   2  -4 -13   47.80    4.50
  -2  -4  13   49.70    6.20
  -2  -4  13   41.90    5.40
  -2   4 -13   45.40    4.60
  -2  -4  13   38.90    5.70
  -3   4  13  151.78    8.10
  -3   4  13  153.38    8.70
  -3  -4 -13  151.18    9.20
  -3  -4 -13  149.29    9.30
  -3   4 -13  173.38    9.20
  -3   4 -13  166.68   11.00
  -3   4 -13  162.18    9.10
  -3  -4  13  166.28    9.90
  -3  -4  13  157.88    9.10
  -3  -4  13  154.78   16.40
   3  -4 -13  156.58    8.70
  -3  -4  13  175.08   10.70
  -4   4  13  176.18    9.40
  -4   4  13  147.69   10.70
  -4   4  13  171.38   10.50
  -4   4  13  162.98    8.30
  -4  -4 -13  161.48    9.40
  -4   4 -13  153.98    9.10
   4  -4 -13  151.88    9.20
  -4   4 -13  132.69   10.60
  -4  -4  13  143.29    9.50
  -4  -4  13  155.98   10.70
  -4   4 -13  162.28    9.30
   5   4 -13   46.30    4.80
  -5  -4 -13   34.80    6.50
  -5   4  13   47.70    6.30
  -5   4  13   42.30    6.30
  -5   4  13   37.40    4.10
  -5  -4 -13   37.80    5.10
  -5   4 -13   35.80    5.20
  -5   4 -13   41.40    6.20
  -5   4 -13   40.70    4.90
  -5  -4  13   34.20    5.40
  -5  -4  13   44.00    6.10
   5  -4 -13   32.90    4.60
  -6  -4 -13   10.60    3.60
  -6  -4 -13   15.80    3.10
  -6   4  13   15.60    2.70
  -6   4  13   11.00    4.20
  -6  -4  13   17.60    2.80
  -6  -4  13   10.70    3.70
  -6   4 -13   13.90    3.50
  -6   4 -13   12.00    3.70
   0   5  13    2.70    2.50
   0   5 -13   10.40    2.10
   0   5  13    7.40    2.40
   0  -5  13   10.90    3.30
   0   5 -13   12.80    2.50
   0  -5  13    9.00    2.60
   0  -5 -13    7.90    2.00
   0   5 -13    2.70    6.10
   0   5  13    2.90    5.80
   0  -5 -13    6.80    2.10
   1  -5  13  150.68    8.40
  -1  -5 -13  142.69    7.80
   1   5 -13  146.99   13.70
  -1   5  13  120.29   12.70
  -1   5  13  153.98    7.90
  -1  -5 -13  153.08    8.40
  -1  -5 -13  155.68    8.70
  -1   5  13  136.89    8.50
   1   5  13  124.29    9.40
  -1   5 -13  151.68   14.90
  -1  -5  13  135.09    8.20
  -1   5 -13  138.59    8.10
   1  -5 -13  132.19    7.60
   1  -5 -13  139.99    8.10
  -1   5 -13  142.39    7.90
   1   5  13  110.99   12.10
  -1  -5  13  137.99    8.30
   2  -5  13    4.20    3.00
  -2   5  13    7.10    2.50
  -2  -5 -13    3.20    3.00
  -2   5  13    1.10    2.20
  -2  -5 -13    1.90    2.10
  -2  -5 -13    3.30    2.50
  -2  -5  13   -0.10    3.00
  -2   5 -13    0.10    1.80
   2  -5 -13   -1.60    1.80
   2  -5 -13   -0.40    2.20
  -2   5 -13    2.20    2.00
  -2   5 -13   -1.80    3.70
  -2  -5  13   -2.10    2.30
  -2  -5  13    2.80    2.50
  -3   5  13  141.49    7.70
   3  -5  13  145.69   11.00
  -3  -5 -13  147.59    8.70
  -3   5  13  156.98    8.60
  -3  -5  13  143.39   17.90
  -3  -5  13  151.08    9.80
  -3   5 -13  149.99    8.70
  -3  -5  13  147.99   10.30
   3  -5 -13  141.19    8.70
  -3   5 -13  146.79    8.60
  -3   5 -13  144.19   10.40
  -3  -5  13  158.88    9.10
   3  -5 -13  151.28    9.10
  -4   5  13   13.50    3.00
  -4   5  13    8.10    3.00
  -4   5  13   18.60    4.30
  -4  -5 -13   14.60    3.60
  -4   5  13   11.00    3.40
  -4  -5  13   14.00    3.40
   4  -5 -13   14.50    3.20
  -4   5 -13   13.80    3.20
  -4  -5  13   16.00    4.00
  -4   5 -13   14.90    2.80
  -4  -5  13   11.70    4.90
  -4   5 -13   21.90    4.40
  -5  -5 -13  203.58   10.80
  -5   5  13  186.08    9.40
  -5   5  13  200.68   10.60
  -5   5  13  182.68   12.00
  -5  -5  13  195.18   12.10
  -5   5 -13  195.88   10.60
  -5   5 -13  195.88   12.40
  -5  -5  13  196.48   11.00
  -6   5  13   24.90    5.20
  -6  -5 -13   32.10    5.60
  -6   5  13   27.50    3.40
  -6  -5 -13   27.50    4.20
  -6   5 -13   24.10    4.20
  -6  -5  13   23.40    4.50
  -6  -5  13   26.00    3.40
  -6   5 -13   27.60    3.70
   0  -6  13   44.30    5.40
   0  -6 -13   53.79    4.90
   0  -6  13   46.10    6.50
   0  -6 -13   59.99    5.40
   0   6  13   62.09    5.20
   0   6 -13   45.70    9.00
   0   6  13   62.59    8.50
   0   6 -13   43.50    5.80
  -1   6  13  268.37   12.40
  -1  -6 -13  263.77   13.20
  -1  -6 -13  263.97   12.60
   1  -6  13  265.27   12.80
  -1   6  13  222.88   18.70
  -1  -6 -13  268.57   13.30
   1  -6 -13  274.27   13.10
  -1  -6  13  265.77   12.90
   1  -6 -13  260.27   12.40
  -1   6 -13  265.07   12.60
  -1   6 -13  279.77   13.30
  -1   6 -13  227.08   21.40
  -1  -6  13  262.17   12.90
  -2  -6 -13   44.00    6.50
  -2  -6 -13   54.19    5.60
  -2  -6 -13   49.30    5.40
   2  -6  13   41.60    6.10
  -2   6  13   54.29    5.00
   2  -6 -13   54.39    5.00
  -2  -6  13   58.79    6.00
  -2  -6  13   67.29    9.50
  -2  -6  13   64.69    7.70
  -2   6 -13   52.89    4.70
  -2   6 -13   48.90    7.80
  -2  -6  13   55.39    5.80
   2  -6 -13   51.49    5.70
  -3   6  13  194.78    9.30
  -3  -6 -13  194.58   10.30
   3  -6  13  156.48   11.50
  -3   6  13  191.88    9.90
  -3   6 -13  168.88   11.90
  -3  -6  13  178.98   10.30
  -3  -6  13  185.38   11.90
  -3   6 -13  177.98   10.10
   3  -6 -13  184.18   10.10
  -3  -6  13  185.98   10.90
  -4   6  13   33.50    4.30
  -4   6  13   24.20    3.60
  -4   6  13   22.30    3.20
  -4  -6 -13   25.20    3.90
  -4   6  13   35.90    6.30
  -4  -6  13   17.40    3.70
  -4   6 -13   27.70    4.50
  -4  -6  13   25.40    4.70
   4  -6 -13   22.10    3.80
  -4   6 -13   28.40    5.20
  -5   6  13   69.99    5.20
  -5   6  13   82.79    6.80
  -5   6  13   80.39    7.50
  -5   6  13   79.69    8.10
  -5  -6 -13   75.89    6.30
  -5   6 -13   73.99    7.40
  -5   6 -13   76.39    5.90
  -5  -6  13   68.59    7.00
  -5  -6  13   71.29    7.40
  -6  -6 -13   66.89    5.50
  -6   6  13   65.99    4.90
  -6  -6 -13   83.09    7.00
  -6   6 -13   72.39    6.10
  -6  -6  13   89.49    7.00
   0  -7  13  959.40   39.00
   0  -7  13  934.11   38.40
   0   7 -13  951.80   42.10
   0  -7 -13  922.71   40.70
   0  -7 -13  939.91   39.30
   0   7  13  939.31   38.20
   1  -7  13  119.69    7.70
  -1  -7 -13  116.29    7.10
  -1  -7 -13   99.89    8.20
  -1   7  13  115.29    7.30
  -1  -7 -13  121.99    7.90
  -1  -7  13  122.99    7.90
  -1  -7  13  119.99    7.90
  -1   7 -13  123.39    7.70
   1  -7 -13  122.39    7.40
  -1   7 -13  128.19    7.80
   1  -7 -13  129.39    7.80
  -2  -7 -13  152.78    9.00
  -2  -7 -13  168.98    9.70
  -2   7  13  153.98    8.10
   2  -7  13  155.58    8.80
  -2  -7 -13  147.99    8.40
  -2  -7  13  122.19    8.80
  -2  -7  13  135.69    8.80
   2  -7 -13  121.89    8.80
  -2   7 -13  133.69    8.40
   2  -7 -13  130.39    8.50
  -3   7  13   65.39    5.70
  -3   7  13   59.89    6.60
  -3  -7 -13   62.89    8.40
  -3   7  13   59.09    5.60
  -3  -7 -13   51.69    5.80
   3  -7  13   56.79    7.70
  -3  -7  13   67.49    7.80
  -3  -7  13   47.70    5.40
  -3   7 -13   54.39    7.30
  -3  -7  13   59.99    6.40
   3  -7 -13   54.89    6.00
  -3   7 -13   58.39    5.40
  -4  -7 -13   14.50    3.40
  -4   7  13   11.00    2.90
  -4   7  13    7.30    3.00
  -4   7  13   15.30    4.10
  -4   7  13    9.00    3.00
  -4  -7  13   14.70    3.60
  -4   7 -13   14.80    2.90
  -4  -7  13   17.30    5.20
  -4   7 -13   16.80    4.10
  -4  -7  13   13.50    4.20
   4  -7 -13   12.00    3.30
  -5  -7 -13   13.70    3.20
  -5   7  13   16.00    3.80
  -5   7  13   19.80    3.20
  -5   7  13   19.00    4.30
  -5   7 -13   19.10    3.00
  -5  -7  13    9.70    4.20
  -5  -7  13   23.10    4.20
  -6  -7 -13   41.10    4.80
  -6  -7 -13   48.20    5.90
  -6   7  13   52.29    4.60
  -6   7 -13   46.60    5.10
  -6  -7  13   39.80    6.50
   0  -8  13  170.28   10.10
   0  -8 -13  179.08    9.50
   0  -8  13  179.38    9.80
   0   8 -13  181.88   10.40
   0  -8 -13  170.48    9.80
  -1  -8 -13   87.39    6.80
  -1  -8 -13   85.99    6.40
   1  -8  13   93.69    6.70
  -1   8  13   95.49    6.50
  -1  -8  13   78.79    7.00
   1  -8 -13   82.19    6.60
  -1   8 -13   83.69    6.60
   1  -8 -13   82.49    6.50
  -1  -8  13   85.39    6.80
  -2  -8 -13   11.00    3.30
  -2  -8 -13   10.20    3.10
  -2   8  13   10.00    2.50
   2  -8  13    8.70    2.90
   2  -8 -13   14.30    3.00
   2  -8 -13   12.70    3.80
  -2  -8  13   11.90    3.10
  -2  -8  13    9.00    3.40
  -2   8 -13   14.60    2.90
   3  -8  13  234.78   12.50
  -3   8  13  259.87   13.00
  -3  -8 -13  228.38   13.70
  -3   8  13  203.18   11.30
  -3  -8 -13  246.78   12.30
  -3   8 -13  225.98   12.10
  -3  -8  13  224.88   13.00
  -3  -8  13  191.68   11.70
   3  -8 -13  234.98   12.10
  -3  -8  13  229.48   14.10
  -3  -8  13  219.38   12.90
  -4   8  13   43.10    5.60
  -4   8  13   44.00    4.90
  -4   8  13   47.80    5.90
  -4   8  13   50.69    7.10
  -4  -8 -13   44.80    5.50
  -4  -8  13   49.50    6.00
  -4  -8  13   48.10    6.40
   4  -8 -13   51.79    6.40
  -4  -8  13   48.60    7.70
  -4   8 -13   48.80    5.00
  -5  -8 -13   60.69    5.70
  -5   8  13   65.79    5.00
  -5   8  13   56.29    8.60
  -5   8  13   66.39    6.30
  -5   8 -13   62.49    5.20
  -5  -8  13   58.89    6.40
  -5  -8  13   73.09    7.50
  -6  -8 -13   54.39    6.30
  -6   8 -13   43.30    4.70
   0  -9 -13  860.61   37.00
   0  -9 -13  851.21   35.70
   0  -9  13  831.32   34.70
   0  -9  13  823.22   35.30
   0   9 -13  836.52   38.10
   1  -9  13  143.49    8.40
  -1  -9 -13  140.89    8.50
  -1  -9 -13  144.59    9.00
   1  -9 -13  150.58    8.90
  -1   9 -13  139.99    8.90
  -1  -9  13  137.79    8.60
  -1  -9  13  144.99    8.90
   1  -9 -13  144.09    8.80
  -2  -9 -13  842.32   35.80
  -2  -9 -13  753.12   35.50
   2  -9  13  811.92   33.90
  -2   9 -13  809.32   36.50
   2  -9 -13  806.42   35.40
  -2  -9  13  827.12   33.80
  -2  -9  13  774.82   34.00
  -3   9  13  390.16   19.20
   3  -9  13  376.26   17.90
  -3  -9 -13  359.26   19.20
  -3  -9 -13  368.06   18.40
  -3  -9  13  392.46   19.10
  -3   9 -13  392.46   18.70
   3  -9 -13  383.26   18.40
  -3  -9  13  386.56   17.80
  -3  -9  13  409.26   18.50
  -4   9  13   32.00    5.40
  -4   9  13   39.20    5.80
  -4  -9 -13   35.70    4.70
   4  -9 -13   26.30    4.30
  -4  -9  13   49.99    8.30
  -4   9 -13   31.30    4.40
  -4  -9  13   34.40    5.40
  -4  -9  13   25.30    4.10
  -5  -9 -13   41.00    5.10
  -5   9  13   45.60    5.30
  -5   9  13   44.70    5.10
  -5  -9  13   46.80    7.80
  -5  -9  13   41.30    6.00
  -5   9 -13   53.29    4.40
   0 -10 -13    5.90    2.50
   0 -10 -13    0.70    2.50
   0 -10  13    3.70    2.80
   0 -10  13    1.50    3.50
   1 -10  13  168.18   10.10
  -1 -10 -13  179.68   10.60
   1 -10 -13  191.78   10.40
  -1 -10  13  192.08   10.50
  -1 -10  13  192.58   10.40
  -1  10 -13  193.08   10.80
   1 -10 -13  191.18   10.60
  -2  10  13   33.60    5.70
  -2 -10 -13   46.20    5.70
   2 -10  13   42.90    5.70
  -2 -10 -13   37.20    6.00
  -2 -10  13   40.50    6.00
  -2  10 -13   43.20    5.30
  -2 -10  13   37.80    4.70
   2 -10 -13   43.90    5.70
   3 -10  13   46.40    6.60
  -3 -10 -13   37.80    6.00
  -3  10  13   38.60    5.50
  -3 -10 -13   43.00    7.10
  -3 -10  13   59.69    6.40
  -3 -10  13   46.10    6.50
  -3  10 -13   49.60    5.10
   3 -10 -13   51.19    6.10
  -3 -10  13   52.59    8.00
  -4 -10 -13    9.40    3.50
  -4  10  13    9.10    2.70
  -4  10  13    5.90    5.10
  -4 -10  13   12.40    4.60
  -4 -10  13    7.40    3.50
  -4  10 -13   14.40    2.70
  -5 -10 -13   27.60    3.90
  -5  10  13   25.00    3.40
  -5 -10  13   22.20    4.10
  -5  10 -13   26.00    3.50
   0  11 -13   42.30    4.70
   0 -11  13   41.60    5.60
   0 -11 -13   34.40    5.10
   0 -11  13   40.00    4.70
   1 -11  13  185.78   10.90
  -1 -11 -13  210.98   11.60
  -1 -11  13  185.28   11.10
  -1 -11  13  213.38   11.20
   1 -11 -13  217.78   11.40
  -1  11 -13  215.08   11.60
  -2 -11 -13   89.59    7.60
   2 -11  13   89.19    7.00
  -2  11  13   77.89    7.20
   2 -11 -13   95.59    7.20
  -2 -11  13   94.09    7.50
  -2  11 -13   89.79    6.80
  -2 -11  13  100.69    7.60
  -3 -11 -13   16.70    4.00
   3 -11  13   20.70    4.10
  -3 -11 -13   15.10    4.20
  -3  11  13   18.10    3.30
  -3  11  13   16.50    4.70
  -3 -11  13   12.20    4.00
  -3  11 -13   14.40    2.90
  -3 -11  13   11.00    3.60
  -3 -11  13   24.90    5.50
   3 -11 -13   10.90    3.30
  -4 -11 -13  115.89    7.90
  -4  11  13  119.69    7.70
  -4 -11  13  137.59    9.50
  -4 -11  13  113.99    8.00
  -4  11 -13  123.59    7.30
  -5  11  13   38.60    4.60
  -5 -11  13   35.20    4.70
  -5  11 -13   44.10    3.80
   0 -12  13   83.09    7.90
   0 -12  13   86.09    7.10
   0  12  13   96.39    7.40
   0 -12 -13   87.09    7.00
   1 -12  13   40.10    5.60
  -1 -12 -13   46.30    5.80
  -1  12  13   35.80    5.50
   1 -12 -13   47.20    5.60
  -1 -12  13   43.40    6.10
  -1 -12  13   41.50    5.90
  -1  12 -13   39.90    6.70
  -2  12  13   14.60    2.90
  -2 -12 -13   13.20    3.20
   2 -12  13   13.20    3.20
  -2 -12  13   11.10    3.60
  -2 -12  13   15.50    3.90
  -2  12 -13   17.80    3.30
   2 -12 -13   15.50    3.20
   3 -12  13   51.59    6.00
  -3  12  13   37.60    5.10
  -3 -12 -13   49.00    6.60
  -3 -12 -13   36.90    5.60
   3 -12 -13   46.30    6.00
  -3  12 -13   51.19    4.80
  -3 -12  13   45.30    6.10
  -3 -12  13   44.80    5.80
  -4 -12 -13   27.00    4.50
  -4  12  13   29.60    4.30
  -4 -12  13   28.20    5.00
  -4 -12  13   22.20    3.90
  -4  12 -13   26.20    3.60
   0  13  13   -2.70    2.80
   0 -13  13    7.30    2.80
   0 -13  13    7.60    4.30
   0 -13 -13    3.80    2.50
  -1 -13 -13  194.28   11.10
   1 -13  13  216.98   11.00
  -1  13  13  205.38   11.40
  -1 -13  13  206.18   11.10
  -1 -13  13  200.88   11.20
   1 -13 -13  196.98   11.10
  -2  13  13   80.09    6.20
  -2 -13 -13   79.09    7.10
   2 -13  13   77.49    6.40
  -2 -13 -13   74.29    6.60
  -2 -13  13   69.79    6.70
  -2 -13  13   69.09    6.70
   2 -13 -13   70.59    6.30
  -2 -13  13   63.59    7.50
  -2  13 -13   67.19    6.20
   3 -13  13    8.80    3.50
  -3 -13 -13   11.70    3.40
  -3  13  13   11.80    2.90
   3 -13 -13    3.50    3.30
  -3 -13  13    3.80    3.50
  -3  13 -13    8.00    2.50
  -3 -13  13    6.80    3.40
  -4  13  13    9.90    2.40
  -4 -13  13    6.50    3.20
  -4  13 -13   10.50    2.40
   0 -14 -13    4.90    2.70
   0 -14  13   10.30    4.70
   0 -14  13   10.30    3.20
   0  14  13    3.40    3.40
  -1  14  13    3.10    2.70
  -1 -14 -13    6.60    2.70
   1 -14  13    6.10    2.90
   1 -14 -13    7.20    2.60
  -1 -14  13    9.20    3.80
  -1 -14  13    6.90    3.30
  -2 -14 -13   46.80    5.50
  -2  14  13   43.60    5.10
  -2 -14 -13   49.20    6.50
   2 -14  13   47.30    5.10
  -2 -14  13   40.80    5.50
  -2  14 -13   36.70    5.80
  -2 -14  13   48.70    5.40
  -2 -14  13   42.80    5.60
   2 -14 -13   43.10    5.30
  -3 -14 -13   56.09    5.60
  -3  14  13   51.39    4.80
   3 -14  13   59.29    5.70
  -3 -14  13   59.19    6.20
  -3 -14  13   51.49    5.70
  -3  14 -13   60.69    5.20
   0 -15 -13    7.10    2.50
   0 -15  13    2.40    2.70
   0 -15  13   12.10    5.40
  -1  15  13   13.80    3.20
  -1 -15 -13   18.10    3.30
   1 -15  13   19.30    3.30
  -1 -15 -13   11.30    2.70
   1 -15 -13   10.50    2.90
  -1 -15  13   13.30    3.30
  -1 -15  13   13.00    4.10
  -1 -15  13    7.90    3.40
   2  15 -13    7.50    3.80
  -2  15  13    4.30    2.40
  -2 -15 -13    6.80    2.80
  -2 -15 -13    7.40    4.00
   2 -15  13   13.10    3.10
  -2 -15  13    6.10    3.50
  -2 -15  13    9.40    3.30
   2 -15 -13    5.10    2.90
   3 -15  13    3.30    3.40
  -3 -15 -13   -6.10    3.10
  -3  15  13   -2.00    2.10
  -3 -15  13    2.50    3.40
   0 -16 -13    0.10    2.20
   0 -16  13    4.70    3.40
   0 -16 -13    1.40    2.50
   0 -16  13    3.40    2.90
  -1 -16 -13   56.69    5.00
   1 -16  13   53.29    4.90
  -1 -16 -13   57.59    5.70
  -1 -16  13   49.10    6.30
  -1 -16  13   52.79    7.20
  -1 -16  13   47.90    5.70
   1 -16 -13   53.19    5.20
   2 -16  13   47.80    5.00
  -2  16  13   41.70    5.00
  -2 -16 -13   58.29    4.70
  -2 -16  13   49.80    5.80
  -2 -16  13   49.20    5.70
   0 -17 -13   10.40    2.60
   1 -17  13   80.59    6.50
   0   0 -14  153.48    7.60
   0   0  14  145.49    8.40
   0   0  14  149.39   11.30
   0   0  14  151.28    8.40
   0   0 -14  151.28    8.30
  -1   0 -14  226.88   10.80
   1   0 -14  217.28   10.20
  -1   0  14  233.38   10.80
  -1   0  14  223.68   10.90
  -1   0 -14  210.78   10.30
   1   0  14  223.38   13.00
  -1   0 -14  221.58   11.50
  -1   0 -14  192.88   15.90
   1   0  14  208.68   11.20
  -2   0  14  667.13   27.40
  -2   0 -14  655.93   29.70
   2   0 -14  622.44   27.40
  -2   0 -14  657.13   27.80
  -2   0 -14  653.53   28.70
  -2   0  14  654.43   27.70
  -3   0  14  167.28   10.30
  -3   0 -14  157.78    9.10
  -3   0 -14  168.28    9.30
  -3   0 -14  137.59    9.90
  -3   0 -14  173.38   11.30
  -3   0  14  166.28    9.10
   3   0 -14  156.38    8.50
  -3   0  14  175.58    9.90
  -4   0 -14    0.80    2.50
   4   0 -14    2.60    2.70
  -4   0  14    0.20    2.80
  -4   0 -14    0.20    3.30
  -4   0 -14    2.10    2.40
  -4   0  14   -0.20    3.40
  -4   0  14    3.00    3.30
  -5   0  14  142.39   10.60
  -5   0  14  164.88    9.30
  -5   0 -14  150.88    8.80
  -5   0 -14  148.79   10.80
  -6   0  14    9.00    2.30
  -6   0  14    8.90    3.90
  -6   0 -14    8.30    3.50
  -6   0 -14   10.30    2.70
   0   1 -14    1.30    1.60
   0   1  14    3.10    2.10
   0   1 -14    1.90    5.50
   0  -1  14    3.50    2.80
   0   1  14    1.60    2.30
   0  -1 -14    1.70    2.30
   0  -1  14    2.00    2.20
   0   1  14    2.40    4.20
   0  -1 -14    2.90    1.50
  -1  -1 -14   10.00    2.10
  -1   1  14    8.90    2.50
  -1   1  14   19.70    5.70
  -1  -1 -14    9.30    2.90
  -1  -1 -14   15.00    2.40
   1   1 -14   11.60    5.90
  -1   1  14   14.90    2.70
   1   1 -14   11.20    2.00
   1  -1  14   13.60    3.00
  -1   1 -14   13.90    2.40
   1   1  14   14.80    3.20
   1  -1 -14   14.00    2.10
  -1  -1  14   13.50    2.80
  -1   1 -14   16.00    6.90
  -1   1 -14   11.10    2.20
   1   1  14   15.70    5.00
  -1   1 -14   14.10    2.50
  -1  -1  14   12.80    2.70
  -2  -1 -14  328.27   14.30
   2   1 -14  342.27   14.00
  -2   1  14  322.97   14.50
   2  -1  14  317.37   15.20
  -2   1  14  297.97   13.90
  -2  -1 -14  322.67   14.60
  -2   1 -14  291.37   14.10
  -2   1 -14  286.37   17.30
  -2  -1  14  298.77   14.30
  -2   1 -14  287.27   14.30
  -2  -1  14  287.77   14.20
  -2   1 -14  288.57   14.80
   2  -1 -14  278.17   13.60
   3   1 -14    3.60    2.10
  -3   1  14   -0.50    2.70
  -3  -1 -14   -2.00    2.80
  -3   1  14    2.00    2.30
  -3  -1 -14    0.90    2.10
  -3   1  14    5.50    2.60
  -3   1 -14    3.00    3.60
  -3   1 -14    3.00    2.10
  -3  -1  14    1.80    2.70
  -3  -1  14   -0.30    3.10
  -3   1 -14    2.90    2.10
  -3   1 -14    4.60    3.30
   3  -1 -14    5.20    2.20
  -3  -1  14   -0.90    2.80
  -4   1  14   34.70    4.20
  -4   1  14   28.20    4.70
   4   1 -14   33.80    4.40
  -4  -1 -14   35.10    5.10
  -4  -1 -14   36.10    4.80
  -4   1  14   36.80    4.80
  -4  -1  14   43.70    5.70
  -4  -1  14   55.89    6.80
  -4   1 -14   41.80    4.70
  -4  -1  14   33.10    4.90
  -4   1 -14   47.50    5.20
   4  -1 -14   46.90    5.10
  -4   1 -14   35.90    5.10
  -5   1  14  164.68    8.70
  -5   1  14  190.08    9.90
  -5   1  14  156.98   11.50
  -5  -1 -14  171.18   11.80
   5   1 -14  172.68    9.90
  -5  -1 -14  181.08    9.80
  -5  -1  14  158.28   11.30
  -5   1 -14  183.78    9.90
  -5   1 -14  174.38   11.60
  -5  -1  14  179.28   10.00
  -6  -1 -14    5.40    2.70
  -6   1  14    8.40    2.30
  -6  -1 -14    8.30    3.60
  -6   1  14    8.10    3.90
  -6  -1  14    5.40    3.60
  -6  -1  14    9.00    2.40
  -6   1 -14    7.00    3.50
  -6   1 -14   11.70    3.30
   0   2  14  148.09    8.60
   0  -2 -14  154.28    7.90
   0   2  14  154.68    8.70
   0  -2  14  166.98    9.30
   0   2 -14  151.28   13.10
   0   2 -14  161.08    7.90
   0  -2 -14  149.99    9.00
   0   2  14  156.48   11.30
   0  -2  14  171.18    8.80
  -1  -2 -14  301.17   13.50
   1   2 -14  290.77   13.20
   1   2 -14  272.77   17.70
  -1   2  14  297.67   13.70
  -1   2  14  274.87   16.80
   1  -2  14  258.17   13.70
  -1   2  14  303.97   13.50
  -1  -2 -14  284.67   14.00
  -1  -2 -14  304.97   14.50
  -1   2 -14  304.17   14.40
  -1   2 -14  304.87   14.00
  -1   2 -14  288.77   19.90
   1   2  14  292.07   14.10
  -1  -2  14  299.27   13.60
   1  -2 -14  304.87   13.40
  -1   2 -14  312.67   13.50
  -1  -2  14  306.47   13.90
   1   2  14  279.47   14.00
   1   2  14  301.97   15.90
  -2   2  14  432.56   19.10
   2  -2  14  407.96   19.20
  -2   2  14  403.36   18.40
  -2  -2 -14  411.66   19.40
  -2  -2 -14  396.96   18.80
   2   2 -14  454.85   18.70
  -2   2 -14  435.36   20.00
  -2  -2  14  434.06   21.50
  -2  -2  14  413.36   19.00
  -2   2 -14  436.66   19.00
  -2   2 -14  418.26   22.70
  -2   2 -14  425.06   19.40
   2  -2 -14  430.96   18.60
  -2  -2  14  441.66   18.90
  -3  -2 -14   35.70    4.40
  -3   2  14   46.40    5.80
  -3   2  14   38.00    5.30
   3   2 -14   45.90    4.00
  -3  -2 -14   37.50    4.60
  -3   2  14   34.70    4.90
  -3   2 -14   34.10    4.50
   3  -2 -14   29.00    4.30
  -3  -2  14   38.10    5.90
  -3  -2  14   32.20    4.10
  -3   2 -14   28.60    4.30
  -3  -2  14   29.40    4.00
  -3   2 -14   36.60    5.10
  -4   2  14  352.66   19.20
  -4   2  14  359.26   16.50
   4   2 -14  352.26   16.20
  -4  -2 -14  344.87   17.20
  -4   2 -14  360.26   17.10
  -4  -2  14  361.76   17.30
  -4  -2  14  364.16   16.80
  -4   2 -14  350.46   17.50
   4  -2 -14  351.46   16.50
  -4  -2  14  366.46   19.30
  -4   2 -14  356.46   19.90
  -5   2  14   47.40    6.70
  -5   2  14   47.30    6.10
  -5   2  14   39.40    4.10
   5   2 -14   43.60    5.20
  -5  -2 -14   43.50    5.00
  -5  -2 -14   41.70    6.50
  -5   2 -14   34.40    6.30
  -5  -2  14   44.60    5.90
  -5  -2  14   35.90    5.30
  -5   2 -14   30.70    3.80
  -5   2 -14   34.60    4.80
  -6   2  14   98.79    8.50
  -6   2  14  119.19    6.30
  -6  -2 -14  123.99    7.20
  -6  -2 -14  125.69    8.60
  -6   2 -14  110.39    7.40
  -6  -2  14  106.89    8.20
  -6  -2  14  112.89    6.30
   0  -3  14   64.89    5.30
   0   3  14   56.69    5.50
   0  -3  14   45.10    6.70
   0   3  14   63.09    7.30
   0   3 -14   58.59    4.30
   0  -3 -14   60.59    4.60
   0   3 -14   44.20    7.50
   0   3  14   45.10    6.10
   0  -3 -14   56.69    5.20
  -1  -3 -14  520.85   22.60
  -1  -3 -14  500.85   21.60
   1   3 -14  503.95   26.60
  -1   3  14  527.65   21.90
   1  -3  14  503.25   21.70
  -1   3  14  501.55   25.80
   1   3 -14  467.45   21.30
  -1  -3 -14  489.75   22.30
  -1   3  14  496.45   21.20
  -1   3 -14  491.55   22.30
   1   3  14  487.15   24.20
   1   3  14  491.65   21.50
  -1   3 -14  517.35   23.10
  -1   3 -14  500.35   21.40
  -1   3 -14  475.05   27.40
  -1  -3  14  505.45   21.40
   1   3  14  476.65   21.90
  -1  -3  14  491.55   21.60
   1  -3 -14  516.15   21.40
  -2  -3 -14  218.58   10.80
  -2   3  14  226.18   10.80
   2  -3  14  219.48   11.30
  -2   3  14  222.08   10.30
  -2  -3 -14  209.68   10.40
  -2   3 -14  188.58   10.80
  -2  -3  14  194.78   10.60
  -2   3 -14  189.78   10.50
  -2   3 -14  184.48   12.80
  -2  -3  14  199.78   10.80
  -2  -3  14  194.98   11.90
  -2   3 -14  189.28   10.40
   2  -3 -14  187.98    9.80
  -3   3  14   64.59    6.00
  -3   3  14   60.79    5.70
  -3  -3 -14   68.49    5.70
  -3  -3 -14   60.39    6.10
  -3   3 -14   59.99    4.80
  -3  -3  14   61.69    6.60
  -3  -3  14   53.89    6.00
   3  -3 -14   56.49    5.30
  -3   3 -14   55.79    7.30
  -3   3 -14   54.29    5.20
  -3  -3  14   44.60   10.10
  -3  -3  14   66.09    6.90
  -4   3  14  406.06   21.00
  -4   3  14  399.66   21.80
  -4  -3 -14  409.86   19.70
  -4   3  14  432.26   18.70
  -4   3  14  401.76   17.90
  -4   3 -14  433.16   20.10
  -4  -3  14  418.16   22.00
  -4   3 -14  410.96   22.60
  -4  -3  14  424.16   19.50
  -4   3 -14  424.36   19.60
  -5   3  14  163.28    7.90
  -5  -3 -14  155.08   10.80
   5   3 -14  155.08    8.40
  -5   3  14  149.79   10.10
  -5  -3 -14  150.78    8.80
  -5   3  14  159.48    9.10
  -5   3 -14  132.49    8.80
  -5  -3  14  134.99    9.00
  -5   3 -14  151.98    8.80
   5  -3 -14  134.29    9.00
  -5  -3  14  141.09   10.40
  -5   3 -14  129.59   10.00
  -6   3  14   31.20    5.00
  -6  -3 -14   45.00    5.70
  -6  -3 -14   32.50    4.40
  -6   3  14   35.50    3.60
  -6  -3  14   38.80    3.70
  -6  -3  14   38.30    5.60
  -6   3 -14   36.00    5.70
   0  -4 -14   82.89    6.00
   0   4 -14   78.69    6.00
   0  -4  14   75.49    5.80
   0   4  14   77.79    6.20
   0  -4 -14   76.89    5.20
   0   4  14   75.29   11.70
   0  -4  14   88.89    7.30
   0   4  14   63.79    6.50
   0   4 -14   82.59    5.30
   0   4 -14  100.39   13.00
   1  -4  14   19.40    2.90
  -1   4  14   15.90    2.90
   1   4 -14   17.80    6.80
  -1   4  14   25.50    7.70
  -1  -4 -14   21.60    2.80
  -1  -4 -14   22.30    3.10
  -1  -4  14   10.00    2.60
  -1  -4  14   11.10    3.60
   1  -4 -14   14.90    2.50
   1   4  14   11.10    3.40
  -1   4 -14    7.20    8.60
  -1   4 -14   10.60    2.30
  -1  -4  14   12.30    2.90
   1  -4 -14   16.70    2.50
   1   4  14   17.10    3.40
  -1   4 -14   14.60    2.50
   1   4  14   16.70    5.80
  -2  -4 -14   87.79    5.90
   2  -4  14   88.89    7.50
  -2  -4 -14   78.59    8.20
  -2  -4 -14   95.29    6.50
  -2   4  14   88.09    6.60
  -2   4  14   90.59    6.20
  -2   4  14   93.09    6.00
   2  -4 -14   70.49    5.60
  -2  -4  14   73.99    6.90
  -2   4 -14   75.59    5.90
  -2  -4  14   93.29    6.50
  -2  -4  14   76.79    7.40
  -2   4 -14   79.69    5.80
  -3  -4 -14   61.89    5.70
  -3   4  14   62.19    5.60
  -3  -4 -14   62.79    6.20
  -3   4  14   62.49    5.00
  -3   4 -14   56.09    5.20
  -3  -4  14   67.89    6.80
   3  -4 -14   43.20    5.40
  -3   4 -14   64.09    7.50
  -3  -4  14   55.79    6.30
  -3   4 -14   59.69    5.30
  -3  -4  14   53.99    7.00
  -3  -4  14   54.29   11.20
  -4   4  14  292.57   16.30
  -4  -4 -14  282.97   14.30
  -4   4  14  284.87   13.70
  -4   4  14  277.87   15.50
  -4   4  14  282.87   12.90
  -4  -4  14  259.17   14.90
  -4   4 -14  289.67   14.20
  -4  -4  14  278.47   16.00
  -4   4 -14  283.67   16.50
  -4  -4  14  284.37   14.10
  -4   4 -14  280.87   14.40
   4  -4 -14  285.97   14.00
   5   4 -14  224.58   11.30
  -5   4  14  231.68   13.60
  -5  -4 -14  231.18   14.30
  -5  -4 -14  249.58   12.20
  -5   4  14  238.88   10.80
  -5   4  14  238.88   11.90
  -5   4 -14  228.88   14.00
  -5   4 -14  234.28   12.20
   5  -4 -14  216.08   12.30
  -5  -4  14  201.78   13.50
  -5   4 -14  227.18   12.00
  -5  -4  14  233.28   11.90
  -6  -4 -14   32.10    5.70
  -6   4  14   29.10    4.90
  -6  -4 -14   36.20    4.30
  -6   4  14   34.80    3.60
  -6  -4  14   36.00    5.70
  -6   4 -14   37.80    5.80
  -6  -4  14   38.80    3.70
   0   5 -14   93.89   11.70
   0   5  14   53.29    8.20
   0  -5 -14   69.69    5.90
   0   5  14   69.49    5.90
   0   5 -14   67.69    4.80
   0   5 -14   82.99    5.90
   0  -5  14   70.89    7.20
   0   5  14   56.49    6.20
   0  -5  14   67.59    6.00
   0  -5 -14   69.79    5.30
  -1   5  14  160.18    8.60
  -1  -5 -14  161.68    9.50
  -1  -5 -14  159.78    9.40
   1  -5  14  155.78    9.20
  -1  -5 -14  164.08    8.60
  -1   5  14  154.88    9.40
  -1   5 -14  175.38    9.30
  -1  -5  14  165.38    9.30
   1  -5 -14  180.48    9.30
  -1  -5  14  166.68    9.40
  -1   5 -14  152.98    8.70
   1   5  14  159.38   10.50
   1  -5 -14  172.38    8.70
   2  -5  14  154.68    9.70
  -2   5  14  159.28    8.90
  -2  -5 -14  149.19   10.20
  -2  -5 -14  159.38    9.20
  -2  -5 -14  159.78    9.10
  -2   5  14  160.58    9.50
  -2  -5  14  173.98    9.40
  -2   5 -14  162.68    9.10
   2  -5 -14  166.78    8.70
   2  -5 -14  162.28    8.90
  -2  -5  14  167.38    9.20
  -2  -5  14  165.08   10.90
  -3  -5 -14  219.88   11.50
  -3   5  14  228.38   11.00
   3  -5  14  225.48   13.40
  -3   5  14  210.18   10.40
  -3   5 -14  218.18   11.40
  -3  -5  14  221.28   13.10
  -3   5 -14  212.38   13.50
   3  -5 -14  213.18   11.40
  -3  -5  14  216.78   11.70
  -3  -5  14  208.08   11.20
   3  -5 -14  193.28   11.50
  -3  -5  14  207.48   24.40
  -3   5 -14  218.48   11.50
  -4  -5 -14    5.70    2.80
  -4   5  14    9.60    2.80
  -4   5  14    7.80    2.70
  -4   5  14   16.00    4.10
  -4   5  14   11.50    3.40
  -4  -5  14   10.70    3.90
   4  -5 -14    3.80    2.70
  -4  -5  14   13.20    4.50
  -4  -5  14    9.50    3.10
  -4   5 -14    8.30    2.70
  -4   5 -14    6.20    4.00
  -4   5 -14    6.70    3.00
  -5   5  14   74.99    7.40
   5   5 -14   68.29    5.30
  -5  -5 -14   73.99    6.00
  -5   5  14   66.99    6.30
  -5   5  14   61.09    4.90
  -5   5 -14   65.09    5.60
  -5  -5  14   60.29    7.10
  -5  -5  14   67.09    6.80
  -5   5 -14   63.09    7.50
  -6  -5 -14   18.70    3.90
  -6   5  14    9.80    4.60
  -6  -5 -14   12.50    2.90
  -6   5  14   19.40    2.90
  -6  -5  14   20.60    4.10
  -6  -5  14   13.10    2.60
   0   6 -14   46.40    5.50
   0  -6  14   39.30    5.00
   0  -6  14   48.70    6.80
   0  -6 -14   51.39    4.80
   0   6  14   46.60    5.50
   0  -6 -14   43.80    4.90
   0   6 -14   51.99    4.30
  -1  -6 -14   99.79    7.70
  -1   6  14   96.49    6.80
  -1  -6 -14   94.79    8.00
  -1  -6 -14   98.29    6.90
   1  -6 -14  132.99    7.60
  -1   6 -14  129.09    7.50
  -1   6 -14  122.59    7.50
  -1  -6  14  125.89    8.00
  -1  -6  14  129.49    7.80
  -2  -6 -14  151.58    8.80
  -2  -6 -14  153.78    8.90
  -2  -6 -14  158.98    9.70
   2  -6  14  134.19    9.30
  -2   6  14  154.78    8.50
  -2  -6  14  145.59    9.00
   2  -6 -14  141.09    8.50
  -2   6 -14  141.19    8.50
   2  -6 -14  152.78    8.60
  -2  -6  14  142.29    8.80
  -2  -6  14  145.09   11.00
  -3   6  14  492.05   20.80
  -3   6  14  491.65   21.40
  -3  -6 -14  487.45   22.70
   3  -6  14  512.95   22.70
  -3  -6  14  454.15   24.80
   3  -6 -14  501.85   22.60
  -3   6 -14  477.25   23.10
  -3  -6  14  498.55   21.80
  -3   6 -14  482.95   25.90
  -3  -6  14  512.55   22.20
  -4  -6 -14   -0.10    2.90
  -4   6  14    3.70    3.90
  -4   6  14    1.20    2.80
  -4   6  14    2.80    3.10
  -4   6  14   -0.20    2.60
  -4  -6  14    1.80    3.10
   4  -6 -14    3.00    2.80
  -4   6 -14   -0.30    3.90
  -4   6 -14    3.90    2.20
  -4  -6  14   -1.30    3.80
  -5   6  14   40.30    4.40
  -5   6  14   47.50    5.90
  -5   6  14   47.50    6.50
  -5  -6 -14   43.90    5.10
   5   6 -14   41.30    4.60
  -5   6  14   56.99    7.70
  -5   6 -14   49.30    4.90
  -5  -6  14   51.49    6.80
  -5   6 -14   47.70    6.70
  -5  -6  14   48.00    6.20
  -6  -6 -14    8.40    3.30
  -6  -6 -14    9.50    3.00
  -6   6 -14   12.40    3.20
  -6  -6  14   14.50    4.00
  -6  -6  14    9.90    2.60
   0  -7  14   23.00    3.40
   0  -7  14   21.10    4.10
   0   7  14   25.90    3.30
   0  -7 -14   24.10    3.30
   0   7 -14   25.40    3.90
   0   7 -14   24.40    3.40
   0  -7 -14   22.40    3.30
  -1  -7 -14  114.39    7.30
   1  -7  14  102.29    7.70
  -1  -7 -14  109.39    7.60
  -1   7  14   98.59    6.90
   1  -7 -14  126.39    7.40
  -1   7 -14  116.89    7.70
  -1   7 -14  116.49    7.60
  -1  -7  14  117.19    8.10
  -1  -7  14  126.99    7.70
   1  -7 -14  127.09    7.60
  -2  -7 -14   44.70    6.00
  -2  -7 -14   47.40    6.70
   2  -7  14   54.19    6.40
  -2   7  14   55.79    5.40
  -2  -7 -14   48.20    5.50
   2  -7 -14   46.30    5.20
  -2   7 -14   45.20    5.10
  -2  -7  14   51.09    6.10
  -2  -7  14   55.29    5.90
   2  -7 -14   42.10    6.00
  -3  -7 -14   91.39    6.90
  -3   7  14   88.49    7.50
  -3   7  14   81.19    6.50
   3  -7  14   90.89    8.70
  -3   7 -14   95.39    6.60
  -3  -7  14   80.09    7.30
  -3  -7  14   77.39    8.20
   3  -7 -14   82.79    6.80
  -3  -7  14   97.19    9.30
  -4   7  14   51.69    5.40
  -4  -7 -14   41.60    5.30
  -4   7  14   48.30    6.70
  -4   7  14   45.80    5.60
  -4   7  14   42.10    4.90
  -4  -7  14   34.10    4.60
  -4   7 -14   37.30    4.80
  -4  -7  14   31.90    5.30
  -5  -7 -14  116.09    7.40
  -5   7  14  113.59    8.20
  -5   7  14  100.59    6.30
  -5   7  14   97.39    8.80
  -5   7 -14  111.19    6.90
  -5  -7  14  107.89    7.80
  -5  -7  14  105.79    8.60
  -6  -7 -14   54.59    6.20
  -6  -7  14   59.59    4.90
   0  -8  14   22.40    3.60
   0   8 -14   31.30    3.60
   0   8 -14   25.30    3.70
   0  -8 -14   31.10    4.80
   0  -8 -14   25.30    3.60
   0  -8  14   24.10    4.30
   1  -8  14   94.69    7.10
  -1  -8 -14  101.39    6.80
  -1   8  14   97.09    6.40
  -1  -8 -14  108.19    7.50
   1  -8 -14   94.69    7.00
  -1  -8  14  101.09    7.60
  -1   8 -14   94.89    7.20
  -1  -8  14   97.49    7.90
   1  -8 -14   97.39    6.80
  -2  -8 -14   73.99    7.40
  -2   8  14   82.49    6.30
   2  -8  14   69.79    6.90
  -2  -8 -14   74.79    7.00
  -2  -8  14   77.59    6.90
   2  -8 -14   81.99    6.20
  -2   8 -14   78.09    6.20
   2  -8 -14   63.59    7.50
  -2  -8  14   70.49    6.70
   3  -8  14   67.39    7.80
  -3  -8 -14   63.69    8.80
  -3   8  14   59.49    5.70
  -3  -8 -14   53.79    6.10
  -3  -8  14   65.69    6.30
  -3  -8  14   53.69    9.40
  -3  -8  14   64.99    7.40
   3  -8 -14   68.49    6.10
  -3   8 -14   46.60    5.40
  -3  -8  14   72.19    7.60
  -4   8  14   85.69    7.20
  -4  -8 -14   89.79    6.70
  -4   8  14  101.99    8.20
   4  -8 -14   88.79    7.30
  -4   8 -14   89.19    6.40
  -4  -8  14   70.19    8.60
  -4  -8  14   87.89    7.30
  -4  -8  14   88.39    9.80
  -5   8  14   12.70    3.40
  -5   8  14   13.50    3.60
  -5  -8 -14   12.20    3.20
  -5   8  14    3.50    5.10
  -5  -8  14   12.40    3.90
  -5   8 -14   14.40    2.50
  -5  -8  14   18.30    4.90
   0   9 -14    7.30    3.30
   0   9 -14    6.20    2.60
   0  -9  14    1.50    2.80
   0  -9 -14    6.10    2.50
   0  -9  14    8.20    3.90
   0  -9 -14    7.20    2.60
   1  -9  14  382.86   17.30
  -1  -9 -14  384.56   18.00
  -1  -9 -14  389.36   17.40
  -1  -9  14  365.66   17.50
   1  -9 -14  369.36   17.90
  -1  -9  14  371.46   17.30
   1  -9 -14  363.16   17.40
  -1   9 -14  360.86   18.20
   2  -9  14   88.59    7.40
  -2  -9 -14   91.79    7.60
  -2  -9 -14   98.69    8.20
  -2   9 -14   95.29    6.90
  -2  -9  14   94.39    7.50
  -2  -9  14   70.09    7.00
   2  -9 -14   89.19    6.80
   3  -9  14   77.79    7.60
  -3  -9 -14   59.59    6.40
  -3   9  14   55.59    6.20
  -3  -9 -14   54.19    8.30
  -3  -9  14   69.89    8.00
  -3  -9  14   64.69    7.20
  -3  -9  14   56.79    6.40
   3  -9 -14   63.89    6.10
  -3   9 -14   55.89    5.50
  -4   9  14   83.99    8.70
  -4   9  14   99.29    7.10
  -4  -9 -14   90.69    6.90
  -4  -9  14   94.59    7.20
  -4  -9  14   86.19    9.20
  -4   9 -14   89.19    6.30
   4  -9 -14   86.49    7.60
  -5   9  14   22.90    3.50
  -5  -9 -14   24.40    3.60
  -5   9 -14   23.50    3.50
  -5  -9  14   21.40    4.00
   0 -10  14  860.71   36.10
   0 -10 -14  864.51   36.30
   0 -10  14  851.51   35.60
   0 -10 -14  872.11   37.70
   0  10 -14  828.82   35.80
  -1 -10 -14  115.39    8.30
   1 -10  14  119.19    8.10
  -1 -10  14  127.89    8.50
   1 -10 -14  116.59    8.40
   1 -10 -14  126.79    8.10
  -1 -10  14  115.79    8.50
  -1  10 -14  116.19    8.20
  -2 -10 -14   24.20    3.90
  -2  10  14   18.50    3.20
   2 -10  14   22.40    3.80
  -2 -10  14   29.50    4.30
  -2 -10  14   26.70    3.90
   2 -10 -14   28.20    3.70
  -2  10 -14   31.70    4.80
  -3 -10 -14  124.19    9.50
  -3  10  14  138.89    8.40
  -3 -10 -14  121.79    8.50
   3 -10  14  129.09    8.70
  -3 -10  14  121.29    9.60
  -3 -10  14  111.79    8.90
  -3  10 -14  112.89    7.60
  -3 -10  14  111.99    8.30
   3 -10 -14  116.69    8.20
  -4  10  14   27.90    5.60
  -4 -10 -14   23.20    4.10
  -4  10  14   37.40    5.00
  -4 -10  14   42.00    5.60
  -4  10 -14   32.20    4.10
   4 -10 -14   33.10    4.60
  -4 -10  14   31.90    4.30
  -5  10  14   27.00    3.60
   5  10 -14   30.40    3.60
  -5 -10 -14   25.40    3.80
  -5  10 -14   29.10    3.50
  -5 -10  14   28.50    4.20
   0  11 -14  150.58   10.20
   0 -11 -14  160.68    9.60
   0 -11  14  167.48   10.70
   0 -11  14  176.18    9.80
  -1 -11 -14  235.08   13.50
   1 -11  14  270.47   13.30
  -1 -11  14  273.07   13.50
  -1  11 -14  256.37   13.80
  -1 -11  14  282.17   13.60
  -2  11  14   23.60    3.90
   2 -11  14   24.20    3.60
  -2 -11 -14   22.50    3.70
  -2 -11  14   22.00    3.70
  -2 -11  14   30.60    4.60
   2 -11 -14   25.70    3.90
  -2  11 -14   24.20    3.40
  -3  11  14   65.39    5.70
  -3 -11 -14   60.09    7.60
  -3 -11 -14   58.49    7.00
  -3  11  14   57.79    7.50
   3 -11  14   73.49    6.90
  -3 -11  14   47.40    6.50
   3 -11 -14   50.29    5.90
  -3  11 -14   49.90    5.20
  -3 -11  14   42.00    6.00
  -3 -11  14   49.80    6.40
  -4 -11 -14   20.90    4.20
  -4  11  14   32.50    4.30
  -4  11 -14   33.50    4.00
  -4 -11  14   23.80    3.70
  -4 -11  14   39.50    5.50
   5  11 -14   49.40    4.30
  -5  11 -14   50.89    3.90
   0 -12  14    6.50    4.50
   0  12  14   -0.10    2.80
   0 -12  14    4.40    2.90
   0 -12 -14   -0.80    2.40
  -1 -12 -14   33.10    4.20
   1 -12  14   36.00    5.40
  -1  12  14   23.60    3.60
  -1 -12  14   43.40    6.50
   1 -12 -14   34.20    5.10
  -1 -12  14   24.40    3.90
   2 -12  14   37.30    5.40
  -2 -12 -14   28.60    4.10
  -2  12  14   31.10    5.20
   2 -12 -14   45.50    5.20
  -2 -12  14   40.80    5.90
  -2 -12  14   42.80    4.80
  -2  12 -14   39.90    5.30
   3 -12  14   50.09    6.10
  -3 -12 -14   52.29    6.50
  -3  12  14   42.60    4.90
  -3 -12  14   38.20    6.20
  -3  12 -14   47.60    4.60
   3 -12 -14   39.60    5.60
  -3 -12  14   40.20    5.80
  -4  12  14   17.80    2.70
  -4 -12  14   13.30    3.40
  -4 -12  14   12.60    5.10
  -4  12 -14   11.50    2.30
   0 -13  14   11.80    4.70
   0 -13  14    0.70    3.00
   0 -13 -14    2.40    2.50
   0  13  14   -4.00    2.90
   1  13 -14   78.19    6.70
  -1 -13 -14   79.39    6.90
   1 -13  14   92.69    7.00
  -1  13  14   84.89    6.80
   1 -13 -14   99.69    6.90
  -1 -13  14  100.49    7.10
  -1 -13  14  104.49    8.00
  -2 -13 -14   44.60    6.90
  -2  13  14   45.30    5.30
   2 -13  14   58.89    5.80
  -2 -13 -14   51.09    5.70
  -2  13 -14   52.49    5.70
   2 -13 -14   52.89    5.40
  -2 -13  14   51.19    6.60
  -2 -13  14   48.70    6.00
  -2 -13  14   51.89    6.10
  -3  13  14  115.39    7.10
   3 -13  14  112.49    7.70
  -3 -13 -14  109.99    8.00
  -3 -13  14  106.29    7.90
  -3  13 -14  116.99    6.90
  -3 -13  14  104.19    7.40
   3 -13 -14  105.99    7.50
  -4  13  14   45.90    4.30
  -4 -13  14   47.20    5.20
  -4  13 -14   46.40    4.10
   0  14  14    8.90    3.50
   0 -14  14   15.20    5.40
   0 -14 -14   11.70    3.00
   0 -14  14    8.10    2.90
  -1  14  14    7.50    2.90
  -1 -14 -14    7.70    2.90
   1 -14  14   10.10    2.80
   1 -14 -14    7.90    2.50
  -1 -14  14   13.90    4.20
  -1 -14  14    9.20    3.40
  -2 -14 -14   13.30    3.20
  -2  14  14   10.00    2.60
  -2 -14 -14   16.50    4.20
   2 -14  14   14.80    3.10
  -2 -14  14    9.30    3.40
  -2 -14  14   15.40    4.40
  -2 -14  14    3.40    3.30
   2 -14 -14    8.10    2.80
  -3 -14 -14    7.50    3.30
  -3  14  14   12.80    2.60
   3 -14  14   11.70    3.70
  -3  14 -14    9.30    3.10
  -3 -14  14   13.10    3.50
  -3 -14  14    9.00    3.80
   0 -15 -14   37.20    4.60
   0 -15  14   33.40    4.90
  -1 -15 -14   27.50    4.30
   1 -15  14   29.50    4.40
  -1  15  14   25.00    3.50
  -1 -15 -14   24.50    3.60
   1 -15 -14   22.60    3.20
  -1 -15  14   28.80    3.90
  -1 -15  14   31.50    3.90
  -1 -15  14   20.90    4.60
  -2 -15 -14   16.00    2.90
  -2  15  14   12.90    2.80
   2 -15  14   15.40    3.20
  -2 -15  14   18.80    3.70
   2 -15 -14   20.10    3.40
  -2 -15  14   23.60    3.90
  -3  15  14   17.70    2.60
   0 -16  14   45.20    5.30
   0 -16  14   50.29    5.90
   0 -16 -14   56.39    4.80
   0 -16 -14   53.49    5.00
   1 -16  14   37.60    4.60
  -1 -16 -14   45.40    4.30
   1 -16 -14   34.60    4.40
  -1 -16  14   37.90    4.80
  -1 -16  14   39.70    5.30
  -2 -16 -14   33.30    4.40
   0   0  15   -2.20    2.70
   0   0  15    0.00    2.20
   0   0 -15    0.70    1.60
   0   0 -15    1.80    6.80
   1   0 -15    2.30    6.70
  -1   0  15   -2.20    2.30
   1   0 -15    2.50    1.70
  -1   0 -15    2.00    1.80
   1   0  15   -2.70    2.50
  -1   0 -15    6.20    8.30
  -1   0  15   -0.60    2.10
  -1   0 -15    0.90    2.60
  -1   0 -15    0.40    1.70
  -2   0 -15   30.40    4.80
  -2   0  15   16.80    3.10
  -2   0 -15   23.40    3.30
   2   0 -15   18.80    2.80
  -2   0  15   20.50    3.30
  -2   0 -15   22.50    3.20
  -3   0 -15  616.24   27.30
  -3   0 -15  590.34   28.00
  -3   0 -15  605.94   32.20
   3   0 -15  686.33   26.90
  -3   0  15  639.84   30.90
  -3   0  15  610.24   26.60
  -3   0  15  641.24   27.30
  -3   0 -15  627.24   28.90
  -4   0 -15   16.10    3.30
  -4   0  15   14.80    4.20
  -4   0  15   13.60    3.50
  -4   0  15   18.70    3.50
   4   0 -15   18.00    3.20
  -4   0 -15   17.30    4.30
  -5   0  15    0.90    3.50
  -5   0 -15    1.90    2.50
  -5   0  15    0.40    2.10
  -5   0 -15    1.90    3.60
  -5   0  15    1.30    3.10
  -6   0  15   20.60    3.20
  -6   0 -15   27.50    4.30
  -6   0  15   19.80    4.20
  -6   0 -15   25.50    3.70
   0   1  15   47.10    5.90
   0   1  15   65.19    6.00
   0  -1  15   62.09    6.00
   0   1  15   71.39    9.90
   0   1 -15   87.09   13.00
   0   1 -15   62.29    4.30
   0  -1 -15   64.49    5.70
   0  -1 -15   57.39    4.50
   0  -1  15   61.29    6.50
  -1  -1 -15    3.50    2.00
   1   1 -15   -1.70    7.30
  -1  -1 -15    3.10    2.50
  -1   1  15   14.80    7.10
   1  -1  15    4.90    2.80
  -1   1  15    1.50    2.40
   1   1 -15    1.80    1.70
  -1  -1 -15    4.80    2.30
  -1   1  15    1.20    2.20
   1  -1 -15    4.20    1.70
   1   1  15    6.70    3.00
  -1   1 -15    2.90    2.10
  -1   1 -15   11.70    8.00
  -1  -1  15    3.00    2.40
   1   1  15    3.00    5.30
  -1  -1  15    0.50    2.30
  -1   1 -15    1.80    1.80
  -2  -1 -15   79.59    5.90
  -2   1  15   86.39    6.50
   2  -1  15   86.49    9.10
  -2  -1 -15   68.89    6.20
   2   1 -15   82.39    5.50
  -2   1  15   88.49    6.40
  -2   1 -15   94.79    6.80
  -2  -1  15   88.79    6.70
  -2   1 -15   96.89    6.20
  -2  -1  15   90.69    6.70
  -2   1 -15   85.99    5.70
   2  -1 -15   80.39    5.50
  -3  -1 -15   65.09    6.90
  -3   1  15   62.89    5.90
  -3   1  15   60.19    6.20
  -3   1  15   58.19    6.70
   3   1 -15   55.29    4.60
  -3  -1 -15   55.79    5.10
  -3   1 -15   49.30    7.60
  -3   1 -15   54.09    5.20
  -3   1 -15   53.49    4.90
  -3  -1  15   61.89    6.10
  -3  -1  15   47.60    6.40
   3  -1 -15   55.29    4.60
  -3   1 -15   61.09    7.70
  -3  -1  15   52.69    6.50
  -4  -1 -15   32.60    4.70
  -4   1  15   20.20    4.00
  -4   1  15   27.80    4.60
  -4  -1 -15   33.30    5.20
   4   1 -15   38.50    4.50
  -4   1  15   26.80    3.70
   4  -1 -15   30.00    4.50
  -4  -1  15   22.60    4.30
  -4  -1  15   20.70    3.90
  -4  -1  15   26.10    4.00
  -4   1 -15   25.40    3.50
  -4   1 -15   19.90    4.70
  -4   1 -15   29.90    4.20
  -5  -1 -15   50.29    5.00
  -5   1  15   51.19    5.80
  -5   1  15   56.29    7.20
  -5   1  15   52.69    4.60
  -5  -1 -15   52.49    6.90
  -5   1 -15   52.59    5.10
  -5  -1  15   65.39    6.10
  -5   1 -15   56.49    7.00
  -5  -1  15   49.90    6.80
  -6  -1 -15   13.20    3.70
  -6  -1 -15   10.30    2.80
  -6   1  15   11.30    3.80
  -6   1  15   11.80    2.50
  -6  -1  15   12.30    2.40
  -6  -1  15   16.40    3.80
  -6   1 -15   13.70    3.80
  -6   1 -15   13.20    3.10
   0  -2  15    7.90    2.50
   0   2  15    7.90    2.80
   0  -2 -15   12.90    3.10
   0   2  15    5.50    5.80
   0   2 -15    8.10    2.10
   0  -2 -15   10.10    2.10
   0   2  15    7.80    2.50
   0  -2 -15    8.80    2.20
   0   2 -15   11.00    7.20
   0  -2  15   11.00    3.30
   1  -2  15  368.46   16.20
   1   2 -15  348.67   15.60
  -1   2  15  355.86   16.10
  -1   2  15  353.06   15.80
  -1   2  15  328.47   21.90
  -1  -2 -15  356.16   16.70
  -1  -2 -15  353.96   15.90
  -1  -2 -15  350.16   16.30
   1  -2 -15  351.96   15.60
  -1  -2  15  354.46   16.10
  -1   2 -15  353.66   16.40
   1   2  15  334.67   16.30
  -1  -2  15  364.16   16.00
  -1   2 -15  361.66   16.90
  -1   2 -15  347.07   15.60
  -1   2 -15  319.17   22.90
  -2  -2 -15    4.30    2.30
  -2   2  15    4.80    2.50
  -2  -2 -15    6.70    2.30
   2   2 -15    5.00    1.90
  -2   2  15    4.20    2.40
   2  -2  15    2.70    3.30
  -2   2 -15    6.50    2.20
  -2   2 -15    6.50    2.40
  -2  -2  15    5.30    2.90
  -2  -2  15    7.30    2.80
  -2   2 -15    7.30    2.80
   2  -2 -15   10.40    2.40
  -2  -2  15    6.10    2.60
   3   2 -15  348.97   14.10
  -3  -2 -15  293.27   14.70
  -3   2  15  304.07   14.60
  -3   2  15  327.47   16.50
  -3  -2 -15  312.17   14.80
  -3   2  15  299.27   14.10
   3  -2 -15  268.37   13.70
  -3   2 -15  289.07   14.90
  -3  -2  15  293.47   14.40
  -3  -2  15  288.87   16.30
  -3   2 -15  274.27   14.40
  -3  -2  15  305.87   14.60
  -3   2 -15  272.57   17.10
  -4   2  15   42.70    7.00
  -4  -2 -15   40.80    5.00
  -4   2  15   54.69    6.10
  -4  -2 -15   41.50    7.10
  -4   2 -15   53.19    7.60
   4  -2 -15   47.50    5.80
  -4  -2  15   46.00    6.90
  -4  -2  15   61.49    6.20
  -4  -2  15   54.79    6.80
  -4   2 -15   57.39    5.60
  -4   2 -15   50.19    5.20
  -5   2  15   22.00    3.80
   5   2 -15   23.70    3.90
  -5   2  15   19.50    4.00
  -5   2  15   24.50    3.60
  -5  -2 -15   23.70    3.60
  -5  -2 -15   23.50    4.70
  -5   2 -15   20.70    4.50
  -5  -2  15   17.60    3.80
  -5  -2  15   15.70    3.90
   5  -2 -15   16.20    3.30
  -5   2 -15   24.70    3.70
  -6   2  15    2.80    2.20
  -6  -2 -15   -4.30    2.60
  -6  -2 -15   -4.10    3.20
  -6   2  15   -1.20    3.40
  -6  -2  15    2.50    3.50
  -6   2 -15   -1.20    3.70
  -6  -2  15    3.50    2.10
   0   3 -15  245.48   20.90
   0  -3 -15  258.77   12.90
   0  -3 -15  269.37   12.30
   0  -3  15  267.07   13.20
   0   3 -15  267.27   12.10
   0   3  15  264.27   12.50
   0  -3  15  266.37   12.70
   0   3  15  254.37   18.10
   0   3  15  269.07   13.00
   1  -3  15  180.88   10.20
  -1  -3 -15  186.68   10.10
  -1  -3 -15  176.38   10.50
  -1   3  15  177.68    9.90
  -1  -3 -15  187.78    9.70
   1   3 -15  193.18    9.30
  -1   3  15  186.18   16.20
  -1   3  15  185.18   10.20
  -1  -3  15  195.28   10.00
  -1   3 -15  190.28   21.10
  -1  -3  15  189.68   10.40
  -1   3 -15  198.28    9.50
   1   3  15  194.08   10.60
  -1  -3  15  186.38   11.30
   1  -3 -15  194.28    9.50
  -1   3 -15  196.78   10.30
   1   3  15  209.48   11.00
  -2   3  15  108.79    7.10
   2   3 -15  104.29    6.10
   2  -3  15  112.89    8.30
  -2  -3 -15   97.19    6.60
  -2  -3 -15  114.39    7.10
  -2   3  15  114.69    7.30
  -2  -3  15   99.99    7.40
  -2   3 -15   97.19    6.70
   2  -3 -15   98.49    6.30
  -2  -3  15  107.49    7.50
  -2  -3  15   94.29    8.00
  -2   3 -15  102.19    6.80
  -3  -3 -15   71.89    5.80
   3   3 -15   71.09    5.30
  -3   3  15   59.19    6.10
  -3  -3 -15   63.69    6.30
  -3   3  15   78.49    6.70
  -3  -3  15   50.99   12.50
  -3  -3  15   61.89    6.20
  -3  -3  15   61.29    6.80
  -3   3 -15   63.09    8.10
   3  -3 -15   52.79    5.30
  -3  -3  15   61.19    6.70
  -3   3 -15   53.99    5.10
  -3   3 -15   62.79    5.50
  -4   3  15  266.77   15.20
  -4   3  15  256.87   12.00
  -4  -3 -15  250.67   13.10
   4   3 -15  272.87   12.50
  -4   3  15  236.98   14.60
  -4   3  15  254.27   12.60
  -4  -3  15  246.88   14.90
  -4  -3  15  254.77   13.00
  -4   3 -15  269.67   13.20
  -4  -3  15  254.57   13.40
  -4   3 -15  263.47   13.40
  -4   3 -15  249.58   15.40
   5   3 -15   17.10    3.50
  -5   3  15   18.70    3.60
  -5  -3 -15   14.50    4.20
  -5   3  15   23.40    4.20
  -5   3  15   20.00    3.30
  -5  -3 -15   14.30    3.00
  -5   3 -15   15.30    3.10
  -5   3 -15   18.30    4.30
  -5  -3  15   16.60    3.50
  -5  -3  15   11.10    3.80
   5  -3 -15   14.30    3.40
  -5   3 -15   16.80    3.30
  -6  -3 -15  114.49    8.20
  -6   3  15  113.19    6.00
  -6   3  15  117.49    8.60
  -6  -3 -15  112.99    6.80
  -6  -3  15  112.19    8.10
  -6  -3  15  102.89    6.00
  -6   3 -15  100.69    8.40
   0   4 -15  573.44   24.00
   0  -4 -15  576.94   25.10
   0   4  15  569.64   24.30
   0   4 -15  551.94   30.70
   0  -4  15  548.75   24.10
   0   4  15  539.75   23.60
   0  -4 -15  566.94   24.20
   0  -4  15  563.84   24.30
  -1  -4 -15  553.54   26.30
  -1   4  15  587.54   25.40
   1  -4  15  549.25   25.30
  -1  -4 -15  584.24   26.40
  -1  -4 -15  592.04   25.40
  -1   4  15  568.44   24.90
   1   4 -15  614.84   25.30
  -1   4  15  529.15   32.10
   1   4  15  586.44   25.60
   1  -4 -15  607.54   26.30
   1   4  15  588.64   25.10
  -1  -4  15  609.04   25.30
   1  -4 -15  609.94   25.30
  -1  -4  15  645.44   25.60
  -1   4 -15  618.84   25.30
  -1   4 -15  619.54   27.30
  -1  -4  15  580.54   29.00
  -2  -4 -15   18.70    3.50
  -2   4  15   15.80    3.20
  -2   4  15   14.40    3.00
   2  -4  15   12.00    3.40
  -2  -4 -15   18.40    4.00
  -2  -4 -15   16.50    3.00
   2  -4 -15    7.90    2.50
  -2  -4  15   10.00    3.40
  -2  -4  15    9.70    3.10
  -2  -4  15    5.30    2.80
   2  -4 -15    9.90    2.30
  -2   4 -15    8.20    2.30
  -2   4 -15    5.90    3.60
  -2   4 -15    9.90    2.40
  -3   4  15   75.89    5.80
  -3  -4 -15   73.49    6.40
  -3   4  15   70.49    6.10
  -3  -4 -15   69.39    6.80
  -3  -4  15   84.99    7.90
   3  -4 -15   97.89    6.50
  -3   4 -15   76.19    8.70
  -3   4 -15   86.49    6.30
  -3  -4  15   88.59    6.90
  -3  -4  15   87.89    7.60
   3  -4 -15   82.09    6.40
  -3   4 -15   95.19    6.40
  -4   4  15   96.99    6.10
  -4   4  15   95.99    8.50
  -4   4  15  108.59    8.60
  -4   4  15  101.29    7.10
   4   4 -15   85.19    6.20
  -4  -4 -15  102.39    7.10
  -4  -4  15   90.99    7.60
   4  -4 -15   96.49    6.80
  -4   4 -15   82.89    8.50
  -4  -4  15   81.69    8.20
  -4  -4  15   79.59    8.60
  -4   4 -15   91.49    6.70
  -4   4 -15   87.39    6.50
  -5   4  15   76.79    6.70
  -5  -4 -15   83.89    7.80
  -5   4  15   79.49    5.40
  -5  -4 -15   80.39    6.30
  -5   4  15   86.39    7.60
   5   4 -15   85.59    5.90
  -5   4 -15   76.59    7.90
  -5   4 -15   81.49    6.30
  -5  -4  15   82.29    7.00
   5  -4 -15   85.19    7.00
  -5  -4  15   78.79    7.80
  -6   4  15    8.60    4.10
  -6   4  15    9.30    2.70
  -6  -4 -15   15.60    3.80
  -6  -4 -15    5.90    2.60
  -6   4 -15    9.30    4.00
  -6  -4  15    3.10    3.60
  -6  -4  15    5.60    2.30
   0  -5  15   56.39    7.10
   0   5 -15   55.89    4.80
   0  -5 -15   53.69    5.30
   0   5  15   50.39    4.90
   0   5  15   60.49    5.60
   0  -5  15   59.29    5.80
   0  -5 -15   59.99    5.10
  -1   5  15  319.57   15.30
  -1  -5 -15  309.47   15.40
  -1  -5 -15  333.57   15.70
  -1   5  15  321.27   14.80
  -1  -5 -15  318.37   14.90
   1   5 -15  295.47   14.50
   1  -5  15  304.77   15.10
  -1  -5  15  328.17   15.10
  -1  -5  15  338.97   15.20
   1  -5 -15  316.07   15.20
   1  -5 -15  303.57   14.70
   1   5  15  321.97   15.80
  -1   5 -15  333.37   15.80
  -1   5 -15  332.07   14.70
  -2  -5 -15   50.09    5.70
  -2   5  15   59.49    5.70
  -2  -5 -15   54.79    5.40
  -2   5  15   50.79    5.50
   2  -5  15   54.39    6.90
  -2  -5 -15   64.69    7.30
  -2   5 -15   58.89    5.50
   2  -5 -15   62.09    5.50
  -2  -5  15   62.59    6.20
   2  -5 -15   60.29    5.40
  -2  -5  15   60.39    6.40
  -2  -5  15   66.69    8.00
  -3  -5 -15  120.49    7.90
  -3   5  15  118.19    7.40
  -3   5  15  109.79    7.70
  -3  -5  15  125.99    8.20
  -3   5 -15  116.39   10.00
   3  -5 -15   98.99    8.40
   3  -5 -15  115.19    7.50
  -3   5 -15  114.79    7.50
  -3  -5  15  122.09    9.50
  -3  -5  15  134.79    8.70
  -4   5  15  352.86   17.80
  -4   5  15  366.16   19.00
  -4   5  15  340.67   15.90
  -4   5  15  316.37   15.20
  -4  -5 -15  363.16   17.10
  -4   5 -15  350.26   19.60
   4  -5 -15  348.87   16.70
  -4  -5  15  350.86   16.50
  -4  -5  15  347.97   18.90
  -4   5 -15  338.97   17.00
  -4  -5  15  340.97   17.20
  -5   5  15  244.88   13.40
  -5   5  15  235.08   11.30
   5   5 -15  211.88   11.00
  -5  -5 -15  210.98   13.80
  -5   5  15  212.78   10.50
  -5   5 -15  244.08   11.90
   5  -5 -15  214.08   12.10
  -5   5 -15  220.38   13.70
  -5  -5  15  233.68   11.70
  -5  -5  15  230.48   13.30
  -6  -5 -15   25.20    4.30
  -6  -5 -15   26.90    3.40
  -6  -5  15   26.50    4.40
  -6  -5  15   23.10    3.20
   0   6 -15   80.19    5.70
   0  -6  15   78.39    6.70
   0   6  15   78.79    6.40
   0   6 -15   77.99    6.50
   0  -6 -15   74.19    5.90
   0  -6 -15   76.39    5.90
   0  -6  15   77.99    7.80
   1  -6  15   37.70    5.50
  -1   6  15   29.10    3.70
  -1  -6 -15   35.70    4.20
  -1  -6 -15   29.80    3.70
   1  -6 -15   32.20    4.70
  -1   6 -15   37.20    5.40
   1  -6 -15   36.40    4.80
  -1  -6  15   28.20    3.90
  -1   6 -15   33.40    4.70
  -1  -6  15   31.30    3.90
  -2  -6 -15  438.46   20.20
  -2  -6 -15  429.56   20.40
  -2   6  15  437.26   18.90
  -2  -6 -15  446.26   19.70
   2  -6  15  435.46   19.70
  -2  -6  15  425.46   19.60
  -2  -6  15  409.46   22.40
  -2   6 -15  416.06   20.50
   2  -6 -15  426.16   19.30
   2  -6 -15  444.66   20.10
  -2  -6  15  423.66   19.40
   3  -6  15   24.90    5.00
  -3   6  15   17.80    3.20
  -3  -6 -15   23.20    3.90
  -3  -6  15   14.30    4.30
  -3  -6  15   16.90    3.70
  -3  -6  15   22.80    5.40
  -3  -6  15   14.70    3.30
  -3   6 -15   16.30    2.90
  -3   6 -15   21.10    5.00
   3  -6 -15   18.10    3.10
  -4   6  15   69.79    7.30
  -4  -6 -15   63.69    5.80
  -4   6  15   61.49    5.80
  -4   6  15   68.19    6.70
  -4   6  15   57.49    5.40
   4  -6 -15   67.19    6.30
  -4  -6  15   50.49    7.70
  -4  -6  15   64.49    8.80
  -4  -6  15   67.99    6.30
  -4   6 -15   64.09    7.80
  -4   6 -15   61.39    5.60
  -5   6  15   16.80    3.20
  -5   6  15    9.40    3.10
  -5   6  15   12.70    3.80
  -5  -6 -15   11.70    3.20
   5   6 -15   16.70    3.20
  -5  -6  15   13.80    4.10
  -5   6 -15   17.60    2.90
  -5  -6  15   17.50    3.70
  -6  -6  15    2.90    2.60
   0  -7  15  308.87   15.60
   0   7 -15  316.87   16.10
   0  -7  15  319.77   15.40
   0   7 -15  358.46   14.90
   0  -7 -15  306.07   14.90
   0  -7 -15  317.27   15.50
   1  -7  15  115.89    8.00
  -1   7  15  117.59    7.10
  -1  -7 -15  114.79    7.20
  -1  -7 -15  117.49    7.90
  -1  -7  15  107.29    7.50
   1  -7 -15  111.79    7.20
  -1  -7  15  118.19    8.00
   1  -7 -15  113.49    7.30
  -1   7 -15  118.39    7.70
  -1   7 -15   97.79    7.70
   2  -7  15  515.05   22.60
  -2  -7 -15  474.05   23.50
  -2  -7 -15  504.65   22.70
  -2  -7 -15  495.45   23.40
  -2   7  15  513.55   22.00
  -2  -7  15  513.25   22.60
   2  -7 -15  525.55   22.50
   2  -7 -15  500.95   23.20
  -2   7 -15  521.55   23.90
  -2  -7  15  516.85   22.40
  -3  -7 -15   56.29    5.90
  -3   7  15   51.49    5.60
  -3   7  15   47.00    6.00
  -3   7 -15   42.00    4.90
  -3  -7  15   47.20    6.70
  -3  -7  15   59.59    7.70
   3  -7 -15   42.80    5.50
  -3  -7  15   48.10    6.40
  -3  -7  15   51.69    6.90
  -4   7  15   55.79    6.00
  -4  -7 -15   53.39    5.60
  -4   7  15   62.09    6.80
  -4   7  15   54.49    5.60
  -4  -7  15   46.20    7.30
   4  -7 -15   39.50    5.80
  -4  -7  15   57.29    6.00
  -4   7 -15   49.90    5.10
  -5   7  15  121.09    7.10
  -5   7  15  138.99    9.60
  -5   7  15  131.19    8.70
   5   7 -15  129.59    7.00
  -5  -7 -15  132.09    7.60
  -5   7 -15  117.69    7.40
  -5  -7  15  104.99    9.30
  -5  -7  15  110.79    7.80
   0  -8 -15   67.69    5.90
   0  -8  15   65.69    6.40
   0  -8  15   67.09    7.80
   0  -8 -15   63.49    6.00
   0   8 -15   71.99    7.30
   0   8 -15   70.59    5.70
  -1  -8 -15  246.38   13.00
  -1  -8 -15  242.28   12.40
   1  -8  15  244.38   12.80
  -1   8  15  249.58   12.20
  -1   8 -15  254.17   13.10
   1  -8 -15  269.77   13.00
   1  -8 -15  232.78   12.50
  -1  -8  15  256.77   12.90
  -1  -8  15  256.77   13.00
   2  -8  15  205.18   12.00
  -2   8  15  225.78   11.50
  -2  -8 -15  212.18   12.50
  -2  -8 -15  197.68   12.20
  -2   8 -15  247.48   12.30
  -2  -8  15  249.88   12.20
   2  -8 -15  240.48   12.10
   2  -8 -15  220.38   11.90
  -2  -8  15  243.48   12.10
   3  -8  15   28.20    4.60
  -3   8  15   22.00    3.20
  -3  -8 -15   25.20    4.20
  -3   8  15   18.00    3.30
  -3  -8  15   26.60    4.20
  -3  -8  15   28.70    4.70
  -3   8 -15   32.00    4.50
   3  -8 -15   22.90    3.40
  -4   8  15  135.29    8.80
  -4  -8 -15  136.19    8.40
  -4   8  15  139.19    9.70
  -4  -8  15  127.29    8.60
  -4  -8  15  115.39   10.80
  -4   8 -15  134.59    8.10
   4  -8 -15  138.59    8.50
   5   8 -15   51.49    4.30
  -5   8  15   48.80    6.00
  -5   8  15   54.89    6.40
  -5  -8 -15   49.70    5.00
  -5  -8  15   46.10    5.80
  -5  -8  15   48.30    6.50
  -5   8 -15   44.10    4.30
   0  -9  15   50.39    5.80
   0  -9  15   39.30    5.00
   0  -9 -15   53.89    5.60
   0   9 -15   46.50    5.40
   0  -9 -15   43.70    5.50
  -1  -9 -15  159.68    9.90
   1  -9  15  161.18    9.90
  -1  -9 -15  167.08    9.60
  -1  -9  15  182.08   10.30
  -1  -9  15  169.58   10.10
   1  -9 -15  172.68    9.80
  -1   9 -15  173.28   10.10
   1  -9 -15  179.98    9.90
  -2  -9 -15   72.09    7.10
   2  -9  15   88.59    7.00
  -2  -9 -15   73.39    7.90
   2  -9 -15   77.39    6.40
  -2   9 -15   71.59    6.20
   2  -9 -15   73.19    7.80
  -2  -9  15   74.99    7.00
  -2  -9  15   75.69    7.20
  -3  -9 -15   74.19    8.80
  -3  -9 -15   54.39    6.40
   3  -9  15   71.29    7.40
  -3   9  15   49.60    5.90
  -3  -9  15   56.79    6.90
  -3  -9  15   50.89    7.50
  -3   9 -15   62.89    5.50
   3  -9 -15   64.39    6.00
  -3  -9  15   51.89    6.50
  -4   9  15   19.50    3.30
  -4  -9 -15   11.70    3.30
  -4   9  15   14.90    4.50
   4  -9 -15   19.20    3.70
  -4   9 -15   16.50    2.70
  -4  -9  15   14.40    3.40
   5   9 -15   37.10    3.90
  -5   9  15   32.50    5.30
  -5  -9 -15   31.70    4.70
  -5  -9  15   41.40    5.80
   0 -10 -15   21.70    3.70
   0 -10  15   21.80    3.60
   0 -10  15   15.60    4.50
   0  10 -15   25.90    4.00
   0 -10 -15   17.30    3.30
  -1 -10 -15   99.99    7.70
   1 -10  15  107.69    7.60
  -1 -10  15  104.99    7.60
  -1  10 -15   97.29    7.80
   1 -10 -15  104.99    7.80
   1 -10 -15   99.69    7.50
  -1 -10  15  104.99    8.30
  -2  10  15  116.09    7.90
   2 -10  15  126.99    8.30
  -2 -10 -15  109.69    8.40
  -2 -10  15  115.19    8.30
  -2 -10  15  115.69    8.30
  -2  10 -15  120.19    7.90
   2 -10 -15  122.49    8.10
   3 -10  15   61.79    7.10
  -3 -10 -15   47.80    6.40
  -3  10  15   61.59    5.90
  -3 -10 -15   60.99    7.80
   3 -10 -15   60.49    6.30
  -3 -10  15   65.29    6.70
  -3 -10  15   76.39    7.10
  -3  10 -15   67.49    5.40
  -3 -10  15   66.99    7.90
  -4  10  15   45.40    7.80
  -4  10  15   58.39    5.30
  -4 -10 -15   52.39    5.80
  -4 -10  15   52.49    6.70
   4 -10 -15   44.20    6.50
  -4  10 -15   46.40    4.40
  -4 -10  15   48.10    5.70
   5  10 -15   53.49    4.30
  -5  10 -15   59.29    4.40
  -5 -10  15   60.69    6.40
   0 -11  15   20.10    3.60
   0 -11  15   31.70    5.20
   0 -11 -15   28.10    3.80
  -1 -11 -15  137.19    8.50
   1 -11  15  138.99    8.40
  -1 -11  15  114.69    8.20
  -1 -11  15  123.49    8.90
  -1  11 -15  120.29    8.70
   1 -11 -15  127.49    8.30
  -2  11  15    4.80    2.60
   2 -11  15   12.10    3.10
  -2 -11 -15    3.70    2.80
   2 -11 -15    5.70    2.70
  -2 -11  15    5.30    3.30
  -2  11 -15    8.80    2.80
  -2 -11  15    4.90    3.50
  -3 -11 -15   43.90    7.20
  -3  11  15   40.20    5.00
  -3  11  15   45.10    7.30
   3 -11  15   33.50    4.50
   3 -11 -15   43.60    5.50
  -3 -11  15   38.40    5.90
  -3 -11  15   42.90    5.80
  -3  11 -15   40.30    4.60
  -3 -11  15   43.00    6.10
  -4  11  15   19.90    2.80
  -4 -11 -15   20.20    4.50
  -4  11 -15   14.10    2.40
  -4 -11  15   12.30    3.20
  -4 -11  15   17.00    5.80
   0 -12  15  318.57   15.00
   0  12  15  307.87   15.80
   0 -12 -15  312.97   15.30
   0 -12  15  293.57   15.70
   1  12 -15  105.79    7.00
  -1 -12 -15  113.99    7.50
   1 -12  15  118.49    7.60
  -1  12  15  103.29    7.60
   1 -12 -15   95.99    7.10
  -1 -12  15   98.79    8.20
  -1 -12  15   92.89    7.50
  -2  12  15   66.59    5.70
   2 -12  15   66.79    6.10
  -2 -12 -15   64.29    7.80
  -2 -12 -15   61.49    6.30
  -2 -12  15   45.00    6.30
  -2  12 -15   53.29    5.70
  -2 -12  15   58.09    6.30
   2 -12 -15   53.99    5.50
   3 -12  15   25.00    4.10
  -3  12  15   26.00    4.10
  -3 -12 -15   26.80    4.20
   3 -12 -15   15.20    3.40
  -3  12 -15   18.10    2.90
  -3 -12  15   14.80    3.50
  -3 -12  15   24.00    4.50
  -4  12  15   52.79    4.70
  -4 -12  15   62.39    5.50
  -4  12 -15   55.79    4.40
   0 -13  15    6.90    2.80
   0 -13  15    2.40    5.20
   0 -13 -15    6.60    2.50
   0  13  15   -0.20    2.90
   1  13 -15   26.30    4.40
  -1  13  15   24.80    3.70
  -1 -13 -15   15.90    3.00
   1 -13  15   17.80    3.20
  -1 -13  15   17.40    3.50
  -1 -13  15   20.30    4.50
   1 -13 -15   28.40    4.30
   2 -13  15   22.50    3.50
  -2  13  15   24.60    3.30
  -2 -13 -15   28.60    4.80
   2  13 -15   20.50    3.20
  -2 -13 -15   30.40    3.90
  -2 -13  15   24.90    4.20
  -2 -13  15   24.60    3.90
  -2  13 -15   18.20    3.70
  -2 -13  15   24.00    4.10
   2 -13 -15   29.10    4.50
   3  13 -15   22.20    3.10
   3 -13  15   22.60    4.00
  -3  13  15   18.70    2.80
  -3 -13 -15   23.30    3.90
   3 -13 -15   27.60    3.80
  -3 -13  15   25.90    4.00
  -3 -13  15   25.50    4.10
  -3  13 -15   30.00    4.30
   0  14  15   47.30    6.20
   0 -14  15   58.49    5.60
   0 -14 -15   52.49    5.00
  -1  14  15   24.30    3.60
   1 -14  15   24.30    3.70
  -1 -14 -15   26.70    3.70
   1 -14 -15   38.10    4.40
  -1 -14  15   31.20    3.80
  -1 -14  15   30.20    4.80
  -2  14  15   26.60    4.20
   2  14 -15   22.80    3.90
  -2 -14 -15   30.60    4.80
   2 -14  15   19.00    3.30
  -2 -14  15   30.60    5.00
  -2 -14  15   31.10    4.40
  -2 -14  15   18.80    3.50
   2 -14 -15   28.20    3.50
  -3  14  15   40.80    4.00
  -3 -14  15   32.90    4.10
   0 -15  15    0.90    2.80
   0 -15 -15   -0.90    2.30
  -1  15  15   11.30    3.20
   1 -15  15    8.90    2.90
  -1 -15 -15   14.90    2.70
  -1 -15 -15   12.50    3.40
  -1 -15  15   12.10    3.10
   1 -15 -15   14.90    2.80
  -1 -15  15   10.50    3.40
  -1 -15  15   12.50    4.80
   2 -15  15   55.49    5.30
  -2  15  15   59.39    4.90
  -2 -15 -15   65.39    5.30
  -2 -15  15   42.10    5.70
  -2 -15  15   40.90    6.20
   2 -15 -15   48.00    5.50
   0 -16 -15   -0.40    2.30
   0 -16  15   -1.00    3.00
  -1 -16 -15   38.70    4.10
   1 -16  15   31.00    4.70
   1 -16 -15   43.30    4.40
   0   0  16   59.09    5.80
   0   0 -16   57.69    4.60
   0   0  16   58.29    6.30
   0   0 -16   52.49   10.50
  -1   0  16  181.98    9.90
  -1   0  16  195.18    9.90
  -1   0 -16  189.38    9.80
  -1   0 -16  191.68    9.40
   1   0 -16  204.68    9.30
   1   0  16  170.08   10.30
  -1   0 -16  166.78   10.70
  -2   0  16  334.57   15.40
  -2   0 -16  357.16   15.60
  -2   0 -16  334.37   15.80
  -2   0  16  314.77   15.50
   2   0 -16  319.87   15.00
  -3   0 -16  145.79    8.60
  -3   0 -16  144.09   11.20
  -3   0  16  150.58    9.40
  -3   0  16  148.39   10.00
  -3   0 -16  134.99    9.70
   3   0 -16  156.38    8.10
  -3   0  16  153.58    9.00
  -4   0 -16   24.80    4.80
   4   0 -16   25.50    3.60
  -4   0  16   21.00    4.20
  -4   0  16   17.20    3.40
  -4   0  16   15.70    3.60
  -4   0 -16   28.60    4.30
  -5   0 -16    3.30    2.50
  -5   0 -16    5.70    4.00
  -5   0  16    4.20    2.20
  -5   0  16    8.30    3.10
  -5   0  16    1.30    3.40
  -6   0  16   88.99    7.00
  -6   0 -16   81.59    6.00
  -6   0 -16   87.89    7.30
  -6   0  16   80.89    5.00
   0   1 -16  642.84   26.50
   0   1  16  617.64   26.10
   0  -1  16  644.24   26.30
   0  -1  16  628.04   26.70
   0  -1 -16  609.64   26.40
   0   1 -16  616.94   34.90
   0   1  16  604.74   26.50
   1   1 -16   15.00    2.30
  -1   1  16   16.30    3.20
  -1  -1 -16   10.70    2.90
  -1  -1 -16   14.90    2.70
  -1  -1 -16   13.90    2.50
  -1   1  16   10.50    2.70
   1  -1  16   16.70    3.30
  -1  -1  16   11.40    2.80
  -1   1 -16   10.40    2.40
  -1   1 -16   12.50    3.30
  -1  -1  16    8.30    2.70
   1   1  16    9.60    3.20
  -1   1 -16   13.80    2.70
   1  -1 -16    9.20    2.10
   2   1 -16   87.19    6.30
  -2  -1 -16  101.79    6.80
  -2  -1 -16  102.99    7.10
   2  -1  16   77.99    9.30
  -2   1  16   91.79    7.60
  -2   1  16   91.39    7.20
  -2   1 -16  116.39    6.60
  -2   1 -16  113.39    7.20
  -2  -1  16  113.79    8.00
  -2   1 -16  117.49    7.40
  -2  -1  16  117.99    7.60
  -2  -1  16  114.19    7.20
   2  -1 -16  112.39    6.50
   3   1 -16  114.69    6.80
  -3  -1 -16  107.09    8.50
  -3  -1 -16  107.49    7.30
  -3  -1 -16  112.89    9.50
  -3   1  16  109.39    8.10
  -3   1  16  110.29    7.30
  -3   1  16  104.19    8.80
   3  -1 -16  110.39    6.90
  -3  -1  16  116.39    7.80
  -3   1 -16  121.79    7.40
  -3  -1  16  115.59    8.20
  -3  -1  16  124.19    8.90
  -3   1 -16  129.49    9.30
  -3   1 -16  114.29    9.80
  -3   1 -16  114.99    7.50
  -4  -1 -16    5.70    4.00
  -4   1  16    3.80    3.30
   4   1 -16    7.80    2.70
  -4  -1 -16    4.50    2.80
  -4   1  16    9.20    3.00
   4  -1 -16    2.60    2.90
  -4   1 -16    4.00    2.60
  -4   1 -16    6.80    4.00
  -4  -1  16    2.20    3.20
  -4  -1  16    4.60    3.40
  -4  -1  16    6.10    3.10
  -5   1  16   47.90    4.20
  -5  -1 -16   48.50    4.90
  -5   1  16   45.80    5.60
  -5  -1 -16   52.09    6.80
  -5   1  16   41.50    6.70
  -5  -1  16   43.60    6.40
  -5   1 -16   46.80    4.90
   5  -1 -16   33.30    5.10
  -5   1 -16   45.70    6.50
  -5  -1  16   50.39    5.80
  -6   1  16   10.70    2.50
  -6  -1 -16   15.40    3.10
  -6   1  16   15.50    4.00
  -6  -1 -16   11.50    3.90
  -6  -1  16   13.30    3.40
  -6   1 -16   12.90    4.30
  -6   1 -16   14.10    3.20
  -6  -1  16   16.60    2.80
   0   2 -16   82.29    5.30
   0   2  16   88.99    6.60
   0  -2 -16   94.59    6.30
   0  -2 -16   83.99    5.70
   0  -2  16   89.09    6.40
   0   2  16   78.59    6.80
   0  -2  16   78.39    7.70
   1  -2  16   79.69    6.80
  -1   2  16   88.69    6.90
  -1   2  16   75.99    6.00
  -1  -2 -16   80.19    5.50
   1   2 -16   89.99    5.40
  -1  -2 -16   73.59    6.90
  -1  -2 -16   85.49    6.20
  -1  -2  16   87.69    6.30
   1  -2 -16   82.19    5.60
  -1   2 -16   87.79    5.70
   1   2  16   76.89    7.40
  -1   2 -16   84.09    5.90
  -1  -2  16   84.59    7.00
  -2  -2 -16  120.29    7.70
  -2  -2 -16  127.89    7.70
   2  -2  16  120.39    9.50
  -2   2  16  123.39    7.80
   2   2 -16  134.99    7.00
  -2   2  16  134.59    8.30
  -2   2 -16  119.49    7.60
  -2  -2  16  109.99    7.90
  -2  -2  16  124.29    8.10
  -2   2 -16  130.29    8.10
  -2   2 -16  116.29    7.50
  -2  -2  16  118.69    8.70
   2  -2 -16  117.79    7.10
  -3   2  16  115.59    7.90
  -3  -2 -16  118.69    8.10
  -3   2  16  120.79    8.90
  -3  -2 -16  121.69    7.40
  -3   2  16  111.29    7.50
   3   2 -16  107.29    6.70
  -3   2 -16   93.59    7.00
  -3   2 -16  113.29    7.30
  -3  -2  16  104.59    8.00
   3  -2 -16  100.69    6.70
  -3  -2  16  102.79    8.70
  -3  -2  16  109.29    7.50
  -4   2  16   28.30    3.70
  -4   2  16   19.10    3.00
  -4  -2 -16   23.40    3.60
  -4   2  16   28.90    4.90
   4   2 -16   27.50    4.30
  -4  -2 -16   18.90    4.40
  -4  -2  16   19.80    4.00
  -4  -2  16   17.70    3.80
  -4   2 -16   27.10    4.20
   4  -2 -16   24.50    3.90
  -4   2 -16   27.50    5.00
  -4   2 -16   20.30    3.30
  -4  -2  16   18.70    3.60
   5   2 -16   45.40    5.30
  -5   2  16   42.30    6.20
  -5  -2 -16   35.20    4.50
  -5   2  16   38.10    4.10
  -5   2  16   39.10    5.60
  -5  -2 -16   35.70    6.30
  -5  -2  16   43.30    5.50
  -5   2 -16   35.60    4.70
  -5   2 -16   34.80    6.60
  -5  -2  16   34.60    5.90
   5  -2 -16   46.90    5.00
  -6   2  16   55.39    4.40
  -6  -2 -16   64.49    5.20
  -6  -2 -16   58.29    6.70
  -6   2  16   59.59    6.50
  -6   2 -16   66.29    7.40
  -6  -2  16   61.69    4.30
  -6  -2  16   62.49    6.10
   0   3  16  114.29    7.80
   0   3 -16  118.29    6.70
   0  -3 -16  116.19    7.40
   0  -3  16  114.59    7.30
   0  -3 -16  115.29    6.60
   0   3  16  110.59    7.70
   0  -3  16  105.89    8.70
   1  -3  16  211.18   10.70
  -1  -3 -16  193.08   10.30
  -1   3  16  196.18   10.00
  -1   3  16  199.38   10.60
  -1  -3 -16  194.88   10.80
   1   3 -16  191.38    9.60
  -1  -3 -16  200.58    9.80
   1  -3 -16  193.48    9.70
  -1   3 -16  180.88    9.60
  -1  -3  16  188.58   10.50
  -1   3 -16  189.68   10.40
   1   3  16  197.68   11.00
  -1  -3  16  182.28   11.60
  -1  -3  16  194.38   10.50
   1  -3 -16  177.68    9.90
  -2  -3 -16  383.66   18.00
  -2   3  16  377.06   17.60
   2   3 -16  375.56   17.60
  -2   3  16  384.06   18.20
   2  -3  16  366.86   18.20
  -2  -3 -16  375.26   18.50
  -2  -3  16  398.26   20.40
  -2  -3  16  417.76   18.20
  -2   3 -16  419.66   19.10
  -2   3 -16  408.46   18.10
  -2  -3  16  418.16   18.20
   2  -3 -16  405.06   17.60
  -2   3 -16  420.06   18.60
  -3   3  16  134.39    8.80
  -3   3  16  113.89    7.10
   3   3 -16  124.89    7.30
  -3   3  16  131.99    9.10
  -3  -3 -16  126.89    8.00
  -3  -3 -16  130.09    8.50
  -3   3  16  115.89    8.10
  -3   3 -16  136.29    8.00
  -3  -3  16  134.79    8.90
  -3   3 -16  129.59    8.10
  -3   3 -16  138.99   10.80
   3  -3 -16  135.69    7.70
  -3  -3  16  143.59    9.60
  -3  -3  16  129.69    8.50
  -4  -3 -16   62.19    7.90
  -4  -3 -16   72.99    6.20
  -4   3  16   81.79    8.00
   4   3 -16   86.09    5.70
  -4   3  16   79.59    6.30
  -4   3  16   87.89    5.60
  -4   3  16   68.59    8.90
  -4   3 -16   72.89    5.90
  -4  -3  16   80.49    6.90
  -4   3 -16   73.29    6.10
  -4  -3  16   71.19    7.90
  -4   3 -16   69.09    8.20
   4  -3 -16   67.59    6.10
  -4  -3  16   80.49    7.80
  -5   3  16   39.30    5.50
  -5  -3 -16   36.70    6.40
   5   3 -16   31.90    4.70
  -5  -3 -16   35.60    4.30
  -5   3  16   36.70    4.10
  -5  -3  16   29.10    4.60
  -5  -3  16   35.70    5.40
  -5   3 -16   29.90    4.90
   5  -3 -16   37.10    5.40
  -5   3 -16   30.20    4.00
  -6   3  16   14.30    4.00
  -6  -3 -16   12.90    3.90
  -6  -3 -16   19.70    3.10
  -6  -3  16   11.70    3.70
  -6  -3  16   16.00    2.60
   0  -4 -16    2.80    1.90
   0   4  16    6.20    2.70
   0   4 -16    5.80    2.00
   0  -4 -16    2.60    2.10
   0  -4  16    2.30    2.40
   0  -4  16    5.50    3.60
   0   4  16    2.00    2.40
  -1   4  16   22.20    3.50
  -1  -4 -16   20.60    3.00
  -1   4  16   23.20    3.50
   1  -4  16   22.60    3.80
  -1  -4 -16   26.20    3.60
  -1  -4 -16   34.60    5.60
   1   4 -16   24.50    3.90
  -1  -4  16   24.20    3.90
   1  -4 -16   26.00    3.70
  -1  -4  16   24.10    4.70
   1  -4 -16   26.80    3.30
  -1   4 -16   33.90    4.40
   1   4  16   31.00    4.30
  -1  -4  16   27.50    3.80
   1   4  16   25.60    4.10
  -1   4 -16   28.80    4.50
   2   4 -16    1.30    1.90
  -2  -4 -16    3.40    2.30
  -2   4  16    2.10    2.80
   2  -4  16    1.70    3.10
  -2  -4 -16    1.70    2.50
  -2  -4 -16    1.00    3.50
  -2   4  16    3.00    2.40
   2  -4 -16    3.10    1.90
  -2   4 -16    1.00    2.10
  -2  -4  16   -1.40    2.60
   2  -4 -16    0.90    2.00
  -2   4 -16   -3.70    3.30
  -2  -4  16    2.50    3.50
  -2  -4  16    4.80    2.80
  -3  -4 -16   15.40    3.40
  -3   4  16   18.20    3.30
   3   4 -16   15.30    2.60
  -3  -4 -16   11.10    3.10
  -3   4  16   16.70    3.60
   3  -4 -16   11.40    3.00
  -3  -4  16   11.30    3.30
  -3   4 -16   15.10    4.90
  -3   4 -16   13.80    3.10
  -3  -4  16   10.30    3.20
  -3   4 -16    9.00    2.50
   3  -4 -16   15.00    3.00
  -3  -4  16   11.20    3.60
  -4  -4 -16   60.49    5.80
  -4   4  16   65.19    5.50
  -4   4  16   61.39    7.40
  -4   4  16   68.89    6.10
   4   4 -16   68.39    5.40
  -4   4  16   67.29    7.80
  -4   4 -16   65.89    8.20
  -4   4 -16   78.39    6.00
  -4  -4  16   75.19    7.50
  -4  -4  16   72.49    6.70
  -4   4 -16   74.99    6.00
   4  -4 -16   88.29    6.20
  -4  -4  16   81.79    7.80
  -5   4  16   63.99    6.70
  -5   4  16   54.09    4.70
  -5   4  16   48.30    5.80
  -5  -4 -16   51.79    7.00
  -5  -4 -16   53.39    5.10
   5   4 -16   53.89    4.90
  -5  -4  16   48.40    6.60
   5  -4 -16   58.29    6.00
  -5   4 -16   52.09    7.60
  -5   4 -16   57.39    5.40
  -5  -4  16   59.69    6.00
  -6  -4  16    2.10    2.30
  -6  -4  16    2.50    3.90
   0  -5 -16  678.23   28.90
   0  -5 -16  643.54   27.70
   0  -5  16  630.64   27.60
   0   5 -16  616.74   27.50
   0  -5  16  659.43   27.80
   0   5  16  646.44   27.80
   0   5  16  662.23   27.10
   1  -5  16  126.19    8.20
  -1   5  16  133.69    8.30
  -1  -5 -16  132.79    8.30
  -1   5  16  126.59    7.50
   1   5 -16  123.69    6.80
  -1  -5 -16  134.29    8.00
  -1  -5 -16  123.49    7.30
  -1  -5  16  106.49    8.20
  -1   5 -16  110.79    7.60
   1  -5 -16  104.79    7.00
  -1   5 -16  103.59    7.30
   1  -5 -16  113.69    7.50
  -1  -5  16  102.69    7.40
  -2   5  16  148.49    9.00
  -2  -5 -16  147.59    8.80
   2  -5  16  151.88    9.50
   2   5 -16  140.29    7.90
  -2  -5 -16  153.58   10.00
  -2   5  16  155.78    8.40
  -2  -5 -16  160.18    8.80
   2  -5 -16  140.19    8.50
  -2  -5  16  122.89   10.80
  -2  -5  16  132.69    9.10
  -2  -5  16  135.99    9.00
  -2   5 -16  138.49    8.60
   2  -5 -16  137.49    8.50
  -3  -5 -16  135.09    8.50
  -3   5  16  139.59    8.20
  -3   5 -16  140.99    8.30
   3  -5 -16  117.19    8.60
  -3  -5  16  140.49    9.30
  -3  -5  16  132.99   10.20
  -3  -5  16  141.49    8.90
   3  -5 -16  137.39    8.30
  -4   5  16   79.59    7.90
   4   5 -16   74.69    5.70
  -4   5  16   85.09    6.10
  -4   5  16   83.19    7.80
  -4  -5 -16   84.09    6.50
  -4   5  16   77.99    6.50
  -4  -5  16   89.19    7.20
  -4  -5  16   90.79    8.20
  -4  -5  16   81.29    8.70
   4  -5 -16   84.69    6.70
  -4   5 -16   84.59    9.30
  -4   5 -16   98.49    6.50
  -5  -5 -16    2.00    2.70
  -5   5  16    5.30    2.80
  -5   5  16    7.60    3.70
   5   5 -16    5.60    2.80
  -5   5  16    2.10    3.00
  -5  -5 -16    1.20    3.50
  -5   5 -16    2.80    4.40
  -5  -5  16   -2.30    3.10
  -5  -5  16    3.10    3.70
   5  -5 -16   -5.80    3.50
  -5   5 -16   -1.00    2.10
   0  -6  16  311.37   15.30
   0  -6 -16  330.77   15.70
   0  -6  16  312.47   15.90
   0  -6 -16  329.17   15.10
   0   6 -16  339.27   14.90
   0   6  16  318.47   14.90
  -1  -6 -16   35.10    4.80
  -1  -6 -16   43.20    5.40
   1   6 -16   38.00    4.40
   1  -6  16   38.70    4.70
  -1   6  16   45.60    5.40
  -1  -6  16   48.70    5.80
  -1  -6  16   53.09    6.60
  -1   6 -16   50.49    5.40
   1  -6 -16   51.79    5.00
  -1   6 -16   50.99    5.70
   1  -6 -16   47.90    5.10
  -2   6  16  610.94   26.60
   2  -6  16  661.23   27.40
  -2  -6 -16  612.74   27.40
  -2  -6 -16  568.34   28.30
  -2  -6 -16  593.64   28.20
  -2  -6  16  648.74   27.40
  -2  -6  16  639.94   27.10
  -2   6 -16  645.54   29.10
   2  -6 -16  648.04   27.20
   2  -6 -16  660.03   28.30
  -3   6  16  116.99    7.60
   3  -6  16  107.49    9.80
  -3  -6 -16  123.99    8.00
   3  -6 -16  118.99    8.90
  -3   6 -16  116.39    7.60
   3  -6 -16  120.39    7.80
  -3  -6  16  112.49    8.50
  -3  -6  16  115.59    9.90
  -3  -6  16  112.59    8.00
  -3  -6  16  112.39    9.60
   4   6 -16   55.29    4.90
  -4   6  16   62.99    6.50
  -4   6  16   57.49    5.60
  -4  -6 -16   54.49    5.30
   4  -6 -16   52.19    5.80
  -4  -6  16   43.90    7.70
  -4  -6  16   45.10    5.90
  -4  -6  16   43.90    6.20
  -4   6 -16   44.90    5.00
  -5   6  16   57.79    5.70
  -5   6  16   58.19    6.50
  -5  -6 -16   57.59    5.20
  -5   6  16   52.69    5.50
  -5  -6 -16   49.90    6.50
   5   6 -16   57.49    4.70
  -5  -6  16   45.30    5.60
  -5  -6  16   39.60    6.70
  -5   6 -16   49.00    4.90
   0  -7 -16   91.29    6.70
   0  -7  16   90.29    7.10
   0  -7  16   92.69    8.70
   0   7 -16   89.79    6.30
   0  -7 -16   79.69    6.40
   1   7 -16  154.08    8.00
  -1  -7 -16  153.58    8.50
  -1   7  16  151.18    8.40
   1  -7  16  147.29    9.20
  -1  -7 -16  146.99    8.90
  -1   7 -16  131.89    8.60
   1  -7 -16  134.09    8.30
  -1  -7  16  127.79    9.10
  -1   7 -16  133.59    8.80
  -1  -7  16  131.49    8.60
   1  -7 -16  131.59    8.30
  -2   7  16   85.49    6.20
  -2  -7 -16   85.89    6.40
  -2  -7 -16   87.59    7.60
   2  -7  16   70.39    7.40
  -2  -7 -16   82.09    7.10
   2  -7 -16   74.09    6.30
  -2   7 -16   75.59    6.10
   2  -7 -16   66.79    6.60
  -2  -7  16   77.49    7.20
  -2  -7  16   77.59    7.10
  -3   7  16   43.20    5.80
  -3   7  16   44.50    5.30
   3  -7  16   41.50    5.40
  -3  -7 -16   44.80    5.60
  -3  -7  16   46.40    6.40
  -3  -7  16   51.49    7.50
  -3  -7  16   47.50    6.80
  -3  -7  16   50.19    6.20
   3  -7 -16   43.10    5.30
  -3   7 -16   49.60    5.10
  -4   7  16  195.48   12.10
   4   7 -16  173.98    9.70
  -4  -7 -16  196.68   10.70
  -4   7  16  203.38   10.20
  -4   7  16  211.18   11.20
  -4  -7  16  183.78   12.60
   4  -7 -16  193.18   10.60
  -4  -7  16  196.48   10.80
  -4   7 -16  204.68   10.60
  -5   7  16   48.10    7.30
  -5  -7 -16   50.89    6.70
  -5  -7 -16   55.69    5.10
   5   7 -16   53.69    4.60
  -5   7 -16   59.99    4.80
  -5  -7  16   58.69    5.70
  -5  -7  16   63.29    7.60
   0  -8 -16   66.69    6.10
   0   8 -16   67.19    5.90
   0  -8  16   68.09    6.70
   0  -8 -16   78.79    6.20
   0  -8  16   78.49    8.40
   1  -8  16   47.70    6.20
  -1   8  16   45.10    5.30
  -1  -8 -16   50.09    5.60
   1   8 -16   47.80    4.80
  -1  -8 -16   44.90    5.80
  -1   8 -16   49.90    6.00
   1  -8 -16   44.10    5.40
  -1  -8  16   49.30    6.30
   1  -8 -16   56.29    5.40
  -1  -8  16   52.79    6.80
  -2  -8 -16   -2.50    3.00
   2  -8  16    0.70    2.90
  -2   8  16    6.10    2.60
  -2  -8 -16    1.80    4.10
  -2  -8  16    3.10    3.10
   2  -8 -16    1.90    3.20
  -2   8 -16    0.60    2.10
   2  -8 -16    1.10    2.30
  -2  -8  16    2.40    3.30
  -3  -8 -16   97.79    7.30
  -3   8  16   90.19    7.20
   3  -8  16   91.59    8.50
  -3   8  16   98.29    6.70
  -3  -8  16   83.69    8.50
   3  -8 -16   86.79    6.80
  -3  -8  16   89.99    7.60
  -3  -8  16  100.99    7.70
  -3   8 -16   95.89    6.70
  -4   8  16   67.09    6.00
   4   8 -16   70.99    5.00
  -4   8  16   61.89    7.00
  -4  -8 -16   57.99    5.80
   4  -8 -16   64.89    6.20
  -4   8 -16   53.99    5.10
  -4  -8  16   53.19    6.20
   5   8 -16    3.10    2.40
  -5  -8 -16   -3.00    3.50
  -5  -8 -16    3.20    2.80
  -5  -8  16   -0.60    3.10
  -5   8 -16   -0.30    2.00
   0  -9 -16  327.07   15.60
   0  -9  16  297.07   15.80
   0  -9  16  314.97   15.40
   0  -9 -16  311.57   15.10
   0   9 -16  320.37   14.80
  -1  -9 -16  363.16   17.50
  -1  -9 -16  387.16   18.20
   1  -9  16  368.76   17.60
   1   9 -16  359.16   17.00
  -1  -9  16  375.86   17.60
   1  -9 -16  384.36   18.00
  -1   9 -16  393.96   18.60
  -1  -9  16  389.06   17.80
   1  -9 -16  372.16   17.50
  -2  -9 -16    5.00    2.90
   2  -9  16    7.30    3.10
  -2   9 -16    8.00    2.70
  -2  -9  16    4.00    3.40
   2  -9 -16    3.30    3.80
   2  -9 -16    9.20    2.70
  -2  -9  16    7.60    3.20
  -3   9  16  157.98   10.00
  -3  -9 -16  141.89    9.90
   3  -9  16  158.68   10.30
  -3  -9  16  178.68   10.00
  -3  -9  16  181.88   10.90
   3  -9 -16  177.38    9.60
  -3  -9  16  168.58   10.00
  -3   9 -16  171.48    9.50
   4   9 -16   44.50    4.20
  -4  -9 -16   34.40    5.30
  -4   9  16   45.90    5.20
  -4   9  16   36.60    5.10
  -4  -9  16   35.90    5.20
   4  -9 -16   38.80    5.80
  -4   9 -16   37.50    4.20
  -5  -9 -16    2.50    3.90
   5   9 -16    4.10    2.60
  -5  -9  16    6.80    3.50
  -5   9 -16    3.40    2.10
   0 -10  16   19.80    4.90
   0 -10 -16   16.00    3.10
   0 -10 -16   15.40    3.00
   0  10 -16   17.60    3.70
   0 -10  16   17.80    3.50
  -1 -10 -16   30.30    4.00
   1  10 -16   24.50    3.60
   1 -10  16   30.70    4.40
  -1  10 -16   24.00    3.70
  -1 -10  16   27.10    4.70
  -1 -10  16   25.50    4.20
   1 -10 -16   26.90    4.00
   1 -10 -16   23.70    3.70
  -2 -10 -16   13.80    3.20
  -2  10  16   18.90    3.30
   2 -10  16   14.60    3.40
   2 -10 -16   11.30    3.10
  -2 -10  16   15.10    3.50
  -2  10 -16   11.10    2.80
  -2 -10  16    8.00    3.50
  -3 -10 -16   87.09    8.40
   3 -10  16  107.09    8.30
  -3  10  16  105.79    7.40
  -3  10  16  104.99    8.30
   3 -10 -16  113.09    7.40
  -3 -10  16  108.79    8.60
  -3  10 -16  109.79    7.00
  -3 -10  16  108.69    7.70
  -3 -10  16  112.69    8.50
  -4  10  16   38.00    5.80
  -4 -10 -16   45.20    5.90
  -4  10  16   38.90    4.70
   4  10 -16   44.00    4.10
  -4  10 -16   48.20    4.30
   4 -10 -16   50.79    6.20
  -4 -10  16   48.50    5.30
   0 -11 -16   14.10    3.10
   0 -11  16   16.10    5.00
   0 -11  16   12.30    3.30
  -1 -11 -16   14.70    3.00
   1 -11  16   10.30    2.90
   1  11 -16   13.00    3.40
  -1 -11  16   10.20    4.00
   1 -11 -16   12.80    2.80
  -1  11 -16   11.20    3.40
  -1 -11  16   10.80    3.10
  -2  11  16    2.40    2.40
   2 -11  16    5.30    3.20
  -2 -11 -16    4.50    2.80
  -2 -11  16    7.00    3.50
   2 -11 -16    4.90    2.70
  -2  11 -16    6.20    2.70
  -2 -11  16    9.70    3.70
  -3  11  16   32.80    4.50
  -3 -11 -16   38.80    5.00
  -3  11  16   34.80    5.20
   3 -11  16   33.70    4.50
  -3 -11  16   26.80    5.40
  -3 -11  16   26.60    4.10
  -3 -11  16   35.50    5.00
  -3  11 -16   25.70    4.00
   3 -11 -16   25.70    3.70
   4  11 -16   33.50    3.40
  -4  11  16   34.90    4.30
  -4  11 -16   30.30    3.60
  -4 -11  16   23.50    3.80
   0 -12 -16    4.40    2.50
   0 -12  16    2.10    2.80
   0  12  16    0.90    2.60
  -1 -12 -16   57.89    5.60
  -1  12  16   48.90    5.50
   1 -12  16   56.89    5.90
   1  12 -16   58.49    5.80
  -1 -12  16   54.29    6.00
   1 -12 -16   58.99    5.40
  -1 -12  16   60.59    6.90
  -2 -12 -16    2.20    2.80
   2  12 -16   -0.90    2.60
   2 -12  16    3.20    3.20
  -2  12  16    2.20    2.40
  -2  12 -16    2.60    2.90
   2 -12 -16    2.50    2.30
  -2 -12  16    1.10    3.60
  -2 -12  16    2.60    3.50
   3  12 -16   40.60    4.00
   3 -12  16   52.69    6.20
  -3  12  16   45.90    4.70
  -3  12 -16   44.30    4.50
  -3 -12  16   36.20    6.00
  -3 -12  16   43.70    5.40
   3 -12 -16   42.40    4.80
  -4  12  16   85.09    5.50
   4  12 -16   76.99    5.00
  -4 -12  16   75.69    6.10
  -4  12 -16   74.89    5.30
   0 -13  16   47.00    5.40
   0  13  16   36.30    4.30
   0 -13 -16   41.70    4.70
   1 -13  16   38.30    5.20
  -1 -13 -16   32.00    4.70
  -1  13  16   36.20    4.90
   1 -13 -16   43.70    4.60
  -1 -13  16   39.70    5.40
  -1 -13  16   37.10    5.10
   2  13 -16   68.69    5.20
   2 -13  16   79.49    6.10
  -2  13  16   67.99    5.50
  -2 -13 -16   66.29    5.80
  -2 -13  16   60.39    6.80
  -2 -13  16   53.59    6.40
  -2 -13  16   59.39    5.90
   2 -13 -16   64.39    5.40
   3  13 -16   27.50    3.70
  -3  13  16   36.30    3.90
   3 -13  16   28.70    4.50
  -3  13 -16   25.50    4.20
  -3 -13  16   29.80    3.90
  -3 -13  16   30.70    5.10
   3 -13 -16   33.80    5.30
   0  14  16   84.29    7.20
   0 -14  16   86.29    6.30
   0 -14 -16   84.69    6.10
  -1  14  16   78.59    6.50
   1 -14  16   94.99    6.30
  -1 -14 -16   94.19    6.30
  -1 -14  16   85.89    6.60
  -1 -14  16   76.99    8.50
   1 -14 -16   92.89    6.10
   2 -14  16  113.09    7.00
  -2 -14 -16  101.39    6.90
  -2  14  16  116.59    6.90
   2 -14 -16  109.69    6.80
  -2 -14  16  110.39    8.40
  -2 -14  16  111.39    7.90
  -2 -14  16  107.09    7.50
   0 -15 -16    2.70    2.30
   0 -15  16    0.50    2.80
  -1 -15 -16    8.00    2.50
   1 -15  16    4.80    2.90
  -1  15  16    8.70    3.30
  -1 -15  16    7.20    3.50
   1 -15 -16    7.70    2.40
  -1 -15  16    4.70    3.40
   0   0  17    1.00    2.40
   0   0 -17    0.60    1.80
   0   0  17   -2.60    2.90
  -1   0 -17  365.96   16.40
   1   0 -17  356.06   16.10
   1   0  17  369.26   16.90
  -1   0 -17  370.36   17.00
  -1   0  17  362.76   16.50
  -1   0  17  357.46   16.80
  -1   0 -17  344.77   17.30
  -2   0  17   42.60    5.00
  -2   0 -17   40.60    4.60
  -2   0 -17   38.60    5.50
   2   0 -17   41.50    4.10
  -2   0  17   40.30    5.70
  -3   0 -17  216.58   14.60
  -3   0  17  259.57   14.00
  -3   0  17  231.08   11.80
   3   0 -17  217.38   11.20
  -3   0 -17  223.18   11.90
  -3   0 -17  218.28   12.50
  -3   0  17  245.28   12.30
   4   0 -17    4.20    2.90
  -4   0 -17    6.40    4.30
  -4   0  17    8.10    3.40
  -4   0 -17    3.60    2.50
  -4   0  17    5.60    2.70
  -4   0  17    6.70    3.70
  -5   0 -17   -0.90    3.90
  -5   0  17    0.80    2.90
  -5   0 -17    4.20    2.50
  -5   0  17    0.80    2.50
  -5   0  17    0.40    3.40
  -6   0  17   48.70    5.80
   0   1  17   44.30    5.70
   0   1 -17   43.00    4.10
   0  -1  17   37.00    5.50
   0  -1  17   34.70    4.40
   0   1  17   37.10    4.30
   0  -1 -17   35.00    3.90
  -1  -1 -17  490.75   22.40
  -1   1  17  482.85   21.80
  -1  -1 -17  470.85   22.30
   1   1 -17  481.75   21.30
  -1  -1 -17  494.35   21.50
   1  -1  17  487.55   21.80
  -1   1  17  485.05   21.30
  -1  -1  17  483.65   21.60
  -1   1 -17  502.15   22.30
  -1   1 -17  498.25   21.40
   1   1  17  486.85   21.80
   1  -1 -17  511.45   21.40
  -1  -1  17  517.55   21.40
  -2   1  17   26.80    3.70
   2  -1  17   27.30    4.80
  -2   1  17   24.30    4.00
   2   1 -17   25.10    3.30
  -2  -1 -17   23.70    3.40
  -2  -1 -17   26.20    3.70
  -2   1 -17   22.90    3.40
   2  -1 -17   32.00    3.70
  -2   1 -17   27.70    3.50
  -2  -1  17   23.40    3.60
  -2  -1  17   29.20    3.90
  -2  -1  17   23.10    3.90
  -3   1  17  289.37   15.60
  -3   1  17  284.77   13.90
  -3   1  17  278.87   13.40
  -3  -1 -17  258.67   16.70
  -3  -1 -17  256.37   13.70
   3   1 -17  258.57   12.90
  -3  -1 -17  292.47   14.20
  -3   1 -17  253.47   16.70
  -3   1 -17  268.27   13.80
  -3   1 -17  281.97   14.90
  -3  -1  17  277.27   14.00
   3  -1 -17  288.87   13.10
  -3  -1  17  292.77   15.70
  -3  -1  17  280.97   13.60
  -4   1  17   96.79    8.50
  -4  -1 -17   92.99    6.60
   4   1 -17   89.39    6.30
  -4   1  17   98.89    7.10
  -4  -1 -17   88.49    9.10
  -4  -1  17   99.49    7.30
  -4   1 -17   97.59    6.70
  -4  -1  17   95.69    8.30
  -4  -1  17  103.79    7.80
   4  -1 -17   90.89    6.60
  -4   1 -17   90.19    9.40
  -5   1  17   19.90    4.30
  -5  -1 -17   19.10    3.20
  -5   1  17   14.20    3.30
  -5  -1 -17   25.30    4.70
  -5   1  17   26.60    3.60
  -5  -1  17   25.20    4.40
  -5   1 -17   24.50    5.10
   5  -1 -17   23.20    3.40
  -5  -1  17   21.00    3.40
  -5  -1  17   24.90    3.40
  -5   1 -17   20.40    3.30
  -6   1  17   11.90    3.80
  -6  -1  17   11.30    3.70
   0   2  17    2.20    2.70
   0  -2 -17   -0.20    2.00
   0  -2 -17    1.30    1.90
   0  -2  17    3.30    2.60
   0  -2  17    1.80    3.10
   0   2 -17    2.30    1.90
   0   2  17    0.60    2.70
  -1  -2 -17   24.50    3.50
   1  -2  17   16.30    3.50
   1   2 -17   25.90    3.50
  -1   2  17   24.40    3.80
  -1  -2 -17   25.10    3.60
  -1   2  17   18.40    3.20
  -1  -2 -17   24.40    3.10
   1  -2 -17   22.30    3.00
   1   2  17   18.00    3.90
  -1   2 -17   17.50    2.90
  -1  -2  17   20.00    3.40
  -1  -2  17   24.70    3.70
  -2  -2 -17  229.78   11.50
  -2   2  17  249.08   11.80
   2   2 -17  226.98   11.10
  -2  -2 -17  225.58   11.70
   2  -2  17  224.68   12.80
  -2   2  17  237.58   11.70
  -2  -2  17  216.18   11.60
  -2  -2  17  227.68   13.20
  -2  -2  17  216.98   11.60
  -2   2 -17  221.58   11.70
  -2   2 -17  235.78   11.80
   2  -2 -17  224.38   11.10
  -2   2 -17  221.58   12.00
  -3   2  17  116.79    8.60
  -3  -2 -17  113.69    7.30
   3   2 -17   91.79    6.40
  -3  -2 -17   93.89   10.00
  -3   2  17  112.19    8.00
  -3   2  17  104.69    7.40
  -3  -2 -17  110.29    8.00
  -3  -2  17  100.29    8.70
   3  -2 -17  110.09    6.80
  -3   2 -17  103.99    7.30
  -3  -2  17  109.39    7.80
  -3   2 -17  108.29    7.20
  -3  -2  17  113.89    8.10
   4   2 -17   77.19    5.60
  -4  -2 -17   77.19    8.50
  -4   2  17   78.79    7.60
  -4   2  17   76.59    5.50
  -4  -2 -17   74.09    5.90
  -4   2  17   79.29    6.20
   4  -2 -17   71.39    6.40
  -4  -2  17   64.59    6.50
  -4  -2  17   77.19    7.50
  -4   2 -17   51.09    8.50
  -4   2 -17   69.29    5.90
  -4  -2  17   66.09    7.00
  -5   2  17    9.60    2.90
   5   2 -17    9.70    3.60
  -5   2  17   14.30    3.00
  -5  -2 -17   17.60    4.40
  -5   2  17    7.30    3.60
  -5  -2 -17    9.60    2.70
  -5  -2  17   18.70    3.60
  -5   2 -17   10.10    4.50
  -5  -2  17   13.10    3.80
   5  -2 -17   16.10    3.10
  -5   2 -17   16.50    3.10
  -6   2  17   49.40    6.30
  -6  -2  17   56.79    5.90
   0  -3  17  141.69    8.30
   0  -3  17  147.39    9.50
   0  -3 -17  133.39    7.60
   0   3 -17  132.19    7.60
   0   3  17  134.69    8.60
   0   3  17  155.78    9.10
   0  -3 -17  127.99    8.20
  -1  -3 -17  213.28   11.00
  -1  -3 -17  200.58   10.70
  -1   3  17  200.58   10.40
   1  -3  17  185.68   10.70
  -1   3  17  212.08   10.80
  -1  -3 -17  216.38   10.30
   1   3 -17  190.48    9.90
   1  -3 -17  193.58   10.50
  -1   3 -17  200.58   10.00
  -1  -3  17  184.18   12.20
  -1  -3  17  198.98   10.70
   1   3  17  191.18   11.30
  -1  -3  17  192.58   10.90
   1  -3 -17  196.88    9.90
  -2   3  17    1.10    2.50
   2   3 -17    2.30    1.80
  -2   3  17    3.20    2.70
  -2  -3 -17    3.10    2.50
  -2  -3 -17   -1.20    2.30
   2  -3  17    3.70    3.60
  -2   3 -17    2.10    2.20
  -2   3 -17    3.50    3.20
  -2  -3  17    0.50    2.60
  -2   3 -17    1.50    2.20
   2  -3 -17   -2.30    2.00
  -2  -3  17    1.80    3.30
  -2  -3  17    2.80    3.10
  -3   3  17    8.80    2.80
  -3   3  17   12.80    3.50
  -3   3  17    9.00    3.50
   3   3 -17   13.10    3.00
  -3   3  17   12.70    3.30
  -3  -3 -17   13.00    3.60
  -3  -3 -17    7.70    3.10
   3  -3 -17    8.20    2.90
  -3  -3  17    4.80    3.10
  -3  -3  17    4.10    3.20
  -3  -3  17    7.20    3.50
  -3   3 -17    5.90    2.70
  -3   3 -17   10.70    2.50
  -4  -3 -17    5.10    2.50
   4   3 -17    8.40    2.60
  -4   3  17    6.00    2.90
  -4   3  17    3.80    2.80
  -4  -3 -17    6.90    4.20
  -4   3  17    4.10    3.30
  -4  -3  17    7.80    3.80
  -4  -3  17    1.90    3.50
  -4   3 -17    5.80    2.50
  -4  -3  17    6.90    3.20
  -4   3 -17   11.00    4.90
   4  -3 -17    9.80    2.70
  -4   3 -17    8.40    2.80
  -5   3  17  101.89    8.10
   5   3 -17   98.29    6.40
  -5  -3 -17   88.99    8.40
  -5  -3 -17   88.99    6.40
  -5   3  17   95.29    6.80
  -5   3  17   93.19    5.90
  -5  -3  17  110.49    8.20
  -5  -3  17  109.49    7.10
   5  -3 -17  102.59    6.80
  -5   3 -17   98.09    9.30
   0  -4 -17   89.49    6.60
   0   4  17   87.49    7.20
   0   4 -17   82.69    5.70
   0   4  17   79.29    6.90
   0  -4  17   78.59    8.40
   0  -4  17   78.69    6.60
   0  -4 -17   85.29    6.00
  -1  -4 -17  145.89    8.50
  -1   4  17  147.89    8.80
  -1  -4 -17  158.18    9.40
  -1  -4 -17  147.09    9.30
  -1   4  17  146.59    9.10
   1   4 -17  140.79    8.00
   1  -4  17  158.98    9.30
   1  -4 -17  158.08    8.80
  -1  -4  17  153.88    9.50
   1   4  17  146.49    9.70
  -1   4 -17  160.58    9.10
  -1   4 -17  153.58    8.50
   1  -4 -17  157.68    8.40
  -1  -4  17  153.18    8.90
  -2   4  17   49.70    6.00
   2   4 -17   58.29    4.50
  -2   4  17   54.89    5.80
   2  -4  17   55.69    7.10
  -2  -4 -17   53.99    5.60
  -2  -4 -17   55.49    5.20
  -2  -4  17   42.10    6.10
   2  -4 -17   42.40    4.70
  -2  -4  17   43.80    6.30
  -2   4 -17   53.19    6.80
   2  -4 -17   49.40    5.00
  -2   4 -17   47.60    5.00
  -2  -4  17   45.60    7.40
   3   4 -17   65.69    5.20
  -3  -4 -17   57.59    6.20
  -3  -4 -17   59.59    5.80
  -3   4  17   68.59    6.10
   3  -4 -17   61.59    5.90
  -3  -4  17   68.59    7.50
  -3   4 -17   52.69    5.50
  -3  -4  17   59.09    6.50
   3  -4 -17   54.49    5.50
  -3  -4  17   66.59    6.70
  -4   4  17  289.07   13.60
  -4   4  17  313.77   16.20
  -4   4  17  329.37   17.10
   4   4 -17  309.37   14.20
  -4  -4 -17  304.77   15.00
  -4  -4 -17  281.57   17.40
  -4   4  17  313.47   14.30
  -4  -4  17  306.97   14.60
  -4  -4  17  290.67   15.10
  -4  -4  17  305.57   16.80
  -4   4 -17  303.37   18.30
  -4   4 -17  310.87   15.20
   4  -4 -17  287.67   14.70
  -5   4  17   41.00    5.60
  -5  -4 -17   36.40    6.40
  -5  -4 -17   31.70    4.30
  -5   4  17   25.60    3.40
  -5   4  17   34.10    3.90
   5   4 -17   35.00    4.50
  -5   4 -17   44.80    7.70
  -5  -4  17   32.30    4.80
  -5  -4  17   21.90    3.60
   5  -4 -17   28.30    3.90
   0   5  17  357.86   16.20
   0   5 -17  359.06   16.10
   0   5  17  370.86   16.90
   0  -5 -17  353.76   17.00
   0  -5 -17  355.96   16.40
   0  -5  17  353.36   16.70
   0  -5  17  343.67   17.00
  -1   5  17    3.80    2.90
  -1  -5 -17    1.40    2.20
  -1  -5 -17    2.10    2.60
   1   5 -17    3.10    2.20
  -1   5  17    1.90    2.30
   1  -5  17    4.40    2.90
  -1   5 -17    7.00    2.50
  -1  -5  17    1.40    2.80
   1  -5 -17    6.80    2.50
   1  -5 -17    7.60    2.50
  -1  -5  17    8.10    3.60
  -1   5 -17    9.90    2.80
  -2   5  17    5.50    2.70
   2   5 -17   10.10    2.40
  -2  -5 -17    2.30    3.50
   2  -5  17    3.50    3.40
  -2  -5 -17    7.30    2.70
  -2  -5 -17    4.90    3.10
   2  -5 -17   12.00    2.50
  -2  -5  17   10.60    3.30
   2  -5 -17   11.30    3.00
  -2   5 -17    9.00    2.50
  -2  -5  17   10.20    3.40
  -2  -5  17    9.90    4.50
  -3  -5 -17  209.28   10.90
   3   5 -17  223.48   10.30
  -3   5  17  201.28   10.40
   3  -5 -17  189.48   10.70
  -3  -5  17  198.38   12.70
  -3   5 -17  192.78   10.80
  -3  -5  17  197.78   11.00
  -3  -5  17  195.18   11.00
   3  -5 -17  161.28   10.30
  -4   5  17    5.20    3.40
  -4  -5 -17    7.20    3.10
   4   5 -17    6.90    2.50
  -4   5  17    5.50    3.40
  -4   5  17    7.00    2.70
   4  -5 -17   11.60    2.70
  -4  -5  17   16.90    3.70
  -4  -5  17    8.30    4.20
  -4   5 -17    9.50    2.70
  -4  -5  17   12.00    4.30
   5   5 -17   40.90    4.30
  -5  -5 -17   49.50    6.40
  -5  -5 -17   43.90    4.60
  -5   5  17   47.00    5.60
  -5   5  17   50.19    5.90
  -5  -5  17   37.50    6.40
  -5  -5  17   40.70    5.20
   5  -5 -17   37.40    5.90
   0  -6 -17    2.10    2.30
   0  -6  17   -7.50    4.00
   0   6  17    1.50    2.70
   0   6 -17   -0.40    2.30
   0  -6  17   -1.30    2.70
   0  -6 -17    4.50    2.30
  -1  -6 -17  139.49    8.20
   1  -6  17  143.49    9.20
  -1   6  17  147.19    8.50
  -1  -6 -17  150.98    8.90
   1   6 -17  143.39    7.80
  -1  -6  17  135.99    8.70
  -1   6 -17  140.09    8.50
  -1  -6  17  132.49    9.30
   1  -6 -17  136.39    8.40
   1  -6 -17  138.79    8.60
  -1   6 -17  138.39    8.70
  -2  -6 -17    2.40    2.40
   2   6 -17    3.30    2.20
  -2   6  17    0.30    2.50
  -2  -6 -17    4.70    3.40
  -2  -6 -17    3.30    3.30
   2  -6  17    0.80    3.30
  -2  -6  17    5.80    3.30
  -2  -6  17    0.80    3.00
  -2   6 -17    3.20    2.30
   2  -6 -17    2.00    2.40
   2  -6 -17    4.60    2.80
   3   6 -17   28.60    4.00
  -3   6  17   23.80    3.40
  -3  -6 -17   29.80    4.20
   3  -6 -17   36.20    4.90
  -3  -6  17   39.90    5.80
  -3  -6  17   32.00    5.90
  -3   6 -17   38.50    4.70
   3  -6 -17   46.40    6.80
  -3  -6  17   27.70    4.20
  -4   6  17   36.70    4.90
  -4   6  17   37.60    6.00
  -4  -6 -17   36.20    4.90
  -4   6  17   43.40    5.70
   4   6 -17   38.10    4.30
  -4  -6  17   41.50    5.70
   4  -6 -17   40.30    5.10
  -4  -6  17   57.89    7.80
  -4  -6  17   44.80    5.70
  -4   6 -17   48.50    4.80
  -5   6  17   24.70    4.50
   5   6 -17   24.10    3.20
  -5  -6 -17   21.60    4.30
  -5  -6 -17   22.50    3.40
  -5   6 -17   23.40    3.70
  -5  -6  17   16.90    3.50
  -5  -6  17   19.70    4.80
   0  -7 -17    7.30    2.70
   0  -7  17    8.60    4.70
   0   7 -17   11.00    2.70
   0  -7 -17    5.10    2.40
   0  -7  17   10.30    3.50
  -1  -7 -17   42.40    5.90
   1  -7  17   55.59    6.20
   1   7 -17   51.59    4.70
  -1  -7 -17   49.10    5.40
  -1   7  17   44.40    5.40
  -1  -7  17   46.30    6.90
  -1   7 -17   54.19    5.70
   1  -7 -17   53.09    5.40
  -1   7 -17   48.40    6.40
   1  -7 -17   50.29    5.50
  -1  -7  17   48.80    5.90
  -2  -7 -17  243.18   12.20
  -2  -7 -17  242.48   13.10
  -2  -7 -17  232.88   12.80
   2   7 -17  237.98   11.70
  -2   7  17  247.38   12.00
   2  -7  17  234.38   12.70
  -2   7 -17  235.28   12.60
   2  -7 -17  243.78   12.40
   2  -7 -17  222.38   12.10
  -2  -7  17  242.78   12.50
  -2  -7  17  234.58   12.50
  -3  -7 -17  194.98   11.20
  -3   7  17  226.18   10.80
   3   7 -17  208.08   10.40
   3  -7  17  206.28   12.40
  -3   7  17  205.48   11.70
  -3  -7  17  198.68   11.30
   3  -7 -17  202.28   10.90
  -3   7 -17  209.08   11.20
  -4   7  17   22.70    3.20
   4   7 -17   27.70    3.50
  -4   7  17   22.60    3.70
  -4   7  17   27.20    4.70
  -4  -7 -17   21.70    3.50
   4  -7 -17   23.50    3.30
  -4  -7  17   24.90    4.00
  -4   7 -17   25.50    4.10
  -4  -7  17   24.10    5.90
   5   7 -17   43.50    4.20
  -5  -7 -17   31.20    4.70
  -5  -7 -17   32.20    6.00
  -5   7  17   41.10    5.40
  -5  -7  17   36.70    5.30
  -5   7 -17   43.10    4.20
   0   8 -17   70.39    6.00
   0  -8  17   58.29    6.50
   0  -8  17   68.59    6.60
   0  -8 -17   71.19    6.20
   0  -8 -17   74.49    6.30
  -1  -8 -17  103.09    7.10
  -1  -8 -17  104.29    7.50
   1   8 -17   94.39    6.60
   1  -8  17  110.19    7.70
  -1  -8  17   87.19    8.20
   1  -8 -17  102.79    7.10
  -1  -8  17   98.09    7.70
   1  -8 -17  105.69    7.20
  -1   8 -17  111.79    7.60
  -2  -8 -17   50.29    6.70
   2  -8  17   37.10    4.70
  -2   8  17   38.90    4.90
   2  -8 -17   42.60    6.20
  -2   8 -17   42.20    5.20
   2  -8 -17   45.80    5.10
  -2  -8  17   48.00    5.90
  -2  -8  17   44.90    5.10
   3   8 -17  139.39    7.70
  -3  -8 -17  127.79    8.60
   3  -8  17  135.19    9.90
  -3   8  17  139.39    8.10
  -3   8  17  132.69    8.70
  -3  -8  17  135.09    8.70
  -3  -8  17  135.49   10.10
   3  -8 -17  138.39    8.30
  -3   8 -17  140.89    8.40
  -3  -8  17  131.59    9.10
  -4   8  17   52.09    6.90
  -4   8  17   66.69    6.00
  -4  -8 -17   62.69    5.80
   4   8 -17   63.39    4.90
  -4   8 -17   71.79    5.20
   4  -8 -17   72.19    5.90
  -4  -8  17   70.69    6.20
   5   8 -17   29.60    3.80
  -5   8 -17   26.70    3.50
  -5  -8  17   22.30    4.00
   0  -9  17  150.88    9.20
   0  -9 -17  131.39    8.90
   0  -9 -17  159.58    9.00
   0  -9  17  154.68   11.00
   0   9 -17  158.68    8.90
  -1  -9 -17   61.09    5.60
  -1  -9 -17   61.99    6.00
   1   9 -17   60.09    5.30
   1  -9  17   60.29    6.20
  -1  -9  17   57.29    6.20
  -1  -9  17   55.09    7.20
  -1   9 -17   47.20    6.00
   1  -9 -17   46.00    5.70
   1  -9 -17   55.59    5.60
   2  -9  17  442.46   19.00
   2   9 -17  426.46   18.50
  -2  -9 -17  433.16   19.60
  -2  -9  17  405.66   19.00
   2  -9 -17  389.66   19.10
   2  -9 -17  409.46   19.40
  -2  -9  17  396.16   18.90
  -2   9 -17  401.76   19.80
  -3  -9 -17   71.49    7.40
   3  -9  17   74.79    7.70
  -3   9  17   71.19    7.00
   3   9 -17   69.59    5.10
  -3   9  17   64.69    6.00
   3  -9 -17   77.19    5.90
  -3   9 -17   74.39    5.70
  -3  -9  17   78.09    6.50
  -3  -9  17   74.79    8.10
  -3  -9  17   65.19    7.40
  -4  -9 -17   34.70    5.60
   4   9 -17   33.70    3.70
  -4   9  17   38.10    4.70
  -4   9  17   37.60    5.00
  -4   9 -17   27.90    3.90
  -4  -9  17   24.90    3.70
   4  -9 -17   33.70    5.30
   0  10 -17    2.60    3.40
   0 -10  17    4.00    2.90
   0 -10 -17    4.80    2.40
   0 -10  17    6.50    5.10
   1  10 -17    3.30    2.80
   1 -10  17    1.00    3.00
  -1 -10 -17    3.50    2.50
  -1 -10  17    4.30    3.90
  -1  10 -17    1.00    2.80
   1 -10 -17    1.20    2.50
  -1 -10  17    0.10    2.80
   1 -10 -17    4.50    3.30
  -2 -10 -17   30.40    4.10
   2  10 -17   25.70    4.00
  -2  10  17   36.50    4.90
   2 -10  17   29.10    4.00
  -2  10 -17   31.40    4.90
  -2 -10  17   32.10    4.50
  -2 -10  17   37.70    5.70
   2 -10 -17   42.50    5.00
  -3  10  17  102.39    7.00
   3 -10  17   97.29    8.10
  -3  10  17  108.49    8.20
   3  10 -17  105.69    6.20
  -3 -10  17  102.29    8.50
  -3 -10  17  110.09    7.50
  -3  10 -17  103.99    6.80
  -3 -10  17  103.79    8.80
   3 -10 -17  105.89    7.00
  -4  10  17   45.40    4.50
  -4  10  17   46.10    6.60
   4  10 -17   40.20    3.80
  -4  10 -17   41.30    4.00
  -4 -10  17   39.90    5.20
   4 -10 -17   36.50    6.00
   0 -11 -17  541.05   24.30
   0 -11  17  523.45   23.50
   1  11 -17   58.49    5.50
   1 -11  17   46.30    5.80
  -1 -11 -17   57.69    5.60
  -1 -11  17   58.69    7.30
  -1 -11  17   49.40    5.90
   1 -11 -17   54.09    5.40
   2 -11  17   96.39    6.90
   2  11 -17   83.79    5.90
  -2  11  17   72.39    6.50
  -2 -11 -17   85.49    6.90
  -2  11 -17   91.49    6.70
  -2 -11  17   99.19    7.50
  -2 -11  17  101.79    7.30
   2 -11 -17   97.39    6.50
   3 -11  17   32.50    4.80
  -3  11  17   37.20    4.40
   3  11 -17   31.50    3.80
  -3  11  17   38.70    6.30
  -3 -11  17   33.40    5.10
   3 -11 -17   38.30    4.80
  -3 -11  17   49.30    5.50
  -3  11 -17   38.50    4.40
  -4  11  17   30.50    4.00
   4  11 -17   31.00    3.40
  -4 -11  17   35.50    4.80
  -4  11 -17   28.70    3.70
   0  12  17    5.80    2.70
   0 -12  17    4.80    3.00
   0 -12 -17    6.10    2.60
  -1 -12 -17   44.30    5.00
   1 -12  17   45.00    5.20
   1  12 -17   44.10    5.30
  -1  12  17   38.80    4.90
   1  12  17   39.60    6.10
  -1 -12  17   38.30    5.30
  -1 -12  17   34.90    5.10
   1 -12 -17   37.60    4.50
   2 -12  17   57.09    5.90
   2  12 -17   53.19    4.80
  -2 -12 -17   53.89    5.90
  -2 -12  17   49.40    6.00
  -2 -12  17   49.70    6.20
   2 -12 -17   55.69    5.00
  -2 -12  17   59.59    6.20
  -2  12 -17   50.99    5.60
  -3  12  17   25.70    3.70
   3 -12  17   18.50    4.60
   3  12 -17   24.00    3.20
  -3 -12  17   17.10    4.70
  -3 -12  17   14.20    3.30
   3 -12 -17   18.90    3.10
   0 -13 -17  131.29    7.30
   0  13  17  102.09    7.60
   0 -13  17  115.49    7.40
   1 -13  17   13.60    3.00
  -1 -13 -17   12.80    2.90
  -1  13  17   12.60    2.70
  -1 -13  17   10.60    4.80
  -1 -13  17    8.40    3.00
   1 -13 -17    8.80    2.40
  -2 -13 -17   25.90    3.60
  -2  13  17   34.30    4.30
   2 -13  17   34.80    5.20
   2  13 -17   37.10    4.50
   2 -13 -17   33.20    4.00
  -2 -13  17   34.80    5.30
  -2 -13  17   31.70    4.50
  -2 -13  17   26.60    4.20
  -3  13  17  108.29    6.50
  -3 -13  17  109.79    7.10
   0  14  17   15.50    3.90
   0 -14  17   20.90    3.30
   0 -14 -17   17.10    2.80
  -1  14  17   -0.90    2.50
   1 -14  17    2.30    2.70
  -1 -14 -17    0.50    2.30
  -1 -14  17    2.40    3.10
   1 -14 -17    1.60    2.10
   2 -14  17   34.90    4.90
  -2 -14 -17   32.90    4.90
  -2  14  17   36.90    4.10
   2 -14 -17   31.90    4.10
   0 -15  17    7.40    3.10
   0 -15 -17    5.70    2.40
  -1 -15 -17   62.59    5.00
   1 -15  17   53.49    4.90
   1 -15 -17   56.69    4.80
   0   0  18   47.90    7.10
   0   0 -18   61.59    4.90
   0   0  18   56.99    6.50
  -1   0  18    0.70    2.80
  -1   0  18    2.90    2.70
  -1   0 -18    4.10    2.50
  -1   0 -18    2.80    2.00
   1   0 -18   -0.20    2.00
   1   0  18    1.10    3.20
  -1   0 -18    2.30    3.00
  -2   0 -18  290.87   14.90
   2   0 -18  305.87   14.30
  -2   0  18  304.77   15.10
  -2   0 -18  311.77   14.70
  -2   0  18  322.97   14.80
   3   0 -18    9.80    2.90
  -3   0  18    9.90    3.00
  -3   0 -18   12.70    4.00
  -3   0 -18   12.20    3.00
  -3   0  18   12.20    3.70
  -3   0  18    7.60    3.00
  -4   0 -18  183.68   13.20
  -4   0  18  187.28   11.70
  -4   0  18  199.88   10.70
   4   0 -18  183.48    9.70
  -4   0 -18  184.18   10.20
  -4   0  18  186.98   10.10
  -5   0  18   24.00    3.40
  -5   0 -18   22.70    3.40
  -5   0  18   18.60    3.40
   5   0 -18   16.40    2.80
  -5   0 -18   12.30    4.80
  -5   0  18   12.60    3.50
   0   1  18   61.59    6.80
   0  -1 -18   67.69    5.90
   0   1 -18   64.79    5.00
   0  -1  18   56.89    7.40
   0  -1 -18   62.09    5.00
   0  -1  18   62.89    6.20
   0   1  18   64.29    6.50
  -1  -1 -18   -0.30    2.10
   1  -1  18    4.00    3.10
  -1   1  18    3.50    2.60
   1   1 -18    3.60    2.00
  -1   1  18    3.70    2.80
  -1  -1 -18    4.90    2.90
  -1  -1 -18    1.50    2.70
  -1  -1  18    1.80    2.60
  -1  -1  18    5.30    3.00
   1   1  18    0.80    3.10
   1  -1 -18    3.80    2.00
  -1   1 -18    4.90    2.20
  -2   1  18  128.39    8.20
  -2  -1 -18  136.49    8.20
  -2  -1 -18  134.09    8.10
   2  -1  18  143.09   10.80
  -2   1  18  138.89    8.70
   2   1 -18  129.19    7.40
  -2  -1  18  134.69    8.60
   2  -1 -18  125.29    7.50
  -2  -1  18  123.49    9.30
  -2  -1  18  115.39    8.20
  -2   1 -18  129.99    8.30
  -2   1 -18  129.59    7.90
  -3   1  18   10.00    3.20
  -3  -1 -18    9.70    2.90
  -3   1  18   10.80    3.00
  -3   1  18   10.70    3.80
   3   1 -18    8.70    2.50
  -3  -1 -18    5.80    3.40
   3  -1 -18   13.00    2.80
  -3  -1  18   12.30    3.30
  -3  -1  18   12.90    3.20
  -3  -1  18   13.30    3.90
  -3   1 -18   15.60    3.30
  -4   1  18   12.80    2.90
  -4  -1 -18    7.80    2.70
   4   1 -18   10.50    3.00
  -4  -1 -18    8.30    4.80
  -4   1  18    9.50    3.30
  -4   1  18   14.10    3.20
  -4  -1  18   15.20    3.30
  -4  -1  18   10.30    3.50
  -4  -1  18   16.10    4.10
  -4   1 -18   12.00    5.20
   4  -1 -18   10.50    3.30
  -4   1 -18   12.30    3.00
  -5   1  18   29.20    3.80
  -5  -1 -18   22.70    5.00
  -5   1  18   31.20    4.70
  -5  -1 -18   37.60    4.30
  -5   1  18   27.80    3.90
  -5  -1  18   34.90    3.80
  -5   1 -18   33.60    5.70
  -5  -1  18   37.90    4.80
  -5   1 -18   32.20    4.20
  -5  -1  18   35.20    5.60
   5  -1 -18   39.90    4.50
   0   2 -18  548.75   23.20
   0  -2 -18  536.35   23.20
   0   2  18  515.85   23.50
   0   2  18  522.25   22.90
   0  -2 -18  549.54   24.00
   0  -2  18  520.25   23.20
   0  -2  18  546.75   23.60
  -1  -2 -18  415.26   18.70
   1  -2  18  409.86   19.10
  -1   2  18  416.36   18.50
   1   2 -18  440.26   18.60
  -1  -2 -18  420.86   19.50
  -1  -2 -18  397.66   19.50
  -1   2  18  425.86   19.10
  -1  -2  18  407.16   18.80
   1  -2 -18  433.96   18.60
  -1  -2  18  410.06   19.00
   1   2  18  414.36   19.20
  -1   2 -18  410.26   18.50
   2   2 -18  635.94   27.40
  -2  -2 -18  669.33   28.60
  -2   2  18  629.24   27.60
  -2   2  18  645.34   27.10
  -2  -2 -18  650.73   27.60
   2  -2  18  653.03   28.00
  -2   2 -18  639.54   27.50
   2  -2 -18  607.44   27.20
  -2   2 -18  613.04   28.50
  -2  -2  18  634.64   27.20
  -2  -2  18  641.24   31.40
  -2  -2  18  635.34   27.70
  -3  -2 -18   42.60    6.50
  -3  -2 -18   38.90    4.60
  -3   2  18   38.90    5.30
   3   2 -18   35.50    4.30
  -3   2  18   47.60    5.80
  -3   2  18   36.50    6.20
  -3  -2 -18   46.70    5.00
   3  -2 -18   40.10    4.70
  -3  -2  18   36.80    5.20
  -3  -2  18   50.39    6.10
  -3  -2  18   38.70    5.10
  -3   2 -18   36.20    4.90
  -4   2  18  114.09    7.40
   4   2 -18  108.19    7.00
  -4   2  18  113.79    8.90
  -4  -2 -18  104.49    9.60
  -4   2  18  105.09    6.80
  -4  -2 -18  111.29    7.40
  -4  -2  18  115.99    8.90
  -4  -2  18  124.69    8.30
  -4   2 -18  120.59    7.40
   4  -2 -18  116.99    7.20
  -4  -2  18  126.59    7.90
   4  -2 -18  120.59    7.50
   5   2 -18   10.70    3.90
  -5   2  18   14.10    3.20
  -5   2  18   22.00    4.40
  -5  -2 -18   14.90    4.60
  -5   2  18   17.00    3.20
  -5  -2 -18   19.80    3.20
  -5   2 -18   17.00    5.80
  -5  -2  18   12.40    3.80
   5  -2 -18   17.80    3.00
  -5  -2  18   16.50    3.40
  -5  -2  18   18.40    2.70
   0  -3 -18  177.28    9.50
   0  -3  18  155.28    9.40
   0   3 -18  170.08    8.80
   0   3  18  165.08    9.50
   0   3  18  158.58    9.70
   0  -3 -18  161.98    8.90
   0  -3  18  161.18   10.30
  -1   3  18    4.30    2.80
   1   3 -18    1.20    2.00
  -1  -3 -18    5.60    2.70
  -1  -3 -18    2.20    2.20
   1  -3  18    1.60    3.30
  -1  -3 -18    5.80    3.30
  -1   3  18   -1.60    2.60
  -1   3 -18   -0.50    2.30
   1   3  18    1.50    3.70
  -1  -3  18    4.20    3.20
  -1  -3  18   -0.30    2.90
   1  -3 -18    1.40    2.10
  -1  -3  18    2.10    3.80
   1  -3 -18    0.60    2.00
  -2  -3 -18  125.39    8.00
  -2   3  18  135.89    8.00
  -2   3  18  132.09    8.60
  -2  -3 -18  137.29    8.40
   2  -3  18  129.19    9.70
   2   3 -18  142.99    7.60
  -2   3 -18  128.79    8.70
   2  -3 -18  127.49    7.60
   2  -3 -18  128.39    7.90
  -2  -3  18  121.89    8.40
  -2  -3  18  133.39    9.70
  -2  -3  18  131.29    8.80
  -3  -3 -18   51.39    6.10
  -3   3  18   46.00    5.60
  -3   3  18   60.79    6.10
  -3   3  18   63.99    7.00
  -3  -3 -18   54.89    7.10
  -3  -3 -18   59.49    5.40
   3   3 -18   57.39    4.80
  -3  -3  18   57.59    6.00
  -3  -3  18   47.80    6.40
  -3  -3  18   46.50    7.30
   3  -3 -18   46.20    5.00
  -3   3 -18   54.39    5.30
   3  -3 -18   49.20    5.20
  -4   3  18   36.00    5.10
   4   3 -18   31.70    4.20
  -4   3  18   34.30    4.80
  -4  -3 -18   28.60    4.40
  -4   3  18   35.40    6.00
  -4  -3 -18   31.50    5.40
  -4  -3  18   29.10    4.90
   4  -3 -18   32.20    4.40
  -4  -3  18   24.40    4.20
  -4  -3  18   23.70    3.70
   5   3 -18   11.10    3.40
  -5  -3 -18    9.00    2.80
  -5   3  18    7.70    3.30
  -5  -3 -18   13.80    4.40
  -5   3  18   11.80    3.80
  -5   3  18    9.90    2.90
   5  -3 -18    6.80    2.90
  -5  -3  18   10.20    3.20
  -5  -3  18    6.60    3.90
   0  -4 -18    8.20    2.70
   0  -4  18    5.70    2.70
   0   4  18   11.80    3.30
   0   4 -18   11.10    2.50
   0  -4 -18    9.80    2.60
   0  -4  18   14.00    4.40
   0   4  18   13.80    3.60
  -1   4  18   73.39    6.40
   1   4 -18   72.49    5.00
  -1  -4 -18   74.09    5.50
  -1   4  18   70.19    6.70
   1  -4  18   70.89    6.90
  -1  -4 -18   81.09    6.60
   1  -4 -18   62.89    5.50
   1  -4 -18   61.39    5.60
  -1  -4  18   61.99    6.50
   1   4  18   56.19    8.00
  -1  -4  18   64.09    6.90
  -1   4 -18   64.39    5.70
   2   4 -18    5.30    2.40
  -2  -4 -18    8.40    3.00
  -2   4  18   11.50    3.20
  -2  -4 -18    6.90    2.70
   2  -4  18   12.20    3.90
  -2   4  18    7.20    2.80
  -2  -4  18    2.20    3.10
   2  -4 -18    2.60    2.30
  -2  -4  18    2.50    3.00
  -2   4 -18    6.20    4.00
   2  -4 -18    1.30    2.30
  -2   4 -18    4.00    2.30
  -2  -4  18    8.60    4.00
  -3  -4 -18   91.99    6.90
  -3   4  18   96.49    8.10
  -3   4  18   93.79    6.90
   3   4 -18  104.09    6.30
  -3  -4  18  100.99    7.40
  -3   4 -18   91.59    6.80
  -3  -4  18   90.79    7.50
   3  -4 -18   93.69    6.60
  -3  -4  18   94.29    8.80
   3  -4 -18  105.39    7.10
  -4  -4 -18   29.70    4.50
  -4   4  18   34.60    6.00
  -4  -4 -18   29.50    5.00
  -4   4  18   24.60    3.50
   4   4 -18   38.70    4.00
  -4   4  18   39.20    4.90
  -4  -4  18   27.30    4.50
  -4  -4  18   29.00    4.90
   4  -4 -18   26.20    3.50
  -4  -4  18   23.90    3.70
  -5  -4 -18    5.30    2.80
  -5   4  18   11.40    3.00
  -5   4  18    3.60    3.60
   5   4 -18   13.60    3.20
  -5  -4 -18    6.30    4.20
  -5  -4  18    9.20    3.10
   5  -4 -18    3.40    3.00
  -5  -4  18    4.60    3.70
   0   5  18   52.29    7.00
   0   5  18   45.40    6.20
   0  -5  18   39.90    5.90
   0   5 -18   42.40    4.70
   0  -5  18   50.29    5.70
   0  -5 -18   52.79    5.20
   0  -5 -18   46.30    5.00
  -1  -5 -18    3.90    2.20
   1   5 -18    8.70    2.40
  -1   5  18    8.50    2.90
  -1   5  18    6.90    3.10
   1  -5  18    7.80    3.30
  -1  -5 -18    5.60    2.80
  -1  -5  18    5.30    3.20
   1  -5 -18    6.20    2.50
  -1  -5  18    8.80    3.70
   1  -5 -18    5.20    2.30
  -1   5 -18    4.80    2.90
  -2  -5 -18   51.69    5.70
  -2  -5 -18   57.19    7.80
  -2  -5 -18   51.49    6.10
  -2   5  18   53.89    5.60
   2   5 -18   54.69    5.00
   2  -5  18   59.79    7.20
   2  -5 -18   70.59    5.70
  -2  -5  18   54.29    6.60
  -2  -5  18   61.19    6.10
  -2   5 -18   64.79    5.60
  -2  -5  18   70.39   10.40
   2  -5 -18   65.39    5.70
  -3   5  18  432.56   21.30
  -3  -5 -18  381.76   19.00
   3   5 -18  393.26   18.20
  -3   5  18  428.36   18.20
   3  -5 -18  395.46   18.50
  -3   5 -18  409.26   19.60
  -3  -5  18  412.66   18.60
   3  -5 -18  408.56   19.00
  -3  -5  18  393.26   21.40
  -3  -5  18  410.96   18.70
  -4  -5 -18   35.10    4.90
  -4   5  18   38.20    5.00
  -4   5  18   52.19    6.30
  -4  -5 -18   28.50    5.10
   4   5 -18   36.30    4.20
  -4   5  18   37.60    6.20
   4  -5 -18   49.20    4.90
  -4  -5  18   55.09    5.70
  -4  -5  18   46.60    5.40
  -4   5 -18   48.80    4.70
  -4  -5  18   41.20    5.70
  -5   5  18   52.99    5.20
  -5   5  18   41.30    6.00
  -5  -5 -18   47.50    7.00
  -5  -5 -18   48.50    4.80
   5   5 -18   50.99    4.80
   5  -5 -18   41.70    6.10
  -5  -5  18   50.49    6.80
  -5  -5  18   46.30    5.20
   0   6  18  107.79    7.70
   0  -6 -18  106.59    6.90
   0   6 -18  107.19    6.80
   0  -6  18  101.19    9.60
   0  -6 -18   97.19    7.10
   0  -6  18  101.19    7.50
  -1   6  18   68.09    6.30
  -1  -6 -18   80.19    6.60
   1   6 -18   66.39    5.50
  -1  -6 -18   72.69    5.80
   1  -6  18   78.99    7.00
   1  -6 -18   84.39    6.40
  -1  -6  18   80.59    6.80
  -1   6 -18   81.89    6.70
   1  -6 -18   57.99    5.80
  -1  -6  18   76.79    7.50
   2  -6  18   -3.60    3.00
  -2  -6 -18   -0.30    2.40
  -2   6  18   -0.50    2.50
  -2  -6 -18    1.00    3.70
  -2  -6 -18    4.10    3.50
   2   6 -18    2.10    2.20
   2  -6 -18    1.20    2.30
  -2  -6  18    0.40    3.00
  -2   6 -18   -1.80    2.10
   2  -6 -18    4.70    2.60
  -2  -6  18   -1.10    2.90
  -3   6  18  340.57   18.10
   3   6 -18  352.06   15.60
  -3  -6 -18  321.67   16.30
  -3   6  18  321.27   15.30
  -3  -6  18  340.97   16.10
   3  -6 -18  330.07   16.30
   3  -6 -18  366.86   16.40
  -3   6 -18  333.87   16.60
  -3  -6  18  348.87   16.10
  -3  -6  18  328.57   19.30
  -4   6  18    8.90    2.50
  -4  -6 -18    2.90    2.70
   4   6 -18    8.80    2.50
  -4   6  18    6.00    3.20
  -4   6  18    6.40    3.60
  -4  -6  18    8.80    4.80
  -4   6 -18    4.70    2.20
  -4  -6  18    5.40    4.80
  -4  -6  18    7.20    3.30
   4  -6 -18    6.10    2.40
  -5   6  18   25.50    4.40
  -5  -6 -18   21.10    4.70
  -5  -6 -18   20.80    3.40
   5   6 -18   23.50    3.30
  -5  -6  18   12.80    3.30
   0  -7 -18  123.19    7.90
   0   7 -18  133.89    7.60
   0  -7  18   97.79    7.90
   0  -7  18  120.79   10.20
   0  -7 -18  129.99    7.70
   1  -7  18  216.98   11.30
  -1   7  18  207.88   10.70
  -1  -7 -18  210.78   11.40
   1   7 -18  219.18   10.60
  -1  -7 -18  209.78   11.00
   1  -7 -18  208.48   11.20
  -1  -7  18  213.08   11.30
  -1  -7  18  201.68   11.50
  -1   7 -18  184.18   11.10
   1  -7 -18  203.18   10.80
  -2   7  18   14.90    3.10
   2   7 -18   13.30    2.90
  -2  -7 -18   15.60    3.30
   2  -7  18   15.60    3.70
  -2  -7  18    5.30    3.20
   2  -7 -18   10.00    3.10
   2  -7 -18    8.40    2.60
  -2  -7  18    9.40    3.00
  -2   7 -18    6.70    2.40
   3   7 -18   86.19    5.70
  -3  -7 -18   82.09    6.80
  -3   7  18   92.99    7.40
  -3   7  18   92.29    6.90
  -3   7  18   85.59    6.30
  -3  -7  18   77.99    7.20
  -3   7 -18   81.09    6.20
   3  -7 -18   74.39    6.10
  -3  -7  18   76.69    7.30
   4   7 -18   53.69    4.40
  -4   7  18   44.70    4.80
  -4  -7 -18   40.80    5.30
  -4   7  18   47.60    5.60
  -4   7  18   38.10    6.00
  -4  -7  18   48.30    5.40
   4  -7 -18   51.89    5.30
  -4   7 -18   45.20    4.50
  -5  -7  18   39.00    5.00
   0  -8  18   16.20    5.30
   0  -8 -18   21.60    3.40
   0  -8 -18   20.70    3.30
   0  -8  18   20.80    3.70
   0   8 -18   22.40    3.60
  -1  -8 -18   20.40    3.30
   1  -8  18   21.60    3.90
   1  -8 -18   11.20    2.80
  -1  -8  18   10.60    3.00
   1  -8 -18   11.80    3.30
  -1  -8  18   13.00    4.10
  -2   8  18   81.29    6.30
  -2  -8 -18   82.19    7.30
   2   8 -18   77.99    5.60
   2  -8  18   86.19    7.40
  -2   8 -18   76.39    6.10
   2  -8 -18   69.39    6.90
  -2  -8  18   81.19    6.90
   2  -8 -18   82.99    6.20
  -2  -8  18   86.89    7.30
   3   8 -18    4.20    2.50
  -3   8  18    1.20    2.50
  -3   8  18    4.10    3.30
  -3  -8 -18   -2.40    3.80
   3  -8  18    3.70    5.30
  -3  -8  18   10.70    3.90
   3  -8 -18   10.50    2.80
  -3  -8  18    9.50    3.50
  -3   8 -18    9.80    2.60
  -4   8  18    9.10    2.90
  -4   8  18    6.60    3.60
   4   8 -18    6.90    2.40
  -4  -8 -18    3.60    3.40
   4  -8 -18    8.80    2.90
  -4   8 -18   10.50    2.50
  -4  -8  18    5.90    3.00
   0  -9 -18   81.99    6.50
   0  -9 -18   74.99    6.30
   0  -9  18   73.59    6.70
   0   9 -18   77.49    6.50
   1  -9  18   84.49    7.10
  -1  -9 -18   86.49    6.90
   1   9 -18   86.99    6.20
   1  -9 -18   87.49    6.90
   1  -9 -18   84.39    6.60
  -1  -9  18   90.69    8.10
  -1  -9  18   94.89    7.10
   2   9 -18  115.09    6.90
   2  -9  18  108.39    8.10
  -2  -9 -18  108.19    7.80
  -2   9 -18  108.99    7.40
  -2  -9  18  118.79    8.30
  -2  -9  18  118.59    7.90
   2  -9 -18  114.69    7.50
   3   9 -18   24.90    3.60
  -3   9  18   26.40    3.70
  -3   9  18   24.40    4.10
   3  -9  18   25.70    5.20
   3  -9 -18   31.00    3.70
  -3   9 -18   25.70    4.10
  -3  -9  18   25.20    4.10
  -3  -9  18   27.30    4.40
  -3  -9  18   27.60    5.90
   4   9 -18   91.79    5.30
  -4   9  18   86.59    6.10
  -4   9  18   80.89    7.60
  -4   9 -18   80.79    5.60
   4  -9 -18   85.99    6.50
  -4  -9  18   78.09    6.20
   0 -10  18   96.69    7.40
   0 -10 -18  103.69    7.20
   1 -10  18   47.20    6.00
   1  10 -18   53.09    5.30
  -1 -10 -18   47.30    5.50
   1 -10 -18   69.69    5.70
  -1 -10  18   67.89    7.30
  -1 -10  18   63.69    6.00
  -2  10  18   19.80    3.30
   2 -10  18   25.00    4.00
   2  10 -18   23.40    3.40
  -2 -10 -18   23.50    3.70
  -2 -10  18   31.40    4.40
   2 -10 -18   27.50    4.40
  -2 -10  18   21.20    3.60
  -2  10 -18   24.80    3.40
  -3  10  18   86.29    7.50
   3  10 -18   81.99    5.50
  -3  10  18   93.79    6.20
   3 -10  18   82.49    8.20
  -3  10 -18   79.99    5.90
  -3 -10  18   81.79    6.50
   3 -10 -18   89.69    6.30
  -3 -10  18   87.39    7.70
  -3 -10  18   80.59    9.00
   4  10 -18   24.10    3.30
  -4  10  18   24.40    4.00
  -4  10 -18   22.90    3.30
  -4 -10  18   17.10    3.60
   0 -11  18    1.70    2.70
   0 -11 -18    4.80    2.40
  -1 -11 -18    4.10    2.30
   1  11 -18    3.30    3.20
   1 -11  18    5.50    2.80
  -1  11  18    3.60    2.60
   1 -11 -18    2.20    2.30
  -1 -11  18   -1.50    4.30
  -1 -11  18    1.00    2.70
   2 -11  18   48.30    5.60
  -2 -11 -18   40.60    5.50
   2  11 -18   44.50    4.30
  -2 -11  18   47.20    5.60
   2 -11 -18   46.10    4.70
  -2 -11  18   47.10    6.10
  -3  11  18  119.49    6.90
  -3  11  18  116.39    8.80
   3 -11  18  110.19    9.50
   3  11 -18  103.89    6.20
  -3 -11  18  104.29    7.10
  -3  11 -18   99.09    6.60
   3 -11 -18  106.09    6.80
   0 -12  18    1.60    2.80
   0 -12 -18    2.80    2.10
   0  12  18    1.40    2.50
  -1  12  18   53.89    5.40
   1 -12  18   65.19    5.90
  -1 -12 -18   62.69    5.40
  -1 -12  18   74.69    7.50
   1  12  18   69.19    6.60
  -1 -12  18   83.39    6.10
   1 -12 -18   69.59    5.40
   2  12 -18    2.70    2.80
   2 -12  18    2.80    3.00
  -2  12  18    4.10    2.20
  -2 -12 -18    3.20    3.00
  -2 -12  18   -0.10    3.80
  -2 -12  18    3.40    3.50
   2 -12 -18    3.50    2.30
  -2 -12  18    1.00    3.50
   3  12 -18   26.10    3.80
  -3  12  18   33.80    3.80
   3 -12 -18   29.20    4.50
  -3 -12  18   23.80    4.00
   0 -13  18    8.00    3.00
   0 -13 -18    6.00    2.20
   0  13  18   10.90    3.10
  -1 -13 -18    2.20    2.30
   1 -13  18    6.00    3.00
  -1  13  18    6.20    2.40
  -1 -13  18    3.80    3.10
   1 -13 -18    5.00    2.20
  -2 -13 -18    9.50    3.30
  -2  13  18    6.60    2.30
   2 -13  18    4.80    3.10
   2 -13 -18    4.40    2.20
  -2 -13  18    4.90    4.10
  -2 -13  18   10.60    4.40
  -2 -13  18    6.90    3.70
   0 -14  18    2.30    2.80
   0 -14 -18   -1.30    2.00
  -1 -14 -18   45.10    4.50
   1 -14  18   38.80    4.70
  -1  14  18   48.00    5.00
   1 -14 -18   45.20    4.10
  -1 -14  18   47.20    5.20
   0   0  19   -4.40    3.40
   0   0  19   -0.80    2.70
   0   0 -19   -1.90    2.00
   0   0 -19    3.00    2.30
  -1   0 -19 1128.29   51.29
  -1   0  19 1216.48   49.50
   1   0  19 1202.28   49.30
  -1   0  19 1196.08   48.50
  -1   0 -19 1170.78   49.60
   1   0 -19 1276.27   49.70
  -2   0 -19   24.10    3.60
  -2   0 -19   19.20    3.20
  -2   0  19   24.50    4.10
   2   0 -19   27.40    3.50
  -2   0  19   19.30    3.30
  -2   0  19   17.50    3.50
  -3   0  19  257.97   12.70
  -3   0  19  259.97   14.70
  -3   0  19  252.07   13.00
  -3   0 -19  242.98   13.30
   3   0 -19  259.87   12.40
  -3   0 -19  265.17   13.20
  -4   0  19   -2.20    3.10
  -4   0 -19    4.10    2.60
   4   0 -19    3.00    2.90
   5   0 -19   30.60    4.00
  -5   0  19   28.20    4.00
  -5   0 -19   21.30    3.10
  -5   0  19   29.20    3.70
  -5   0  19   30.60    5.30
   0  -1  19  129.79    9.60
   0  -1  19  147.79    9.00
   0  -1 -19  139.79    8.00
   0  -1 -19  134.29    8.50
   0   1 -19  146.89    7.90
   0   1  19  135.39    9.10
   0   1  19  149.69    9.40
   1   1 -19  111.19    6.60
  -1  -1 -19   88.09    8.40
   1  -1  19  105.59    8.30
  -1   1  19   91.89    7.70
  -1  -1 -19  103.89    6.80
  -1   1  19  104.19    7.90
  -1   1 -19  113.19    7.10
   1   1  19  117.09    8.90
   1  -1 -19  113.39    6.80
  -1  -1  19  111.79    7.80
  -1  -1  19  111.69    7.90
  -2  -1 -19   -0.90    2.70
  -2   1  19    1.80    2.70
  -2  -1 -19    1.60    2.60
   2   1 -19    0.20    2.00
  -2   1  19    0.60    2.80
  -2  -1  19    2.10    3.00
  -2  -1  19    0.00    2.70
  -2   1 -19   -2.30    2.40
  -2   1 -19   -3.60    2.70
   2  -1 -19   -1.00    2.10
  -2  -1  19   -2.80    3.30
   3   1 -19    2.70    2.40
  -3   1  19    2.20    3.00
  -3   1  19    6.50    2.70
  -3   1  19    7.80    3.50
  -3  -1 -19    4.10    3.50
  -3  -1 -19    6.70    2.70
  -3  -1  19    0.50    2.90
  -3  -1  19    1.50    3.60
  -3   1 -19   -1.10    2.50
   3  -1 -19    4.20    2.60
  -3  -1  19   -0.50    2.80
  -4   1  19   26.90    3.70
  -4   1  19   29.50    3.70
  -4   1  19   19.30    4.00
   4   1 -19   24.00    3.30
  -4  -1  19   17.90    3.20
  -4  -1  19   18.50    3.80
  -4   1 -19   20.10    3.40
  -4  -1  19   27.50    4.40
   4  -1 -19   34.30    4.90
   5   1 -19   17.80    2.80
  -5  -1 -19   16.50    2.90
  -5   1  19   21.90    3.90
  -5   1  19   16.50    3.50
  -5   1  19   16.50    3.00
  -5  -1  19   17.90    2.90
  -5  -1  19   20.50    3.30
  -5  -1  19   22.90    4.00
   5  -1 -19   23.10    3.00
   0   2  19   59.89    7.00
   0  -2 -19   48.50    4.60
   0  -2 -19   50.49    5.50
   0  -2  19   66.79    8.10
   0  -2  19   49.30    6.30
   0   2  19   55.79    6.40
   0   2 -19   57.89    4.80
  -1  -2 -19  226.98   12.50
  -1   2  19  238.28   12.50
  -1  -2 -19  229.28   11.70
  -1  -2 -19  228.68   12.60
   1  -2  19  236.58   12.60
   1   2 -19  227.78   11.60
  -1   2  19  235.18   12.00
   1  -2 -19  251.47   12.20
  -1   2 -19  245.28   11.90
  -1  -2  19  253.27   12.50
  -1  -2  19  239.68   13.90
  -1  -2  19  251.67   12.40
   1   2  19  251.37   13.00
   1  -2 -19  237.58   11.70
  -2  -2 -19   47.50    5.70
   2   2 -19   38.00    4.60
  -2  -2 -19   55.09    5.50
  -2   2  19   45.30    5.70
   2  -2  19   49.40    5.70
  -2   2  19   42.10    5.70
  -2  -2  19   43.70    6.90
  -2   2 -19   48.90    6.30
  -2  -2  19   43.10    5.90
   2  -2 -19   50.39    4.80
  -2  -2  19   41.60    5.80
  -3  -2 -19  144.69    8.70
   3   2 -19  137.49    7.60
  -3   2  19  145.99    9.50
  -3   2  19  132.79    8.40
  -3   2  19  134.69    8.00
  -3  -2 -19  128.19    7.90
   3  -2 -19  111.69    7.60
   3  -2 -19  123.29    7.60
  -3  -2  19  125.69    8.40
  -3  -2  19  125.39    9.50
  -3   2 -19  122.69    8.00
  -3  -2  19  121.19    8.30
  -4   2  19   26.30    4.00
  -4   2  19   24.80    3.60
  -4  -2 -19   23.70    3.30
  -4   2  19   29.10    4.50
  -4  -2 -19   23.60    5.90
   4   2 -19   25.90    3.90
  -4  -2  19   19.70    3.40
  -4  -2  19   19.90    4.30
   4  -2 -19   24.90    4.10
   4  -2 -19   27.40    4.10
  -4  -2  19   23.80    4.00
  -5   2  19   72.19    5.70
  -5   2  19   70.39    5.60
  -5  -2 -19   83.39   10.20
  -5   2  19   74.39    6.50
  -5  -2 -19   72.09    5.30
   5  -2 -19   67.19    5.50
  -5  -2  19   60.59    4.70
  -5  -2  19   68.19    5.50
  -5  -2  19   53.19    6.50
   0  -3  19   92.69    7.30
   0  -3 -19   94.69    6.50
   0   3  19   93.89    7.60
   0   3  19   94.49    7.60
   0  -3  19   97.69    9.20
   0   3 -19   94.79    6.30
   0  -3 -19  110.09    7.20
  -1   3  19  167.58   10.10
  -1  -3 -19  167.88   10.70
  -1   3  19  184.98    9.80
   1   3 -19  176.98    9.20
  -1  -3 -19  169.18    9.50
  -1  -3 -19  169.48   10.10
   1  -3  19  160.78   10.20
   1  -3 -19  186.28    9.50
  -1  -3  19  183.78   10.10
   1   3  19  179.88   10.90
   1  -3 -19  183.78    9.70
  -1  -3  19  179.48   10.40
  -1   3 -19  177.58    9.40
  -1  -3  19  165.38   12.20
  -2   3  19   60.39    5.80
  -2   3  19   63.99    6.10
   2  -3  19   51.69    7.80
   2   3 -19   53.99    5.00
  -2  -3 -19   56.59    5.60
  -2  -3 -19   59.69    6.00
  -2  -3  19   51.19    7.80
  -2  -3  19   54.79    6.10
   2  -3 -19   59.99    5.20
  -2   3 -19   67.89    7.10
   2  -3 -19   60.49    5.40
  -2  -3  19   60.59    6.20
  -3  -3 -19   29.50    4.80
   3   3 -19   31.40    4.00
  -3   3  19   38.60    5.30
  -3  -3 -19   41.00    5.40
  -3   3  19   39.30    6.00
  -3  -3  19   37.30    5.70
   3  -3 -19   25.00    3.60
  -3  -3  19   22.40    3.70
  -3  -3  19   24.80    4.50
   3  -3 -19   32.10    4.50
  -4  -3 -19   10.60    5.10
   4   3 -19   10.10    2.80
  -4   3  19    7.20    3.60
  -4  -3 -19    8.40    2.60
  -4   3  19   11.10    3.10
  -4  -3  19    8.00    3.80
  -4  -3  19   17.70    3.80
   4  -3 -19   16.40    2.80
  -4  -3  19   13.60    3.10
  -5   3  19   17.40    3.90
   5   3 -19   10.90    3.90
  -5  -3 -19   23.80    3.30
  -5   3  19   16.80    2.90
  -5  -3  19   15.90    2.70
   5  -3 -19   18.10    3.10
  -5  -3  19   15.40    4.00
  -5  -3  19   17.90    3.30
   0  -4 -19  230.08   12.20
   0   4 -19  230.88   11.50
   0   4  19  233.78   12.00
   0  -4  19  244.28   12.50
   0  -4  19  247.38   13.40
   0   4  19  230.08   12.30
   0  -4 -19  240.78   11.80
  -1  -4 -19   12.30    2.70
   1  -4  19   11.70    3.70
   1   4 -19   10.20    2.60
  -1  -4 -19   10.70    2.90
  -1   4  19   10.80    2.90
  -1   4  19   10.60    3.50
  -1  -4  19   12.40    3.40
  -1  -4  19    9.50    3.60
   1  -4 -19    6.80    2.40
   1   4  19   15.80    4.80
   1  -4 -19   15.50    2.90
  -1   4 -19   10.70    3.00
  -2  -4 -19   28.20    3.80
   2  -4  19   29.00    4.40
  -2  -4 -19   21.60    3.70
  -2   4  19   21.20    3.60
   2   4 -19   28.50    3.90
  -2   4  19   27.20    3.70
   2  -4 -19   24.50    3.50
  -2  -4  19   25.00    4.30
   2  -4 -19   22.00    3.30
  -2  -4  19   24.10    5.40
  -2  -4  19   20.70    3.50
   3   4 -19   37.50    4.20
  -3  -4 -19   29.70    4.90
  -3   4  19   37.30    5.30
  -3   4  19   36.60    5.70
  -3  -4  19   47.40    5.50
  -3  -4  19   43.80    6.10
   3  -4 -19   42.00    4.70
   3  -4 -19   45.60    5.60
  -3  -4  19   39.00    5.70
  -4  -4 -19  123.49    7.80
  -4   4  19  126.69    7.70
   4   4 -19  140.49    7.40
  -4   4  19  142.39    9.20
  -4  -4 -19  132.59   11.10
  -4  -4  19  125.99    7.90
  -4  -4  19  140.59    8.70
   4  -4 -19  120.29    7.70
  -4  -4  19  125.99    9.60
  -5   4  19   62.69    5.50
  -5  -4 -19   68.29    5.20
  -5   4  19   60.09    6.10
   5  -4 -19   52.29    5.80
  -5  -4  19   63.39    6.80
  -5  -4  19   70.99    5.70
   0  -5 -19  142.79    8.40
   0  -5  19  133.49    8.70
   0  -5 -19  135.59    8.00
   0   5  19  122.09    8.50
   0  -5  19  131.09   10.80
   0   5 -19  133.29    7.80
   1  -5  19  123.29    8.80
  -1  -5 -19  141.99    9.00
   1   5 -19  154.08    8.30
  -1  -5 -19  147.79    8.50
  -1   5  19  149.88    8.70
  -1   5 -19  145.69    8.60
  -1  -5  19  147.59    9.50
  -1  -5  19  153.88    9.30
   1  -5 -19  147.99    8.30
   1  -5 -19  147.99    8.70
   2  -5  19   39.40    4.80
   2   5 -19   48.20    4.40
  -2   5  19   42.00    5.50
  -2  -5 -19   43.50    5.10
  -2  -5 -19   34.30    4.70
   2  -5 -19   42.20    5.20
  -2  -5  19   37.90    5.70
   2  -5 -19   39.00    4.90
  -2  -5  19   40.20    4.90
  -3   5  19   43.90    5.80
  -3  -5 -19   43.20    5.50
   3   5 -19   41.30    4.30
  -3   5  19   49.90    5.40
  -3  -5  19   40.00    5.90
   3  -5 -19   42.30    4.90
  -3  -5  19   37.50    5.70
   3  -5 -19   44.00    5.60
  -3  -5  19   48.60    8.50
  -4   5  19    7.40    2.80
  -4  -5 -19    5.90    2.90
   4   5 -19    4.60    2.60
  -4   5  19    7.20    3.30
  -4  -5 -19    1.60    4.80
  -4   5  19    4.60    3.70
  -4  -5  19    6.30    4.30
  -4  -5  19    8.10    3.30
   4  -5 -19    7.60    2.50
  -4  -5  19    8.50    4.80
  -5  -5 -19    7.60    3.10
  -5   5  19    0.40    3.30
  -5  -5  19    5.90    2.90
   0  -6 -19   12.70    2.90
   0   6 -19   17.00    3.20
   0  -6  19   15.70    3.30
   0  -6 -19   12.40    2.60
  -1  -6 -19   52.59    5.30
   1   6 -19   49.40    5.00
   1  -6  19   49.30    6.20
  -1  -6 -19   47.60    5.90
  -1   6  19   51.99    5.80
  -1  -6  19   51.59    6.10
   1  -6 -19   61.99    5.40
  -1   6 -19   62.09    6.20
   1  -6 -19   57.99    5.40
  -1  -6  19   55.79    7.30
   2  -6  19  362.76   16.40
  -2   6  19  350.86   15.70
  -2  -6 -19  342.17   16.00
   2   6 -19  355.26   15.70
  -2  -6 -19  310.57   17.00
   2  -6 -19  343.67   16.50
   2  -6 -19  328.27   15.80
  -2  -6  19  328.37   16.10
  -2  -6  19  341.07   16.10
  -3  -6 -19   12.40    3.50
   3   6 -19   12.30    2.70
  -3   6  19    9.80    3.50
  -3   6  19   10.40    3.10
  -3   6  19    8.30    2.70
  -3  -6  19    9.60    3.30
  -3   6 -19   11.70    2.60
  -3  -6  19   12.80    3.40
   3  -6 -19   11.60    2.80
  -4  -6 -19    9.30    3.00
   4   6 -19   10.40    2.50
  -4  -6 -19   10.70    4.90
  -4   6  19   12.60    2.90
  -4   6  19    9.30    3.50
  -4   6  19   14.70    3.50
  -4  -6  19   12.60    3.20
  -4  -6  19    2.90    5.10
   4  -6 -19   12.10    2.80
  -5  -6  19   69.89    6.10
   0  -7  19  139.49    8.90
   0   7 -19  136.19    8.20
   0  -7 -19  160.68    8.80
   0  -7 -19  133.69    8.30
  -1  -7 -19    1.30    2.60
   1   7 -19   -0.80    2.30
  -1  -7 -19   -0.30    2.20
   1  -7  19   -1.00    2.80
  -1   7  19    0.00    2.50
   1  -7 -19    1.40    2.40
  -1  -7  19    2.30    3.10
   1  -7 -19   -0.20    2.20
  -1  -7  19   -4.30    3.80
  -2  -7 -19   10.40    2.80
  -2  -7 -19   13.00    3.70
   2  -7  19   13.80    3.70
  -2   7  19   14.30    3.20
   2   7 -19   16.10    2.90
  -2  -7  19   15.50    3.40
  -2  -7  19   13.50    3.70
   2  -7 -19   21.70    3.40
   2  -7 -19   14.40    3.00
  -3   7  19  137.69    8.90
  -3   7  19  122.49    8.10
  -3  -7 -19  116.19    8.70
  -3   7  19  136.29    7.60
   3   7 -19  121.39    7.10
  -3  -7  19  131.89    8.30
   3  -7 -19  115.99    7.50
  -3   7 -19  125.19    7.70
  -3  -7  19  121.09    8.20
   4   7 -19   66.29    4.70
  -4   7  19   56.79    5.60
  -4  -7 -19   54.89    8.30
  -4  -7 -19   56.89    5.90
  -4   7  19   62.29    6.30
  -4  -7  19   75.79    5.70
   4  -7 -19   70.99    5.20
   0  -8 -19  130.59    8.00
   0  -8  19  128.39    8.20
   0  -8 -19  121.19    7.70
   0   8 -19  119.69    7.70
   1  -8  19   42.70    5.90
  -1  -8 -19   46.20    5.50
   1   8 -19   43.20    4.60
  -1  -8 -19   51.39    5.30
   1  -8 -19   39.80    5.30
  -1  -8  19   43.90    5.80
  -1  -8  19   42.00    5.40
   1  -8 -19   50.79    5.30
   2  -8  19   45.20    6.00
  -2  -8 -19   39.10    6.20
   2   8 -19   42.40    4.20
  -2  -8  19   45.20    6.10
  -2  -8  19   48.60    5.60
   2  -8 -19   48.30    5.70
   2  -8 -19   52.39    4.90
   3   8 -19   43.80    4.30
  -3   8  19   43.20    5.80
  -3   8 -19   49.99    4.70
  -3  -8  19   46.30    5.70
  -3  -8  19   50.79    6.20
   3  -8 -19   56.29    4.90
  -4  -8 -19   26.20    6.00
  -4   8  19   38.40    5.00
  -4   8  19   35.50    5.40
   4   8 -19   31.30    3.60
  -4  -8  19   33.50    4.70
   4  -8 -19   33.00    4.70
   0  -9  19   16.80    3.50
   0   9 -19   16.10    3.70
   0  -9 -19   17.20    3.10
   0  -9 -19   16.50    3.20
   1  -9  19   85.49    6.70
  -1  -9 -19   80.59    6.40
   1   9 -19   81.19    5.80
   1  -9 -19   81.99    6.30
  -1  -9  19   76.39    7.80
  -1  -9  19   80.69    6.80
   1  -9 -19   77.39    6.60
   2  -9  19    1.60    3.40
  -2  -9 -19    5.50    3.30
   2   9 -19    9.50    2.70
  -2  -9  19   10.20    3.60
   2  -9 -19    8.80    2.60
  -2  -9  19   12.40    3.70
  -3   9  19    2.80    3.40
   3   9 -19    6.20    2.20
  -3   9  19    6.00    2.40
   3  -9 -19   14.10    2.80
  -3  -9  19   12.80    3.90
  -3  -9  19    8.80    3.30
  -4   9  19   95.99    6.70
   4   9 -19  102.49    5.80
   4  -9 -19   99.79    6.80
  -4  -9  19  105.79    6.50
   0 -10 -19    2.00    2.50
   0 -10  19   -3.50    2.80
   1  10 -19   49.50    4.90
  -1 -10 -19   52.39    5.30
   1 -10  19   49.70    5.60
  -1 -10  19   55.39    7.40
   1 -10 -19   50.09    5.10
  -1 -10  19   49.90    5.70
  -2  10  19   83.79    6.40
   2  10 -19   91.99    5.90
   2 -10  19   86.59    7.10
  -2 -10 -19   84.89    7.30
  -2 -10  19   99.29    6.90
  -2 -10  19   98.69    7.20
  -3  10  19   21.80    4.10
   3  10 -19   21.10    3.00
  -3  10  19   17.40    2.60
  -3 -10  19   14.40    3.50
   3 -10 -19   11.00    2.60
  -3 -10  19   21.10    4.50
   0 -11  19  137.09    8.30
   0 -11 -19  139.09    8.20
   1 -11  19    1.20    3.00
  -1  11  19   -0.10    2.00
   1  11 -19    3.70    3.20
  -1 -11 -19    0.20    2.40
  -1 -11  19    1.90    3.00
  -1 -11  19   -2.90    4.80
   1 -11 -19    2.20    2.30
   2  11 -19    8.70    2.90
  -2 -11 -19    4.00    3.30
   2 -11  19    9.30    3.40
  -2  11  19    4.60    2.40
  -2 -11  19   10.10    3.30
   2 -11 -19   10.60    2.50
  -2 -11  19   12.80    3.90
  -2 -11  19    8.70    4.00
  -3  11  19   98.09    6.20
  -3 -11  19   98.99    6.80
   3 -11 -19   94.29    6.10
   0 -12 -19    2.20    2.00
   0 -12  19    7.30    3.10
   0  12  19    2.00    2.50
   1 -12  19   32.00    4.70
  -1 -12 -19   33.20    4.30
  -1  12  19   30.70    4.40
   1 -12 -19   43.10    4.20
   1  12  19   38.30    4.50
  -1 -12  19   41.90    5.10
  -2  12  19   49.70    6.40
  -2  12  19   58.49    4.70
   2  12 -19   52.69    4.90
  -2 -12 -19   47.40    5.90
   2 -12  19   58.69    5.90
  -2 -12  19   56.69    5.90
  -2 -12  19   63.69    7.00
   2 -12 -19   64.49    4.70
  -2 -12  19   60.39    6.80
   0 -13  19   48.80    4.90
   0  13  19   47.30    5.50
   0 -13 -19   43.50    4.30
  -1  13  19   14.40    2.60
  -1 -13 -19   13.70    2.90
   1 -13  19   12.10    3.10
  -1 -13  19    9.80    3.30
   1 -13 -19    8.60    2.20
  -2  13  19   76.09    5.40
   2 -13 -19   77.59    5.20
   0 -14  19   12.40    3.30
   0 -14 -19    8.70    2.40
   0   0 -20   33.20    4.20
   0   0  20   32.60    4.30
   0   0  20   28.00    4.60
   0   0 -20   30.30    3.70
  -1   0 -20  299.07   14.10
  -1   0  20  287.77   14.60
   1   0 -20  297.67   14.00
  -1   0  20  302.17   14.50
   1   0  20  296.57   14.70
  -2   0 -20    5.50    2.80
  -2   0  20    5.00    3.50
  -2   0  20    4.70    3.00
   2   0 -20    1.10    2.20
  -2   0  20    3.10    2.80
  -3   0  20    2.00    2.70
  -3   0  20   -0.40    3.20
   3   0 -20    0.70    2.50
  -3   0 -20   -2.10    3.90
  -3   0 -20   -0.50    2.60
  -3   0  20   -1.20    2.60
   4   0 -20    7.10    2.90
  -4   0  20    2.50    2.80
  -4   0 -20    3.10    2.80
  -4   0  20    3.30    3.30
  -4   0  20    8.00    3.30
  -5   0  20   79.59    5.90
   5   0 -20   77.09    5.50
  -5   0  20   82.19    6.60
   0  -1  20  755.22   32.40
   0  -1  20  776.32   32.90
   0   1  20  765.82   32.90
   0   1  20  739.03   32.10
   0  -1 -20  789.62   33.90
   0  -1 -20  797.82   32.80
   0   1 -20  805.12   32.80
   0   1 -20  745.13   33.80
  -1   1  20   30.60    4.30
   1   1 -20   29.00    4.00
   1  -1  20   40.00    4.90
  -1  -1 -20   44.80    6.90
  -1  -1 -20   32.10    4.60
  -1   1  20   29.40    4.20
  -1  -1  20   37.20    4.60
   1  -1 -20   39.10    4.90
  -1   1 -20   35.50    4.90
  -1  -1  20   28.70    4.20
   1  -1 -20   29.70    4.20
  -2  -1 -20  318.87   15.10
  -2  -1 -20  314.97   14.60
  -2   1  20  313.87   14.90
  -2   1  20  322.37   14.70
   2   1 -20  325.77   14.40
  -2   1  20  321.67   16.70
   2  -1 -20  288.97   14.20
  -2   1 -20  291.47   14.60
  -2  -1  20  284.87   16.70
  -2  -1  20  301.87   14.90
  -2  -1  20  276.37   14.50
  -3   1  20   21.20    4.10
  -3  -1 -20   18.90    4.10
  -3  -1 -20   18.70    3.50
  -3   1  20   20.50    3.40
   3   1 -20   24.50    3.50
  -3   1  20   24.20    3.50
  -3  -1  20   20.20    4.00
  -3  -1  20   25.20    3.80
  -3  -1  20   18.90    3.40
   3  -1 -20   32.50    4.20
  -4   1  20   17.70    3.10
  -4  -1 -20   21.60    3.50
   4   1 -20   20.70    3.40
  -4   1  20   14.60    3.60
  -4  -1  20   10.50    3.70
   4  -1 -20   13.80    2.70
   4  -1 -20   19.20    3.60
  -4  -1  20   18.20    3.30
   5   1 -20   21.80    3.50
  -5   1  20   19.70    3.20
  -5   1  20   18.00    3.70
  -5  -1  20   14.90    3.10
  -5  -1  20   12.00    3.60
   5  -1 -20   12.10    2.70
   0  -2 -20    2.00    2.30
   0   2  20   -2.50    3.50
   0   2 -20    1.50    2.30
   0  -2 -20    2.90    2.40
   0  -2  20   -0.80    2.80
   0   2  20    0.30    3.00
   0  -2  20   -3.40    4.40
  -1   2  20  127.49    8.40
  -1  -2 -20  134.79    9.10
  -1  -2 -20  141.39    8.00
   1   2 -20  139.39    7.70
  -1   2  20  140.09    8.60
   1  -2  20  143.59    9.20
  -1  -2  20  133.19    9.00
   1  -2 -20  133.49    8.20
  -1  -2  20  129.19   10.40
  -1   2 -20  132.99    8.10
  -1  -2  20  110.89    8.50
   1   2  20  133.79    9.50
   1  -2 -20  134.09    7.80
  -2   2  20   57.99    5.70
  -2   2  20   53.69    6.00
  -2  -2 -20   68.19    5.60
   2   2 -20   59.79    4.90
  -2  -2 -20   51.09    5.80
   2  -2  20   52.09    5.70
  -2  -2  20   53.29    6.20
  -2  -2  20   55.19    5.80
  -2  -2  20   50.19    7.40
   2  -2 -20   55.19    5.10
   2  -2 -20   45.70    5.10
  -2   2 -20   59.29    6.60
  -3   2  20  125.49    9.10
   3   2 -20  116.59    7.10
  -3   2  20  118.49    8.10
  -3   2  20  107.19    7.60
  -3  -2 -20  122.89    8.00
  -3  -2 -20  122.19    8.20
  -3  -2  20  119.79    9.20
  -3  -2  20  126.89    8.10
   3  -2 -20  128.19    7.30
   3  -2 -20  127.59    7.60
  -3  -2  20  136.49    8.20
  -4  -2 -20    3.50    2.70
  -4   2  20   -1.70    2.70
  -4   2  20    0.70    3.20
   4   2 -20    0.80    2.60
   4  -2 -20    3.80    2.30
  -4  -2  20    0.40    3.70
  -4  -2  20    3.60    3.50
   4  -2 -20    6.20    3.90
  -4  -2  20    2.90    2.60
  -5   2  20   65.29    5.20
   5   2 -20   63.69    4.60
  -5   2  20   69.69    6.00
  -5  -2 -20   59.79    5.10
  -5  -2  20   48.40    6.30
   5  -2 -20   64.59    5.30
  -5  -2  20   57.49    5.40
   0   3  20   -2.30    3.20
   0  -3  20   -0.20    3.00
   0  -3 -20    0.90    2.20
   0  -3  20    4.20    4.50
   0   3  20    3.30    3.40
   0   3 -20    2.00    2.20
   0  -3 -20    0.10    2.30
  -1  -3 -20   21.20    3.70
  -1  -3 -20   26.30    3.70
  -1   3  20   18.30    3.50
  -1   3  20   27.20    3.90
   1  -3  20   25.30    4.20
   1   3 -20   20.00    3.20
  -1   3 -20   32.60    5.00
   1  -3 -20   29.30    4.60
   1  -3 -20   34.60    4.60
  -1  -3  20   33.50    4.30
  -1  -3  20   27.40    4.40
   1   3  20   34.60    4.70
   2   3 -20  216.78   10.30
  -2  -3 -20  207.18   11.30
  -2  -3 -20  183.98   10.60
  -2   3  20  218.88   11.10
   2  -3  20  194.78   12.00
  -2   3  20  221.98   10.80
  -2  -3  20  190.08   13.00
  -2  -3  20  202.68   11.10
  -2   3 -20  195.28   11.20
   2  -3 -20  204.18   10.70
   2  -3 -20  202.08   10.40
  -2  -3  20  196.48   11.10
  -3  -3 -20   78.59    6.40
   3   3 -20   81.79    5.50
  -3   3  20   73.49    7.10
  -3   3  20   76.99    6.30
  -3  -3  20   75.79    6.70
   3  -3 -20   73.79    5.80
   3  -3 -20   79.19    6.10
  -3  -3  20   89.29    8.00
  -3  -3  20   74.29    6.50
  -4  -3 -20   64.29    5.50
  -4   3  20   58.19    6.00
  -4   3  20   60.89    5.30
   4   3 -20   55.79    4.90
  -4  -3  20   63.49    5.40
  -4  -3  20   65.29    7.00
   4  -3 -20   61.69    5.10
  -4  -3  20   52.69    6.20
  -5   3  20   10.80    3.00
  -5   3  20    5.60    3.10
  -5  -3  20    6.40    3.00
   5  -3 -20    8.20    3.00
   0  -4 -20   55.29    5.20
   0   4  20   50.39    6.60
   0   4 -20   54.09    5.20
   0   4  20   59.19    6.90
   0  -4 -20   57.19    5.60
   0  -4  20   63.49    6.30
   1   4 -20   72.79    5.40
  -1  -4 -20   59.59    6.70
  -1  -4 -20   74.99    5.70
  -1   4  20   71.39    6.60
  -1   4  20   64.09    6.20
   1  -4  20   77.29    6.90
  -1  -4  20   65.89    6.40
  -1   4 -20   68.89    6.40
  -1  -4  20   62.19    7.10
   1  -4 -20   71.69    5.70
   1  -4 -20   71.59    6.00
   2   4 -20   11.30    2.70
   2  -4  20   11.00    4.20
  -2  -4 -20    5.80    2.80
  -2  -4 -20   14.30    4.10
  -2   4  20   12.20    3.30
  -2  -4  20    8.30    3.30
  -2  -4  20    9.10    3.20
   2  -4 -20    8.00    2.40
   2  -4 -20    6.60    2.70
  -3   4  20   55.09    6.40
   3   4 -20   52.59    4.60
  -3  -4 -20   53.69    5.60
  -3   4  20   58.19    5.50
   3  -4 -20   40.40    5.30
   3  -4 -20   43.00    4.70
  -3  -4  20   43.80    5.70
  -3  -4  20   56.89    5.90
  -3  -4  20   39.20    6.00
  -4  -4 -20   13.60    3.00
  -4   4  20   12.80    3.50
  -4   4  20   14.00    2.90
   4   4 -20   13.00    2.80
  -4  -4  20   11.20    4.70
   4  -4 -20   17.40    2.70
  -4  -4  20   13.20    3.20
  -4  -4  20   22.80    4.10
  -5   4  20   -0.70    3.30
  -5  -4  20    5.80    3.40
   0   5 -20    3.90    2.50
   0   5  20    0.00    3.20
   0  -5 -20    0.70    2.20
   0  -5 -20    1.40    2.40
   0  -5  20   -0.60    2.90
   1   5 -20  180.18    9.50
  -1   5  20  182.38    9.90
  -1  -5 -20  199.58   10.00
   1  -5  20  193.68   10.70
  -1  -5 -20  192.08   10.50
  -1  -5  20  183.18   10.40
  -1  -5  20  172.98   10.60
   1  -5 -20  175.38   10.10
  -1   5 -20  180.58   10.10
   1  -5 -20  176.38    9.80
   2   5 -20   57.39    4.80
  -2  -5 -20   55.79    5.50
  -2   5  20   45.60    5.60
   2  -5  20   59.39    7.00
  -2  -5  20   62.69    5.90
   2  -5 -20   53.39    5.50
  -2  -5  20   59.59    6.60
   2  -5 -20   63.69    5.50
  -3   5  20   43.80    5.10
  -3  -5 -20   37.40    5.60
  -3   5  20   49.60    6.00
   3   5 -20   40.30    4.40
   3  -5 -20   51.59    6.20
  -3  -5  20   47.10    5.70
   3  -5 -20   54.29    4.90
  -3  -5  20   53.99    5.90
  -4   5  20   38.60    5.30
  -4   5  20   46.20    4.60
   4   5 -20   39.20    3.90
  -4  -5 -20   35.30    4.80
  -4  -5  20   47.60    6.40
  -4  -5  20   35.70    4.80
   4  -5 -20   28.80    4.20
  -4  -5  20   35.20    6.00
   0  -6 -20   17.90    3.00
   0   6 -20   17.90    3.20
   0  -6 -20   17.50    3.00
   0  -6  20   17.30    3.50
  -1  -6 -20  176.38   10.40
   1   6 -20  191.48    9.60
   1  -6  20  177.28   10.40
  -1   6  20  187.78    9.90
  -1  -6 -20  176.88    9.90
  -1  -6  20  185.18   10.90
   1  -6 -20  182.08   10.10
  -1  -6  20  181.68   10.30
   1  -6 -20  192.48    9.90
  -1   6 -20  186.58   10.30
   2  -6  20  121.69    9.10
   2   6 -20  132.39    7.40
  -2  -6 -20  131.49    7.80
  -2   6  20  137.99    8.00
   2  -6 -20  122.09    7.70
  -2  -6  20  125.09    8.10
   2  -6 -20  129.49    8.00
  -2  -6  20  121.39    8.70
  -3  -6 -20    0.90    3.80
  -3   6  20    3.60    2.80
   3   6 -20   -0.90    2.10
  -3   6  20    1.70    2.30
  -3   6  20    2.40    3.00
  -3  -6  20    2.40    3.20
   3  -6 -20   -0.40    2.10
  -3  -6  20   -1.30    3.10
  -4   6  20  181.38   10.60
   4   6 -20  179.28    8.90
  -4  -6 -20  178.78    9.80
  -4   6  20  180.58   10.40
  -4  -6  20  175.38    9.30
   4  -6 -20  180.28    9.30
   0  -7  20   11.20    3.00
   0  -7 -20   17.00    3.10
   0   7 -20   17.40    3.20
   0  -7 -20   17.90    3.30
   1   7 -20  157.08    8.60
  -1  -7 -20  157.08    9.00
  -1  -7 -20  148.99    9.20
   1  -7  20  161.18    9.50
   1  -7 -20  170.38    8.90
  -1  -7  20  170.18    9.50
   1  -7 -20  162.18    9.10
  -1  -7  20  152.48   10.30
   2  -7  20   -5.10    3.50
  -2   7  20    2.60    2.50
   2   7 -20    0.60    2.20
  -2  -7  20   -0.20    3.60
   2  -7 -20    2.70    2.00
   2  -7 -20    0.70    2.90
  -2  -7  20   -0.50    2.80
  -3   7  20    0.10    2.30
   3   7 -20    0.30    2.20
  -3   7  20   -0.50    2.40
  -3   7  20    0.10    3.10
   3  -7 -20    0.70    2.20
  -3  -7  20   -0.20    3.10
  -3  -7  20    0.90    3.30
  -4   7  20   11.00    3.50
   4   7 -20    6.30    2.20
  -4   7  20   15.50    3.50
  -4  -7  20    5.10    3.10
   4  -7 -20    9.30    2.60
   0  -8  20    3.20    2.80
   0  -8 -20    3.90    2.40
   0  -8 -20    1.90    2.40
   0   8 -20   -0.40    3.10
  -1  -8 -20   13.50    3.00
  -1  -8 -20   14.80    3.00
   1  -8  20   12.60    3.30
   1   8 -20   14.60    3.00
   1  -8 -20   14.70    3.00
   1  -8 -20    8.50    3.00
  -1  -8  20   15.00    4.50
  -1  -8  20   10.40    3.40
  -2  -8 -20   44.80    5.00
   2  -8  20   44.00    6.10
   2   8 -20   43.20    4.40
   2  -8 -20   58.49    5.10
  -2  -8  20   53.79    5.60
  -2  -8  20   55.09    6.30
   2  -8 -20   48.00    6.00
  -3   8  20   34.20    5.10
   3   8 -20   30.60    3.60
  -3   8  20   27.80    4.40
   3  -8 -20   41.10    4.20
  -3  -8  20   34.60    5.20
  -3  -8  20   27.90    4.20
  -4   8  20  129.29    8.60
   4  -8 -20  124.49    7.30
   0  -9  20   52.39    5.70
   0   9 -20   48.20    6.30
   0  -9 -20   52.79    5.10
   0  -9 -20   54.89    5.30
   1   9 -20  136.19    7.60
  -1  -9 -20  136.29    8.10
   1  -9  20  151.28    8.40
  -1  -9  20  124.79    8.10
  -1  -9  20  122.79    9.60
   1  -9 -20  124.19    8.10
   1  -9 -20  128.19    7.90
   2   9 -20   70.89    5.20
   2  -9  20   76.69    6.70
  -2   9  20   76.29    5.80
  -2  -9 -20   65.59    7.10
  -2  -9  20   75.29    7.00
  -2  -9  20   77.69    6.30
   2  -9 -20   83.29    5.70
  -3   9  20   19.10    3.80
   3   9 -20   17.50    2.80
  -3   9  20   13.70    2.80
   3  -9 -20   14.50    2.50
  -3  -9  20   16.70    4.20
  -3  -9  20   14.70    3.60
   0 -10  20   45.60    5.40
   0 -10 -20   50.79    4.90
   1  10 -20    7.30    3.10
  -1 -10 -20    8.60    2.70
   1 -10  20    9.10    2.90
   1 -10 -20    3.00    2.00
  -1 -10  20    7.20    5.00
  -1 -10  20    9.40    3.20
  -2 -10 -20   52.09    6.90
  -2  10  20   64.49    5.30
   2  10 -20   68.89    4.90
   2 -10  20   66.79    6.20
   2 -10 -20   68.19    5.00
  -2 -10  20   73.59    7.00
  -2 -10  20   63.89    5.70
  -2 -10  20   65.29    6.50
  -3  10  20    2.10    3.60
  -3  10  20    0.10    2.20
   3  10 -20   -0.40    2.30
   3 -10 -20    1.20    2.20
  -3 -10  20   -2.50    3.30
   0 -11 -20    6.00    2.20
   0 -11  20    1.00    2.70
   1  11 -20   16.50    4.10
  -1  11  20   13.00    2.50
   1 -11  20   17.60    3.20
  -1 -11 -20   17.20    2.90
   1 -11 -20   19.80    2.90
  -1 -11  20   18.80    3.50
   2 -11  20   11.50    3.80
  -2 -11 -20   13.40    4.30
  -2  11  20   17.80    2.80
   2  11 -20   16.00    3.00
  -2 -11  20   11.00    3.40
  -2 -11  20   12.20    4.50
   2 -11 -20   12.40    2.50
  -3  11  20   64.09    4.90
   3 -11 -20   65.29    5.10
   0  12  20   21.50    3.30
   0 -12 -20   23.70    3.60
   0 -12  20   23.50    3.40
   1 -12  20   18.30    3.40
  -1 -12 -20   16.90    2.90
  -1  12  20   16.60    2.60
  -1 -12  20   25.20    3.50
   1 -12 -20   21.50    3.30
  -2  12  20   12.80    2.50
   2 -12 -20   13.70    2.50
   0 -13  20   85.09    5.80
   0 -13 -20   82.79    5.40
  -1 -13 -20   44.10    4.60
   1 -13  20   44.30    5.00
   1 -13 -20   46.10    3.90
   0   0  21   -0.60    2.90
   0   0 -21    0.30    2.20
   0   0  21   -2.00    4.10
   0   0 -21   -0.90    2.40
  -1   0  21  129.29    8.30
  -1   0 -21  115.99    7.50
   1   0  21  121.99    8.70
   1   0 -21  123.79    7.30
   1   0 -21  106.89    7.60
  -1   0  21  126.89    8.20
  -2   0 -21   17.40    3.20
  -2   0  21   14.50    3.20
  -2   0  21   12.30    3.80
   2   0 -21   14.20    2.70
  -2   0  21   15.60    3.10
   3   0 -21   67.99    5.10
  -3   0  21   59.89    6.80
  -3   0  21   69.29    6.00
  -3   0  21   67.79    6.00
  -4   0  21   18.20    3.30
  -4   0  21   17.40    3.70
   4   0 -21   21.20    2.80
   5   0 -21    4.00    2.50
   0   1 -21    4.70    2.30
   0  -1 -21    4.70    2.40
   0  -1  21    1.40    2.80
   0   1 -21    0.30    2.60
   0   1  21    6.90    4.00
   0  -1 -21    2.90    2.30
   0   1  21    4.10    3.30
   1   1 -21   41.60    4.50
  -1  -1 -21   37.60    4.90
  -1   1  21   41.90    4.80
  -1   1  21   40.10    5.70
  -1  -1  21   45.30    5.60
  -1   1 -21   43.90    5.10
  -1  -1  21   44.70    7.40
   1   1  21   41.20    5.00
  -1  -1  21   55.09    6.40
   1  -1 -21   43.70    4.70
   1  -1 -21   47.50    5.10
  -2   1  21    9.70    3.50
  -2   1  21    6.20    3.10
   2   1 -21   13.90    2.80
  -2  -1 -21   13.20    3.20
  -2   1  21    7.50    3.10
   2  -1 -21   11.00    2.70
  -2  -1  21    5.40    2.80
  -2  -1  21   10.00    3.40
   2  -1 -21    5.60    2.30
  -2   1 -21   13.20    3.30
  -2  -1  21    8.70    4.00
  -3   1  21   65.19    6.00
  -3   1  21   57.69    6.80
  -3   1  21   60.89    5.50
  -3  -1 -21   60.09    5.70
   3   1 -21   59.89    5.00
  -3  -1  21   62.49    5.80
  -3  -1  21   70.79    7.20
   3  -1 -21   69.09    5.40
  -3  -1  21   78.29    6.20
   3  -1 -21   71.09    5.40
  -4   1  21   14.30    3.30
   4   1 -21   14.40    3.10
  -4   1  21   14.50    3.00
  -4  -1 -21   10.00    3.00
  -4  -1  21   14.30    3.00
   4  -1 -21   17.70    2.70
  -4  -1  21   17.80    4.00
   4  -1 -21   20.80    3.80
  -4  -1  21   15.60    3.90
   5   1 -21   37.50    3.90
   0  -2 -21   51.39    5.10
   0  -2 -21   57.59    5.70
   0   2  21   44.50    4.90
   0   2 -21   39.70    6.20
   0   2 -21   57.59    5.00
   0  -2  21   51.29    6.20
   0   2  21   58.39    6.10
  -1  -2 -21  105.79    7.00
   1  -2  21  102.59    8.10
   1   2 -21  102.59    6.60
  -1  -2 -21   91.59    8.20
  -1   2  21  105.59    7.60
  -1   2  21  100.69    7.70
  -1  -2  21  121.39   10.40
  -1  -2  21  101.79    7.50
   1  -2 -21  111.39    6.90
  -1   2 -21  120.09    7.30
   1   2  21  103.19    8.50
  -1  -2  21  106.39    8.20
   1  -2 -21  114.29    7.20
  -2   2  21   43.80    5.30
  -2   2  21   38.90    6.10
  -2   2  21   44.20    5.70
  -2  -2 -21   41.70    5.00
   2   2 -21   45.20    4.40
   2  -2 -21   36.20    4.40
  -2   2 -21   34.70    4.40
   2  -2 -21   43.20    4.70
  -2  -2  21   36.50    5.40
  -2  -2  21   37.10    5.40
  -2  -2  21   38.30    5.90
   3   2 -21   67.59    5.10
  -3   2  21   70.69    6.10
  -3  -2 -21   62.39    5.80
  -3   2  21   69.59    6.80
   3  -2 -21   70.29    5.60
  -3  -2  21   66.39    7.60
  -3  -2  21   69.69    6.00
   3  -2 -21   74.69    5.40
  -3  -2  21   76.69    6.10
   4   2 -21    5.50    2.80
  -4   2  21    4.50    2.40
  -4   2  21    6.40    3.50
  -4  -2 -21    1.50    2.70
  -4  -2  21   -0.60    3.70
   4  -2 -21    3.40    2.00
  -4  -2  21    3.70    2.60
   0   3  21    0.70    3.10
   0   3  21    1.30    3.80
   0  -3 -21    2.10    2.60
   0   3 -21    2.70    2.30
   0  -3 -21    1.40    2.20
   0  -3  21   -0.90    3.00
  -1  -3 -21  201.08   11.10
  -1   3  21  198.28   10.70
   1  -3  21  190.38   10.90
   1   3 -21  194.88   10.10
  -1   3  21  198.28   10.70
  -1  -3 -21  192.18   10.30
  -1   3 -21  200.58   10.50
   1  -3 -21  199.48   10.70
  -1  -3  21  185.18   11.10
   1   3  21  193.98   11.70
   1  -3 -21  207.58   10.30
  -1  -3  21  199.88   10.90
  -2  -3 -21   22.90    3.60
   2   3 -21   24.00    3.30
  -2   3  21   25.30    3.80
  -2   3  21   17.30    3.60
   2  -3  21   20.30    4.70
  -2  -3  21   14.60    3.10
  -2  -3  21   16.70    5.10
   2  -3 -21   14.40    2.70
   2  -3 -21   16.50    3.00
  -2   3 -21   16.30    4.10
  -2  -3  21   14.90    3.50
  -3   3  21  153.18    8.60
  -3  -3 -21  146.19    8.80
   3   3 -21  145.19    7.90
  -3   3  21  167.08    9.80
  -3  -3  21  128.99   10.70
   3  -3 -21  146.29    8.20
  -3  -3  21  139.69    8.60
  -3  -3  21  137.29    8.60
   3  -3 -21  149.99    8.30
  -4  -3 -21   55.89    5.40
   4   3 -21   63.19    4.70
  -4   3  21   70.09    6.10
  -4   3  21   63.99    5.10
  -4  -3  21   48.90    7.40
  -4  -3  21   54.69    5.30
  -4  -3  21   64.79    6.50
   4  -3 -21   55.99    4.70
   0  -4 -21    5.40    2.50
   0  -4  21    5.90    2.80
   0  -4 -21    8.10    2.50
   0   4 -21    9.10    2.70
   0   4  21    7.70    3.50
   0   4  21    9.30    3.80
  -1   4  21   24.50    3.90
  -1   4  21   24.30    4.00
   1  -4  21   24.20    4.10
   1   4 -21   26.80    4.00
  -1  -4 -21   23.80    3.40
  -1  -4 -21   25.30    3.80
  -1  -4  21   28.70    4.60
  -1   4 -21   29.30    3.80
   1  -4 -21   32.60    4.50
  -1  -4  21   26.30    4.00
   1  -4 -21   29.10    4.60
  -2  -4 -21   22.50    3.30
  -2   4  21   20.00    3.20
   2  -4  21   21.50    4.40
   2   4 -21   23.00    3.20
   2  -4 -21   22.30    3.30
  -2  -4  21   21.10    3.50
   2  -4 -21   29.80    4.30
  -2  -4  21   22.80    3.90
  -3   4  21  257.17   13.40
   3   4 -21  245.78   11.30
  -3   4  21  257.67   11.50
  -3  -4 -21  225.58   12.20
  -3  -4  21  226.98   11.70
   3  -4 -21  225.58   11.60
  -3  -4  21  210.28   14.30
   3  -4 -21  225.48   11.60
  -3  -4  21  221.88   11.50
  -4   4  21   79.19    6.60
   4   4 -21   73.29    5.10
  -4   4  21   70.89    5.50
  -4  -4 -21   71.09    6.20
   4  -4 -21   87.59    5.50
  -4  -4  21   71.19    8.80
  -4  -4  21   85.69    5.90
  -4  -4  21   86.49    7.50
   0  -5  21    3.80    3.00
   0   5 -21    9.70    2.80
   0  -5 -21    7.40    2.50
   0  -5 -21    6.70    2.40
   1   5 -21   -0.90    2.20
  -1  -5 -21   -0.30    3.00
  -1  -5 -21    3.20    2.20
  -1   5  21    1.20    3.00
   1  -5  21    2.00    3.00
  -1  -5  21    0.70    2.80
   1  -5 -21   -0.30    2.20
  -1  -5  21   -3.50    3.90
   1  -5 -21    2.70    2.40
  -1   5 -21    4.20    3.40
  -2   5  21  168.28    9.30
   2   5 -21  168.58    8.90
  -2  -5 -21  170.28    9.30
   2  -5  21  173.38   10.50
   2  -5 -21  177.88    9.50
  -2  -5  21  174.08    9.50
  -2  -5  21  165.98    9.80
   2  -5 -21  169.58    9.30
  -3   5  21   -1.20    2.50
  -3   5  21    1.40    3.10
  -3  -5 -21   -3.00    3.90
   3   5 -21    0.70    2.20
  -3   5  21    1.30    2.90
  -3  -5  21   -2.30    3.10
   3  -5 -21    4.90    3.60
  -3  -5  21    1.00    3.00
   3  -5 -21    1.40    2.20
  -4   5  21   91.49    6.90
  -4   5  21   87.39    5.80
  -4  -5 -21   72.59    6.80
   4   5 -21   82.79    5.40
  -4  -5  21   86.59    8.00
   4  -5 -21   90.69    5.60
  -4  -5  21   93.19    6.00
   0   6 -21  100.59    6.50
   0  -6 -21   99.09    6.60
   0  -6  21  100.49    7.40
   0  -6 -21  101.19    7.00
  -1  -6 -21   47.70    5.80
  -1   6  21   43.90    5.60
  -1  -6 -21   43.60    4.90
   1   6 -21   42.90    4.30
   1  -6  21   51.39    6.00
  -1   6 -21   45.90    6.90
   1  -6 -21   38.20    4.60
   1  -6 -21   47.90    4.90
  -1  -6  21   37.10    5.50
  -1  -6  21   40.40    5.10
  -2  -6 -21  171.28    9.40
  -2   6  21  171.68    9.40
   2   6 -21  165.78    9.10
   2  -6  21  173.58   10.60
  -2  -6  21  192.28   10.00
   2  -6 -21  179.98    9.60
   2  -6 -21  188.68    9.70
  -2  -6  21  191.88   10.10
  -3   6  21  105.49    6.80
  -3   6  21  102.99    7.30
  -3   6  21  113.79    8.00
   3   6 -21  106.99    6.50
  -3  -6  21  119.59    7.50
  -3  -6  21  132.49    7.50
   3  -6 -21  119.49    6.90
   4   6 -21   17.80    2.70
   4  -6 -21   26.10    3.80
  -4  -6  21   18.70    3.40
   0  -7 -21  283.87   13.30
   0   7 -21  271.27   13.10
   0  -7  21  281.47   13.60
   0  -7 -21  266.97   13.60
  -1  -7 -21    5.10    2.70
  -1  -7 -21    4.80    2.40
   1  -7  21    3.30    3.10
   1   7 -21    4.80    2.60
   1  -7 -21    8.70    2.60
  -1  -7  21    4.20    2.80
  -1  -7  21    6.30    4.30
   1  -7 -21    5.90    2.70
   2  -7  21  170.88    9.90
   2   7 -21  164.48    8.40
   2  -7 -21  162.88    8.80
   2  -7 -21  156.98    8.90
  -2  -7  21  158.48    9.50
  -2  -7  21  152.68    9.10
  -3   7  21   36.70    4.50
  -3   7  21   46.20    5.50
  -3  -7  21   49.40    5.50
   3  -7 -21   48.50    4.40
  -3  -7  21   55.99    5.60
   4   7 -21   22.80    3.30
   4  -7 -21   33.20    4.10
  -4  -7  21   33.20    4.60
   0  -8  21    6.50    3.00
   0   8 -21    5.20    3.30
   0  -8 -21    8.10    2.80
   0  -8 -21    9.00    2.60
  -1  -8 -21    6.40    2.70
  -1  -8 -21    5.90    2.80
   1  -8  21    8.00    3.20
   1   8 -21    8.40    2.80
   1  -8 -21    7.90    2.40
   1  -8 -21    4.70    2.90
  -1  -8  21   12.80    4.80
  -1  -8  21    7.30    2.90
   2  -8  21   93.19    7.00
   2   8 -21   84.89    5.40
   2  -8 -21   68.89    6.90
   2  -8 -21   71.39    5.50
  -2  -8  21   77.89    7.10
  -2  -8  21   85.69    6.30
  -3   8  21    3.20    2.30
   3   8 -21    3.60    2.10
  -3   8  21    4.50    3.10
  -3  -8  21    2.90    3.10
  -3  -8  21    6.40    3.70
   3  -8 -21   -1.40    2.10
   0  -9 -21   45.30    4.70
   0  -9  21   46.20    5.30
   1  -9  21   36.70    5.30
  -1  -9 -21   45.30    5.00
   1   9 -21   36.00    4.30
  -1  -9  21   42.30    5.00
   1  -9 -21   43.10    5.00
   1  -9 -21   42.10    4.50
  -2   9  21   35.80    4.30
   2  -9  21   30.30    4.50
   2   9 -21   39.30    3.80
   2  -9 -21   40.20    4.20
  -2  -9  21   39.10    4.90
  -2  -9  21   29.60    4.40
  -3   9  21  178.38    9.50
   3   9 -21  171.58    8.70
  -3  -9  21  177.98    9.40
   3  -9 -21  196.58    9.20
   0 -10  21    2.50    3.00
   0 -10 -21    4.00    2.40
   1 -10  21    4.50    3.10
  -1 -10 -21    2.20    2.50
   1  10 -21    2.30    3.20
   1 -10 -21    4.40    2.10
  -1 -10  21    1.70    2.90
  -2  10  21   14.60    2.50
   2  10 -21   18.70    3.00
   2 -10  21   19.50    4.10
  -2 -10  21   19.10    3.60
  -2 -10  21   21.00    4.30
   2 -10 -21   15.80    2.50
  -3  10  21   25.00    3.80
   3 -10 -21   24.80    3.60
   0  11  21   14.10    2.60
   0 -11 -21   14.40    2.70
   0 -11  21   16.20    3.30
  -1 -11 -21   47.90    5.00
  -1  11  21   47.90    4.60
   1 -11  21   55.99    5.20
   1 -11 -21   56.39    4.40
   1  11  21   54.19    5.70
  -1 -11  21   49.99    5.00
  -2  11  21   24.80    3.40
  -2 -11  21   25.00    4.00
   2 -11 -21   23.80    3.40
   0 -12 -21    0.70    2.10
   0  12  21   -3.80    2.80
   0 -12  21    0.90    2.90
  -1  12  21    7.60    2.50
  -1 -12 -21    6.60    3.00
   1 -12  21    5.40    3.30
  -1 -12  21    5.70    3.00
   1 -12 -21    4.70    2.00
   0   0 -22  733.23   31.70
   0   0  22  764.12   31.80
   0   0 -22  736.03   32.70
   1   0 -22   41.00    4.80
   1   0 -22   42.80    4.40
   1   0  22   28.40    4.60
  -1   0 -22   39.90    4.80
  -1   0  22   42.30    6.60
  -1   0  22   34.00    4.30
  -1   0  22   37.60    4.80
  -2   0  22  169.58   10.70
  -2   0  22  163.28    9.40
  -2   0 -22  164.88    9.10
  -2   0  22  168.78    9.20
   2   0 -22  164.48    8.70
   2   0 -22  158.08    9.00
  -3   0  22    1.40    2.70
  -3   0  22    1.30    3.10
  -3   0  22    2.30    2.80
   3   0 -22    2.20    2.10
   3   0 -22    2.70    2.50
  -4   0  22   15.10    3.90
  -4   0  22   15.80    3.00
   4   0 -22   17.20    3.70
   4   0 -22   14.70    2.40
   0   1 -22   17.50    3.20
   0  -1  22   17.90    3.50
   0   1 -22   19.10    3.20
   0  -1 -22   17.00    3.20
   0  -1 -22   15.40    2.90
   0   1  22   13.60    3.70
   1   1 -22    0.40    2.20
  -1  -1 -22    3.10    2.40
   1  -1  22   -0.30    3.60
  -1   1  22   -0.60    3.20
   1   1 -22    3.70    2.20
  -1   1  22   -0.10    2.70
   1  -1 -22    0.60    2.20
  -1  -1  22   -0.70    3.40
  -1  -1  22   -0.70    4.30
   1   1  22    0.40    4.00
  -1   1 -22    1.80    2.70
  -1  -1  22    3.90    2.80
   1  -1 -22   -1.00    2.20
  -2   1  22  124.79    7.90
  -2   1  22  120.79    8.90
  -2  -1 -22  118.49    7.70
   2   1 -22  129.39    7.20
  -2   1  22  121.69    7.90
  -2  -1  22  128.49    8.10
  -2   1 -22  121.09    8.00
  -2  -1  22  108.19    9.20
   2  -1 -22  121.59    7.40
  -2  -1  22  126.69    8.00
   2  -1 -22  122.29    7.20
  -3   1  22   87.69    6.40
  -3   1  22   90.49    6.60
  -3   1  22   84.39    7.50
   3   1 -22   91.09    6.00
   3  -1 -22  105.39    6.20
   3  -1 -22   91.09    6.10
  -3  -1  22   98.29    8.10
  -3  -1  22  102.09    6.70
  -3  -1  22   98.39    6.50
  -4   1  22   14.10    3.60
   4   1 -22   18.90    3.20
  -4   1  22   16.40    3.10
   4   1 -22   12.70    2.30
  -4  -1  22   11.20    2.80
   4  -1 -22   11.20    4.50
  -4  -1  22    8.30    3.90
   4  -1 -22   15.10    2.30
   0   2 -22  179.08   10.30
   0  -2  22  181.88   10.30
   0   2 -22  197.38    9.80
   0   2  22  176.18   10.30
   0  -2 -22  185.28    9.70
   0  -2 -22  184.68   10.30
  -1   2  22   14.80    3.40
  -1  -2 -22   15.10    2.90
  -1   2  22   10.60    3.00
   1  -2  22   14.60    3.70
   1   2 -22   12.80    2.60
  -1  -2  22   11.30    3.90
  -1   2 -22   13.30    3.20
   1   2  22   16.00    4.20
   1  -2 -22    7.20    2.60
   1  -2 -22   11.40    2.60
  -1  -2  22    9.90    2.90
  -2  -2 -22  135.89    8.30
  -2   2  22  144.99    9.70
   2   2 -22  148.09    7.90
  -2   2  22  136.59    8.50
  -2   2  22  145.69    8.50
  -2  -2  22  132.59   10.10
  -2  -2  22  147.79    8.60
  -2  -2  22  140.19    8.70
   2  -2 -22  144.79    8.00
  -2   2 -22  143.19    8.90
   2  -2 -22  143.49    8.20
  -3   2  22   29.10    3.80
   3   2 -22   29.70    3.80
  -3   2  22   24.00    4.30
  -3  -2  22   30.50    3.90
   3  -2 -22   33.90    4.50
  -3  -2  22   32.20    4.90
   3  -2 -22   26.30    3.70
  -3  -2  22   19.20    3.30
   4   2 -22   61.79    5.00
  -4   2  22   60.19    5.60
  -4   2  22   60.39    4.90
   4  -2 -22   55.29    4.40
  -4  -2  22   53.89    6.60
  -4  -2  22   53.89    4.90
   0  -3  22    4.50    3.00
   0   3 -22    4.20    2.60
   0  -3 -22    3.60    2.30
   0  -3 -22    0.00    2.40
   0   3 -22    5.60    3.30
   0   3  22    2.00    3.30
  -1  -3 -22  103.99    6.60
  -1   3  22  105.59    7.40
   1  -3  22   95.39    7.90
  -1   3  22  101.29    7.60
   1   3 -22  103.89    6.40
  -1  -3 -22   80.09    8.10
  -1   3 -22   89.89    7.00
  -1  -3  22  104.09    7.30
  -1  -3  22  111.19    8.10
   1  -3 -22   92.39    6.40
   1  -3 -22  104.69    6.90
  -2   3  22  159.18   10.10
   2   3 -22  157.78    8.40
  -2  -3 -22  152.38    8.80
  -2   3  22  161.28    8.90
   2  -3 -22  158.18    8.90
  -2  -3  22  167.68    9.30
   2  -3 -22  155.48    8.50
  -2  -3  22  164.08    9.30
  -3   3  22   37.70    4.80
  -3   3  22   42.10    6.30
  -3   3  22   35.00    5.40
   3   3 -22   36.40    4.00
   3  -3 -22   44.60    4.80
  -3  -3  22   46.30    5.10
   3  -3 -22   40.30    4.30
  -3  -3  22   35.10    5.80
  -3  -3  22   47.60    5.30
  -4   3  22   11.40    2.60
   4   3 -22   14.30    2.80
  -4   3  22   12.60    3.20
  -4  -3  22   11.40    2.80
   4  -3 -22   16.40    2.50
   0   4 -22  161.48    8.60
   0  -4  22  146.79    9.20
   0  -4 -22  158.38    9.00
   0  -4 -22  160.28    8.70
  -1  -4 -22   89.89    7.60
   1   4 -22   81.39    5.80
  -1   4  22   86.99    6.80
   1  -4  22   82.19    7.10
  -1  -4 -22   99.19    6.10
  -1  -4  22   81.49    6.80
   1  -4 -22   80.59    6.20
   1  -4 -22   92.59    6.20
  -1  -4  22   82.49    7.80
  -1   4 -22   88.99    6.70
  -2  -4 -22   63.89    5.60
  -2   4  22   62.39    5.70
   2   4 -22   62.79    4.70
  -2  -4  22   64.19    5.90
   2  -4 -22   65.59    5.40
   2  -4 -22   63.49    5.40
  -2  -4  22   60.99    6.40
  -3   4  22   32.60    4.40
  -3   4  22   32.50    5.20
   3   4 -22   28.50    3.60
  -3   4  22   35.40    5.50
  -3  -4  22   24.90    3.70
  -3  -4  22   24.40    3.60
   3  -4 -22   24.70    3.80
   3  -4 -22   27.70    4.00
   4   4 -22    2.30    2.50
  -4   4  22    0.30    2.40
  -4   4  22    1.60    2.90
   4  -4 -22   -1.70    1.90
  -4  -4  22    8.80    2.80
   0  -5 -22   17.40    3.00
   0  -5  22   13.60    3.20
   0   5 -22   15.70    2.90
   0  -5 -22   16.60    3.10
  -1  -5 -22   38.10    5.90
   1   5 -22   33.10    4.20
  -1   5  22   36.30    5.40
  -1  -5 -22   33.10    4.50
   1  -5  22   31.00    4.10
  -1   5 -22   37.70    5.70
   1  -5 -22   30.60    4.30
   1  -5 -22   42.10    4.60
  -1  -5  22   40.30    5.20
  -1  -5  22   31.50    4.90
  -2  -5 -22   67.09    5.50
  -2   5  22   65.09    5.70
   2   5 -22   64.79    5.00
   2  -5  22   54.79    8.10
   2  -5 -22   69.09    5.60
  -2  -5  22   73.19    6.00
  -2  -5  22   73.69    6.70
   2  -5 -22   62.69    5.10
  -3   5  22   29.00    3.90
  -3   5  22   39.10    5.10
  -3   5  22   31.40    4.30
   3   5 -22   31.80    3.60
  -3  -5  22   31.60    4.80
   3  -5 -22   31.60    3.80
  -3  -5  22   33.30    4.20
  -4   5  22   -2.10    2.50
  -4   5  22    2.90    3.20
   4   5 -22    2.70    2.50
  -4  -5  22    8.70    2.80
   4  -5 -22    3.80    2.20
   0  -6  22   -0.40    3.00
   0  -6 -22    3.50    2.50
   0  -6 -22    0.70    2.20
   0   6 -22    6.80    2.90
  -1  -6 -22  148.49    8.90
   1   6 -22  146.59    7.90
   1  -6  22  140.09    8.90
  -1  -6 -22  156.78    8.40
   1  -6 -22  146.59    8.30
  -1  -6  22  142.49    8.50
  -1  -6  22  144.09   10.00
   1  -6 -22  149.99    8.20
  -2   6  22   10.60    2.90
   2  -6  22    1.80    4.10
   2   6 -22    9.80    2.50
  -2  -6  22    8.00    3.10
  -2  -6  22    9.70    3.70
   2  -6 -22   12.00    3.10
   2  -6 -22   10.80    2.40
  -3   6  22   58.09    5.10
  -3   6  22   64.19    5.90
   3   6 -22   55.99    4.30
   3  -6 -22   63.69    4.70
  -3  -6  22   61.79    5.50
  -3  -6  22   59.69    5.60
   4  -6 -22   13.90    2.70
   0  -7 -22   44.80    4.90
   0   7 -22   40.90    4.80
   0  -7  22   40.20    5.00
   0  -7 -22   34.50    4.50
   1  -7  22    1.10    3.00
   1   7 -22    0.30    2.40
  -1  -7 -22   -0.20    2.30
  -1  -7 -22    2.80    2.90
  -1  -7  22   -0.50    2.80
   1  -7 -22   -0.60    2.60
   1  -7 -22   -2.10    2.10
  -1  -7  22    0.90    5.00
   2   7 -22   18.70    2.90
   2  -7  22   11.20    4.20
  -2  -7  22   12.70    4.00
   2  -7 -22   18.00    2.60
   2  -7 -22   15.50    3.50
  -2  -7  22   20.20    3.60
  -3   7  22   58.69    5.00
  -3   7  22   63.59    5.70
   3   7 -22   52.09    4.20
  -3  -7  22   60.09    5.50
   3  -7 -22   57.89    4.60
  -3  -7  22   54.89    5.70
   0  -8 -22    5.50    2.40
   0  -8  22    1.90    2.70
   0  -8 -22    4.00    2.30
   0   8 -22   10.20    3.70
  -1  -8 -22   71.29    5.70
   1   8 -22   57.09    5.20
   1  -8  22   68.59    6.00
   1  -8 -22   63.19    5.20
   1  -8 -22   62.49    5.50
  -1  -8  22   64.89    5.60
   2  -8  22   15.60    4.30
  -2   8  22   13.90    2.70
   2   8 -22   13.80    2.70
  -2  -8  22   10.80    4.20
  -2  -8  22   16.50    3.20
   2  -8 -22   14.00    2.40
  -3   8  22   19.90    3.10
  -3   8  22   15.30    3.50
   3   8 -22   15.60    2.70
  -3  -8  22   22.80    3.70
   3  -8 -22   24.70    3.40
   0  -9  22    3.70    3.10
   0  -9 -22    2.90    2.30
   1   9 -22   17.40    3.40
   1  -9  22   18.00    3.40
  -1  -9 -22   13.50    2.90
  -1  -9  22   15.20    2.90
   1  -9 -22   17.00    2.70
  -2   9  22  120.39    7.30
   2  -9  22  114.59    8.50
  -2   9  22  123.79    8.10
   2   9 -22  121.59    6.80
  -2  -9  22  133.89    7.40
   2  -9 -22  141.09    7.10
  -2  -9  22  111.39    8.80
   0 -10  22  144.79    8.20
   0 -10 -22  157.18    8.10
   1 -10  22   16.20    3.30
  -1  10  22   15.60    2.70
  -1 -10 -22   14.20    3.10
   1 -10 -22   24.60    3.40
  -1 -10  22   24.20    3.40
  -2  10  22   59.59    5.90
  -2  10  22   54.49    4.40
   2 -10 -22   61.89    4.40
  -2 -10  22   60.49    5.50
   0 -11 -22   23.30    3.50
   0 -11  22   23.20    3.40
   0  11  22   15.40    2.80
   1 -11  22    3.20    3.50
  -1  11  22    1.60    2.20
  -1 -11  22   -1.20    2.80
   1 -11 -22    5.50    2.00
   0   0 -23   -1.80    2.90
   0   0 -23    3.20    2.40
   0   0  23    0.30    3.10
   1   0  23  174.38   10.70
  -1   0  23  186.38   10.10
  -1   0 -23  188.58    9.80
  -1   0  23  191.08   10.40
   1   0 -23  187.08    9.60
   1   0 -23  191.48    9.90
  -1   0  23  171.88   12.00
  -2   0  23   44.30    5.90
   2   0 -23   55.69    4.70
  -2   0  23   53.09    5.90
   2   0 -23   48.40    4.50
  -2   0  23   45.40    5.10
  -2   0 -23   43.70    5.60
  -3   0  23    6.90    3.50
   3   0 -23   10.80    2.10
  -3   0  23    8.80    2.90
   3   0 -23    9.00    2.50
  -3   0  23    9.30    3.00
  -4   0  23   63.39    5.20
   4   0 -23   64.99    4.40
   0  -1 -23   24.30    3.60
   0  -1 -23   20.50    3.20
   0  -1  23   26.90    4.00
   0   1 -23   23.90    3.70
   0   1  23   23.20    4.10
   0   1 -23   29.00    4.30
   1   1 -23   53.39    5.20
  -1   1  23   54.99    6.80
   1   1 -23   54.29    4.70
  -1   1  23   62.99    6.70
  -1   1  23   46.90    5.50
  -1  -1 -23   57.99    5.20
   1  -1  23   44.50    6.50
   1  -1 -23   51.69    4.80
   1   1  23   40.40    5.20
  -1  -1  23   47.10    5.40
   1  -1 -23   42.00    4.90
  -1   1 -23   49.80    5.30
  -1  -1  23   42.80    5.00
   2   1 -23   53.09    4.40
   2   1 -23   44.50    4.70
  -2   1  23   58.09    6.50
  -2   1  23   49.60    5.60
  -2  -1 -23   46.60    5.40
  -2   1  23   49.80    5.10
  -2  -1  23   47.40    5.00
  -2  -1  23   41.20    5.40
   2  -1 -23   50.19    4.60
   2  -1 -23   49.90    4.70
  -2  -1  23   49.99    5.50
  -2   1 -23   41.50    5.90
   3   1 -23   99.19    5.90
  -3   1  23   91.59    7.40
  -3   1  23  104.79    6.50
   3   1 -23   96.29    5.90
   3  -1 -23   87.29    5.80
   3  -1 -23   95.69    6.10
  -3  -1  23  101.29    7.90
  -3  -1  23   88.59    6.40
  -3  -1  23   86.89    6.10
   4   1 -23   -0.20    1.80
  -4   1  23    0.50    3.60
  -4   1  23    1.80    2.70
   4  -1 -23   -1.90    1.90
  -4  -1  23    0.90    2.50
   0  -2  23   39.40    5.30
   0  -2 -23   34.30    4.50
   0   2 -23   39.20    4.80
   0   2 -23   29.30    4.10
   0   2  23   44.40    5.80
   0  -2 -23   35.50    5.00
  -1   2  23   62.59    5.80
  -1  -2 -23   62.39    5.30
   1   2 -23   56.59    4.80
   1  -2  23   54.29    6.60
   1   2 -23   52.39    5.30
  -1   2  23   54.29    6.40
   1  -2 -23   50.49    5.00
  -1   2 -23   52.39    5.50
   1  -2 -23   47.60    4.60
  -1  -2  23   46.10    6.90
  -1  -2  23   47.40    5.40
  -2   2  23    7.70    3.20
  -2   2  23    6.70    3.00
  -2   2  23    6.10    3.10
   2   2 -23   10.70    2.40
  -2  -2 -23   10.40    3.20
  -2   2 -23   -0.40    3.80
  -2  -2  23   12.30    3.20
   2  -2 -23    4.70    2.30
  -2  -2  23    8.90    3.50
   2  -2 -23    9.40    2.50
   3   2 -23   49.99    4.30
  -3   2  23   48.80    5.80
  -3   2  23   55.09    4.90
  -3  -2  23   51.89    5.20
  -3  -2  23   43.00    6.20
  -3  -2  23   55.69    5.10
   3  -2 -23   46.50    4.30
   3  -2 -23   51.99    4.80
  -4   2  23   43.90    4.50
   4   2 -23   49.99    3.70
  -4   2  23   39.70    6.00
   4  -2 -23   50.79    4.00
   0   3 -23   37.20    4.80
   0  -3 -23   37.20    4.50
   0   3  23   41.40    6.10
   0  -3  23   36.10    5.40
   0  -3 -23   42.70    5.10
   1  -3  23   68.99    6.50
   1   3 -23   73.99    5.20
  -1   3  23   64.99    6.20
  -1  -3 -23   72.99    5.40
   1   3 -23   60.59    5.70
  -1   3  23   67.19    6.40
  -1  -3  23   71.29    6.10
  -1  -3  23   72.59    7.80
   1  -3 -23   64.69    5.50
  -1   3 -23   62.59    5.90
   1  -3 -23   67.89    5.30
  -2   3  23   51.59    6.10
  -2  -3 -23   51.09    5.10
   2   3 -23   52.39    4.50
  -2   3  23   49.00    5.50
  -2  -3  23   54.99    5.50
  -2  -3  23   64.39    6.10
   2  -3 -23   56.39    4.80
   2  -3 -23   60.69    4.90
  -3   3  23    0.90    2.60
  -3   3  23    2.30    2.90
   3   3 -23    0.80    2.30
  -3  -3  23    5.70    3.10
  -3  -3  23   -1.00    2.80
   3  -3 -23    2.40    3.10
   3  -3 -23    3.20    2.10
  -4   3  23   10.60    2.80
   4   3 -23    6.40    1.90
  -4  -3  23    7.20    3.10
   4  -3 -23    6.60    2.10
   0   4 -23  108.09    7.00
   0  -4 -23  119.19    6.90
   0  -4 -23  108.79    7.20
   0  -4  23  115.69    7.50
   1  -4  23   46.90    6.20
  -1  -4 -23   44.80    4.70
  -1   4  23   45.50    5.80
   1   4 -23   51.49    4.50
   1  -4 -23   42.70    4.60
  -1  -4  23   43.60    5.10
   1  -4 -23   50.19    4.70
  -1   4 -23   41.80    6.00
  -1  -4  23   66.69    8.10
  -2   4  23   44.30    5.70
  -2   4  23   44.50    5.00
   2   4 -23   36.00    3.90
  -2  -4 -23   43.00    4.90
   2  -4 -23   46.30    4.60
  -2  -4  23   44.10    6.00
   2  -4 -23   41.50    4.40
  -2  -4  23   52.09    5.00
  -3   4  23   16.90    4.10
  -3   4  23   21.00    4.00
  -3   4  23   21.00    3.20
   3   4 -23   23.10    3.40
   3  -4 -23   27.70    3.50
  -3  -4  23   33.90    4.90
  -3  -4  23   27.10    3.50
   3  -4 -23   26.00    4.00
   0  -5 -23   54.49    5.50
   0   5 -23   57.59    5.30
   0  -5 -23   62.99    5.00
   0  -5  23   58.29    5.90
   1  -5  23    3.40    3.30
  -1  -5 -23    6.60    3.50
  -1  -5 -23    5.50    2.60
   1   5 -23    5.80    2.50
  -1   5 -23    7.90    3.70
   1  -5 -23    9.50    2.50
  -1  -5  23    8.20    3.00
   1  -5 -23    9.70    2.70
  -2   5  23   65.99    5.50
  -2   5  23   65.39    6.10
   2   5 -23   61.79    4.60
  -2  -5  23   55.29    5.40
  -2  -5  23   55.79    6.50
   2  -5 -23   60.69    5.20
   2  -5 -23   51.69    4.70
  -3   5  23   22.80    2.90
  -3   5  23   15.50    3.70
   3   5 -23   26.60    3.40
  -3   5  23   30.60    4.10
  -3  -5  23   19.40    3.50
   3  -5 -23   24.20    3.30
  -3  -5  23   26.10    3.70
   0  -6  23   34.50    5.00
   0   6 -23   34.50    5.20
   0  -6 -23   34.50    4.80
   0  -6 -23   34.30    4.10
  -1  -6 -23   37.00    5.90
  -1  -6 -23   31.30    4.40
   1  -6  23   33.10    4.40
   1   6 -23   33.60    4.00
   1  -6 -23   38.90    4.30
  -1  -6  23   38.30    4.80
   1  -6 -23   37.30    4.20
   2   6 -23   66.39    4.70
  -2   6  23   64.09    5.90
   2  -6 -23   49.20    5.20
  -2  -6  23   64.89    5.60
  -2  -6  23   68.29    6.30
   2  -6 -23   63.29    4.60
  -3   6  23  100.19    7.00
   3   6 -23   95.29    5.70
  -3   6  23  101.19    6.80
  -3  -6  23   88.69    6.50
  -3  -6  23   94.19    6.70
   3  -6 -23  102.09    5.80
   0  -7 -23   27.80    4.30
   0  -7 -23   29.70    3.90
   0   7 -23   28.60    4.10
   0  -7  23   26.90    3.50
  -1  -7 -23   27.00    3.80
   1  -7  23   20.50    3.50
   1   7 -23   24.40    3.80
  -1  -7 -23   28.80    3.80
   1  -7 -23   21.90    3.20
   1  -7 -23   19.90    2.80
  -1  -7  23   25.80    3.60
   2   7 -23   97.39    5.90
  -2  -7  23  109.49    6.70
   2  -7 -23  104.69    7.20
   2  -7 -23   93.49    6.00
  -2  -7  23  102.69    8.00
   3   7 -23   96.39    5.60
  -3   7  23   97.89    7.10
   0  -8 -23    3.40    2.30
   0  -8 -23    2.60    2.30
   0  -8  23    0.60    2.80
   1  -8  23    2.50    3.10
   1   8 -23    8.10    3.00
  -1  -8 -23    7.10    3.10
   1  -8 -23    4.00    2.00
   1  -8 -23    9.60    3.00
  -1  -8  23    6.10    2.80
   2   8 -23  167.28    8.60
  -2   8  23  173.08    9.30
  -2   8  23  179.58   10.20
  -2  -8  23  174.48    9.10
   2  -8 -23  181.58    8.90
   0  -9 -23   85.79    5.70
   0  -9  23   90.39    6.10
  -1  -9 -23    9.40    3.30
   1  -9  23   11.10    3.30
  -1  -9  23   13.70    3.10
   1  -9 -23    9.20    2.10
  -2   9  23   40.90    4.10
  -2  -9  23   45.30    4.90
   2  -9 -23   46.80    3.80
   0 -10 -23   63.39    4.80
   0  10  23   57.59    4.90
   0 -10  23   61.99    5.00
  -1  10  23   14.10    2.60
  -1 -10  23   15.60    3.30
   1 -10 -23   16.10    2.40
   0   0 -24    7.70    3.20
   0   0  24   13.40    3.60
   0   0 -24   16.50    3.00
   1   0  24   38.00    5.20
  -1   0  24   45.90    6.00
   1   0 -24   37.30    4.30
  -1   0 -24   35.40    4.70
   1   0 -24   29.50    4.40
  -1   0  24   34.10    4.70
  -1   0  24   25.70    3.70
  -2   0  24   10.60    4.40
  -2   0 -24   19.50    3.80
  -2   0  24   17.10    3.50
   2   0 -24   12.40    2.60
   2   0 -24   16.10    2.60
  -2   0  24   18.50    3.20
  -3   0  24   22.20    3.50
   3   0 -24   19.00    3.00
   3   0 -24   29.00    3.90
   0  -1  24    1.40    3.10
   0  -1 -24    7.60    2.50
   0   1  24    5.10    3.40
   0  -1 -24   -2.00    2.90
   0   1 -24    0.40    2.30
   1  -1  24   10.10    4.10
  -1  -1 -24   14.90    2.80
  -1   1  24   15.00    4.40
  -1   1  24   15.60    3.20
  -1   1  24   12.00    4.10
   1   1 -24   15.20    2.90
   1   1 -24   12.90    2.80
  -1   1 -24   14.00    3.10
   1  -1 -24    7.20    2.30
  -1  -1  24   11.60    4.60
   1  -1 -24   11.60    2.70
  -1  -1  24   10.20    2.80
  -2   1  24   27.50    4.70
   2   1 -24   27.20    3.80
   2   1 -24   36.60    4.10
  -2  -1 -24   35.20    5.30
  -2   1  24   36.20    5.00
  -2   1  24   35.90    4.50
  -2  -1  24   43.60    5.50
  -2  -1  24   37.20    4.50
  -2   1 -24   38.50    4.70
   2  -1 -24   44.00    3.90
   2  -1 -24   39.00    4.10
  -3   1  24   17.10    4.00
   3   1 -24   21.10    3.10
   3   1 -24   19.50    3.10
  -3   1  24   22.00    3.30
   3  -1 -24   16.50    3.00
   3  -1 -24   15.20    2.40
  -3  -1  24   13.90    3.00
   0  -2 -24   12.40    3.20
   0   2  24   10.40    3.70
   0  -2 -24   10.90    2.60
   0  -2  24    8.80    3.10
   0   2 -24   11.60    2.70
  -1   2  24  149.79    9.20
   1   2 -24  145.49    8.10
  -1   2  24  158.58    8.80
   1  -2  24  133.49    9.20
  -1   2  24  151.18   10.10
  -1  -2 -24  152.98    8.30
   1   2 -24  158.18    8.60
   1  -2 -24  156.28    8.50
   1  -2 -24  154.18    8.10
  -1  -2  24  148.19    8.60
  -1   2 -24  158.18    8.70
   2   2 -24   16.50    2.70
  -2  -2 -24   12.00    3.20
   2   2 -24   15.40    2.60
  -2   2  24   22.30    4.10
  -2   2  24   14.60    3.50
  -2  -2  24   11.70    3.10
  -2  -2  24   11.70    3.60
   2  -2 -24   16.10    2.60
   2  -2 -24   16.10    2.90
  -3   2  24   49.40    4.80
  -3   2  24   45.30    5.80
   3   2 -24   56.69    4.00
   3   2 -24   53.59    4.20
  -3  -2  24   35.30    5.20
   3  -2 -24   48.10    4.10
  -3  -2  24   45.50    4.70
   3  -2 -24   54.29    5.20
   0  -3 -24   75.09    6.10
   0  -3 -24   68.39    5.40
   0   3 -24   78.49    5.70
   0  -3  24   71.99    6.20
   1   3 -24   33.70    4.00
  -1   3  24   27.50    4.30
   1   3 -24   35.10    4.80
   1  -3  24   24.40    4.30
  -1  -3 -24   26.80    4.10
   1  -3 -24   27.70    3.50
  -1  -3  24   33.80    4.70
   1  -3 -24   30.40    3.90
  -1   3 -24   33.30    4.90
   2   3 -24  159.48    8.60
   2   3 -24  164.18    8.30
  -2   3  24  168.78   10.10
  -2  -3 -24  168.48    8.80
  -2   3  24  169.28    8.70
   2  -3 -24  160.08    8.50
   2  -3 -24  157.38    8.60
  -2  -3  24  155.88    9.00
  -3   3  24   13.30    3.00
  -3   3  24   10.00    3.50
   3   3 -24    8.50    2.10
   3   3 -24   11.60    2.40
   3  -3 -24    8.20    2.10
  -3  -3  24    7.50    2.90
  -3  -3  24    5.50    3.00
   0  -4  24   57.59    5.40
   0   4 -24   58.89    5.20
   0  -4 -24   41.80    5.30
   0  -4 -24   50.29    4.60
   1   4 -24   14.70    3.10
   1   4 -24   11.00    2.50
   1  -4  24    7.90    3.50
  -1  -4 -24   11.70    2.80
  -1   4 -24   13.80    3.80
  -1  -4  24    9.80    3.00
   1  -4 -24    9.70    2.40
   1  -4 -24    5.50    2.20
   2   4 -24    3.00    2.50
  -2   4  24    4.40    3.10
   2   4 -24    9.00    2.40
  -2   4  24    7.30    3.10
  -2  -4  24    3.50    2.80
  -2  -4  24    5.20    3.60
   2  -4 -24    2.90    2.10
   2  -4 -24    6.30    2.70
  -3   4  24   44.10    5.50
   3   4 -24   37.30    3.70
   3   4 -24   47.40    3.90
  -3   4  24   50.89    4.60
  -3  -4  24   42.60    4.50
  -3  -4  24   36.40    5.10
   0   5 -24  125.19    7.50
   0  -5 -24  114.49    6.90
   0  -5  24  118.79    7.40
   0  -5 -24  118.59    7.40
   1   5 -24   50.59    5.70
  -1  -5 -24   42.30    4.40
   1  -5  24   45.70    5.90
   1   5 -24   43.40    4.00
  -1  -5  24   37.00    4.80
   1  -5 -24   39.30    4.20
   1  -5 -24   39.80    4.30
   2   5 -24   27.80    4.00
   2  -5 -24   30.60    3.50
   2  -5 -24   40.90    4.50
  -2  -5  24   33.10    4.70
  -2  -5  24   23.50    3.40
  -3   5  24  111.69    7.70
   3   5 -24  107.49    6.30
   3   5 -24  117.49    6.30
  -3  -5  24  116.69    6.80
   3  -5 -24  121.39    6.30
   0  -6  24   32.60    4.80
   0  -6 -24   30.80    4.40
   0   6 -24   38.20    5.60
   0  -6 -24   29.10    4.00
   1  -6  24  132.79    8.20
   1   6 -24  133.49    7.30
  -1  -6 -24  145.19    7.50
   1  -6 -24  132.19    7.30
   1  -6 -24  125.49    7.50
   2   6 -24   23.70    3.40
  -2   6  24   19.60    3.60
   2  -6 -24   24.10    3.20
   2  -6 -24   17.00    3.60
  -2  -6  24   20.40    3.20
   0  -7  24   -0.30    2.90
   0  -7 -24    2.30    2.40
   0  -7 -24   -1.20    2.30
   1  -7  24  224.88   11.30
   1   7 -24  228.98   11.00
   1  -7 -24  225.18   11.20
   1  -7 -24  243.18   11.30
  -2   7  24   24.90    3.80
   2   7 -24   27.90    3.50
  -2   7  24   21.20    3.50
  -2  -7  24   22.10    3.30
   2  -7 -24   23.40    3.30
   0  -8  24   -1.40    2.90
   0  -8 -24   -3.60    2.50
   1  -8  24   -4.00    3.50
   1  -8 -24    4.40    1.90
  -1  -8  24    7.20    2.80
  -2   8  24    3.20    2.40
   2  -8 -24   11.10    2.10
   0  -9  24    3.80    3.00
   0  -9 -24    4.80    2.50
  -1   9  24   21.90    3.50
  -1  -9  24   23.20    3.30
   1  -9 -24   21.10    3.40
   0   0  25   -1.70    3.30
   0   0 -25    1.30    2.30
   1   0 -25   15.40    2.60
  -1   0  25   16.60    3.20
   1   0 -25   16.50    2.90
  -1   0 -25   21.80    3.20
  -2   0  25    0.10    2.60
   2   0 -25    2.00    2.10
   2   0 -25   -1.00    2.20
  -2   0 -25    2.80    3.80
  -2   0  25    1.00    3.40
   3   0 -25   44.60    3.70
   0   1  25    1.10    3.40
   0  -1  25   -2.60    3.20
   0  -1 -25    6.00    2.30
   0   1 -25    4.00    2.50
  -1   1  25   47.90    8.30
   1   1 -25   41.80    5.00
   1   1 -25   40.80    4.20
  -1  -1 -25   42.00    4.40
  -1  -1  25   34.60    4.60
   1  -1 -25   38.10    4.50
   1  -1 -25   43.00    4.10
  -1   1 -25   54.89    5.00
   2   1 -25   42.80    3.90
  -2   1  25   40.30    5.70
   2   1 -25   35.30    4.10
  -2   1  25   38.10    5.20
  -2  -1 -25   42.00    5.70
  -2  -1  25   46.60    4.50
   2  -1 -25   40.80    3.90
  -2  -1  25   44.30    6.00
   2  -1 -25   43.20    4.10
   3   1 -25   86.39    5.20
   3  -1 -25   83.29    5.10
   0   2 -25   31.20    4.10
   0  -2  25   27.50    3.90
   0  -2 -25   43.20    5.80
   0  -2 -25   29.20    4.00
   1  -2  25   55.59    7.20
   1   2 -25   74.49    5.20
   1   2 -25   67.49    5.90
  -1   2  25   66.59    7.90
  -1  -2 -25   64.69    5.20
   1  -2 -25   76.99    5.00
  -1  -2  25   65.89    5.30
  -1   2 -25   79.99    6.10
   1  -2 -25   68.19    5.20
  -2   2  25    0.30    3.80
   2   2 -25    4.20    2.20
   2   2 -25    2.30    2.30
  -2   2  25    5.10    3.50
  -2  -2 -25    5.40    2.90
  -2  -2  25    5.00    2.60
   2  -2 -25   -0.80    1.90
  -2  -2  25   -0.60    3.80
   2  -2 -25    2.50    2.40
   3   2 -25   56.19    4.10
   0  -3  25   -2.10    2.80
   0   3 -25   -1.50    2.60
   0  -3 -25   -3.00    3.10
   0  -3 -25    0.80    2.10
   1   3 -25   44.40    4.20
   1  -3  25   37.60    5.00
  -1  -3 -25   39.20    4.20
  -1   3  25   43.90    6.70
   1   3 -25   35.00    5.20
  -1  -3  25   37.20    4.50
   1  -3 -25   36.60    4.10
   1  -3 -25   37.90    4.30
  -1   3 -25   40.30    5.80
   2   3 -25   39.90    3.90
  -2   3  25   36.10    6.00
   2   3 -25   40.30    4.10
  -2   3  25   46.00    5.40
  -2  -3  25   33.50    4.00
   2  -3 -25   31.40    3.70
   2  -3 -25   42.00    4.40
  -2  -3  25   37.10    4.80
   3   3 -25   48.00    3.90
   3  -3 -25   50.49    3.80
   0  -4  25    3.70    2.90
   0  -4 -25    3.20    3.00
   0   4 -25    1.10    2.70
   0  -4 -25    1.30    2.30
   1   4 -25   15.40    2.80
  -1  -4 -25   20.90    3.10
   1  -4  25   15.30    4.30
  -1   4  25   19.20    3.90
  -1  -4  25   22.90    3.40
   1  -4 -25   26.20    3.90
   1  -4 -25   25.40    3.60
   2   4 -25   12.70    2.50
  -2   4  25   12.60    3.50
   2   4 -25   10.10    2.30
   2  -4 -25    6.30    2.20
   2  -4 -25   10.30    2.80
  -2  -4  25    9.10    2.80
   0  -5  25    0.90    2.80
   0   5 -25    0.20    3.20
   0  -5 -25    1.60    2.80
   0  -5 -25   -2.60    2.20
   1  -5  25   16.10    4.10
  -1  -5 -25   16.70    2.80
   1   5 -25   16.30    2.90
  -1   5  25   13.40    3.60
  -1  -5  25   20.50    3.10
   1  -5 -25   17.50    2.90
   1  -5 -25   18.80    2.90
   2   5 -25   41.10    4.70
   2   5 -25   42.10    4.00
  -2   5  25   41.50    4.80
  -2   5  25   47.40    5.80
  -2  -5  25   40.90    4.10
   2  -5 -25   46.90    3.90
   0  -6 -25    3.50    2.40
   0  -6  25    5.10    2.90
   0  -6 -25    4.50    2.90
  -1   6  25   53.79    5.70
   1  -6  25   49.50    6.40
   1   6 -25   56.89    5.20
   1  -6 -25   55.69    4.60
   1  -6 -25   52.69    4.70
  -1  -6  25   56.59    4.70
  -2  -6  25   86.79    5.50
   0  -7 -25    0.50    2.90
   0  -7  25    3.30    2.90
  -1   7  25   64.29    6.30
  -1  -7  25   67.59    5.10
   1  -7 -25   71.99    4.80
   0   0  26  130.39    8.00
   0   0 -26  130.29    7.20
   1   0 -26   -3.30    2.80
   1   0 -26    3.60    2.30
  -1   0 -26   -3.80    2.80
  -1   0  26   -5.50    2.70
   2   0 -26  102.29    6.20
   2   0 -26  109.09    6.00
   0   1 -26   13.50    2.70
   0  -1  26   12.40    3.60
   0  -1 -26   13.30    2.60
   1   1 -26    9.60    3.20
  -1  -1 -26   17.80    3.10
   1   1 -26   14.90    2.70
  -1   1 -26   12.30    3.20
   1  -1 -26   18.10    2.80
  -1  -1  26   14.80    3.00
   1  -1 -26   16.90    2.90
   2   1 -26   10.30    2.50
   2   1 -26    9.40    2.40
  -2  -1  26   14.30    3.00
   2  -1 -26   11.80    2.70
   2  -1 -26    6.60    2.20
   0  -2 -26    3.40    2.20
   0  -2  26   -0.30    3.30
   0   2 -26    1.10    2.70
   1   2 -26   -0.30    2.30
  -1  -2 -26   -1.10    2.50
  -1  -2  26    2.10    2.80
   1  -2 -26    2.40    2.50
   1  -2 -26    1.60    2.10
  -1   2 -26    1.80    3.90
   2   2 -26  136.19    7.50
   2   2 -26  127.49    7.10
   2  -2 -26  148.49    7.40
  -2  -2  26  151.48    7.50
   2  -2 -26  139.79    7.40
   0  -3  26   10.30    3.30
   0  -3 -26    7.90    2.40
  -1  -3 -26   15.80    2.80
   1   3 -26   12.80    2.60
  -1  -3  26   12.90    3.00
   1  -3 -26   19.00    2.90
   1  -3 -26   21.90    2.90
   2   3 -26   20.00    2.80
  -2  -3  26   18.50    2.90
   2  -3 -26   15.80    2.40
   0   4 -26  117.09    7.30
   0  -4 -26  108.59    6.30
   0  -4  26  106.79    6.80
  -1  -4 -26    4.20    2.30
   1   4 -26    3.40    2.60
   1  -4 -26    1.90    2.40
   1  -4 -26    2.40    2.50
  -1  -4  26    2.10    2.60
   0  -5  26   44.80    5.00
   0  -5 -26   54.19    4.40
   1  -5 -26   16.60    2.80
  -1  -5  26   12.50    2.90
   0   0 -27    1.90    2.30
   1   0 -27    2.60    2.30
   0   1 -27    7.00    2.70
   0  -1 -27    2.70    2.30
   1   1 -27   52.99    4.20
   1  -1 -27   49.10    4.20
   0  -2 -27   16.80    2.90
;
_shelx_hkl_checksum              31056
#END Tags that were not found in dictionaries
loop_
_space_group_symop_operation_xyz
'x, y, z'
'-x+1/2, -y, z+1/2'
'-x, y+1/2, -z+1/2'
'x+1/2, -y+1/2, -z'
loop_
_atom_site_label
_atom_site_type_symbol
_atom_site_fract_x
_atom_site_fract_y
_atom_site_fract_z
_atom_site_U_iso_or_equiv
_atom_site_adp_type
_atom_site_occupancy
_atom_site_site_symmetry_order
_atom_site_calc_flag
_atom_site_refinement_flags_posn
_atom_site_refinement_flags_adp
S1 S 0.53428(8) 0.53172(3) 0.61336(2) 0.02155(13) Uani 1 1 d . .
O1 O 0.7455(2) 0.53145(10) 0.59609(7) 0.0299(4) Uani 1 1 d . .
O2 O 0.4741(3) 0.56917(9) 0.66781(6) 0.0293(4) Uani 1 1 d . .
O3 O -0.0731(2) 0.19455(10) 0.63898(7) 0.0316(4) Uani 1 1 d . .
O4 O 0.1001(2) 0.09931(9) 0.69018(6) 0.0254(3) Uani 1 1 d . .
N1 N 0.4587(3) 0.43667(10) 0.61605(7) 0.0195(4) Uani 1 1 d . .
N2 N 0.2830(3) 0.19484(11) 0.64360(7) 0.0184(4) Uani 1 1 d . .
C1 C 0.3980(3) 0.58400(12) 0.55763(9) 0.0198(4) Uani 1 1 d . .
C2 C 0.4910(3) 0.60167(12) 0.50405(9) 0.0223(5) Uani 1 1 d . .
H2A H 0.6292 0.5860 0.4972 0.027 Uiso 1 1 calc R U
C3 C 0.3807(4) 0.64217(13) 0.46095(9) 0.0252(5) Uani 1 1 d . .
H3A H 0.4445 0.6547 0.4245 0.030 Uiso 1 1 calc R U
C4 C 0.1774(4) 0.66495(13) 0.47013(9) 0.0247(5) Uani 1 1 d . .
C5 C 0.0880(3) 0.64754(13) 0.52417(9) 0.0249(5) Uani 1 1 d . .
H5A H -0.0498 0.6636 0.5312 0.030 Uiso 1 1 calc R U
C6 C 0.1959(3) 0.60735(13) 0.56783(9) 0.0221(5) Uani 1 1 d . .
H6A H 0.1327 0.5958 0.6045 0.026 Uiso 1 1 calc R U
C7 C 0.0548(4) 0.70578(15) 0.42227(10) 0.0358(6) Uani 1 1 d . .
H7A H 0.1318 0.7528 0.4065 0.054 Uiso 1 1 calc R U
H7B H -0.0758 0.7252 0.4383 0.054 Uiso 1 1 calc R U
H7C H 0.0286 0.6659 0.3908 0.054 Uiso 1 1 calc R U
C8 C 0.2670(3) 0.41359(13) 0.64761(9) 0.0196(4) Uani 1 1 d . .
H8A H 0.1691 0.4611 0.6461 0.023 Uiso 1 1 calc R U
C9 C 0.3222(4) 0.39568(14) 0.71237(9) 0.0245(5) Uani 1 1 d . .
H9A H 0.4479 0.3615 0.7132 0.029 Uiso 1 1 calc R U
H9B H 0.3545 0.4487 0.7319 0.029 Uiso 1 1 calc R U
C10 C 0.1585(4) 0.35213(13) 0.74774(8) 0.0231(5) Uani 1 1 d . .
C11 C 0.2012(4) 0.27601(15) 0.77335(9) 0.0273(5) Uani 1 1 d . .
H11A H 0.3340 0.2529 0.7691 0.033 Uiso 1 1 calc R U
C12 C 0.0541(4) 0.23332(15) 0.80489(9) 0.0305(5) Uani 1 1 d . .
H12A H 0.0863 0.1812 0.8217 0.037 Uiso 1 1 calc R U
C13 C -0.1397(4) 0.26645(15) 0.81203(9) 0.0307(5) Uani 1 1 d . .
H13A H -0.2418 0.2370 0.8331 0.037 Uiso 1 1 calc R U
C14 C -0.1830(4) 0.34318(15) 0.78800(10) 0.0309(5) Uani 1 1 d . .
H14A H -0.3147 0.3669 0.7934 0.037 Uiso 1 1 calc R U
C15 C -0.0356(4) 0.38552(14) 0.75617(10) 0.0289(5) Uani 1 1 d . .
H15A H -0.0676 0.4380 0.7399 0.035 Uiso 1 1 calc R U
C16 C 0.1737(3) 0.33963(12) 0.61429(9) 0.0183(4) Uani 1 1 d . .
H16A H 0.0417 0.3219 0.6326 0.022 Uiso 1 1 calc R U
C17 C 0.1413(3) 0.36551(13) 0.54978(9) 0.0219(4) Uani 1 1 d . .
H17A H 0.0576 0.4165 0.5482 0.026 Uiso 1 1 calc R U
H17B H 0.0670 0.3214 0.5285 0.026 Uiso 1 1 calc R U
C18 C 0.3506(3) 0.38095(13) 0.52021(9) 0.0223(5) Uani 1 1 d . .
H18A H 0.3772 0.3384 0.4900 0.027 Uiso 1 1 calc R U
H18B H 0.3521 0.4359 0.5011 0.027 Uiso 1 1 calc R U
C19 C 0.5145(3) 0.37692(12) 0.56836(9) 0.0203(4) Uani 1 1 d . .
H19A H 0.6528 0.3900 0.5520 0.024 Uiso 1 1 calc R U
C20 C 0.5114(3) 0.29114(12) 0.59438(8) 0.0202(4) Uani 1 1 d . .
H20A H 0.6274 0.2557 0.5953 0.026 Uiso 1 1 calc R U
C21 C 0.3297(3) 0.27042(12) 0.61587(9) 0.0186(4) Uani 1 1 d . .
C22 C 0.0888(3) 0.16715(13) 0.65577(9) 0.0228(5) Uani 1 1 d . .
C23 C 0.3117(3) 0.08426(14) 0.70578(9) 0.0225(5) Uani 1 1 d . .
H23A H 0.3440 0.0246 0.7033 0.027 Uiso 1 1 calc R U
H23B H 0.3401 0.1037 0.7462 0.027 Uiso 1 1 calc R U
C24 C 0.4375(3) 0.13335(12) 0.66098(8) 0.0192(4) Uani 1 1 d . .
H24A H 0.5549 0.1613 0.6810 0.023 Uiso 1 1 calc R U
C25 C 0.5159(3) 0.08088(12) 0.60964(9) 0.0228(4) Uani 1 1 d . .
H25A H 0.5917 0.1185 0.5824 0.027 Uiso 1 1 calc R U
C26 C 0.6690(4) 0.01659(13) 0.63245(10) 0.0287(5) Uani 1 1 d . .
H26A H 0.7449 -0.0070 0.5993 0.043 Uiso 1 1 calc R U
H26B H 0.5949 -0.0274 0.6530 0.043 Uiso 1 1 calc R U
H26C H 0.7650 0.0431 0.6596 0.043 Uiso 1 1 calc R U
C27 C 0.3450(4) 0.03986(15) 0.57441(10) 0.0303(5) Uani 1 1 d . .
H27A H 0.2527 0.0824 0.5589 0.045 Uiso 1 1 calc R U
H27B H 0.2679 0.0023 0.5999 0.045 Uiso 1 1 calc R U
H27C H 0.4045 0.0086 0.5418 0.045 Uiso 1 1 calc R U
loop_
_atom_site_aniso_label
_atom_site_aniso_U_11
_atom_site_aniso_U_22
_atom_site_aniso_U_33
_atom_site_aniso_U_23
_atom_site_aniso_U_13
_atom_site_aniso_U_12
S1 0.0209(3) 0.0199(2) 0.0238(2) 0.0011(2) -0.0040(2) -0.0044(2)
O1 0.0187(8) 0.0285(9) 0.0425(9) 0.0061(7) -0.0042(6) -0.0054(7)
O2 0.0391(9) 0.0251(8) 0.0236(7) -0.0042(6) -0.0064(7) -0.0068(7)
O3 0.0181(8) 0.0266(8) 0.0502(10) 0.0101(7) -0.0064(7) -0.0016(7)
O4 0.0206(8) 0.0233(8) 0.0321(8) 0.0100(6) 0.0005(6) -0.0010(6)
N1 0.0201(8) 0.0184(8) 0.0201(8) 0.0009(7) 0.0012(8) -0.0022(7)
N2 0.0168(9) 0.0172(9) 0.0212(8) 0.0044(7) -0.0011(7) -0.0003(7)
C1 0.0218(11) 0.0133(9) 0.0243(10) -0.0010(8) -0.0004(8) -0.0032(8)
C2 0.0228(12) 0.0179(10) 0.0264(10) -0.0040(8) 0.0034(9) -0.0019(9)
C3 0.0356(13) 0.0199(11) 0.0202(10) -0.0004(9) 0.0023(9) -0.0022(10)
C4 0.0327(13) 0.0148(10) 0.0266(11) -0.0039(8) -0.0053(10) -0.0010(9)
C5 0.0229(12) 0.0184(10) 0.0333(11) -0.0030(9) -0.0027(9) 0.0018(9)
C6 0.0241(11) 0.0179(10) 0.0243(11) -0.0014(8) 0.0034(9) -0.0025(9)
C7 0.0487(15) 0.0292(13) 0.0297(12) -0.0031(10) -0.0092(11) 0.0105(12)
C8 0.0188(11) 0.0190(10) 0.0209(10) 0.0009(8) 0.0019(8) -0.0014(8)
C9 0.0252(12) 0.0286(12) 0.0196(10) 0.0010(9) -0.0008(9) -0.0043(10)
C10 0.0286(13) 0.0250(11) 0.0157(10) -0.0011(9) 0.0008(9) -0.0016(10)
C11 0.0301(13) 0.0305(12) 0.0212(11) 0.0017(9) 0.0034(9) 0.0050(10)
C12 0.0392(14) 0.0271(12) 0.0254(11) 0.0046(9) 0.0053(10) 0.0041(11)
C13 0.0356(14) 0.0330(13) 0.0233(11) 0.0009(10) 0.0082(10) -0.0021(11)
C14 0.0282(13) 0.0377(14) 0.0267(11) 0.0023(10) 0.0046(10) 0.0055(11)
C15 0.0345(13) 0.0272(11) 0.0250(11) 0.0030(9) 0.0039(10) 0.0046(11)
C16 0.0164(10) 0.0193(10) 0.0194(9) 0.0021(8) -0.0007(9) -0.0005(8)
C17 0.0219(11) 0.0220(11) 0.0217(10) 0.0018(8) -0.0038(9) 0.0011(9)
C18 0.0285(13) 0.0191(10) 0.0194(10) 0.0024(8) 0.0002(9) 0.0001(9)
C19 0.0194(11) 0.0193(10) 0.0223(10) 0.0013(8) 0.0034(9) -0.0008(9)
C20 0.0195(11) 0.0177(10) 0.0234(10) 0.0020(8) 0.0004(8) 0.0006(9)
C21 0.0210(10) 0.0173(9) 0.0173(9) 0.0015(8) -0.0024(9) 0.0000(8)
C22 0.0212(12) 0.0201(10) 0.0271(11) 0.0039(9) -0.0017(9) -0.0014(9)
C23 0.0205(11) 0.0231(11) 0.0239(10) 0.0056(9) -0.0022(9) 0.0030(9)
C24 0.0187(11) 0.0178(10) 0.0211(10) 0.0019(8) -0.0036(8) 0.0010(8)
C25 0.0246(11) 0.0195(10) 0.0243(10) 0.0006(8) 0.0034(9) -0.0018(9)
C26 0.0280(12) 0.0195(11) 0.0386(13) -0.0025(9) 0.0022(10) 0.0017(9)
C27 0.0369(14) 0.0294(12) 0.0246(11) -0.0053(9) -0.0038(10) -0.0010(11)
loop_
_atom_type_symbol
_atom_type_description
_atom_type_scat_dispersion_real
_atom_type_scat_dispersion_imag
_atom_type_scat_source
C C 0.0181 0.0091 'International Tables Vol C Tables 4.2.6.8 and 6.1.1.4'
H H 0.0000 0.0000 'International Tables Vol C Tables 4.2.6.8 and 6.1.1.4'
N N 0.0311 0.0180 'International Tables Vol C Tables 4.2.6.8 and 6.1.1.4'
O O 0.0492 0.0322 'International Tables Vol C Tables 4.2.6.8 and 6.1.1.4'
S S 0.3331 0.5567 'International Tables Vol C Tables 4.2.6.8 and 6.1.1.4'
loop_
_geom_angle_atom_site_label_1
_geom_angle_atom_site_label_2
_geom_angle_atom_site_label_3
_geom_angle
O1 S1 O2 120.10(10)
O1 S1 N1 107.53(9)
O2 S1 N1 106.58(9)
O1 S1 C1 106.78(10)
O2 S1 C1 106.32(10)
N1 S1 C1 109.24(9)
C22 O4 C23 109.35(15)
C8 N1 C19 113.07(15)
C8 N1 S1 120.86(13)
C19 N1 S1 120.79(13)
C22 N2 C21 124.98(17)
C22 N2 C24 110.99(16)
C21 N2 C24 123.98(16)
C6 C1 C2 120.23(19)
C6 C1 S1 119.19(16)
C2 C1 S1 120.58(17)
C3 C2 C1 119.5(2)
C3 C2 H2A 120.3
C1 C2 H2A 120.3
C2 C3 C4 121.0(2)
C2 C3 H3A 119.5
C4 C3 H3A 119.5
C5 C4 C3 118.6(2)
C5 C4 C7 120.4(2)
C3 C4 C7 120.9(2)
C6 C5 C4 121.2(2)
C6 C5 H5A 119.4
C4 C5 H5A 119.4
C5 C6 C1 119.4(2)
C5 C6 H6A 120.3
C1 C6 H6A 120.3
C4 C7 H7A 109.5
C4 C7 H7B 109.5
H7A C7 H7B 109.5
C4 C7 H7C 109.5
H7A C7 H7C 109.5
H7B C7 H7C 109.5
N1 C8 C16 106.76(16)
N1 C8 C9 108.13(17)
C16 C8 C9 114.58(17)
N1 C8 H8A 109.1
C16 C8 H8A 109.1
C9 C8 H8A 109.1
C10 C9 C8 115.51(18)
C10 C9 H9A 108.4
C8 C9 H9A 108.4
C10 C9 H9B 108.4
C8 C9 H9B 108.4
H9A C9 H9B 107.5
C15 C10 C11 118.0(2)
C15 C10 C9 122.4(2)
C11 C10 C9 119.6(2)
C12 C11 C10 121.4(2)
C12 C11 H11A 119.3
C10 C11 H11A 119.3
C13 C12 C11 120.1(2)
C13 C12 H12A 119.9
C11 C12 H12A 119.9
C12 C13 C14 119.1(2)
C12 C13 H13A 120.4
C14 C13 H13A 120.4
C15 C14 C13 120.5(2)
C15 C14 H14A 119.7
C13 C14 H14A 119.7
C14 C15 C10 120.8(2)
C14 C15 H15A 119.6
C10 C15 H15A 119.6
C21 C16 C17 108.41(17)
C21 C16 C8 107.28(16)
C17 C16 C8 108.19(16)
C21 C16 H16A 110.9
C17 C16 H16A 110.9
C8 C16 H16A 110.9
C16 C17 C18 109.76(16)
C16 C17 H17A 109.7
C18 C17 H17A 109.7
C16 C17 H17B 109.7
C18 C17 H17B 109.7
H17A C17 H17B 108.2
C19 C18 C17 107.37(16)
C19 C18 H18A 110.2
C17 C18 H18A 110.2
C19 C18 H18B 110.2
C17 C18 H18B 110.2
H18A C18 H18B 108.5
N1 C19 C20 107.79(15)
N1 C19 C18 108.73(16)
C20 C19 C18 108.09(17)
N1 C19 H19A 110.7
C20 C19 H19A 110.7
C18 C19 H19A 110.7
C21 C20 C19 112.92(18)
C21 C20 H20A 123.5
C19 C20 H20A 123.5
C20 C21 N2 125.33(18)
C20 C21 C16 113.93(17)
N2 C21 C16 120.45(17)
O3 C22 O4 121.98(19)
O3 C22 N2 128.61(19)
O4 C22 N2 109.38(17)
O4 C23 C24 105.13(16)
O4 C23 H23A 110.7
C24 C23 H23A 110.7
O4 C23 H23B 110.7
C24 C23 H23B 110.7
H23A C23 H23B 108.8
N2 C24 C23 99.34(16)
N2 C24 C25 113.47(16)
C23 C24 C25 113.56(17)
N2 C24 H24A 110.0
C23 C24 H24A 110.0
C25 C24 H24A 110.0
C27 C25 C24 113.45(18)
C27 C25 C26 111.07(18)
C24 C25 C26 109.57(17)
C27 C25 H25A 107.5
C24 C25 H25A 107.5
C26 C25 H25A 107.5
C25 C26 H26A 109.5
C25 C26 H26B 109.5
H26A C26 H26B 109.5
C25 C26 H26C 109.5
H26A C26 H26C 109.5
H26B C26 H26C 109.5
C25 C27 H27A 109.5
C25 C27 H27B 109.5
H27A C27 H27B 109.5
C25 C27 H27C 109.5
H27A C27 H27C 109.5
H27B C27 H27C 109.5
loop_
_geom_bond_atom_site_label_1
_geom_bond_atom_site_label_2
_geom_bond_distance
S1 O1 1.4344(16)
S1 O2 1.4355(15)
S1 N1 1.6170(17)
S1 C1 1.766(2)
O3 C22 1.208(3)
O4 C22 1.351(2)
O4 C23 1.447(3)
N1 C8 1.491(3)
N1 C19 1.500(3)
N2 C22 1.373(3)
N2 C21 1.410(2)
N2 C24 1.471(3)
C1 C6 1.393(3)
C1 C2 1.393(3)
C2 C3 1.383(3)
C2 H2A 0.9500
C3 C4 1.394(3)
C3 H3A 0.9500
C4 C5 1.391(3)
C4 C7 1.505(3)
C5 C6 1.381(3)
C5 H5A 0.9500
C6 H6A 0.9500
C7 H7A 0.9800
C7 H7B 0.9800
C7 H7C 0.9800
C8 C16 1.543(3)
C8 C9 1.546(3)
C8 H8A 1.0000
C9 C10 1.513(3)
C9 H9A 0.9900
C9 H9B 0.9900
C10 C15 1.391(3)
C10 C11 1.392(3)
C11 C12 1.384(3)
C11 H11A 0.9500
C12 C13 1.384(3)
C12 H12A 0.9500
C13 C14 1.386(3)
C13 H13A 0.9500
C14 C15 1.386(3)
C14 H14A 0.9500
C15 H15A 0.9500
C16 C21 1.515(3)
C16 C17 1.543(3)
C16 H16A 1.0000
C17 C18 1.544(3)
C17 H17A 0.9900
C17 H17B 0.9900
C18 C19 1.534(3)
C18 H18A 0.9900
C18 H18B 0.9900
C19 C20 1.510(3)
C19 H19A 1.0000
C20 C21 1.326(3)
C20 H20A 0.9500
C23 C24 1.532(3)
C23 H23A 0.9900
C23 H23B 0.9900
C24 C25 1.533(3)
C24 H24A 1.0000
C25 C27 1.527(3)
C25 C26 1.534(3)
C25 H25A 1.0000
C26 H26A 0.9800
C26 H26B 0.9800
C26 H26C 0.9800
C27 H27A 0.9800
C27 H27B 0.9800
C27 H27C 0.9800
loop_
_geom_torsion_atom_site_label_1
_geom_torsion_atom_site_label_2
_geom_torsion_atom_site_label_3
_geom_torsion_atom_site_label_4
_geom_torsion
O1 S1 N1 C8 163.37(14)
O2 S1 N1 C8 33.37(17)
C1 S1 N1 C8 -81.11(16)
O1 S1 N1 C19 -44.06(17)
O2 S1 N1 C19 -174.06(15)
C1 S1 N1 C19 71.46(17)
O1 S1 C1 C6 -167.91(16)
O2 S1 C1 C6 -38.56(19)
N1 S1 C1 C6 76.09(18)
O1 S1 C1 C2 12.19(19)
O2 S1 C1 C2 141.54(17)
N1 S1 C1 C2 -103.81(17)
C6 C1 C2 C3 -0.3(3)
S1 C1 C2 C3 179.56(16)
C1 C2 C3 C4 -0.6(3)
C2 C3 C4 C5 1.2(3)
C2 C3 C4 C7 -177.4(2)
C3 C4 C5 C6 -1.0(3)
C7 C4 C5 C6 177.6(2)
C4 C5 C6 C1 0.2(3)
C2 C1 C6 C5 0.5(3)
S1 C1 C6 C5 -179.37(16)
C19 N1 C8 C16 -7.1(2)
S1 N1 C8 C16 147.37(14)
C19 N1 C8 C9 116.61(18)
S1 N1 C8 C9 -88.86(19)
N1 C8 C9 C10 -166.13(18)
C16 C8 C9 C10 -47.2(3)
C8 C9 C10 C15 -59.7(3)
C8 C9 C10 C11 120.7(2)
C15 C10 C11 C12 1.8(3)
C9 C10 C11 C12 -178.5(2)
C10 C11 C12 C13 -0.6(3)
C11 C12 C13 C14 -1.0(3)
C12 C13 C14 C15 1.3(4)
C13 C14 C15 C10 -0.1(4)
C11 C10 C15 C14 -1.5(3)
C9 C10 C15 C14 178.9(2)
N1 C8 C16 C21 60.3(2)
C9 C8 C16 C21 -59.4(2)
N1 C8 C16 C17 -56.5(2)
C9 C8 C16 C17 -176.18(17)
C21 C16 C17 C18 -50.2(2)
C8 C16 C17 C18 65.9(2)
C16 C17 C18 C19 -8.0(2)
C8 N1 C19 C20 -51.1(2)
S1 N1 C19 C20 154.40(15)
C8 N1 C19 C18 65.9(2)
S1 N1 C19 C18 -88.66(18)
C17 C18 C19 N1 -54.7(2)
C17 C18 C19 C20 62.1(2)
N1 C19 C20 C21 59.8(2)
C18 C19 C20 C21 -57.5(2)
C19 C20 C21 N2 -178.87(18)
C19 C20 C21 C16 -5.1(2)
C22 N2 C21 C20 -167.0(2)
C24 N2 C21 C20 10.1(3)
C22 N2 C21 C16 19.6(3)
C24 N2 C21 C16 -163.26(18)
C17 C16 C21 C20 60.6(2)
C8 C16 C21 C20 -56.0(2)
C17 C16 C21 N2 -125.29(19)
C8 C16 C21 N2 118.09(19)
C23 O4 C22 O3 -176.8(2)
C23 O4 C22 N2 4.7(2)
C21 N2 C22 O3 10.9(3)
C24 N2 C22 O3 -166.6(2)
C21 N2 C22 O4 -170.72(18)
C24 N2 C22 O4 11.8(2)
C22 O4 C23 C24 -18.2(2)
C22 N2 C24 C23 -21.5(2)
C21 N2 C24 C23 160.97(18)
C22 N2 C24 C25 99.3(2)
C21 N2 C24 C25 -78.2(2)
O4 C23 C24 N2 23.0(2)
O4 C23 C24 C25 -97.81(19)
N2 C24 C25 C27 -52.9(2)
C23 C24 C25 C27 59.5(2)
N2 C24 C25 C26 -177.70(17)
C23 C24 C25 C26 -65.2(2)
