#------------------------------------------------------------------------------
#$Date: 2016-02-18 17:37:37 +0200 (Thu, 18 Feb 2016) $
#$Revision: 176729 $
#$URL: svn://www.crystallography.net/cod/cif/1/51/33/1513345.cif $
#------------------------------------------------------------------------------
#
# This file is available in the Crystallography Open Database (COD),
# http://www.crystallography.net/
#
# All data on this site have been placed in the public domain by the
# contributors.
#
data_1513345
loop_
_publ_author_name
'Yamashita, Hiroaki'
'Abe, Jiro'
_publ_section_title
;
 Remarkable Solvatochromic Color Change via Proton Tautomerism of a
 Phenol-Linked Imidazole Derivative.
;
_journal_issue                   8
_journal_name_full               'The journal of physical chemistry. A'
_journal_page_first              1430
_journal_page_last               1438
_journal_paper_doi               10.1021/jp5007928
_journal_volume                  118
_journal_year                    2014
_chemical_formula_sum            'C39 H52 N2 O3 S'
_chemical_formula_weight         628.88
_space_group_crystal_system      triclinic
_space_group_IT_number           2
_space_group_name_Hall           '-P 1'
_space_group_name_H-M_alt        'P -1'
_symmetry_space_group_name_Hall  '-P 1'
_symmetry_space_group_name_H-M   'P -1'
_atom_sites_solution_hydrogens   mixed
_atom_sites_solution_primary     direct
_atom_sites_solution_secondary   difmap
_cell_angle_alpha                93.770(2)
_cell_angle_beta                 105.796(3)
_cell_angle_gamma                90.872(3)
_cell_formula_units_Z            2
_cell_length_a                   9.5672(17)
_cell_length_b                   13.359(2)
_cell_length_c                   15.030(3)
_cell_measurement_temperature    90.(2)
_cell_volume                     1843.3(6)
_computing_cell_refinement       'SAINT V8.32B (Bruker AXS Inc., 2013)'
_computing_data_collection       'Bruker SMART APEXII'
_computing_data_reduction        'SAINT V8.32B (Bruker AXS Inc., 2013)'
_computing_molecular_graphics    'XSHELL V6.3.1 (Bruker AXS)'
_computing_publication_material  'Generate Report (Bruker AXS)'
_computing_structure_refinement  'SHELXL-2013 (Sheldrick, 2013)'
_diffrn_ambient_temperature      90.(2)
_diffrn_measured_fraction_theta_full 0.975
_diffrn_measured_fraction_theta_max 0.975
_diffrn_measurement_device_type  'Bruker D8 goniometer'
_diffrn_measurement_method       'omega scans'
_diffrn_radiation_monochromator  graphite
_diffrn_radiation_type           MoK\a
_diffrn_radiation_wavelength     0.71073
_diffrn_reflns_av_R_equivalents  0.0432
_diffrn_reflns_limit_h_max       11
_diffrn_reflns_limit_h_min       -8
_diffrn_reflns_limit_k_max       15
_diffrn_reflns_limit_k_min       -16
_diffrn_reflns_limit_l_max       18
_diffrn_reflns_limit_l_min       -14
_diffrn_reflns_number            9190
_diffrn_reflns_theta_full        25.53
_diffrn_reflns_theta_max         25.53
_diffrn_reflns_theta_min         1.41
_diffrn_source                   'sealed tube'
_exptl_absorpt_coefficient_mu    0.125
_exptl_absorpt_correction_T_max  0.96
_exptl_absorpt_correction_T_min  0.94
_exptl_absorpt_correction_type   empirical
_exptl_absorpt_process_details   'SADABS Sheldrick 1996'
_exptl_crystal_colour            'dark blue'
_exptl_crystal_density_diffrn    1.133
_exptl_crystal_density_method    'not measured'
_exptl_crystal_description       plate
_exptl_crystal_F_000             680
_exptl_crystal_size_max          0.500
_exptl_crystal_size_mid          0.300
_exptl_crystal_size_min          0.300
_refine_diff_density_max         0.241
_refine_diff_density_min         -0.285
_refine_ls_extinction_coef       0.0049(7)
_refine_ls_extinction_method     SHELXL
_refine_ls_goodness_of_fit_ref   0.941
_refine_ls_hydrogen_treatment    mixed
_refine_ls_matrix_type           full
_refine_ls_number_parameters     425
_refine_ls_number_reflns         6718
_refine_ls_number_restraints     0
_refine_ls_restrained_S_all      0.941
_refine_ls_R_factor_all          0.1281
_refine_ls_R_factor_gt           0.0571
_refine_ls_shift/su_max          0.004
_refine_ls_shift/su_mean         0.000
_refine_ls_structure_factor_coef Fsqd
_refine_ls_weighting_details
'w=1/[\s^2^(Fo^2^)+(0.0459P)^2^] where P=(Fo^2^+2Fc^2^)/3'
_refine_ls_weighting_scheme      calc
_refine_ls_wR_factor_gt          0.1022
_refine_ls_wR_factor_ref         0.1270
_reflns_number_gt                3730
_reflns_number_total             6718
_reflns_threshold_expression     'I > 2\s(I)'
_cod_data_source_file            jp5007928_si_003.cif
_cod_data_source_block           I
_cod_database_code               1513345
#BEGIN Tags that were not found in dictionaries:
_shelx_res_file
;
TITL NH_form in P-1
CELL 0.71073   9.56720  13.35930  15.02990  93.7698 105.7956  90.8720
ZERR 2 0.00170 0.00230 0.00250 0.0022 0.0025 0.0025
LATT 1
SFAC C  H  N  O  S
UNIT 78  104  4  6  2
L.S. 4
ACTA
BOND $h
FMAP 2
PLAN 20
SIZE 0.300 0.300 0.500
TEMP -183
WGHT    0.045900
EXTI    0.004858
FVAR       0.14277
MOLE 1
S1    5    0.377605    0.420831    0.103661    11.00000    0.03063    0.03416 =
         0.01854    0.00036   -0.00121    0.00108
O3    4    0.293616    0.391795    0.004275    11.00000    0.02897    0.03740 =
         0.01537   -0.00260   -0.00694    0.00411
C1    1    0.993066    0.384234    0.771392    11.00000    0.01485    0.02087 =
         0.01346   -0.00336    0.00332   -0.00341
C2    1    0.721097    0.421263    0.416594    11.00000    0.01714    0.02681 =
         0.01772    0.00240    0.00304   -0.00182
C3    1    1.001160    0.279262    0.770878    11.00000    0.01684    0.02238 =
         0.01095   -0.00268    0.00279   -0.00164
C4    1    1.127777    0.235707    0.825181    11.00000    0.01744    0.02152 =
         0.01340   -0.00535    0.00087   -0.00252
AFIX  43
H4    2    1.207161    0.278995    0.858368    11.00000   -1.20000
AFIX   0
C5    1    0.915280    0.453837    0.706427    11.00000    0.01247    0.01660 =
         0.01684   -0.00092    0.00364   -0.00030
C6    1    1.138586    0.611470    0.995708    11.00000    0.02280    0.02622 =
         0.02014   -0.00019    0.00486    0.00056
AFIX  43
H6    2    1.163688    0.545805    1.013687    11.00000   -1.20000
AFIX   0
C7    1    0.791313    0.525010    0.561892    11.00000    0.01871    0.01807 =
         0.02153   -0.00189    0.00527    0.00026
AFIX  43
H7    2    0.794695    0.587642    0.596355    11.00000   -1.20000
AFIX   0
C8    1    0.726714    0.520058    0.469084    11.00000    0.01470    0.02235 =
         0.01802   -0.00056    0.00563   -0.00235
C9    1    0.879288    0.213986    0.723739    11.00000    0.01467    0.02545 =
         0.01004   -0.00056    0.00117    0.00299
AFIX  43
H9    2    0.796220    0.242194    0.684675    11.00000   -1.20000
AFIX   0
C10   1    0.798348    0.337104    0.463754    11.00000    0.01465    0.02076 =
         0.01753   -0.00069    0.00484   -0.00127
C11   1    1.020303    0.541954    0.833868    11.00000    0.01990    0.01819 =
         0.01637    0.00034    0.00569   -0.00100
C12   1    0.806234    0.238178    0.408313    11.00000    0.01975    0.02007 =
         0.01420   -0.00278    0.00432   -0.00111
C13   1    1.027899    0.722279    0.878605    11.00000    0.02877    0.02530 =
         0.01671   -0.00301    0.00782   -0.00455
AFIX  43
H13   2    0.978301    0.732567    0.816116    11.00000   -1.20000
AFIX   0
C14   1    0.854282    0.441148    0.610265    11.00000    0.01549    0.02013 =
         0.01655    0.00009    0.00326   -0.00197
C15   1    0.657265    0.610687    0.418798    11.00000    0.01925    0.02249 =
         0.02000    0.00173    0.00347    0.00063
C16   1    0.860210    0.349780    0.556720    11.00000    0.01501    0.01688 =
         0.01779    0.00180    0.00356   -0.00149
AFIX  43
H16   2    0.909677    0.295337    0.587499    11.00000   -1.20000
AFIX   0
C17   1    1.063626    0.625849    0.904359    11.00000    0.01990    0.01715 =
         0.01722   -0.00249    0.00757   -0.00118
C18   1    0.902412    0.163181    0.468577    11.00000    0.03051    0.02171 =
         0.02068   -0.00324    0.00733    0.00026
AFIX 137
H18A  2    1.001469    0.191891    0.492748    11.00000   -1.50000
H18B  2    0.904088    0.100644    0.431007    11.00000   -1.50000
H18C  2    0.862973    0.149212    0.520384    11.00000   -1.50000
AFIX   0
C19   1    0.877962    0.113771    0.732718    11.00000    0.01899    0.02261 =
         0.01247   -0.00268    0.00368   -0.00179
C20   1    0.743253    0.044376    0.690867    11.00000    0.01810    0.02226 =
         0.01878    0.00089    0.00328   -0.00291
C21   1    1.176516    0.693012    1.060338    11.00000    0.02721    0.03390 =
         0.01629   -0.00303    0.00550   -0.00420
AFIX  43
H21   2    1.228150    0.683318    1.122591    11.00000   -1.20000
AFIX   0
C22   1    1.282626    0.091049    0.886942    11.00000    0.02112    0.01830 =
         0.02595   -0.00227   -0.00369    0.00188
C23   1    1.140838    0.135925    0.831940    11.00000    0.01984    0.02154 =
         0.01588   -0.00005    0.00188   -0.00016
C24   1    1.139230    0.788547    1.034258    11.00000    0.04072    0.02523 =
         0.02344   -0.00847    0.01207   -0.00701
AFIX  43
H24   2    1.165219    0.844273    1.078805    11.00000   -1.20000
AFIX   0
C25   1    0.615097    0.103049    0.636034    11.00000    0.01751    0.02941 =
         0.02983   -0.00214   -0.00129   -0.00451
AFIX 137
H25A  2    0.590382    0.155423    0.677427    11.00000   -1.50000
H25B  2    0.530863    0.057105    0.610148    11.00000   -1.50000
H25C  2    0.642309    0.134041    0.585554    11.00000   -1.50000
AFIX   0
C26   1    1.011028    0.069377    0.789364    11.00000    0.02616    0.01937 =
         0.01737    0.00199    0.00665    0.00097
C27   1    0.674707    0.704242    0.485919    11.00000    0.02855    0.02566 =
         0.03040    0.00681    0.00150    0.00885
AFIX 137
H27A  2    0.626654    0.691737    0.534174    11.00000   -1.50000
H27B  2    0.630356    0.761074    0.451920    11.00000   -1.50000
H27C  2    0.778278    0.719800    0.514628    11.00000   -1.50000
AFIX   0
C28   1    0.775879   -0.039134    0.624482    11.00000    0.02673    0.02626 =
         0.02251   -0.00436    0.00318   -0.00370
AFIX 137
H28A  2    0.806287   -0.008909    0.574769    11.00000   -1.50000
H28B  2    0.688215   -0.081680    0.597632    11.00000   -1.50000
H28C  2    0.853898   -0.079958    0.658799    11.00000   -1.50000
AFIX   0
C29   1    0.872130    0.256111    0.327350    11.00000    0.03356    0.03313 =
         0.02069   -0.00405    0.00905    0.00006
AFIX 137
H29A  2    0.807474    0.297573    0.283494    11.00000   -1.50000
H29B  2    0.883322    0.191501    0.295620    11.00000   -1.50000
H29C  2    0.967392    0.290634    0.351582    11.00000   -1.50000
AFIX   0
C30   1    1.064440    0.803456    0.943847    11.00000    0.04208    0.02081 =
         0.02407    0.00071    0.01113   -0.00135
AFIX  43
H30   2    1.038138    0.869128    0.926443    11.00000   -1.20000
AFIX   0
C31   1    0.692464   -0.003664    0.767646    11.00000    0.02513    0.02808 =
         0.02779   -0.00265    0.00323   -0.01070
AFIX 137
H31A  2    0.770239   -0.043804    0.803223    11.00000   -1.50000
H31B  2    0.605995   -0.046956    0.739531    11.00000   -1.50000
H31C  2    0.668845    0.049206    0.809029    11.00000   -1.50000
AFIX   0
C32   1    0.652485    0.189253    0.371225    11.00000    0.02558    0.02742 =
         0.02472   -0.00402    0.00349   -0.00635
AFIX 137
H32A  2    0.613151    0.176609    0.423369    11.00000   -1.50000
H32B  2    0.657430    0.125632    0.336014    11.00000   -1.50000
H32C  2    0.589166    0.234426    0.330723    11.00000   -1.50000
AFIX   0
C33   1    1.409080    0.168334    0.910018    11.00000    0.01687    0.02964 =
         0.03594   -0.00090   -0.00265    0.00217
AFIX 137
H33A  2    1.422155    0.192363    0.852492    11.00000   -1.50000
H33B  2    1.498178    0.137182    0.943782    11.00000   -1.50000
H33C  2    1.387983    0.225006    0.948575    11.00000   -1.50000
AFIX   0
C34   1    0.493685    0.591401    0.374793    11.00000    0.02199    0.03042 =
         0.02907    0.01111    0.00308    0.00183
AFIX 137
H34A  2    0.478275    0.534493    0.328205    11.00000   -1.50000
H34B  2    0.451579    0.651315    0.345154    11.00000   -1.50000
H34C  2    0.446737    0.576077    0.422919    11.00000   -1.50000
AFIX   0
C35   1    0.732405    0.633443    0.343595    11.00000    0.02242    0.03567 =
         0.02865    0.01292    0.00420    0.00162
AFIX 137
H35A  2    0.836079    0.648410    0.372485    11.00000   -1.50000
H35B  2    0.688197    0.691433    0.311451    11.00000   -1.50000
H35C  2    0.720796    0.574981    0.298954    11.00000   -1.50000
AFIX   0
C36   1    1.261151    0.057975    0.978431    11.00000    0.03275    0.02960 =
         0.03142    0.00699   -0.00969   -0.00191
AFIX 137
H36A  2    1.348361    0.024989    1.012457    11.00000   -1.50000
H36B  2    1.177207    0.010951    0.965176    11.00000   -1.50000
H36C  2    1.244183    0.116883    1.016032    11.00000   -1.50000
AFIX   0
C37   1    1.323742    0.001038    0.830267    11.00000    0.02658    0.03369 =
         0.04408   -0.00729   -0.00347    0.01095
AFIX 137
H37A  2    1.327205    0.021789    0.769542    11.00000   -1.50000
H37B  2    1.250843   -0.053651    0.821822    11.00000   -1.50000
H37C  2    1.419250   -0.022102    0.863499    11.00000   -1.50000
AFIX   0
C38   1    0.564675    0.412983    0.107671    11.00000    0.02841    0.07956 =
         0.02665    0.01413   -0.00087   -0.01342
AFIX 137
H38A  2    0.580252    0.349502    0.075783    11.00000   -1.50000
H38B  2    0.623291    0.415948    0.172426    11.00000   -1.50000
H38C  2    0.593519    0.469174    0.077014    11.00000   -1.50000
AFIX   0
C39   1    0.366237    0.316992    0.168525    11.00000    0.02673    0.07107 =
         0.03828    0.02566   -0.00409   -0.01106
AFIX 137
H39A  2    0.265274    0.305744    0.169616    11.00000   -1.50000
H39B  2    0.427963    0.330479    0.232068    11.00000   -1.50000
H39C  2    0.399164    0.257120    0.139894    11.00000   -1.50000
AFIX   0
O1    4    1.012864   -0.021642    0.802841    11.00000    0.02670    0.02078 =
         0.03432    0.00408   -0.00273   -0.00084
O2    4    0.652738    0.410755    0.332844    11.00000    0.03467    0.03158 =
         0.01683   -0.00129   -0.00465    0.00387
N2    3    0.930273    0.549510    0.751398    11.00000    0.02077    0.01707 =
         0.01577   -0.00071    0.00170   -0.00160
N1    3    1.067346    0.446263    0.847587    11.00000    0.01768    0.01834 =
         0.01321   -0.00051   -0.00136   -0.00089
H1    2    1.124422    0.423982    0.896910    11.00000    0.03047
HKLF 4

REM  NH_form in P-1
REM R1 =  0.0571 for    3730 Fo > 4sig(Fo)  and  0.1281 for all    6718 data
REM    425 parameters refined using      0 restraints

END

WGHT      0.0443      0.0000

REM Highest difference peak  0.241,  deepest hole -0.285,  1-sigma level  0.058
Q1    1   0.4131  0.4169  0.0185  11.00000  0.05    0.24
Q2    1   0.8198  0.4722  0.5804  11.00000  0.05    0.23
Q3    1   0.5797  0.5981  0.4094  11.00000  0.05    0.22
Q4    1   0.7419  0.3808  0.2811  11.00000  0.05    0.22
Q5    1   1.0978  0.0555  0.6703  11.00000  0.05    0.22
Q6    1   0.8423  0.4376  0.6560  11.00000  0.05    0.22
Q7    1   0.7960  0.2367  0.7170  11.00000  0.05    0.21
Q8    1   0.9253  0.4562  0.6492  11.00000  0.05    0.21
Q9    1   0.9950  0.2757  0.7101  11.00000  0.05    0.21
Q10   1   1.2982  0.7250  1.1840  11.00000  0.05    0.21
Q11   1   0.7385  0.2158  0.3850  11.00000  0.05    0.21
Q12   1   1.2032  0.2588  0.8443  11.00000  0.05    0.21
Q13   1   1.2013  0.0522  0.7500  11.00000  0.05    0.21
Q14   1   1.1728  0.1709  0.7549  11.00000  0.05    0.21
Q15   1   0.3756  0.5391  0.0965  11.00000  0.05    0.21
Q16   1   0.8233  0.0982  0.5297  11.00000  0.05    0.21
Q17   1   0.8139  0.3261  0.5187  11.00000  0.05    0.20
Q18   1   0.8875  0.3598  0.5000  11.00000  0.05    0.20
Q19   1   0.9395  0.6380  0.7606  11.00000  0.05    0.20
Q20   1   0.8654  0.7984  0.7645  11.00000  0.05    0.20
;
_shelx_res_checksum              49401
_shelx_hkl_file
;
   1   0   0  144.18    1.57
   2   0   0   20.36    0.64
   3   0   0   72.01    1.34
   4   0   0   22.45    0.89
   5   0   0   -0.51    0.32
   5   0   0    0.21    0.39
   6   0   0    4.94    0.68
   6   0   0    4.64    0.67
   7   0   0    3.72    0.71
   7   0   0    2.79    0.68
   8   0   0   14.96    1.15
   8   0   0   15.15    1.11
   9   0   0    0.57    0.68
   9   0   0   -0.12    0.60
  10   0   0   -0.16    0.71
  10   0   0    0.04    0.69
  11   0   0    0.62    0.80
  11  -1   0    2.22    0.93
  10  -1   0   -1.49    0.63
  10  -1   0   -0.08    0.68
   9  -1   0    4.28    0.88
   9  -1   0    4.55    0.87
   8  -1   0    3.00    0.70
   8  -1   0    1.54    0.71
   7  -1   0    0.85    0.57
   7  -1   0    2.25    0.61
   6  -1   0    0.22    0.43
   6  -1   0    0.52    0.42
   5  -1   0    2.40    0.51
   5  -1   0    1.90    0.47
   4  -1   0   24.36    0.91
   4  -1   0   22.71    0.91
   3  -1   0   36.66    0.96
   3  -1   0   35.84    0.95
   2  -1   0  288.66    3.22
   2  -1   0  288.63    3.21
   1  -1   0   15.04    0.35
   1  -1   0   15.07    0.41
   0  -1   0  111.12    1.21
   1   1   0   16.85    0.43
   2   1   0  115.22    1.60
   3   1   0   33.67    0.92
   4   1   0   -0.40    0.35
   5   1   0    0.04    0.38
   6   1   0   -0.18    0.40
   7   1   0   16.94    1.11
   7   1   0   16.64    1.06
   8   1   0   -0.85    0.58
   8   1   0   -0.31    0.55
   9   1   0    8.62    1.16
   9   1   0    7.17    1.02
  10   1   0    1.54    0.84
  10   1   0    0.55    0.77
  11   1   0    0.90    0.85
  11   1   0    0.77    0.88
  11  -2   0   -0.92    0.67
  10  -2   0    3.86    0.92
   9  -2   0    1.65    0.78
   9  -2   0    2.57    0.80
   8  -2   0    4.03    0.74
   8  -2   0    2.49    0.73
   7  -2   0    3.74    0.72
   7  -2   0    3.32    0.65
   6  -2   0   15.52    0.97
   6  -2   0   15.26    0.92
   5  -2   0   -0.12    0.39
   5  -2   0    0.44    0.36
   4  -2   0    0.80    0.37
   4  -2   0    0.66    0.40
   3  -2   0   30.07    0.92
   3  -2   0   29.20    0.83
   2  -2   0   15.36    0.68
   2  -2   0   14.77    0.54
   1  -2   0   36.79    0.79
   1  -2   0   37.73    0.62
   0  -2   0   52.27    0.85
   0   2   0   53.29    0.68
  -1  -2   0    3.37    0.34
   2   2   0   86.19    1.39
   3   2   0   82.74    1.49
   4   2   0  128.90    2.15
   5   2   0   10.85    0.76
   6   2   0   -0.43    0.39
   7   2   0   10.51    0.97
   8   2   0    4.04    0.89
   8   2   0    4.33    0.80
   9   2   0    2.64    0.87
   9   2   0    3.66    0.83
  10   2   0    2.85    0.96
  10   2   0    3.15    0.87
  11   2   0    3.00    1.01
  11   2   0    2.12    0.90
  11  -3   0    1.76    0.91
  10  -3   0    3.05    0.86
   9  -3   0    0.52    0.65
   8  -3   0    0.92    0.59
   8  -3   0   -0.68    0.46
   7  -3   0   -0.35    0.48
   7  -3   0    0.71    0.49
   6  -3   0   41.10    1.28
   6  -3   0   41.52    1.42
   5  -3   0    7.85    0.63
   5  -3   0    8.17    0.75
   4  -3   0   59.15    1.47
   4  -3   0   60.93    1.29
   3  -3   0    3.82    0.47
   3  -3   0    3.26    0.38
   2  -3   0   13.38    0.51
   2  -3   0   14.78    0.71
   1  -3   0   12.42    0.48
   1  -3   0   11.35    0.58
  -1   3   0   11.27    0.48
   0  -3   0   18.04    0.72
   0   3   0   17.29    0.46
  -1  -3   0   63.54    1.17
   2   3   0   47.14    1.04
   3   3   0   70.94    1.44
   4   3   0   21.70    0.91
   5   3   0    3.04    0.53
   6   3   0    2.56    0.54
   7   3   0    1.56    0.59
   8   3   0   -0.02    0.54
   9   3   0    3.46    0.90
   9   3   0    1.77    0.75
  10   3   0    0.96    0.79
  10   3   0    4.23    1.02
  10  -4   0    4.17    0.96
   9  -4   0    7.70    1.05
   8  -4   0    6.24    0.93
   7  -4   0    0.61    0.49
   7  -4   0    0.90    0.61
   6  -4   0    7.55    0.70
   6  -4   0    8.44    0.86
   5  -4   0    0.60    0.45
   5  -4   0    0.91    0.36
   4  -4   0   40.89    1.27
   4  -4   0   39.58    1.00
   3  -4   0    0.97    0.28
   3  -4   0    0.80    0.40
   2  -4   0   -0.28    0.29
   2  -4   0    0.22    0.25
   1  -4   0   86.20    1.56
   1  -4   0   85.64    1.31
  -1   4   0   86.47    1.24
   0  -4   0    2.60    0.43
   0   4   0    2.58    0.26
  -1  -4   0   11.58    0.69
   2   4   0   -0.36    0.28
   3   4   0    0.63    0.38
   4   4   0    2.71    0.51
   5   4   0    5.85    0.68
   6   4   0   14.86    0.95
   7   4   0    0.26    0.53
   8   4   0    0.37    0.56
   9   4   0    0.45    0.66
  10   4   0   -0.42    0.67
  10   4   0    1.55    0.94
  10  -5   0    0.90    0.78
   9  -5   0    1.01    0.70
   8  -5   0    0.81    0.65
   7  -5   0    1.64    0.64
   6  -5   0   10.29    0.74
   6  -5   0    9.46    0.90
   5  -5   0    2.84    0.45
   5  -5   0    2.02    0.55
   4  -5   0    5.65    0.65
   4  -5   0    5.49    0.55
   3  -5   0   20.79    0.92
   2  -5   0    7.79    0.68
   2  -5   0    7.09    0.51
   1  -5   0    0.20    0.27
   1  -5   0    0.38    0.37
  -1   5   0    0.42    0.23
   0  -5   0   96.93    1.77
   0   5   0   93.76    1.32
  -1  -5   0   27.81    1.00
  -2  -5   0    0.16    0.38
   3   5   0    2.75    0.49
   4   5   0   21.17    0.97
   5   5   0    6.30    0.69
   6   5   0    3.13    0.64
   7   5   0    0.63    0.55
   8   5   0    4.57    0.84
   9   5   0    0.61    0.67
  10   5   0   -0.15    0.70
  10   5   0   -1.10    0.75
  10  -6   0   -0.18    0.72
   9  -6   0    0.89    0.72
   8  -6   0    3.92    0.84
   7  -6   0    0.29    0.57
   6  -6   0    1.29    0.54
   5  -6   0    0.00    0.38
   5  -6   0    0.33    0.46
   4  -6   0    0.14    0.32
   4  -6   0   -0.27    0.41
   3  -6   0   19.02    1.00
   3  -6   0   17.77    0.74
   2  -6   0   11.32    0.85
   2  -6   0    8.42    0.64
  -2   6   0   12.39    0.62
   1  -6   0    0.50    0.32
   1  -6   0    0.57    0.40
  -1   6   0    0.41    0.26
   0  -6   0   40.00    1.25
   0   6   0   40.06    0.87
  -1  -6   0    5.86    0.64
  -2  -6   0    0.67    0.40
   3   6   0   -0.09    0.39
   4   6   0    5.89    0.69
   5   6   0    0.28    0.45
   6   6   0   -0.25    0.46
   7   6   0    0.18    0.52
   8   6   0   11.04    1.13
   9   6   0    2.04    0.78
  10   6   0    0.53    0.95
  10   6   0    0.17    0.70
  10  -7   0    1.05    0.79
   9  -7   0    1.38    0.74
   8  -7   0   -0.24    0.60
   7  -7   0    2.16    0.71
   6  -7   0    9.95    0.96
   5  -7   0    2.45    0.64
   4  -7   0   14.85    0.95
   4  -7   0   12.72    0.76
   3  -7   0   29.24    0.88
   3  -7   0   26.57    1.15
   2  -7   0    8.03    0.55
   2  -7   0    7.67    0.75
  -2   7   0    8.31    0.57
   1  -7   0    3.04    0.58
  -1   7   0    2.92    0.36
   0  -7   0   24.73    1.12
   0   7   0   26.75    0.76
  -1  -7   0    4.01    0.61
  -2  -7   0   10.92    0.89
   3   7   0    7.83    0.77
   4   7   0    0.93    0.50
   5   7   0   -0.22    0.47
   6   7   0   -0.10    0.52
   7   7   0    0.18    0.57
   8   7   0    0.32    0.63
   9   7   0    0.83    0.70
   9  -8   0    0.51    0.68
   8  -8   0    0.00    0.60
   7  -8   0    2.54    0.78
   6  -8   0    7.07    0.96
   5  -8   0   19.66    1.23
   4  -8   0    0.83    0.57
   3  -8   0    0.04    0.31
   3  -8   0   -0.48    0.45
   2  -8   0    3.62    0.69
   2  -8   0    3.62    0.47
  -2   8   0    4.31    0.47
   1  -8   0    7.44    0.78
  -1   8   0    7.48    0.54
   0  -8   0    4.19    0.64
   0   8   0    4.59    0.43
  -1  -8   0   -0.13    0.42
   1   8   0    1.19    0.29
  -2  -8   0    0.34    0.47
   3   8   0    7.01    0.77
   4   8   0    8.11    0.86
   5   8   0    2.91    0.64
   6   8   0    0.90    0.63
   7   8   0   10.52    1.10
   8   8   0    0.35    0.64
   9   8   0    3.17    0.88
   9  -9   0   -0.08    0.76
   8  -9   0    1.78    0.81
   7  -9   0   -0.10    0.57
   6  -9   0    2.45    0.77
   5  -9   0    0.41    0.61
   4  -9   0   19.45    1.20
   3  -9   0   21.05    1.26
   2  -9   0    2.53    0.65
  -2   9   0    1.80    0.39
   1  -9   0    7.34    0.84
  -1   9   0    6.25    0.51
   0  -9   0    0.50    0.46
   0   9   0    0.37    0.30
  -1  -9   0   -0.05    0.48
   1   9   0    0.63    0.30
  -2  -9   0    2.17    0.64
   4   9   0   11.53    1.05
   5   9   0    2.16    0.68
   6   9   0    2.38    0.69
   7   9   0    1.62    0.72
   8   9   0   -0.16    0.63
   9   9   0    0.43    0.75
   8 -10   0    0.48    0.72
   7 -10   0   -0.02    0.67
   6 -10   0   20.46    1.40
   5 -10   0    4.00    0.85
   4 -10   0    0.36    0.63
   3 -10   0   55.20    1.95
   2 -10   0    1.43    0.64
   1 -10   0   34.44    1.50
   0 -10   0    0.51    0.57
  -1 -10   0    5.69    0.83
  -2 -10   0    0.85    0.61
  -3 -10   0    0.79    0.64
   4  10   0    3.50    0.78
   5  10   0    0.04    0.58
   6  10   0    0.06    0.64
   7  10   0    0.72    0.67
   8  10   0    1.20    0.76
   8 -11   0    9.40    1.26
   7 -11   0    3.45    0.95
   6 -11   0    3.67    0.92
   5 -11   0    1.21    0.74
   4 -11   0    0.04    0.68
   3 -11   0    1.78    0.66
   2 -11   0    4.63    0.82
   1 -11   0   19.58    1.31
   0 -11   0    0.56    0.63
  -1 -11   0    7.58    0.94
  -2 -11   0    9.67    1.04
  -3 -11   0   43.55    1.75
   4  11   0    2.14    0.71
   5  11   0    0.43    0.63
   6  11   0    1.66    0.76
   7  11   0   -0.32    0.62
   7 -12   0    0.82    0.80
   6 -12   0    0.96    0.79
   5 -12   0    2.37    0.87
   4 -12   0    4.71    0.96
   3 -12   0    0.44    0.59
   2 -12   0    1.99    0.79
   0 -12   0   -0.30    0.63
  -1 -12   0    7.16    1.02
  -2 -12   0    0.74    0.59
  -3 -12   0    1.16    0.71
   4  12   0   -0.55    0.57
   5  12   0   -0.80    0.58
   6  12   0   -0.07    0.66
   7  12   0    0.95    0.81
   6 -13   0    0.08    0.73
   5 -13   0    1.38    0.82
   4 -13   0   -0.43    0.70
   3 -13   0   -0.25    0.66
   2 -13   0    0.81    0.77
   1 -13   0    4.62    0.95
   0 -13   0    0.50    0.67
  -1 -13   0    2.07    0.80
  -2 -13   0    0.64    0.72
  -3 -13   0   -1.14    0.67
   4  13   0    0.17    0.65
   5  13   0    0.74    0.73
   6  13   0    2.31    0.85
   5 -14   0   -0.88    0.71
   4 -14   0    0.13    0.66
   3 -14   0   -0.53    0.71
   2 -14   0    1.02    0.85
   1 -14   0   -0.22    0.71
   0 -14   0   -0.45    0.71
  -1 -14   0   -0.56    0.63
  -2 -14   0    1.32    0.76
   4  14   0    3.21    0.92
   5  14   0    0.94    0.80
   4 -15   0    1.08    0.83
   3 -15   0    0.38    0.83
   2 -15   0    0.03    0.72
   1 -15   0    1.34    0.92
   0 -15   0   -0.01    0.80
  -1 -15   0    0.47    0.86
  -2 -15   0   -0.16    0.79
   1 -16   0    0.72    0.88
   0 -16   0   -0.21    0.73
  -1 -16   0    0.35    0.87
  -1 -16   1    1.73    0.97
   0 -16   1    0.35    0.84
   1 -16   1   -0.30    0.83
   4  15  -1    0.79    0.78
  -2 -15   1    0.08    0.70
  -1 -15   1    0.52    0.76
   0 -15   1    2.83    0.97
   1 -15   1    2.18    0.95
   2 -15   1    1.09    0.81
   3 -15   1    4.65    1.07
   4 -15   1   -0.12    0.81
   5  14  -1    0.95    0.85
   4  14  -1    0.96    0.82
  -2 -14   1    0.21    0.76
  -1 -14   1    0.36    0.73
   0 -14   1    1.03    0.74
   1 -14   1   -0.34    0.73
   2 -14   1    5.76    1.06
   3 -14   1   -0.62    0.71
   4 -14   1    2.25    0.84
   5 -14   1   10.62    1.34
   6  13  -1    0.29    0.75
   5  13  -1    0.49    0.75
   4  13  -1    0.79    0.73
  -3 -13   1    1.98    0.89
  -2 -13   1    0.24    0.69
  -1 -13   1    0.40    0.66
   0 -13   1    9.92    1.14
   1 -13   1   12.69    1.29
   2 -13   1    5.16    0.96
   3 -13   1    0.68    0.73
   4 -13   1   -0.21    0.65
   5 -13   1    2.52    0.85
   6 -13   1    2.24    0.87
   7  12  -1    2.27    0.95
   6  12  -1    1.97    0.87
   5  12  -1    5.94    0.99
   4  12  -1    1.95    0.76
  -3 -12   1    4.65    0.91
  -2 -12   1    0.76    0.72
  -1 -12   1   19.25    1.26
   0 -12   1    0.19    0.66
   1 -12   1    0.72    0.68
   2 -12   1    2.39    0.74
   3 -12   1    9.12    1.09
   4 -12   1    0.66    0.65
   5 -12   1    0.51    0.74
   6 -12   1    0.18    0.79
   7 -12   1    1.41    0.85
   8  11  -1    3.73    0.97
   7  11  -1   -0.60    0.64
   6  11  -1    0.90    0.73
   5  11  -1    1.12    0.70
   4  11  -1   13.38    1.27
  -3 -11   1    8.09    1.02
  -2 -11   1   18.99    1.27
  -1 -11   1   29.23    1.42
   0 -11   1   -0.38    0.56
   1 -11   1    3.47    0.81
   2 -11   1    1.70    0.65
   3 -11   1    0.42    0.57
   4 -11   1   21.24    1.43
   5 -11   1    3.70    0.86
   6 -11   1   -0.17    0.69
   7 -11   1    0.33    0.76
   8 -11   1    3.04    0.96
   8  10  -1    1.05    0.78
   7  10  -1    0.51    0.70
   6  10  -1    1.19    0.69
   5  10  -1    5.46    0.92
   4  10  -1   -0.15    0.56
  -3 -10   1    1.66    0.70
  -2 -10   1    0.34    0.51
  -1 -10   1    6.15    0.83
   0 -10   1   14.40    1.09
   1 -10   1   12.03    1.07
   2 -10   1    5.79    0.87
   2 -10   1    5.31    0.65
   3 -10   1    1.02    0.65
   4 -10   1    7.16    0.96
   5 -10   1    7.02    1.02
   6 -10   1    3.99    0.89
   7 -10   1    3.75    0.89
   8 -10   1   -0.30    0.66
   9   9  -1    3.55    0.94
   8   9  -1   -0.34    0.63
   7   9  -1    8.21    1.09
   6   9  -1    5.74    0.93
   5   9  -1    0.29    0.60
   4   9  -1   21.10    1.25
  -2  -9   1    0.99    0.56
  -1  -9   1   24.72    1.19
   0  -9   1    1.33    0.57
   1  -9   1    2.07    0.61
   1  -9   1    1.14    0.43
   2  -9   1   32.74    1.40
   2  -9   1   29.23    1.09
   3  -9   1    2.14    0.61
   3  -9   1    2.21    0.50
   4  -9   1    0.26    0.60
   5  -9   1    0.48    0.56
   6  -9   1    0.31    0.64
   7  -9   1    2.54    0.81
   8  -9   1   -0.61    0.70
   9  -9   1    1.43    0.84
   9   8  -1   -0.23    0.65
   8   8  -1    0.85    0.71
   7   8  -1   13.07    1.21
   6   8  -1   -0.38    0.56
   5   8  -1    3.83    0.72
   4   8  -1    7.72    0.87
   3   8  -1    0.28    0.44
  -2  -8   1    0.05    0.45
   1   8  -1    4.93    0.39
  -1  -8   1    3.79    0.61
   0   8  -1    7.03    0.46
   0  -8   1    6.71    0.74
  -1   8  -1   20.69    0.65
   1  -8   1   22.13    1.09
   1  -8   1   20.20    0.91
   2  -8   1    0.93    0.38
   2  -8   1    1.78    0.56
   3  -8   1    4.24    0.72
   3  -8   1    3.49    0.49
   4  -8   1    2.64    0.67
   4  -8   1    1.15    0.45
   5  -8   1   13.02    1.15
   6  -8   1   -0.56    0.57
   7  -8   1    1.77    0.73
   8  -8   1    0.72    0.70
   9  -8   1    2.31    0.82
  10   7  -1   -0.18    0.71
   9   7  -1   -0.16    0.69
   8   7  -1    5.28    0.93
   7   7  -1   -0.02    0.59
   6   7  -1    9.44    0.99
   5   7  -1   19.90    1.14
   4   7  -1    0.43    0.43
   3   7  -1    0.70    0.43
  -2  -7   1   -0.17    0.42
  -1  -7   1   11.14    0.87
   0   7  -1   20.27    0.58
   0  -7   1   20.30    0.97
  -1   7  -1    3.32    0.34
   1  -7   1    2.81    0.47
   1  -7   1    3.55    0.60
   2  -7   1    9.54    0.68
   2  -7   1   10.84    0.80
   3  -7   1   20.81    0.83
   3  -7   1   18.03    0.99
   4  -7   1    0.48    0.40
   4  -7   1    0.05    0.48
   5  -7   1   15.58    0.86
   5  -7   1   16.20    1.11
   6  -7   1    0.89    0.58
   7  -7   1   -0.39    0.54
   8  -7   1    2.14    0.75
   9  -7   1    1.40    0.78
  10  -7   1   11.76    1.35
  10   6  -1   -0.76    0.66
   9   6  -1   -0.36    0.59
   8   6  -1    6.62    0.94
   7   6  -1    1.22    0.66
   6   6  -1    0.18    0.52
   5   6  -1    0.66    0.47
   4   6  -1   -0.19    0.40
   3   6  -1    0.19    0.43
  -2  -6   1   22.55    0.97
  -1  -6   1   -0.48    0.39
   0   6  -1    5.27    0.38
   0  -6   1    6.35    0.66
   0  -6   1    5.15    0.52
  -1   6  -1    1.29    0.26
   1  -6   1    1.37    0.36
   1  -6   1    0.87    0.43
   2  -6   1    4.80    0.60
   2  -6   1    2.33    0.54
   3  -6   1   19.47    0.91
   3  -6   1   20.42    1.03
   4  -6   1    6.10    0.58
   4  -6   1    4.92    0.66
   5  -6   1   -0.48    0.44
   5  -6   1    0.00    0.45
   6  -6   1    5.80    0.73
   6  -6   1    5.30    0.78
   7  -6   1    0.74    0.61
   8  -6   1    2.63    0.78
   9  -6   1    0.62    0.70
  10  -6   1    0.82    0.74
  10   5  -1    5.12    1.01
   9   5  -1    0.42    0.61
   8   5  -1    1.04    0.64
   7   5  -1    3.70    0.69
   6   5  -1    1.94    0.58
   5   5  -1   14.04    0.90
   4   5  -1   26.78    1.09
   3   5  -1    1.03    0.40
  -2  -5   1    8.55    0.70
  -1  -5   1   11.50    0.76
   0   5  -1   62.53    0.90
   0  -5   1   63.50    1.40
   0  -5   1   63.85    1.29
   1  -5   1    7.95    0.54
   1  -5   1    7.75    0.66
   2  -5   1    5.83    0.59
   2  -5   1    5.56    0.51
   3  -5   1   17.87    0.88
   4  -5   1    0.73    0.44
   4  -5   1    0.70    0.35
   5  -5   1    4.01    0.60
   5  -5   1    4.45    0.56
   6  -5   1   -0.06    0.42
   6  -5   1    0.06    0.49
   7  -5   1    2.50    0.65
   7  -5   1    0.45    0.54
   8  -5   1    0.12    0.61
   9  -5   1   -1.00    0.59
  10  -5   1    1.18    0.75
  10   4  -1    2.92    0.97
  10   4  -1    2.32    0.87
   9   4  -1    0.79    0.69
   8   4  -1   -0.67    0.51
   7   4  -1    0.61    0.58
   6   4  -1    1.22    0.48
   5   4  -1    6.30    0.70
   4   4  -1    0.58    0.42
   3   4  -1   14.15    0.77
   2   4  -1    0.00    0.30
  -1  -4   1   50.85    1.18
   0   4  -1   14.92    0.38
   0  -4   1   15.80    0.74
   0  -4   1   15.57    0.64
   1  -4   1    4.20    0.46
   1  -4   1    4.81    0.41
   2  -4   1   75.05    1.33
   2  -4   1   75.88    1.52
   3  -4   1   16.56    0.68
   3  -4   1   16.34    0.84
   4  -4   1   16.69    0.80
   4  -4   1   17.43    0.86
   5  -4   1    0.05    0.40
   5  -4   1    0.44    0.36
   6  -4   1    1.37    0.47
   6  -4   1    1.23    0.51
   7  -4   1    0.14    0.49
   7  -4   1    0.33    0.48
   8  -4   1    1.37    0.63
   8  -4   1    1.77    0.68
   9  -4   1    5.95    0.97
  10  -4   1    1.39    0.82
  11   3  -1    1.13    0.83
  11   3  -1   -0.33    0.84
  10   3  -1    4.69    0.97
  10   3  -1    6.36    1.19
   9   3  -1   -0.18    0.61
   8   3  -1    2.56    0.74
   7   3  -1    0.88    0.54
   6   3  -1   -0.22    0.44
   5   3  -1    3.02    0.56
   4   3  -1   32.54    1.05
   3   3  -1    8.39    0.63
   2   3  -1   -0.07    0.31
  -1  -3   1   32.42    0.84
   0  -3   1    0.13    0.29
   0  -3   1    0.04    0.32
   1  -3   1    6.87    0.52
   1  -3   1    7.63    0.49
   2  -3   1    7.20    0.53
   2  -3   1    8.04    0.48
   3  -3   1   30.97    0.89
   3  -3   1   31.20    0.99
   4  -3   1   13.51    0.82
   4  -3   1   13.73    0.74
   5  -3   1    1.64    0.48
   5  -3   1    1.60    0.43
   6  -3   1    0.83    0.47
   6  -3   1   -0.17    0.42
   7  -3   1    2.91    0.64
   7  -3   1    2.23    0.65
   8  -3   1    0.87    0.63
   8  -3   1    1.18    0.61
   9  -3   1    1.12    0.70
  10  -3   1    1.54    0.80
  11   2  -1    2.36    0.97
  11   2  -1    2.86    1.04
  10   2  -1    0.24    0.71
  10   2  -1    0.46    0.80
   9   2  -1    1.49    0.76
   9   2  -1    1.67    0.79
   8   2  -1    5.53    0.87
   7   2  -1    3.83    0.72
   6   2  -1   10.82    0.89
   5   2  -1    7.36    0.74
   4   2  -1    5.72    0.57
   3   2  -1    3.39    0.45
   2   2  -1   16.64    0.68
  -1  -2   1   17.32    0.60
   0  -2   1   29.93    0.65
   0  -2   1   29.93    0.68
   1  -2   1    1.34    0.27
   1  -2   1    1.64    0.31
   2  -2   1    3.82    0.41
   2  -2   1    3.58    0.40
   3  -2   1    5.16    0.50
   3  -2   1    5.05    0.48
   4  -2   1   16.29    0.83
   4  -2   1   17.27    0.83
   5  -2   1    0.39    0.39
   5  -2   1    0.47    0.41
   6  -2   1    0.84    0.47
   6  -2   1    0.88    0.51
   7  -2   1    0.41    0.54
   7  -2   1    1.10    0.54
   8  -2   1    0.53    0.62
   8  -2   1   -0.57    0.55
   9  -2   1    2.86    0.81
   9  -2   1    2.38    0.82
  10  -2   1    4.87    0.96
  11   1  -1    1.85    0.91
  11   1  -1    2.28    0.94
  10   1  -1    0.31    0.71
  10   1  -1   -0.19    0.74
   9   1  -1    0.59    0.66
   9   1  -1    0.89    0.73
   8   1  -1    5.46    0.88
   8   1  -1    4.38    0.84
   7   1  -1    0.33    0.51
   6   1  -1    0.73    0.48
   5   1  -1    6.65    0.66
   4   1  -1   25.57    0.95
   3   1  -1    9.16    0.56
   2   1  -1   32.86    0.84
   1   1  -1   69.31    0.97
   0  -1   1   -0.56    0.11
   0  -1   1   -0.51    0.11
   1  -1   1    0.25    0.20
   1  -1   1    0.36    0.18
   2  -1   1   40.67    0.96
   2  -1   1   42.92    0.88
   3  -1   1   52.97    1.14
   3  -1   1   52.79    1.17
   4  -1   1    3.35    0.50
   4  -1   1    2.60    0.46
   5  -1   1   10.27    0.74
   5  -1   1   10.71    0.79
   6  -1   1    3.30    0.60
   6  -1   1    4.34    0.63
   7  -1   1   16.53    1.10
   7  -1   1   14.61    1.04
   8  -1   1    4.62    0.81
   8  -1   1    4.32    0.85
   9  -1   1   -0.52    0.64
   9  -1   1   -0.57    0.62
  10  -1   1    3.58    0.93
  10  -1   1    4.93    1.01
  11   0  -1    1.66    0.85
  10   0  -1    3.23    0.89
  10   0  -1    3.58    0.89
   9   0  -1    6.00    0.95
   9   0  -1    4.48    0.85
   8   0  -1    2.68    0.75
   8   0  -1    2.59    0.72
   7   0  -1    1.61    0.58
   7   0  -1   -0.19    0.46
   6   0  -1    0.45    0.47
   5   0  -1    0.39    0.43
   4   0  -1   20.85    0.84
   3   0  -1   28.39    0.83
   2   0  -1   96.39    1.43
   1   0  -1    3.83    0.27
  -1   0   1    3.96    0.25
   0   0   1    5.55    0.19
   1   0   1   19.08    0.51
   1   0   1   18.14    0.39
   2   0   1   48.29    0.89
   2   0   1   47.50    1.06
   3   0   1   19.04    0.69
   3   0   1   18.21    0.77
   4   0   1    7.12    0.65
   4   0   1    7.08    0.60
   5   0   1   10.26    0.83
   5   0   1   10.12    0.72
   6   0   1    2.46    0.54
   6   0   1    3.65    0.63
   7   0   1   35.00    1.46
   7   0   1   30.61    1.34
   8   0   1    2.12    0.69
   8   0   1    2.50    0.74
   9   0   1    3.48    0.85
   9   0   1    3.89    0.85
  10   0   1    1.42    0.81
  10   0   1    1.45    0.76
  11  -1  -1   -0.14    0.76
  10  -1  -1    0.17    0.74
   9  -1  -1    1.10    0.64
   9  -1  -1    1.47    0.72
   8  -1  -1    2.15    0.64
   8  -1  -1    3.19    0.73
   7  -1  -1    4.75    0.77
   7  -1  -1    4.98    0.73
   6  -1  -1    0.27    0.47
   6  -1  -1    0.13    0.41
   5  -1  -1   22.39    0.98
   5  -1  -1   19.05    0.87
   4  -1  -1   15.63    0.77
   3  -1  -1   63.24    1.30
   2  -1  -1   95.60    1.43
   1  -1  -1  134.93    1.58
  -1   1   1  134.63    1.57
   0  -1  -1   39.60    0.56
   1   1   1   17.42    0.43
   2   1   1    0.16    0.25
   3   1   1    4.42    0.43
   4   1   1   29.68    0.95
   5   1   1   12.77    0.85
   5   1   1   11.98    0.75
   6   1   1   12.58    1.01
   6   1   1   10.93    0.81
   7   1   1   54.07    1.69
   7   1   1   51.79    1.86
   8   1   1    1.98    0.71
   8   1   1    3.05    0.71
   9   1   1    1.48    0.79
   9   1   1    0.68    0.68
  10   1   1    0.76    0.74
  10   1   1    1.00    0.83
  11  -2  -1    1.09    0.84
  10  -2  -1   -0.52    0.71
   9  -2  -1    0.34    0.67
   8  -2  -1    0.11    0.59
   8  -2  -1    0.17    0.51
   7  -2  -1    2.77    0.69
   7  -2  -1    4.37    0.64
   6  -2  -1    1.19    0.46
   6  -2  -1    1.59    0.53
   5  -2  -1    4.82    0.53
   5  -2  -1    4.86    0.63
   4  -2  -1   65.21    1.29
   4  -2  -1   66.23    1.48
   3  -2  -1   61.37    1.32
   3  -2  -1   60.55    1.05
   2  -2  -1    9.36    0.37
   2  -2  -1    9.58    0.56
   1  -2  -1    8.68    0.49
  -1   2   1    9.15    0.41
   0  -2  -1   57.29    0.92
  -1  -2  -1  129.08    1.63
   2   2   1    8.80    0.49
   3   2   1   11.64    0.59
   4   2   1   17.45    0.79
   5   2   1    0.19    0.37
   6   2   1   -0.45    0.38
   7   2   1    1.31    0.58
   7   2   1    0.95    0.65
   8   2   1    2.37    0.83
   8   2   1    0.85    0.62
   9   2   1   -0.22    0.70
   9   2   1    0.09    0.63
  10   2   1    0.85    0.75
  10   2   1   -0.60    0.67
  11  -3  -1    3.62    0.99
  10  -3  -1    3.24    0.88
   9  -3  -1   -0.10    0.58
   8  -3  -1    6.56    0.90
   7  -3  -1   -0.03    0.52
   7  -3  -1   -0.34    0.43
   6  -3  -1   -0.09    0.45
   6  -3  -1    0.30    0.37
   5  -3  -1   13.13    0.70
   5  -3  -1   14.26    0.84
   4  -3  -1   26.16    0.79
   4  -3  -1   24.83    0.97
   3  -3  -1    0.25    0.33
   3  -3  -1    0.51    0.23
   2  -3  -1   49.26    1.09
   2  -3  -1   48.96    0.74
  -2   3   1   50.65    1.01
   1  -3  -1   90.53    1.46
  -1   3   1   94.85    1.35
   0  -3  -1   14.10    0.65
  -1  -3  -1   15.06    0.65
   2   3   1   30.46    0.83
   3   3   1    1.33    0.37
   4   3   1   -0.20    0.32
   5   3   1    1.59    0.45
   6   3   1    0.72    0.46
   7   3   1    5.18    0.75
   8   3   1    3.02    0.73
   8   3   1    4.36    0.91
   9   3   1    3.49    0.93
   9   3   1    2.84    0.80
  10   3   1    9.76    1.19
  10   3   1    7.08    1.27
  11  -4  -1    0.54    0.79
  10  -4  -1    0.99    0.78
   9  -4  -1   -0.56    0.61
   8  -4  -1    0.09    0.62
   7  -4  -1    0.73    0.58
   6  -4  -1    0.41    0.49
   6  -4  -1    0.30    0.35
   5  -4  -1   25.19    0.83
   5  -4  -1   25.59    1.08
   4  -4  -1    0.76    0.28
   4  -4  -1   -0.11    0.35
   3  -4  -1    0.01    0.22
   3  -4  -1   -0.21    0.32
   2  -4  -1   16.27    0.74
   2  -4  -1   17.26    0.48
  -2   4   1   16.95    0.66
   1  -4  -1    4.25    0.50
  -1   4   1    4.95    0.39
   0  -4  -1    2.20    0.39
   0   4   1    2.17    0.28
  -1  -4  -1    0.05    0.32
   2   4   1    0.38    0.32
   3   4   1  130.48    2.13
   4   4   1    0.25    0.34
   5   4   1    5.47    0.64
   6   4   1   14.95    0.94
   7   4   1    0.37    0.53
   8   4   1    0.68    0.77
   8   4   1    2.55    0.71
   9   4   1    2.19    0.92
   9   4   1    1.44    0.72
  10   4   1    1.70    0.76
  10   4   1   -0.68    0.70
  10  -5  -1    0.19    0.74
   9  -5  -1   -0.39    0.66
   8  -5  -1   -0.17    0.54
   7  -5  -1    0.73    0.59
   6  -5  -1    7.82    0.84
   5  -5  -1    2.92    0.41
   5  -5  -1    2.47    0.56
   4  -5  -1    3.28    0.56
   4  -5  -1    4.03    0.44
   3  -5  -1    1.66    0.47
   2  -5  -1    4.26    0.53
   2  -5  -1    4.85    0.35
  -2   5   1    4.23    0.42
   1  -5  -1    2.66    0.47
  -1   5   1    1.77    0.32
   0  -5  -1    1.40    0.39
   0   5   1    1.84    0.30
  -1  -5  -1    4.98    0.55
  -2  -5  -1    2.47    0.48
   3   5   1    4.37    0.53
   4   5   1   13.53    0.80
   5   5   1    7.81    0.74
   6   5   1    2.41    0.60
   7   5   1    0.58    0.54
   8   5   1    5.69    0.91
   9   5   1    0.36    0.67
   9   5   1    1.49    0.85
  10   5   1    5.14    1.21
  10   5   1    4.64    1.01
  10  -6  -1    0.70    0.78
   9  -6  -1   -0.59    0.61
   8  -6  -1    0.45    0.66
   7  -6  -1    7.45    0.94
   6  -6  -1    0.52    0.48
   5  -6  -1    1.03    0.47
   4  -6  -1    3.19    0.59
   4  -6  -1    4.25    0.43
   3  -6  -1   32.40    0.77
   3  -6  -1   29.87    1.15
   2  -6  -1   -0.27    0.42
   2  -6  -1    0.26    0.25
  -2   6   1    0.73    0.35
   1  -6  -1    0.50    0.43
  -1   6   1    0.09    0.26
   0  -6  -1   11.91    0.81
   0   6   1   12.39    0.61
  -1  -6  -1   11.90    0.81
  -2  -6  -1    9.40    0.70
   3   6   1   37.24    1.22
   4   6   1    4.43    0.62
   5   6   1    0.90    0.50
   6   6   1   10.47    0.97
   7   6   1    3.01    0.69
   8   6   1    0.44    0.62
   9   6   1    0.84    0.82
   9   6   1    0.14    0.66
  10  -7  -1    2.80    0.91
   9  -7  -1    1.53    0.76
   8  -7  -1    1.59    0.73
   7  -7  -1    4.98    0.81
   6  -7  -1    0.61    0.56
   5  -7  -1    4.75    0.76
   4  -7  -1    5.41    0.75
   3  -7  -1    1.41    0.54
   3  -7  -1    1.53    0.31
   2  -7  -1    2.61    0.56
  -2   7   1    2.73    0.43
   1  -7  -1   21.94    1.07
  -1   7   1   22.74    0.80
   0  -7  -1    0.37    0.45
   0   7   1    0.58    0.29
  -1  -7  -1    1.67    0.51
  -2  -7  -1    1.75    0.53
   3   7   1   12.01    0.83
   4   7   1    6.67    0.73
   5   7   1    5.97    0.76
   6   7   1    2.63    0.65
   7   7   1    0.67    0.61
   8   7   1    0.43    0.62
   9   7   1    0.23    0.69
  10  -8  -1    0.52    0.78
   9  -8  -1    0.48    0.69
   8  -8  -1    0.58    0.61
   7  -8  -1   -0.03    0.54
   6  -8  -1    3.20    0.75
   5  -8  -1    0.51    0.57
   4  -8  -1   18.09    1.10
   3  -8  -1    3.22    0.67
  -3   8   1    2.13    0.45
   2  -8  -1    7.11    0.81
  -2   8   1    6.42    0.56
   1  -8  -1    0.25    0.46
  -1   8   1    0.28    0.32
   0  -8  -1   19.22    1.04
   0   8   1   19.85    0.78
  -1  -8  -1    3.89    0.62
  -2  -8  -1   13.63    0.95
   3   8   1    0.43    0.44
   4   8   1    1.48    0.55
   5   8   1    7.58    0.90
   6   8   1    2.93    0.73
   7   8   1    0.64    0.61
   8   8   1    3.35    0.83
   9   8   1    2.25    0.83
   9  -9  -1   -0.56    0.69
   8  -9  -1    0.75    0.76
   7  -9  -1    1.80    0.78
   6  -9  -1    5.60    0.92
   5  -9  -1   16.32    1.15
   4  -9  -1   15.46    1.18
   3  -9  -1   29.84    1.42
  -3   9   1   30.83    1.07
   2  -9  -1    5.85    0.82
  -2   9   1    6.88    0.60
   1  -9  -1   10.11    0.91
  -1   9   1   10.81    0.68
   0  -9  -1    0.11    0.42
   0   9   1   -0.23    0.29
  -1  -9  -1   12.70    1.03
   1   9   1   10.14    0.67
  -2  -9  -1   26.50    1.28
   4   9   1    5.82    0.83
   5   9   1   -0.22    0.52
   6   9   1    1.18    0.67
   7   9   1    5.45    0.90
   8   9   1    2.57    0.79
   9 -10  -1    1.87    0.90
   8 -10  -1   -0.36    0.61
   7 -10  -1   -0.75    0.64
   6 -10  -1    0.84    0.70
   5 -10  -1   16.97    1.31
   4 -10  -1    9.37    1.08
   3 -10  -1   23.19    1.32
   2 -10  -1    1.01    0.57
   1 -10  -1   32.04    1.41
   0 -10  -1    0.53    0.54
  -1 -10  -1    0.57    0.57
  -2 -10  -1    5.65    0.86
   4  10   1    2.42    0.72
   5  10   1    2.17    0.69
   6  10   1    1.73    0.74
   7  10   1    1.91    0.75
   8  10   1    5.21    0.98
   8 -11  -1    1.07    0.84
   7 -11  -1   -0.37    0.70
   6 -11  -1    2.40    0.87
   5 -11  -1    0.69    0.70
   4 -11  -1    0.94    0.71
   3 -11  -1   -0.10    0.63
   2 -11  -1    0.76    0.56
   1 -11  -1   30.16    1.55
   0 -11  -1   -0.23    0.56
  -1 -11  -1   21.26    1.31
  -2 -11  -1    0.57    0.63
  -3 -11  -1    2.11    0.76
   4  11   1    0.85    0.65
   5  11   1    1.02    0.65
   6  11   1    1.61    0.73
   7  11   1   -0.24    0.63
   7 -12  -1    1.07    0.83
   6 -12  -1   -0.06    0.76
   5 -12  -1    0.57    0.75
   4 -12  -1    4.47    0.96
   3 -12  -1    2.68    0.84
   2 -12  -1    9.76    1.16
   1 -12  -1   12.13    1.22
   0 -12  -1    1.16    0.74
  -1 -12  -1   15.95    1.17
  -2 -12  -1    0.86    0.67
  -3 -12  -1    0.34    0.68
   4  12   1    0.35    0.59
   5  12   1    4.15    0.89
   6  12   1    7.24    1.06
   7 -13  -1    0.88    0.92
   6 -13  -1   -0.16    0.76
   5 -13  -1    0.25    0.76
   4 -13  -1    6.12    1.06
   3 -13  -1    0.86    0.76
   2 -13  -1    1.56    0.84
   1 -13  -1    0.62    0.71
   0 -13  -1    0.24    0.68
  -1 -13  -1   -0.65    0.68
  -2 -13  -1    0.18    0.71
  -3 -13  -1    2.21    0.85
   4  13   1    0.48    0.69
   5  13   1   -0.05    0.64
   6  13   1    0.33    0.70
   5 -14  -1    1.46    0.86
   4 -14  -1    4.60    1.08
   3 -14  -1    0.66    0.74
   2 -14  -1    0.50    0.81
   1 -14  -1    2.56    0.88
   0 -14  -1    3.18    0.87
  -1 -14  -1    0.43    0.75
  -2 -14  -1    2.12    0.88
   4  14   1    2.72    0.88
   4 -15  -1    0.78    0.89
   3 -15  -1    0.74    0.87
   2 -15  -1    0.44    0.82
   1 -15  -1    0.58    0.80
   0 -15  -1   -0.70    0.77
  -1 -15  -1   -0.22    0.79
  -2 -15  -1    0.56    0.78
   1 -16  -1    0.60    0.83
   0 -16  -1    1.16    0.89
  -1 -16   2    5.08    1.15
   0 -16   2    1.17    0.92
   1 -16   2    1.00    0.89
   4  15  -2    0.61    0.76
  -2 -15   2   -0.61    0.75
  -1 -15   2   -0.47    0.75
   0 -15   2    0.45    0.80
   1 -15   2   -0.14    0.76
   2 -15   2   -0.14    0.73
   3 -15   2    1.09    0.83
   4 -15   2    0.57    0.79
   5  14  -2    1.44    0.79
   4  14  -2    0.32    0.79
  -2 -14   2    0.64    0.75
  -1 -14   2    5.41    1.05
   0 -14   2    0.78    0.76
   1 -14   2   -0.16    0.63
   2 -14   2    1.35    0.77
   3 -14   2    0.51    0.75
   4 -14   2    0.06    0.74
   5 -14   2    1.14    0.85
   6  13  -2   -0.04    0.77
   5  13  -2    1.53    0.83
   4  13  -2    0.69    0.78
  -3 -13   2    4.22    0.97
  -2 -13   2    1.35    0.80
  -1 -13   2    5.28    0.92
   0 -13   2    0.72    0.71
   1 -13   2    0.17    0.62
   2 -13   2    0.80    0.75
   3 -13   2    1.85    0.80
   4 -13   2    1.87    0.85
   5 -13   2    0.35    0.74
   6 -13   2    1.27    0.87
   7  12  -2    0.91    0.83
   6  12  -2    1.09    0.79
   5  12  -2   13.73    1.39
   4  12  -2    2.46    0.85
  -3 -12   2    1.14    0.75
  -2 -12   2    1.58    0.71
  -1 -12   2   35.46    1.62
   0 -12   2    8.45    1.05
   1 -12   2   -0.69    0.57
   2 -12   2    1.50    0.68
   3 -12   2    1.80    0.71
   4 -12   2    4.66    0.97
   5 -12   2    0.27    0.75
   6 -12   2    5.29    1.05
   7 -12   2    1.11    0.84
   8  11  -2    1.36    0.82
   7  11  -2    1.59    0.85
   6  11  -2    7.23    1.11
   5  11  -2    0.21    0.61
   4  11  -2    3.85    0.87
  -3 -11   2    3.23    0.87
  -2 -11   2    1.07    0.68
  -1 -11   2    7.80    0.95
   0 -11   2    0.15    0.59
   1 -11   2   19.29    1.29
   2 -11   2    0.43    0.63
   3 -11   2    1.60    0.73
   4 -11   2    4.47    0.92
   5 -11   2    2.39    0.82
   6 -11   2    2.27    0.84
   7 -11   2    2.83    0.91
   8 -11   2   -0.07    0.77
   8  10  -2    0.61    0.77
   7  10  -2    0.25    0.69
   6  10  -2    1.04    0.73
   5  10  -2   -0.51    0.70
   4  10  -2    1.60    0.71
  -2 -10   2    2.19    0.65
  -1 -10   2    2.68    0.69
   0 -10   2    5.49    0.83
   1 -10   2   20.53    1.11
   1 -10   2   19.01    1.16
   2 -10   2    2.62    0.58
   2 -10   2    3.44    0.69
   3 -10   2    6.01    0.91
   4 -10   2    1.32    0.69
   5 -10   2    0.75    0.68
   6 -10   2    1.26    0.76
   7 -10   2    1.38    0.78
   8 -10   2    1.46    0.81
   9   9  -2    0.78    0.75
   8   9  -2    0.89    0.75
   7   9  -2    3.94    0.89
   6   9  -2    8.37    1.03
   5   9  -2    6.35    0.92
   4   9  -2   11.42    1.06
  -2  -9   2    3.78    0.70
  -1  -9   2    0.79    0.54
   0  -9   2   12.83    0.93
   1  -9   2    3.72    0.60
   1  -9   2    4.57    0.69
   2  -9   2    3.49    0.58
   2  -9   2    3.02    0.67
   3  -9   2    4.96    0.77
   3  -9   2    5.62    0.66
   4  -9   2   42.15    1.69
   5  -9   2    5.39    0.90
   6  -9   2    1.24    0.68
   7  -9   2    6.42    0.96
   8  -9   2   -0.12    0.69
   9  -9   2    1.00    0.84
   9   8  -2    2.90    0.90
   8   8  -2    0.17    0.66
   7   8  -2    7.72    1.02
   6   8  -2   11.51    1.16
   5   8  -2   13.38    1.16
   4   8  -2    1.13    0.58
   3   8  -2    0.72    0.51
  -2  -8   2   27.34    1.24
   1   8  -2   10.19    0.43
  -1  -8   2   10.30    0.89
   0   8  -2    0.00    0.17
   0  -8   2    0.34    0.44
   0  -8   2   -0.51    0.35
   1  -8   2    2.19    0.57
   1  -8   2    2.38    0.50
   2  -8   2    5.09    0.62
   2  -8   2    5.51    0.74
   3  -8   2    1.41    0.51
   3  -8   2    1.86    0.56
   4  -8   2    4.01    0.75
   4  -8   2    4.52    0.68
   5  -8   2    5.37    0.84
   6  -8   2    3.38    0.77
   7  -8   2   -0.36    0.57
   8  -8   2   -0.27    0.64
   9  -8   2   -0.99    0.65
  10   7  -2    2.98    0.93
   9   7  -2    0.63    0.74
   8   7  -2    0.39    0.65
   7   7  -2    2.51    0.75
   6   7  -2    3.74    0.73
   5   7  -2   10.20    0.95
   4   7  -2    4.54    0.66
   3   7  -2    2.23    0.57
  -2  -7   2    5.65    0.70
   1   7  -2   11.36    0.42
  -1  -7   2   12.21    0.82
   0   7  -2   13.93    0.40
   0  -7   2   14.85    0.83
   0  -7   2   13.14    0.81
   1  -7   2    3.28    0.55
   1  -7   2    2.80    0.49
   2  -7   2    7.57    0.66
   2  -7   2    7.52    0.75
   3  -7   2    4.60    0.61
   3  -7   2    4.12    0.64
   4  -7   2    2.55    0.61
   4  -7   2    2.71    0.63
   5  -7   2    1.64    0.53
   5  -7   2    3.21    0.70
   6  -7   2    0.19    0.55
   7  -7   2   13.95    1.21
   8  -7   2    4.94    0.90
   9  -7   2    0.06    0.67
  10   6  -2    0.92    0.77
   9   6  -2   -0.08    0.68
   8   6  -2    0.96    0.67
   7   6  -2   -0.18    0.50
   6   6  -2   13.19    1.02
   5   6  -2    0.71    0.53
   4   6  -2    0.14    0.45
   3   6  -2   15.59    0.87
  -2  -6   2   37.22    1.26
  -1  -6   2   20.73    0.93
   0  -6   2    5.79    0.61
   0  -6   2    6.46    0.57
   1  -6   2   42.95    1.29
   1  -6   2   41.43    1.18
   2  -6   2   10.47    0.81
   2  -6   2    9.91    0.72
   3  -6   2   10.42    0.75
   3  -6   2   11.53    0.89
   4  -6   2    1.14    0.43
   4  -6   2    1.65    0.52
   5  -6   2    4.90    0.66
   5  -6   2    5.79    0.75
   6  -6   2    0.99    0.56
   6  -6   2    0.62    0.48
   7  -6   2    1.71    0.65
   8  -6   2   -0.40    0.56
   9  -6   2    0.19    0.65
  10  -6   2   -0.12    0.70
  10   5  -2   -0.33    0.67
   9   5  -2    1.35    0.67
   8   5  -2    5.46    0.92
   7   5  -2    2.23    0.70
   6   5  -2    1.89    0.61
   5   5  -2    0.26    0.44
   4   5  -2    1.04    0.47
   3   5  -2   -0.03    0.40
  -2  -5   2   -0.59    0.36
  -1  -5   2    5.64    0.56
  -1  -5   2    4.79    0.53
   0  -5   2    0.95    0.36
   0  -5   2   -0.09    0.32
   1  -5   2   -0.09    0.36
   1  -5   2   -0.07    0.31
   2  -5   2  135.89    2.18
   2  -5   2  134.66    2.25
   3  -5   2    0.57    0.37
   3  -5   2   -0.05    0.34
   4  -5   2   25.33    1.00
   4  -5   2   24.69    1.05
   5  -5   2   13.38    0.84
   5  -5   2   12.84    0.90
   6  -5   2    3.09    0.65
   6  -5   2    3.92    0.66
   7  -5   2    0.32    0.56
   7  -5   2    1.34    0.62
   8  -5   2    1.56    0.70
   9  -5   2    2.29    0.83
  10  -5   2    1.81    0.85
  11   4  -2    1.81    1.01
  11   4  -2    3.63    1.02
  10   4  -2    1.55    0.83
   9   4  -2    0.23    0.69
   8   4  -2    0.89    0.59
   7   4  -2    0.71    0.54
   6   4  -2    1.92    0.59
   5   4  -2    1.93    0.54
   4   4  -2   27.57    1.07
   3   4  -2    4.46    0.54
   2   4  -2    6.69    0.59
  -1  -4   2   19.77    0.82
  -1  -4   2   19.24    0.77
   0  -4   2   47.08    1.09
   0  -4   2   46.54    1.11
   1  -4   2    0.12    0.31
   1  -4   2    0.14    0.32
   2  -4   2    1.11    0.35
   2  -4   2    1.43    0.41
   3  -4   2    2.32    0.42
   3  -4   2    2.17    0.43
   4  -4   2   19.86    0.92
   4  -4   2   17.99    0.89
   5  -4   2    7.46    0.73
   5  -4   2    7.17    0.73
   6  -4   2    0.50    0.46
   6  -4   2    0.69    0.51
   7  -4   2    0.70    0.58
   7  -4   2    1.43    0.62
   8  -4   2    1.81    0.70
   8  -4   2    2.97    0.72
   9  -4   2    2.63    0.78
  10  -4   2    0.72    0.73
  11   3  -2    1.74    0.97
  11   3  -2    2.28    0.93
  10   3  -2    1.27    0.76
   9   3  -2    4.72    0.91
   8   3  -2    3.47    0.78
   7   3  -2    1.99    0.63
   6   3  -2    0.12    0.43
   5   3  -2   -0.38    0.40
   4   3  -2  113.45    2.06
   3   3  -2   14.13    0.71
   2   3  -2   21.54    0.79
  -1  -3   2   22.21    0.76
  -1  -3   2   21.93    0.76
   0  -3   2   35.27    0.92
   0  -3   2   37.28    0.95
   1  -3   2    2.13    0.37
   1  -3   2    2.17    0.35
   2  -3   2    6.48    0.52
   2  -3   2    6.40    0.50
   3  -3   2  131.05    2.07
   3  -3   2  130.13    2.11
   4  -3   2   32.31    1.10
   4  -3   2   33.01    1.08
   5  -3   2    1.78    0.48
   5  -3   2    1.08    0.46
   6  -3   2    0.22    0.50
   6  -3   2    0.25    0.46
   7  -3   2    2.14    0.64
   7  -3   2    1.26    0.59
   8  -3   2    0.32    0.59
   8  -3   2    0.78    0.63
   9  -3   2    0.90    0.68
   9  -3   2   -0.42    0.63
  10  -3   2   -0.72    0.63
  11   2  -2    3.16    1.06
  11   2  -2    2.61    0.92
  10   2  -2   -0.97    0.62
  10   2  -2   -0.70    0.62
   9   2  -2    0.11    0.58
   8   2  -2   -0.39    0.57
   7   2  -2    0.21    0.53
   6   2  -2    0.93    0.46
   5   2  -2    0.95    0.44
   4   2  -2   56.65    1.38
   3   2  -2    4.98    0.50
   2   2  -2  154.01    2.09
  -1  -2   2   77.24    1.27
   0  -2   2  357.30    4.02
   0  -2   2  372.46    3.78
   1  -2   2   75.64    1.19
   1  -2   2   74.76    1.30
   2  -2   2    8.44    0.60
   2  -2   2    8.70    0.56
   3  -2   2   26.38    0.85
   3  -2   2   27.23    0.94
   4  -2   2    2.73    0.48
   4  -2   2    2.83    0.47
   5  -2   2    6.93    0.68
   5  -2   2    6.32    0.69
   6  -2   2    1.86    0.56
   6  -2   2    3.35    0.60
   7  -2   2    1.83    0.67
   7  -2   2    1.98    0.62
   8  -2   2   -0.60    0.52
   8  -2   2   -0.26    0.58
   9  -2   2   -0.57    0.61
   9  -2   2   -2.26    0.52
  10  -2   2    1.20    0.81
  10  -2   2   -0.17    0.68
  11   1  -2   -0.64    0.64
  10   1  -2    0.43    0.72
  10   1  -2    0.72    0.75
   9   1  -2    9.34    1.12
   9   1  -2   10.11    1.15
   8   1  -2    0.17    0.59
   7   1  -2    1.10    0.57
   6   1  -2   17.83    1.03
   5   1  -2    4.60    0.60
   4   1  -2   10.08    0.69
   3   1  -2  121.36    1.89
   2   1  -2 1000.00   10.36
   1   1  -2  104.08    1.34
  -1  -1   2  104.28    1.23
  -1  -1   2  102.98    1.41
   0  -1   2   66.39    0.85
   0  -1   2   64.11    1.01
   1  -1   2   58.81    1.08
   1  -1   2   58.43    0.86
   2  -1   2   31.55    0.75
   2  -1   2   32.22    0.94
   3  -1   2    4.12    0.51
   3  -1   2    3.93    0.43
   4  -1   2   15.10    0.75
   4  -1   2   15.81    0.83
   5  -1   2    6.22    0.72
   5  -1   2    5.30    0.61
   6  -1   2    5.81    0.74
   6  -1   2    6.44    0.72
   7  -1   2   41.24    1.50
   7  -1   2   41.71    1.65
   8  -1   2   -0.02    0.60
   8  -1   2    1.05    0.70
   9  -1   2    0.45    0.65
   9  -1   2   -0.47    0.65
  10  -1   2    3.49    0.93
  10  -1   2    1.58    0.89
  11   0  -2    0.34    0.86
  10   0  -2    9.56    1.18
  10   0  -2    8.48    1.14
   9   0  -2    5.66    0.98
   9   0  -2    6.70    0.97
   8   0  -2   16.65    1.21
   8   0  -2   18.73    1.20
   7   0  -2    3.04    0.66
   6   0  -2    0.69    0.49
   5   0  -2   60.28    1.53
   4   0  -2    0.86    0.38
   3   0  -2  163.01    2.28
   2   0  -2  494.14    5.09
   1   0  -2   64.46    0.90
  -1   0   2   63.76    0.90
  -1   0   2   63.46    0.92
   0   0   2    0.16    0.15
   1   0   2   45.82    0.64
   1   0   2   45.95    0.97
   2   0   2    0.69    0.34
   2   0   2    1.07    0.25
   3   0   2    0.66    0.29
   3   0   2    0.75    0.37
   4   0   2    5.10    0.61
   4   0   2    4.87    0.50
   5   0   2   34.04    1.10
   5   0   2   32.82    1.24
   6   0   2    8.86    0.87
   6   0   2    8.82    0.81
   7   0   2   -0.53    0.49
   7   0   2    0.05    0.55
   8   0   2    0.42    0.64
   8   0   2   -0.62    0.51
   9   0   2    7.78    1.02
   9   0   2    7.32    1.12
  10   0   2    4.68    1.08
  11  -1  -2    0.62    0.78
  10  -1  -2    4.64    1.00
   9  -1  -2   -0.02    0.57
   9  -1  -2   -0.74    0.56
   8  -1  -2   11.62    1.02
   8  -1  -2   10.46    1.08
   7  -1  -2    0.10    0.47
   7  -1  -2   -0.18    0.50
   6  -1  -2   11.14    0.85
   5  -1  -2    4.85    0.64
   4  -1  -2   -0.40    0.35
   3  -1  -2    6.70    0.55
   2  -1  -2   13.54    0.63
  -2   1   2   13.62    0.62
   1  -1  -2   27.60    0.61
  -1   1   2   27.84    0.44
   0  -1  -2   59.37    0.75
   0   1   2   60.74    0.94
   1   1   2  225.36    2.31
   1   1   2  222.97    2.74
   2   1   2    0.68    0.24
   2   1   2    1.01    0.35
   3   1   2   39.69    0.93
   3   1   2   38.96    1.16
   4   1   2    2.66    0.42
   4   1   2    2.43    0.50
   5   1   2    5.47    0.60
   5   1   2    5.02    0.72
   6   1   2   -0.27    0.45
   6   1   2    0.26    0.44
   7   1   2    9.22    1.01
   7   1   2    9.80    0.93
   8   1   2   -0.32    0.54
   8   1   2   -0.59    0.58
   9   1   2    4.61    0.91
   9   1   2    3.71    0.92
  10   1   2    1.78    0.93
  11  -2  -2   -0.89    0.73
  10  -2  -2    2.11    0.85
   9  -2  -2   -0.32    0.63
   8  -2  -2   32.53    1.55
   8  -2  -2   33.68    1.38
   7  -2  -2    0.11    0.48
   7  -2  -2   -0.32    0.39
   6  -2  -2    3.59    0.53
   6  -2  -2    4.18    0.65
   5  -2  -2    0.48    0.41
   5  -2  -2    0.71    0.34
   4  -2  -2   20.98    0.89
   4  -2  -2   23.07    0.74
   3  -2  -2    4.91    0.51
   2  -2  -2    2.42    0.39
  -2   2   2    2.32    0.35
   1  -2  -2  159.27    1.95
  -1   2   2  158.42    1.97
   0  -2  -2   57.49    0.92
  -1  -2  -2    3.21    0.32
   2   2   2    5.78    0.40
   3   2   2   13.01    0.62
   4   2   2    2.13    0.51
   4   2   2    1.84    0.41
   5   2   2   -0.34    0.41
   5   2   2    0.17    0.34
   6   2   2    0.79    0.46
   6   2   2    0.80    0.55
   7   2   2   20.24    1.11
   7   2   2   20.45    1.32
   8   2   2    3.68    0.87
   8   2   2    4.11    0.79
   9   2   2    2.77    0.82
   9   2   2    2.99    0.87
  10   2   2    0.21    0.82
  11  -3  -2    0.14    0.77
  10  -3  -2    2.76    0.86
   9  -3  -2    2.01    0.76
   8  -3  -2    6.30    0.95
   7  -3  -2    2.52    0.53
   7  -3  -2    1.40    0.64
   6  -3  -2   -0.08    0.33
   6  -3  -2    0.18    0.42
   5  -3  -2   19.09    1.02
   5  -3  -2   20.31    0.73
   4  -3  -2    0.00    0.39
   4  -3  -2    0.22    0.25
   3  -3  -2    7.97    0.61
   3  -3  -2    9.01    0.35
  -3   3   2    8.48    0.60
   2  -3  -2   40.18    1.04
  -2   3   2   41.00    0.97
   1  -3  -2  115.52    1.70
  -1   3   2  116.58    1.67
   0  -3  -2  104.69    1.55
  -1  -3  -2    0.47    0.28
   2   3   2    1.96    0.34
   3   3   2    1.90    0.39
   4   3   2    0.81    0.36
   5   3   2    8.87    0.73
   6   3   2    2.39    0.56
   6   3   2    3.36    0.72
   7   3   2    0.14    0.48
   7   3   2    0.33    0.61
   8   3   2   12.30    1.38
   8   3   2   13.19    1.14
   9   3   2    0.88    0.72
   9   3   2    1.35    0.68
  10   3   2   -0.49    0.78
  11  -4  -2   -0.13    0.78
  10  -4  -2   -1.10    0.64
   9  -4  -2    1.58    0.78
   8  -4  -2    5.23    0.86
   7  -4  -2    3.25    0.68
   6  -4  -2   11.61    0.67
   6  -4  -2   11.55    0.89
   5  -4  -2   21.29    0.72
   5  -4  -2   19.54    1.05
   4  -4  -2    1.72    0.26
   4  -4  -2    1.61    0.48
   3  -4  -2    2.05    0.21
   3  -4  -2    2.13    0.45
  -3   4   2    2.09    0.41
   2  -4  -2   22.93    0.88
  -2   4   2   23.11    0.77
   1  -4  -2   19.10    0.74
  -1   4   2   19.09    0.65
   0  -4  -2   33.15    0.90
  -1  -4  -2    1.10    0.36
   2   4   2   23.38    0.80
   3   4   2   26.72    0.93
   4   4   2    2.79    0.48
   5   4   2    2.29    0.49
   6   4   2   13.98    0.92
   7   4   2    0.42    0.49
   7   4   2    0.15    0.59
   8   4   2    0.88    0.73
   8   4   2    0.33    0.60
   9   4   2    0.47    0.63
   9   4   2   -0.61    0.77
  10   4   2    1.31    0.94
  10  -5  -2    3.53    0.95
   9  -5  -2    3.31    0.89
   8  -5  -2    1.25    0.68
   7  -5  -2    7.28    0.89
   6  -5  -2    0.31    0.50
   5  -5  -2   22.92    1.08
   5  -5  -2   23.08    0.69
   4  -5  -2    0.45    0.30
   4  -5  -2    0.98    0.42
   3  -5  -2   15.74    0.82
   3  -5  -2   12.04    0.42
   2  -5  -2   18.59    0.84
  -2   5   2   18.43    0.77
   1  -5  -2  131.18    2.15
  -1   5   2  128.70    1.92
   0  -5  -2    0.68    0.37
   0   5   2    1.38    0.33
  -1  -5  -2   18.50    0.82
  -2  -5  -2    4.76    0.55
   3   5   2    0.46    0.35
   4   5   2    9.50    0.70
   5   5   2    0.53    0.42
   6   5   2    8.72    0.87
   7   5   2    2.22    0.69
   8   5   2   -0.07    0.54
   8   5   2   -0.35    0.66
   9   5   2    5.40    1.16
  10   5   2   -0.49    0.86
  10  -6  -2   -0.18    0.71
   9  -6  -2    3.53    0.87
   8  -6  -2    5.33    0.90
   7  -6  -2    0.09    0.58
   6  -6  -2    0.45    0.49
   5  -6  -2   32.75    1.34
   4  -6  -2    1.17    0.47
   3  -6  -2    8.93    0.81
   3  -6  -2    9.81    0.39
  -3   6   2   10.26    0.72
   2  -6  -2   17.35    0.96
  -2   6   2   17.41    0.77
   1  -6  -2    1.53    0.45
  -1   6   2    1.77    0.36
   0  -6  -2    3.36    0.54
   0   6   2    4.64    0.47
  -1  -6  -2   18.21    0.89
  -2  -6  -2    0.07    0.37
   3   6   2    1.45    0.43
   4   6   2    9.02    0.80
   5   6   2   -0.29    0.45
   6   6   2    3.87    0.71
   7   6   2    1.67    0.63
   8   6   2    2.70    0.76
   8   6   2    2.20    0.82
   9   6   2    2.02    0.90
  10  -7  -2   -0.08    0.76
   9  -7  -2    0.75    0.67
   8  -7  -2    0.27    0.63
   7  -7  -2   18.92    1.18
   6  -7  -2   -0.02    0.53
   5  -7  -2    6.10    0.80
   4  -7  -2    4.09    0.69
   3  -7  -2    3.51    0.63
  -3   7   2    3.52    0.51
   2  -7  -2    3.78    0.60
  -2   7   2    3.85    0.48
   1  -7  -2   27.41    1.13
  -1   7   2   27.40    0.91
   0  -7  -2    5.21    0.66
   0   7   2    5.36    0.52
  -1  -7  -2   30.52    1.16
  -2  -7  -2    8.12    0.77
   3   7   2    0.78    0.43
   4   7   2    2.10    0.54
   5   7   2    2.95    0.66
   6   7   2    3.19    0.68
   7   7   2    0.28    0.57
   8   7   2    0.57    0.64
   9   7   2   -0.97    0.76
  10  -8  -2   -0.58    0.69
   9  -8  -2    0.19    0.69
   8  -8  -2    0.18    0.59
   7  -8  -2    1.07    0.61
   6  -8  -2    2.80    0.74
   5  -8  -2    1.59    0.62
   4  -8  -2    0.37    0.52
   3  -8  -2    2.81    0.61
  -3   8   2    2.62    0.51
   2  -8  -2    0.35    0.48
  -2   8   2    0.13    0.34
   1  -8  -2    3.40    0.64
  -1   8   2    3.77    0.50
   0  -8  -2    4.74    0.68
   0   8   2    4.59    0.52
  -1  -8  -2    0.22    0.43
  -2  -8  -2    1.77    0.54
   3   8   2    0.28    0.46
   4   8   2    0.59    0.50
   5   8   2    9.69    0.95
   6   8   2    1.31    0.63
   7   8   2    3.66    0.80
   8   8   2    1.89    0.71
   9   8   2    0.28    0.92
   9  -9  -2    0.68    0.76
   8  -9  -2    7.21    1.06
   7  -9  -2    1.55    0.75
   6  -9  -2    9.59    1.10
   4  -9  -2    6.00    0.85
   3  -9  -2   31.37    1.40
  -3   9   2   27.09    1.09
   2  -9  -2    2.81    0.68
  -2   9   2    2.48    0.50
   1  -9  -2    9.25    0.88
  -1   9   2    8.12    0.68
   0  -9  -2    9.35    0.91
   0   9   2    9.44    0.72
  -1  -9  -2    0.10    0.48
   1   9   2    0.91    0.40
  -2  -9  -2    1.17    0.57
   4   9   2    2.16    0.62
   5   9   2    3.31    0.71
   6   9   2    0.15    0.55
   7   9   2    2.53    0.75
   9 -10  -2    0.28    0.78
   8 -10  -2    5.55    1.04
   7 -10  -2    0.51    0.63
   6 -10  -2   -0.01    0.59
   5 -10  -2   15.27    1.34
   4 -10  -2    5.20    0.86
   3 -10  -2    6.21    0.93
  -3  10   2    6.45    0.72
   2 -10  -2    0.23    0.52
  -2  10   2    0.28    0.44
   1 -10  -2   11.01    1.06
  -1  10   2   12.16    0.81
   0 -10  -2    0.96    0.56
   0  10   2    0.86    0.43
  -1 -10  -2    6.21    0.83
   1  10   2    7.91    0.70
  -2 -10  -2    1.90    0.66
   4  10   2    0.32    0.55
   5  10   2    2.36    0.69
   6  10   2    2.95    0.79
   7  10   2   -0.48    0.57
   8 -11  -2    0.32    0.76
   7 -11  -2   -0.67    0.68
   6 -11  -2    3.38    0.91
   5 -11  -2    2.44    0.84
   4 -11  -2    4.78    0.94
   3 -11  -2   22.97    1.48
   2 -11  -2    0.31    0.55
   1 -11  -2    5.84    0.92
   0 -11  -2   11.32    1.13
  -1 -11  -2    3.72    0.77
  -2 -11  -2    6.72    0.95
   4  11   2    2.57    0.74
   5  11   2    0.47    0.59
   6  11   2    6.74    0.99
   7  11   2   -1.22    0.56
   7 -12  -2    1.81    0.87
   6 -12  -2    0.00    0.66
   5 -12  -2    2.32    0.87
   4 -12  -2   -0.53    0.70
   3 -12  -2    7.83    1.13
   2 -12  -2    6.66    1.04
   1 -12  -2    0.25    0.69
   0 -12  -2    0.12    0.61
  -1 -12  -2    2.17    0.77
  -2 -12  -2    0.98    0.70
   4  12   2    3.40    0.84
   5  12   2   -0.39    0.57
   6  12   2   16.95    1.48
   7 -13  -2    0.29    0.88
   6 -13  -2    1.44    0.81
   5 -13  -2    0.95    0.82
   4 -13  -2    0.59    0.79
   3 -13  -2    2.13    0.85
   2 -13  -2    0.75    0.75
   1 -13  -2   -0.27    0.68
   0 -13  -2    0.27    0.72
  -1 -13  -2    0.31    0.70
  -2 -13  -2   15.03    1.37
   4  13   2    0.81    0.68
   5  13   2    2.31    0.77
   5 -14  -2    0.92    0.88
   4 -14  -2    0.69    0.78
   3 -14  -2   -0.52    0.74
   2 -14  -2    0.25    0.71
   1 -14  -2   -0.10    0.74
   0 -14  -2    0.29    0.66
  -1 -14  -2    0.37    0.76
  -2 -14  -2    6.25    1.07
   4  14   2    0.64    0.77
   4 -15  -2    2.16    0.94
   3 -15  -2    0.54    0.85
   2 -15  -2    3.40    1.01
   1 -15  -2    1.15    0.88
   0 -15  -2    1.04    0.89
  -1 -15  -2   -0.29    0.80
  -2 -15  -2    1.22    0.84
  -1 -16   3    0.01    0.86
   0 -16   3    1.72    0.91
   1 -16   3    2.51    0.93
   4  15  -3    3.43    1.03
  -2 -15   3    0.17    0.80
  -1 -15   3    1.50    0.81
   0 -15   3    1.34    0.79
   1 -15   3    0.86    0.81
   2 -15   3    3.06    0.94
   3 -15   3    4.37    1.06
   5  14  -3    2.40    0.94
   4  14  -3    1.10    0.82
  -2 -14   3    1.85    0.85
  -1 -14   3    1.77    0.83
   0 -14   3   13.34    1.38
   1 -14   3    0.42    0.72
   2 -14   3   -0.37    0.69
   3 -14   3    9.15    1.24
   4 -14   3    3.08    0.94
   5 -14   3    0.31    0.79
   6  13  -3    0.97    0.84
   5  13  -3    3.75    0.95
   4  13  -3    1.33    0.83
  -2 -13   3    2.95    0.84
  -1 -13   3   -0.25    0.65
   0 -13   3    2.88    0.78
   1 -13   3    0.34    0.60
   2 -13   3    0.04    0.63
   3 -13   3    0.18    0.70
   4 -13   3    1.05    0.75
   5 -13   3    0.67    0.73
   6 -13   3   -0.24    0.79
   7  12  -3    4.35    1.03
   6  12  -3    7.87    1.21
   5  12  -3   -0.45    0.65
   4  12  -3    8.44    1.15
  -3 -12   3   22.77    1.44
  -2 -12   3    0.34    0.64
  -1 -12   3    2.35    0.75
   0 -12   3    2.72    0.73
   1 -12   3    1.34    0.68
   1 -12   3    1.61    0.63
   2 -12   3    4.73    0.93
   3 -12   3    2.47    0.80
   4 -12   3    4.68    0.95
   5 -12   3    1.29    0.73
   6 -12   3    1.01    0.81
   7 -12   3    0.39    0.77
   8  11  -3   -0.69    0.72
   7  11  -3   -0.34    0.75
   6  11  -3    8.89    1.20
   5  11  -3    4.17    0.90
   4  11  -3   23.14    1.46
  -2 -11   3    2.82    0.77
  -1 -11   3    2.06    0.64
   0 -11   3    4.09    0.83
   1 -11   3    1.68    0.62
   1 -11   3    0.29    0.59
   2 -11   3    1.15    0.60
   2 -11   3    0.03    0.54
   3 -11   3    0.18    0.63
   4 -11   3    0.40    0.67
   5 -11   3    1.43    0.72
   6 -11   3   -0.68    0.67
   7 -11   3    0.62    0.79
   8  10  -3    0.85    0.79
   7  10  -3    3.97    0.94
   6  10  -3   -0.17    0.65
   5  10  -3   -0.18    0.64
   4  10  -3   12.77    1.19
  -2 -10   3    1.51    0.65
  -1 -10   3    1.79    0.66
   0 -10   3    4.05    0.69
   0 -10   3    2.96    0.69
   1 -10   3   10.17    1.01
   1 -10   3   10.79    0.97
   2 -10   3    1.96    0.61
   2 -10   3    2.46    0.65
   3 -10   3    9.82    1.04
   3 -10   3    9.87    0.92
   4 -10   3   16.68    1.25
   5 -10   3    0.20    0.63
   6 -10   3    4.81    0.94
   7 -10   3    0.31    0.71
   8 -10   3    1.14    0.80
   9   9  -3    2.43    0.92
   8   9  -3    0.08    0.76
   7   9  -3    1.84    0.74
   6   9  -3    2.53    0.79
   5   9  -3    0.18    0.63
   4   9  -3    1.20    0.64
  -2  -9   3    0.80    0.50
  -1  -9   3    0.37    0.50
   0  -9   3   14.48    1.03
   0  -9   3   11.13    0.93
   1  -9   3    8.16    0.86
   1  -9   3    8.73    0.82
   2  -9   3   -0.29    0.41
   2  -9   3    0.37    0.47
   3  -9   3   12.74    0.96
   3  -9   3   12.60    1.12
   4  -9   3    5.25    0.77
   4  -9   3    7.74    0.95
   5  -9   3    1.04    0.59
   6  -9   3    3.08    0.80
   7  -9   3    0.34    0.68
   8  -9   3    5.20    1.02
   9   8  -3    1.42    0.80
   8   8  -3    1.18    0.69
   7   8  -3    0.96    0.72
   6   8  -3    1.59    0.73
   5   8  -3    2.68    0.73
   4   8  -3    0.36    0.49
   3   8  -3    5.31    0.74
  -2  -8   3    0.55    0.50
  -1  -8   3    9.77    0.83
  -1  -8   3    9.41    0.88
   0  -8   3    4.13    0.61
   0  -8   3    3.70    0.64
   1  -8   3   -0.01    0.44
   1  -8   3    0.30    0.42
   2  -8   3    2.85    0.55
   2  -8   3    3.07    0.64
   3  -8   3   14.24    0.95
   3  -8   3   14.73    1.00
   4  -8   3    0.58    0.50
   4  -8   3    0.46    0.55
   5  -8   3    1.32    0.69
   5  -8   3    1.36    0.65
   6  -8   3    1.95    0.72
   7  -8   3    0.80    0.73
   8  -8   3    3.02    0.85
   9  -8   3    3.31    0.91
  10   7  -3    6.00    1.15
   9   7  -3    0.86    0.75
   8   7  -3   -0.34    0.66
   7   7  -3    8.94    1.03
   6   7  -3    4.64    0.84
   5   7  -3    0.02    0.47
   4   7  -3    4.68    0.70
   3   7  -3    9.14    0.84
  -2  -7   3   27.83    1.13
  -1  -7   3    4.39    0.61
  -1  -7   3    5.43    0.65
   0  -7   3   48.58    1.44
   0  -7   3   49.09    1.40
   1  -7   3   27.08    1.07
   1  -7   3   27.44    1.08
   2  -7   3    0.86    0.42
   2  -7   3    0.98    0.48
   3  -7   3    1.02    0.48
   3  -7   3    1.47    0.54
   4  -7   3   -0.04    0.48
   4  -7   3   -0.45    0.46
   5  -7   3    2.71    0.68
   5  -7   3    1.35    0.73
   6  -7   3    1.55    0.61
   6  -7   3    0.35    0.59
   7  -7   3    3.74    0.81
   8  -7   3    0.43    0.66
   9  -7   3    0.62    0.72
  10   6  -3    0.99    0.80
   9   6  -3    0.72    0.73
   8   6  -3    2.11    0.77
   7   6  -3    1.23    0.64
   6   6  -3   14.05    1.00
   5   6  -3    3.39    0.68
   4   6  -3    0.26    0.40
   3   6  -3    2.58    0.56
  -2  -6   3   53.84    1.45
  -1  -6   3    5.89    0.65
  -1  -6   3    5.29    0.60
   0  -6   3   11.03    0.81
   0  -6   3   12.58    0.76
   1  -6   3   31.99    1.24
   1  -6   3   40.73    1.23
   2  -6   3    5.56    0.65
   2  -6   3    5.91    0.65
   3  -6   3    2.33    0.50
   3  -6   3    2.21    0.50
   4  -6   3    3.44    0.61
   4  -6   3    4.15    0.60
   5  -6   3    0.14    0.48
   5  -6   3    0.44    0.49
   6  -6   3    1.02    0.55
   6  -6   3    0.62    0.54
   7  -6   3    6.49    0.88
   7  -6   3    9.49    1.04
   8  -6   3    2.12    0.73
   9  -6   3    2.98    0.83
  10   5  -3    2.07    0.87
   9   5  -3    2.33    0.78
   8   5  -3    2.49    0.73
   7   5  -3    5.48    0.87
   6   5  -3   -0.24    0.44
   5   5  -3    0.24    0.46
   4   5  -3    1.82    0.47
   3   5  -3    0.41    0.40
  -1  -5   3    0.09    0.36
  -1  -5   3   -0.10    0.32
   0  -5   3   72.46    1.52
   0  -5   3   72.43    1.52
   1  -5   3   34.57    1.11
   1  -5   3   33.03    1.07
   2  -5   3   85.27    1.94
   2  -5   3   76.12    1.65
   3  -5   3    0.69    0.45
   3  -5   3    0.26    0.37
   4  -5   3   -0.01    0.39
   4  -5   3    0.24    0.41
   5  -5   3    2.58    0.57
   5  -5   3    2.67    0.56
   6  -5   3    4.62    0.76
   6  -5   3    6.12    0.77
   7  -5   3    6.31    0.84
   7  -5   3    6.27    0.90
   8  -5   3    2.00    0.76
   8  -5   3    1.53    0.65
   9  -5   3   -0.54    0.60
  11   4  -3    0.59    0.77
  10   4  -3    0.46    0.69
   9   4  -3    0.73    0.70
   8   4  -3   -0.62    0.56
   7   4  -3   -0.58    0.50
   6   4  -3    2.10    0.58
   5   4  -3    8.33    0.81
   4   4  -3    0.31    0.45
   3   4  -3   81.05    1.68
   2   4  -3    3.46    0.51
  -2  -4   3    3.49    0.47
  -1  -4   3    0.68    0.35
  -1  -4   3    1.07    0.35
   0  -4   3   78.57    1.47
   0  -4   3   80.86    1.58
   1  -4   3   63.82    1.32
   1  -4   3   68.27    1.43
   2  -4   3   27.46    0.97
   2  -4   3   28.65    0.98
   3  -4   3   16.21    0.93
   3  -4   3   15.63    0.81
   4  -4   3    0.24    0.37
   4  -4   3    0.08    0.38
   5  -4   3    0.75    0.46
   5  -4   3    0.16    0.41
   6  -4   3   -0.20    0.47
   6  -4   3    0.11    0.47
   7  -4   3    1.42    0.59
   7  -4   3    1.32    0.64
   8  -4   3    0.83    0.64
   8  -4   3    0.63    0.59
   9  -4   3    2.42    0.76
  11   3  -3    0.91    0.82
  10   3  -3    4.04    0.91
   9   3  -3    0.88    0.70
   8   3  -3    0.44    0.57
   7   3  -3   -0.12    0.47
   6   3  -3   10.43    0.93
   5   3  -3    0.38    0.41
   4   3  -3    3.79    0.57
   3   3  -3   15.12    0.75
   2   3  -3    8.51    0.55
  -2  -3   3    7.30    0.57
  -1  -3   3    2.35    0.40
  -1  -3   3    2.60    0.39
   0  -3   3    0.40    0.35
   0  -3   3    0.51    0.30
   1  -3   3    0.25    0.29
   1  -3   3   -0.29    0.27
   2  -3   3   20.14    0.83
   2  -3   3   19.13    0.72
   3  -3   3   60.50    1.32
   3  -3   3   60.11    1.46
   4  -3   3    1.30    0.46
   4  -3   3    0.33    0.37
   5  -3   3    1.14    0.44
   5  -3   3    0.89    0.48
   6  -3   3   28.74    1.31
   6  -3   3   26.76    1.18
   7  -3   3    6.96    0.85
   7  -3   3    5.15    0.84
   8  -3   3    3.04    0.74
   8  -3   3    2.17    0.75
   9  -3   3    3.28    0.85
   9  -3   3    2.55    0.82
  11   2  -3   -0.64    0.74
  11   2  -3   -0.52    0.79
  10   2  -3    0.52    0.75
   9   2  -3    4.43    0.91
   8   2  -3    2.80    0.74
   7   2  -3    1.11    0.58
   6   2  -3   10.46    0.90
   5   2  -3   21.47    0.99
   4   2  -3   36.01    1.15
   3   2  -3   63.50    1.33
   2   2  -3   19.59    0.72
  -2  -2   3   19.22    0.71
   1   2  -3   17.10    0.63
  -1  -2   3   17.79    0.50
  -1  -2   3   17.07    0.69
   0  -2   3    6.51    0.45
   0  -2   3    7.48    0.54
   1  -2   3   -0.14    0.30
   1  -2   3    0.34    0.24
   2  -2   3    8.68    0.49
   2  -2   3    9.40    0.66
   3  -2   3   33.33    1.13
   3  -2   3   32.42    0.94
   4  -2   3    1.44    0.47
   4  -2   3    0.95    0.40
   5  -2   3   21.42    0.93
   5  -2   3   21.48    1.08
   6  -2   3    0.06    0.43
   6  -2   3    0.68    0.49
   7  -2   3    2.74    0.68
   7  -2   3    2.91    0.73
   8  -2   3    1.11    0.63
   8  -2   3    1.15    0.63
   9  -2   3    0.91    0.72
   9  -2   3    1.72    0.72
  10  -2   3   13.08    1.49
  11   1  -3   -0.07    0.77
  10   1  -3    0.06    0.65
  10   1  -3    1.84    0.79
   9   1  -3    1.52    0.68
   8   1  -3    1.34    0.65
   7   1  -3    4.24    0.76
   6   1  -3   11.81    0.91
   5   1  -3   19.26    0.92
   4   1  -3   28.07    1.04
   3   1  -3  124.32    1.94
   2   1  -3   24.74    0.78
  -2  -1   3   24.38    0.73
  -2  -1   3   25.13    0.75
   1   1  -3  105.84    1.40
  -1  -1   3  104.31    1.36
  -1  -1   3  104.61    1.56
   0  -1   3   30.98    0.56
   0  -1   3   30.81    0.80
   1  -1   3    0.33    0.30
   1  -1   3    0.54    0.20
   2  -1   3    0.31    0.31
   2  -1   3    0.29    0.24
   3  -1   3   11.26    0.60
   3  -1   3   10.88    0.73
   4  -1   3   -0.13    0.30
   4  -1   3    0.49    0.42
   5  -1   3   31.46    1.08
   5  -1   3   32.87    1.31
   6  -1   3   12.85    1.10
   6  -1   3   11.77    0.91
   7  -1   3   12.65    1.19
   7  -1   3   12.78    1.04
   8  -1   3    5.03    0.94
   8  -1   3    5.32    0.85
   9  -1   3    1.56    0.79
  10  -1   3   -0.69    0.74
  11   0  -3    0.98    0.86
  10   0  -3    3.61    0.88
   9   0  -3    2.31    0.80
   9   0  -3    2.19    0.71
   8   0  -3    0.81    0.62
   7   0  -3    1.33    0.59
   6   0  -3    0.23    0.48
   5   0  -3  105.32    2.11
   4   0  -3   98.95    1.86
   3   0  -3  105.47    1.73
   2   0  -3   74.98    1.27
  -2   0   3   73.29    1.27
  -2   0   3   76.42    1.20
   1   0  -3  147.20    1.69
  -1   0   3  142.38    1.83
  -1   0   3  146.86    1.82
   0   0   3    4.89    0.39
   1   0   3   -0.01    0.30
   1   0   3   -0.12    0.13
   2   0   3   37.50    1.07
   2   0   3   38.84    0.74
   3   0   3   15.58    0.88
   3   0   3   14.90    0.60
   4   0   3   22.58    0.83
   4   0   3   22.22    1.06
   5   0   3    1.30    0.49
   5   0   3    2.03    0.46
   6   0   3   14.21    0.87
   6   0   3   13.59    1.01
   7   0   3   -0.03    0.45
   7   0   3    0.28    0.55
   8   0   3   -0.18    0.54
   8   0   3    0.15    0.66
   9   0   3   12.84    1.39
  10   0   3   -0.35    0.79
  11  -1  -3    3.52    0.98
  10  -1  -3    2.65    0.89
   9  -1  -3   22.79    1.38
   8  -1  -3    0.32    0.50
   8  -1  -3   -0.48    0.52
   7  -1  -3    1.18    0.61
   6  -1  -3    3.55    0.66
   5  -1  -3  128.45    2.35
   4  -1  -3    6.75    0.62
   3  -1  -3   86.43    1.54
  -3   1   3   85.79    1.53
   2  -1  -3    7.94    0.55
  -2   1   3    7.93    0.40
  -2   1   3    8.21    0.59
   1  -1  -3  293.82    3.08
  -1   1   3  297.24    3.16
  -1   1   3  295.38    3.29
   0  -1  -3   34.72    0.54
   0   1   3   33.43    0.80
   1   1   3   13.33    0.62
   1   1   3   13.77    0.36
   2   1   3   21.56    0.83
   2   1   3   20.44    0.56
   3   1   3    2.52    0.35
   3   1   3    3.23    0.52
   4   1   3   12.36    0.64
   4   1   3   11.05    0.86
   5   1   3   40.08    1.49
   5   1   3   42.22    1.20
   6   1   3   12.42    0.86
   6   1   3   11.04    1.05
   7   1   3   10.98    1.16
   7   1   3    9.81    0.92
   8   1   3    0.70    0.59
   8   1   3    0.53    0.61
   9   1   3    0.89    0.74
  10   1   3    1.67    1.00
  11  -2  -3    3.47    1.01
  10  -2  -3    1.78    0.82
   9  -2  -3   -0.87    0.61
   8  -2  -3    4.51    0.86
   7  -2  -3    0.13    0.37
   7  -2  -3    0.45    0.55
   6  -2  -3    9.80    0.89
   5  -2  -3    0.19    0.40
   4  -2  -3    1.85    0.48
   3  -2  -3   40.96    1.10
  -3   2   3   41.02    1.07
   2  -2  -3   11.27    0.62
  -2   2   3   10.80    0.30
  -2   2   3   10.27    0.61
   1  -2  -3   59.32    1.02
  -1   2   3   60.45    0.88
  -1   2   3   58.85    1.13
   0  -2  -3    0.01    0.23
   0   2   3   -0.12    0.24
   1   2   3   50.63    1.14
   2   2   3    0.37    0.35
   2   2   3    0.12    0.22
   3   2   3    2.31    0.35
   3   2   3    3.83    0.60
   4   2   3   11.43    0.85
   4   2   3   10.72    0.64
   5   2   3   33.59    1.11
   5   2   3   33.77    1.39
   6   2   3   53.12    1.52
   6   2   3   55.52    1.91
   7   2   3    0.17    0.56
   7   2   3   -0.26    0.47
   8   2   3   12.51    1.30
   8   2   3   14.56    1.06
   9   2   3    2.08    0.88
  10   2   3    0.87    0.86
  11  -3  -3   -1.43    0.67
  10  -3  -3    1.38    0.81
   9  -3  -3    3.50    0.90
   8  -3  -3    0.37    0.56
   7  -3  -3   -0.08    0.49
   6  -3  -3   16.31    0.74
   6  -3  -3   15.45    1.04
   5  -3  -3    5.93    0.71
   5  -3  -3    5.98    0.47
   4  -3  -3   14.93    0.88
   4  -3  -3   13.66    0.47
   3  -3  -3   14.81    0.73
  -3   3   3   13.11    0.72
   2  -3  -3    8.28    0.60
  -2   3   3    8.62    0.65
   1  -3  -3   39.56    0.96
  -1   3   3   37.75    0.97
  -1   3   3   38.95    0.69
   0  -3  -3    6.04    0.44
   0   3   3    5.75    0.42
  -1  -3  -3    0.03    0.26
   1   3   3   -0.16    0.27
   2   3   3   35.72    0.85
   3   3   3   23.51    0.79
   4   3   3   10.29    0.65
   4   3   3   10.19    0.89
   5   3   3   18.75    1.12
   5   3   3   20.49    0.91
   6   3   3    1.15    0.61
   6   3   3    1.33    0.49
   7   3   3    2.69    0.77
   7   3   3    4.48    0.72
   8   3   3    0.31    0.58
   8   3   3    0.70    0.76
   9   3   3    1.58    0.86
  10   3   3    5.40    1.19
  11  -4  -3    0.15    0.70
  10  -4  -3   -0.43    0.70
   9  -4  -3    0.35    0.61
   8  -4  -3    0.38    0.55
   7  -4  -3    4.37    0.77
   6  -4  -3    4.36    0.67
   5  -4  -3    1.41    0.27
   5  -4  -3    1.50    0.47
   4  -4  -3   25.65    1.04
   4  -4  -3   26.89    0.52
  -4   4   3   25.77    1.01
   3  -4  -3    4.31    0.55
  -3   4   3    4.22    0.51
   2  -4  -3    7.99    0.60
  -2   4   3    8.10    0.59
   1  -4  -3   14.82    0.72
  -1   4   3   15.94    0.73
   0  -4  -3    2.87    0.39
  -1  -4  -3   24.96    0.82
   2   4   3   42.57    1.03
   3   4   3   35.25    1.02
   4   4   3   18.99    0.83
   5   4   3    1.05    0.53
   5   4   3    1.21    0.45
   6   4   3    6.32    0.96
   6   4   3    6.34    0.76
   7   4   3    1.36    0.58
   7   4   3    1.42    0.76
   8   4   3    1.32    0.77
   9   4   3    0.51    0.84
  11  -5  -3    0.23    0.82
  10  -5  -3    0.27    0.76
   9  -5  -3    1.28    0.71
   8  -5  -3   -0.18    0.55
   7  -5  -3   -0.68    0.52
   6  -5  -3    3.16    0.63
   5  -5  -3   28.76    1.18
   4  -5  -3    0.14    0.37
  -4   5   3    0.45    0.42
   3  -5  -3    1.47    0.46
  -3   5   3    2.89    0.52
   2  -5  -3   29.70    1.07
  -2   5   3   27.75    0.97
   1  -5  -3   18.88    0.86
  -1   5   3   17.06    0.80
   0  -5  -3    6.69    0.59
  -1  -5  -3   81.51    1.59
  -2  -5  -3    4.76    0.54
   3   5   3    1.86    0.42
   4   5   3    7.69    0.70
   5   5   3   17.57    0.94
   6   5   3   -0.34    0.43
   6   5   3    0.25    0.56
   7   5   3   -0.25    0.47
   7   5   3    0.10    0.64
   8   5   3    3.54    0.98
   9   5   3    6.76    1.25
  10  -6  -3    0.14    0.67
   9  -6  -3    1.73    0.78
   8  -6  -3    0.79    0.70
   7  -6  -3    3.06    0.72
   6  -6  -3    3.46    0.70
   5  -6  -3   17.76    1.00
   4  -6  -3    3.85    0.58
  -4   6   3    3.85    0.57
   3  -6  -3    6.88    0.73
  -3   6   3    7.66    0.67
   2  -6  -3   46.12    1.36
  -2   6   3   43.80    1.22
   1  -6  -3    8.73    0.74
  -1   6   3    8.36    0.65
   0  -6  -3   53.37    1.38
   0   6   3   54.11    1.30
  -1  -6  -3   25.11    0.97
  -2  -6  -3   -0.11    0.36
   3   6   3   16.84    0.84
   4   6   3    0.86    0.43
   5   6   3    0.16    0.42
   6   6   3    1.06    0.55
   7   6   3   -0.64    0.50
   7   6   3   -0.19    0.59
   8   6   3    1.24    0.81
   9   6   3    5.24    1.20
  10  -7  -3    0.04    0.66
   9  -7  -3    2.22    0.80
   8  -7  -3   -1.49    0.54
   7  -7  -3    0.41    0.60
   6  -7  -3    5.31    0.81
   5  -7  -3    3.13    0.63
   4  -7  -3    7.05    0.78
  -4   7   3    7.36    0.74
   3  -7  -3    0.16    0.44
  -3   7   3   -0.10    0.36
   2  -7  -3    5.29    0.67
  -2   7   3    5.18    0.57
   1  -7  -3   18.96    0.98
  -1   7   3   16.93    0.82
   0  -7  -3    1.89    0.52
   0   7   3    2.01    0.43
  -1  -7  -3    0.04    0.39
  -2  -7  -3    2.77    0.54
   3   7   3   13.57    0.86
   4   7   3    6.76    0.73
   5   7   3   16.65    1.04
   6   7   3    1.57    0.58
   7   7   3    9.34    0.99
   7   7   3    8.92    1.17
   8   7   3    1.03    0.79
   9   7   3    6.72    1.24
  10  -8  -3    1.33    0.80
   9  -8  -3   -0.07    0.71
   8  -8  -3    2.07    0.77
   7  -8  -3    8.18    1.02
   6  -8  -3    2.73    0.73
   5  -8  -3   13.69    1.15
   4  -8  -3    3.81    0.71
  -4   8   3    4.40    0.65
   3  -8  -3    1.42    0.57
  -3   8   3    1.13    0.45
   2  -8  -3    8.43    0.87
  -2   8   3    7.00    0.67
   1  -8  -3    0.77    0.49
  -1   8   3    1.40    0.41
   0  -8  -3    3.40    0.62
   0   8   3    3.92    0.54
  -1  -8  -3    0.00    0.42
  -2  -8  -3    0.68    0.49
   3   8   3    4.79    0.69
   4   8   3    3.94    0.69
   5   8   3    9.89    0.96
   6   8   3    2.85    0.69
   8   8   3    1.34    0.89
   9  -9  -3    2.21    0.85
   8  -9  -3    7.09    1.07
   7  -9  -3    1.67    0.74
   6  -9  -3    4.34    0.87
   5  -9  -3    0.00    0.54
   4  -9  -3    1.72    0.61
  -4   9   3    1.82    0.58
   3  -9  -3   17.08    1.18
  -3   9   3   18.08    0.98
   2  -9  -3    0.58    0.49
  -2   9   3    0.28    0.41
   1  -9  -3    1.14    0.53
  -1   9   3    1.44    0.43
   0  -9  -3    1.02    0.54
   0   9   3    1.30    0.46
  -1  -9  -3    3.22    0.65
   1   9   3    2.28    0.51
  -2  -9  -3   49.03    1.61
   3   9   3    0.60    0.49
   4   9   3    6.90    0.86
   5   9   3    6.23    0.84
   6   9   3    7.01    0.95
   8   9   3   -0.07    0.70
   9 -10  -3    2.21    0.90
   8 -10  -3    0.80    0.75
   7 -10  -3    0.16    0.69
   6 -10  -3   21.00    1.45
   5 -10  -3    7.63    1.06
   4 -10  -3    1.45    0.69
  -4  10   3    1.64    0.57
   3 -10  -3    0.72    0.59
  -3  10   3    1.61    0.53
   2 -10  -3   22.15    1.33
  -2  10   3   20.59    1.01
   1 -10  -3   10.26    1.03
  -1  10   3   10.49    0.81
   0 -10  -3    0.74    0.58
   0  10   3    0.62    0.45
  -1 -10  -3   36.96    1.52
   1  10   3   38.68    1.31
  -2 -10  -3   14.36    1.10
   4  10   3    3.07    0.70
   5  10   3    2.55    0.75
   6  10   3    1.00    0.71
   8 -11  -3    2.39    0.89
   7 -11  -3    0.04    0.72
   6 -11  -3    0.14    0.73
   5 -11  -3   -0.06    0.70
   4 -11  -3   12.33    1.27
  -4  11   3   13.14    1.00
   3 -11  -3    1.02    0.72
   2 -11  -3    1.28    0.69
   1 -11  -3   25.02    1.46
   0 -11  -3    1.41    0.67
  -1 -11  -3    0.58    0.64
  -2 -11  -3    1.05    0.66
   4  11   3    0.55    0.60
   5  11   3    2.24    0.71
   7 -12  -3    0.18    0.81
   6 -12  -3    3.67    0.96
   5 -12  -3    0.58    0.76
   4 -12  -3    3.34    0.91
   3 -12  -3    3.08    0.87
   2 -12  -3    9.61    1.14
   1 -12  -3    2.30    0.79
   0 -12  -3    1.91    0.76
  -1 -12  -3    1.03    0.68
  -2 -12  -3    1.33    0.73
   4  12   3   -0.11    0.60
   5  12   3    3.21    0.83
   7 -13  -3    3.86    1.09
   6 -13  -3    0.59    0.78
   5 -13  -3    1.87    0.92
   4 -13  -3    1.42    0.81
   3 -13  -3   -0.68    0.66
   2 -13  -3   12.97    1.34
   1 -13  -3    2.11    0.80
   0 -13  -3    1.46    0.79
  -1 -13  -3    1.56    0.74
  -2 -13  -3    0.98    0.76
   4  13   3    1.63    0.73
   5  13   3   -0.48    0.59
   5 -14  -3    0.10    0.77
   4 -14  -3   -0.15    0.79
   3 -14  -3    5.69    1.08
   2 -14  -3    0.79    0.83
   1 -14  -3    0.94    0.78
   0 -14  -3   -0.57    0.71
  -1 -14  -3   -0.08    0.71
  -2 -14  -3    1.01    0.83
   4  14   3    0.68    0.71
   4 -15  -3   -0.02    0.81
   3 -15  -3   -0.56    0.79
   2 -15  -3    4.24    1.06
   1 -15  -3    0.10    0.70
   0 -15  -3   -0.22    0.78
  -1 -15  -3    1.11    0.88
  -2 -15  -3    1.52    0.89
   4  15  -4    1.15    0.88
  -2 -15   4    3.64    0.97
  -1 -15   4    0.23    0.75
   0 -15   4    2.94    0.92
   1 -15   4    0.48    0.76
   2 -15   4    0.51    0.79
   3 -15   4    0.29    0.79
   5  14  -4    1.08    0.89
   4  14  -4    1.19    0.86
  -2 -14   4    3.60    0.87
  -1 -14   4    0.43    0.73
   0 -14   4    2.57    0.88
   1 -14   4   -0.36    0.67
   2 -14   4    0.90    0.77
   3 -14   4    1.07    0.80
   4 -14   4    1.92    0.86
   6  13  -4    0.34    0.81
   5  13  -4    2.87    0.88
   4  13  -4    0.01    0.76
  -2 -13   4    0.41    0.68
  -1 -13   4    1.91    0.78
   0 -13   4    2.27    0.75
   1 -13   4    3.95    0.91
   2 -13   4    6.81    1.03
   3 -13   4    0.29    0.71
   4 -13   4    3.74    0.92
   5 -13   4    0.26    0.77
   7  12  -4    2.97    0.94
   6  12  -4   -0.64    0.70
   5  12  -4    6.08    1.01
   4  12  -4    0.42    0.67
  -2 -12   4    2.98    0.75
  -1 -12   4    2.08    0.75
   0 -12   4    8.16    1.03
   1 -12   4    0.63    0.62
   1 -12   4    0.98    0.63
   2 -12   4   -0.07    0.63
   3 -12   4    0.23    0.65
   4 -12   4    0.26    0.69
   5 -12   4    3.27    0.90
   6 -12   4    2.48    0.93
   8  11  -4    6.27    1.16
   7  11  -4    1.26    0.86
   6  11  -4   -0.34    0.68
   5  11  -4    0.71    0.70
   4  11  -4    0.87    0.67
  -2 -11   4    0.94    0.69
  -1 -11   4   18.80    1.19
   0 -11   4    0.65    0.61
   0 -11   4   -0.63    0.48
   1 -11   4    0.50    0.60
   1 -11   4    1.03    0.63
   2 -11   4    2.68    0.69
   2 -11   4    2.69    0.72
   3 -11   4   -0.56    0.56
   4 -11   4   -0.74    0.58
   5 -11   4    0.50    0.70
   6 -11   4    0.00    0.69
   7 -11   4    8.27    1.18
   9  10  -4    4.89    1.10
   8  10  -4   -0.29    0.75
   7  10  -4    1.14    0.78
   6  10  -4    0.08    0.68
   5  10  -4    5.48    0.90
   4  10  -4    3.74    0.79
  -2 -10   4    4.41    0.81
  -1 -10   4    2.17    0.63
   0 -10   4    0.50    0.55
   0 -10   4    0.35    0.56
   1 -10   4    1.27    0.59
   1 -10   4    1.50    0.62
   2 -10   4    0.50    0.56
   2 -10   4    0.26    0.58
   3 -10   4    2.50    0.78
   3 -10   4    4.45    0.84
   4 -10   4    4.61    0.82
   5 -10   4    2.57    0.79
   6 -10   4    0.31    0.69
   7 -10   4    3.18    0.94
   8 -10   4    0.82    0.81
   9   9  -4    0.06    0.79
   8   9  -4    1.67    0.79
   7   9  -4    0.46    0.65
   6   9  -4    1.58    0.66
   5   9  -4    6.71    0.94
   4   9  -4    8.64    1.00
   3   9  -4   13.02    0.99
  -2  -9   4    1.01    0.57
  -1  -9   4    1.65    0.58
  -1  -9   4    1.59    0.58
   0  -9   4    8.96    0.88
   0  -9   4    7.55    0.85
   1  -9   4    2.50    0.63
   1  -9   4    2.48    0.61
   2  -9   4    5.45    0.74
   2  -9   4    5.64    0.75
   3  -9   4   18.03    1.14
   3  -9   4   17.34    1.10
   4  -9   4    5.67    0.87
   4  -9   4    5.57    1.08
   5  -9   4    8.34    1.03
   6  -9   4    0.86    0.69
   7  -9   4    0.14    0.72
   8  -9   4   -0.34    0.67
   9   8  -4    2.47    0.87
   8   8  -4    1.88    0.80
   7   8  -4    4.28    0.89
   6   8  -4   21.24    1.39
   5   8  -4    0.04    0.58
   4   8  -4   17.07    1.06
   3   8  -4    7.32    0.84
  -2  -8   4    9.82    0.91
  -1  -8   4   12.78    0.89
  -1  -8   4   11.98    0.96
   0  -8   4   14.74    0.91
   0  -8   4   15.23    0.97
   1  -8   4    2.91    0.62
   1  -8   4    2.29    0.56
   2  -8   4    0.58    0.50
   2  -8   4    0.75    0.48
   3  -8   4   -0.03    0.51
   3  -8   4   -0.35    0.48
   4  -8   4    1.69    0.70
   4  -8   4    1.12    0.58
   5  -8   4    9.77    1.04
   5  -8   4    8.62    0.99
   6  -8   4    0.19    0.58
   7  -8   4   -0.18    0.62
   8  -8   4    2.74    0.83
  10   7  -4    2.61    0.96
   9   7  -4    3.16    0.92
   8   7  -4   10.68    1.21
   7   7  -4   -0.50    0.59
   6   7  -4    0.36    0.61
   5   7  -4    1.52    0.60
   4   7  -4    8.06    0.84
   3   7  -4    1.11    0.52
  -2  -7   4    1.73    0.54
  -2  -7   4    1.74    0.51
  -1  -7   4   -0.33    0.39
  -1  -7   4    0.17    0.38
   0  -7   4  106.02    2.23
   0  -7   4  104.05    2.14
   1  -7   4    3.18    0.57
   1  -7   4    2.78    0.55
   2  -7   4    3.01    0.57
   2  -7   4    2.72    0.59
   3  -7   4    1.90    0.56
   3  -7   4    2.46    0.62
   4  -7   4    2.14    0.60
   4  -7   4    1.74    0.58
   5  -7   4   22.17    1.19
   5  -7   4   23.49    1.24
   6  -7   4    6.82    0.89
   6  -7   4    7.26    0.92
   7  -7   4    1.55    0.68
   8  -7   4    7.58    1.06
  10   6  -4    9.81    1.26
   9   6  -4   -0.94    0.67
   8   6  -4    0.52    0.66
   7   6  -4    3.25    0.72
   6   6  -4    0.66    0.56
   5   6  -4    1.15    0.51
   4   6  -4   11.20    0.87
   3   6  -4    0.19    0.45
  -2  -6   4   16.32    0.88
  -2  -6   4   16.84    0.92
  -1  -6   4    5.83    0.65
  -1  -6   4    3.95    0.56
   0  -6   4   39.35    1.18
   0  -6   4   38.73    1.28
   1  -6   4    3.20    0.52
   1  -6   4    3.11    0.52
   2  -6   4    1.21    0.49
   2  -6   4    0.32    0.40
   3  -6   4    2.85    0.54
   3  -6   4    2.17    0.54
   4  -6   4    9.44    0.83
   4  -6   4    9.39    0.93
   5  -6   4    1.12    0.64
   5  -6   4    0.32    0.52
   6  -6   4    3.77    0.80
   6  -6   4    4.18    0.76
   7  -6   4   15.67    1.17
   7  -6   4   16.74    1.17
   8  -6   4    0.63    0.61
  10   5  -4    0.13    0.78
   9   5  -4    0.22    0.67
   8   5  -4    3.50    0.82
   7   5  -4    0.92    0.56
   6   5  -4    1.58    0.56
   5   5  -4    8.27    0.80
   4   5  -4    1.62    0.51
   3   5  -4   -0.51    0.33
   2   5  -4    9.77    0.75
  -2  -5   4    9.30    0.73
  -1  -5   4    0.10    0.35
  -1  -5   4    0.02    0.37
   0  -5   4   10.04    0.72
   0  -5   4   10.51    0.73
   1  -5   4    9.59    0.81
   1  -5   4    6.72    0.59
   2  -5   4   20.90    0.99
   2  -5   4   21.77    0.90
   3  -5   4   -0.73    0.32
   3  -5   4    0.55    0.42
   4  -5   4    7.28    0.73
   4  -5   4    6.79    0.74
   5  -5   4    1.37    0.50
   5  -5   4    0.50    0.49
   6  -5   4    3.96    0.79
   6  -5   4    3.67    0.67
   7  -5   4   11.97    1.06
   7  -5   4   11.39    1.15
   8  -5   4    2.92    0.71
   8  -5   4    0.71    0.75
  11   4  -4    1.68    0.89
  10   4  -4    1.42    0.81
   9   4  -4    0.70    0.71
   8   4  -4    0.06    0.61
   7   4  -4    9.25    0.99
   6   4  -4    6.10    0.78
   5   4  -4    0.45    0.44
   4   4  -4    1.22    0.47
   3   4  -4    9.69    0.74
   2   4  -4    8.25    0.60
  -2  -4   4    9.56    0.75
  -1  -4   4   -0.10    0.33
  -1  -4   4   -0.07    0.32
   0  -4   4    0.28    0.38
   0  -4   4    0.52    0.32
   1  -4   4   14.75    0.82
   1  -4   4   13.57    0.73
   2  -4   4    3.27    0.56
   2  -4   4    2.89    0.44
   3  -4   4   22.02    1.00
   3  -4   4   22.62    0.92
   4  -4   4    1.33    0.50
   4  -4   4    0.87    0.40
   5  -4   4    9.36    0.79
   5  -4   4    9.18    0.90
   6  -4   4    1.57    0.62
   6  -4   4    1.98    0.58
   7  -4   4    2.96    0.71
   7  -4   4    1.62    0.69
   8  -4   4   -0.31    0.63
   8  -4   4    0.31    0.58
   9  -4   4    0.60    0.77
  11   3  -4    0.83    0.87
  10   3  -4   -0.37    0.72
   9   3  -4    1.36    0.70
   8   3  -4    3.34    0.76
   7   3  -4    2.28    0.68
   6   3  -4  106.04    2.33
   5   3  -4   12.41    0.81
   4   3  -4   36.08    1.18
   3   3  -4    1.68    0.42
   2   3  -4    3.85    0.44
  -2  -3   4    3.16    0.45
  -1  -3   4   38.75    0.95
  -1  -3   4   38.44    1.06
  -1  -3   4   39.76    0.68
   0  -3   4   10.95    0.58
   0  -3   4   11.93    0.74
   1  -3   4   18.32    0.67
   1  -3   4   19.42    0.81
   2  -3   4    6.08    0.59
   2  -3   4    5.90    0.48
   3  -3   4   32.15    0.96
   3  -3   4   31.31    1.19
   4  -3   4    4.32    0.54
   4  -3   4    3.97    0.58
   5  -3   4   25.73    1.03
   5  -3   4   23.60    1.13
   6  -3   4    0.40    0.54
   6  -3   4   -0.45    0.45
   7  -3   4    1.78    0.64
   7  -3   4    1.33    0.66
   8  -3   4   -0.31    0.64
   9  -3   4    0.48    0.72
  10  -3   4    0.84    0.83
  11   2  -4   -0.62    0.73
  10   2  -4    0.42    0.67
   9   2  -4    1.28    0.73
   8   2  -4    0.40    0.56
   7   2  -4    0.23    0.55
   6   2  -4   16.23    1.02
   5   2  -4   27.31    1.10
   4   2  -4  162.28    2.59
   3   2  -4    9.77    0.66
   2   2  -4    4.93    0.47
  -2  -2   4    5.06    0.38
  -2  -2   4    3.96    0.44
   1   2  -4   26.23    0.73
  -1  -2   4   25.31    0.61
  -1  -2   4   24.84    0.81
   0  -2   4   37.02    0.75
   0  -2   4   36.89    0.99
   1  -2   4    4.55    0.51
   1  -2   4    4.23    0.35
   2  -2   4    7.32    0.67
   2  -2   4    6.45    0.46
   3  -2   4   14.13    0.94
   3  -2   4   13.38    0.65
   4  -2   4    3.33    0.61
   4  -2   4    2.43    0.43
   5  -2   4   23.61    1.01
   5  -2   4   22.24    1.18
   6  -2   4    7.57    0.77
   6  -2   4    6.61    0.84
   7  -2   4   -0.50    0.50
   7  -2   4   -0.35    0.58
   8  -2   4   13.61    1.30
   9  -2   4    0.00    0.71
  10  -2   4    0.80    0.86
  11   1  -4    0.69    0.86
  10   1  -4   -0.48    0.70
   9   1  -4    5.07    0.94
   8   1  -4    5.77    0.93
   7   1  -4    7.88    0.92
   6   1  -4   -0.34    0.43
   5   1  -4   22.63    1.02
   4   1  -4   69.47    1.59
   3   1  -4   35.02    1.01
   2   1  -4  252.29    3.01
  -2  -1   4  258.77    3.18
  -2  -1   4  255.31    2.96
   1   1  -4   12.84    0.54
  -1  -1   4   13.32    0.58
  -1  -1   4   13.60    0.69
   0  -1   4   18.64    0.70
   1  -1   4    0.94    0.38
   1  -1   4    1.63    0.21
   2  -1   4    0.87    0.25
   2  -1   4    1.33    0.39
   3  -1   4    1.49    0.44
   3  -1   4    1.60    0.33
   4  -1   4    0.25    0.40
   4  -1   4    0.13    0.32
   5  -1   4    4.71    0.73
   5  -1   4    3.94    0.56
   6  -1   4   13.00    1.14
   6  -1   4   12.70    0.91
   7  -1   4    3.08    0.74
   7  -1   4    3.07    0.66
   8  -1   4    5.88    1.02
   9  -1   4    3.84    0.98
  10  -1   4   14.60    1.57
  11   0  -4    0.08    0.79
  10   0  -4    1.57    0.87
   9   0  -4    8.76    1.16
   8   0  -4    0.23    0.60
   7   0  -4   12.83    1.09
   6   0  -4    0.65    0.44
   5   0  -4   26.81    1.10
   4   0  -4   17.38    0.88
   3   0  -4    0.63    0.35
  -3   0   4    0.12    0.29
   2   0  -4    7.73    0.52
  -2   0   4    7.75    0.53
  -2   0   4    8.35    0.54
   1   0  -4  219.77    2.39
  -1   0   4  219.24    2.69
  -1   0   4  221.12    2.63
   0   0   4   30.21    0.83
   1   0   4   35.80    1.04
   2   0   4   21.19    0.53
   2   0   4   20.40    0.86
   3   0   4    0.94    0.41
   3   0   4    0.98    0.30
   4   0   4    4.63    0.49
   4   0   4    3.48    0.61
   5   0   4    6.24    0.81
   5   0   4    8.67    0.63
   6   0   4    0.67    0.59
   6   0   4    0.03    0.45
   7   0   4   10.92    0.97
   7   0   4   11.32    1.15
   8   0   4    0.72    0.72
   9   0   4    4.14    0.95
  10   0   4    3.90    1.07
  11  -1  -4   -0.83    0.75
  10  -1  -4    9.51    1.19
   9  -1  -4   -0.01    0.69
   8  -1  -4   -0.32    0.57
   7  -1  -4    4.35    0.77
   6  -1  -4   -0.24    0.43
   5  -1  -4    8.74    0.77
   4  -1  -4    1.93    0.49
   3  -1  -4   10.18    0.64
  -3   1   4   11.26    0.65
   2  -1  -4   12.61    0.58
  -2   1   4   12.82    0.47
  -2   1   4   11.74    0.64
   1  -1  -4   10.27    0.48
  -1   1   4   10.69    0.49
  -1   1   4   10.13    0.65
   0  -1  -4   14.32    0.35
   0   1   4   14.69    0.63
   1   1   4   15.52    0.32
   1   1   4   15.28    0.69
   2   1   4    1.85    0.43
   2   1   4    1.55    0.23
   3   1   4    0.81    0.28
   3   1   4    0.22    0.41
   4   1   4   -0.03    0.28
   4   1   4    0.34    0.43
   5   1   4    1.64    0.42
   5   1   4    1.41    0.56
   6   1   4    0.88    0.61
   6   1   4    1.04    0.49
   7   1   4   14.16    0.99
   7   1   4   14.87    1.34
   8   1   4    0.62    0.76
   9   1   4    4.29    1.01
  10   1   4    1.24    0.88
  11  -2  -4    0.48    0.77
  10  -2  -4    6.22    1.07
   9  -2  -4    4.03    0.86
   8  -2  -4    0.85    0.66
   7  -2  -4    1.56    0.57
   6  -2  -4   15.87    0.98
   5  -2  -4    0.50    0.40
   4  -2  -4    2.93    0.52
  -4   2   4    2.26    0.47
   3  -2  -4   43.39    1.14
  -3   2   4   42.90    1.13
   2  -2  -4   37.27    0.93
  -2   2   4   39.59    0.67
   1  -2  -4    3.86    0.35
  -1   2   4    3.60    0.33
  -1   2   4    3.61    0.42
   0  -2  -4   11.73    0.45
   0   2   4   12.47    0.57
   1   2   4    1.90    0.24
   1   2   4    1.39    0.36
   2   2   4   44.92    0.85
   2   2   4   46.29    1.26
   3   2   4    0.54    0.27
   3   2   4    0.03    0.38
   4   2   4   12.24    0.94
   4   2   4   14.72    0.67
   5   2   4    1.90    0.48
   5   2   4    1.77    0.62
   6   2   4   31.75    1.56
   6   2   4   31.94    1.18
   7   2   4    6.25    1.00
   8   2   4   -0.61    0.59
   9   2   4    4.55    1.09
  10   2   4    1.80    1.03
  11  -3  -4    0.65    0.85
  10  -3  -4    2.57    0.91
   9  -3  -4    2.27    0.82
   8  -3  -4    0.70    0.65
   7  -3  -4   33.10    1.49
   6  -3  -4    1.15    0.48
   6  -3  -4    0.48    0.31
   5  -3  -4    7.24    0.77
   4  -3  -4    8.16    0.72
  -4   3   4    6.45    0.66
   3  -3  -4    2.25    0.46
  -3   3   4    2.82    0.46
   2  -3  -4   33.09    0.93
  -2   3   4   33.05    0.99
  -2   3   4   32.14    0.54
   1  -3  -4    6.45    0.47
  -1   3   4    6.85    0.56
  -1   3   4    6.28    0.39
   0  -3  -4    0.45    0.27
   0   3   4   -0.09    0.25
  -1  -3  -4    8.87    0.50
   1   3   4    8.52    0.57
   2   3   4    3.64    0.38
   2   3   4    3.33    0.52
   3   3   4   17.42    0.68
   3   3   4   16.38    0.92
   4   3   4   20.83    1.14
   4   3   4   21.77    0.83
   5   3   4    6.19    0.63
   5   3   4    7.61    0.91
   6   3   4    0.32    0.44
   6   3   4   -0.01    0.60
   7   3   4    0.65    0.65
   8   3   4    0.66    0.72
   9   3   4    5.13    1.09
  11  -4  -4    1.43    0.90
  10  -4  -4    4.82    0.96
   9  -4  -4    4.01    0.89
   8  -4  -4    1.48    0.70
   7  -4  -4   13.11    1.01
   6  -4  -4    0.26    0.45
   5  -4  -4   -0.12    0.37
   4  -4  -4    0.08    0.39
  -4   4   4    0.18    0.35
   3  -4  -4   94.53    1.84
  -3   4   4   94.45    1.85
   2  -4  -4    7.16    0.58
  -2   4   4    8.42    0.66
  -2   4   4    6.41    0.27
   1  -4  -4   39.35    1.04
  -1   4   4   36.73    1.09
  -1   4   4   36.26    0.80
   0  -4  -4   36.87    0.94
   0   4   4   37.84    0.98
  -1  -4  -4   61.37    1.20
   1   4   4   62.61    1.43
   2   4   4    5.77    0.49
   2   4   4    5.24    0.63
   3   4   4    0.20    0.38
   3   4   4   -0.20    0.28
   4   4   4    9.64    0.94
   4   4   4   10.36    0.66
   5   4   4   -0.22    0.47
   5   4   4    0.21    0.38
   6   4   4    2.58    0.76
   6   4   4    2.61    0.59
   7   4   4    0.76    0.69
   8   4   4    0.34    0.74
   9   4   4   12.65    1.52
  11  -5  -4    0.77    0.79
  10  -5  -4    0.75    0.78
   9  -5  -4    0.55    0.70
   8  -5  -4   -0.39    0.59
   7  -5  -4    8.83    0.97
   6  -5  -4    1.28    0.53
   5  -5  -4    6.25    0.72
   4  -5  -4   13.43    0.90
  -4   5   4   14.63    0.85
   3  -5  -4    1.17    0.45
  -3   5   4    2.29    0.45
   2  -5  -4    0.23    0.38
  -2   5   4    0.42    0.38
  -2   5   4    0.40    0.17
   1  -5  -4  105.93    1.91
  -1   5   4  107.08    1.91
  -1   5   4  107.47    1.60
   0  -5  -4    2.69    0.44
   0   5   4    2.76    0.40
  -1  -5  -4   13.47    0.73
   3   5   4   -0.39    0.34
   3   5   4   -0.26    0.30
   4   5   4   12.85    0.77
   4   5   4   12.72    1.09
   5   5   4    0.33    0.51
   5   5   4    0.43    0.41
   6   5   4    3.09    0.63
   6   5   4    1.99    0.72
   7   5   4    7.92    1.14
   8   5   4    0.54    0.81
   9   5   4    1.42    0.87
  10  -6  -4   -0.37    0.72
   9  -6  -4   12.46    1.28
   8  -6  -4    0.11    0.62
   7  -6  -4    2.30    0.71
   6  -6  -4    3.55    0.67
   5  -6  -4    0.89    0.47
   4  -6  -4    0.44    0.40
  -4   6   4    0.29    0.44
   3  -6  -4    3.20    0.60
  -3   6   4    3.57    0.55
   2  -6  -4   15.98    0.90
  -2   6   4   16.16    0.48
  -2   6   4   17.12    0.88
   1  -6  -4   20.56    0.96
  -1   6   4   22.20    0.90
   0  -6  -4   18.76    0.87
   0   6   4   16.94    0.82
  -1  -6  -4    0.10    0.36
  -2  -6  -4    1.62    0.43
   3   6   4    1.17    0.41
   4   6   4    1.26    0.44
   5   6   4    0.12    0.54
   5   6   4    0.41    0.43
   6   6   4   -1.16    0.47
   7   6   4    1.30    0.77
   8   6   4    4.83    1.09
   9   6   4    0.01    0.79
  10  -7  -4    0.67    0.79
   9  -7  -4   12.92    1.31
   8  -7  -4    0.51    0.66
   7  -7  -4    1.04    0.64
   6  -7  -4   -0.08    0.53
   5  -7  -4    0.64    0.48
  -5   7   4    0.55    0.50
   4  -7  -4   10.44    0.95
  -4   7   4   11.63    0.89
   3  -7  -4    8.22    0.83
  -3   7   4    9.31    0.78
   2  -7  -4    0.76    0.45
  -2   7   4    0.02    0.33
   1  -7  -4   10.55    0.83
  -1   7   4    9.44    0.76
   0  -7  -4    6.90    0.71
   0   7   4    7.83    0.69
  -1  -7  -4   -0.26    0.36
  -2  -7  -4    0.02    0.40
   3   7   4   -0.25    0.42
   4   7   4    2.32    0.58
   5   7   4    0.34    0.51
   6   7   4    0.99    0.74
   7   7   4   -0.29    0.59
   8   7   4    1.90    0.89
  10  -8  -4    1.35    0.84
   9  -8  -4    1.93    0.82
   8  -8  -4    0.43    0.71
   7  -8  -4   19.01    1.31
   6  -8  -4   16.27    1.23
   5  -8  -4    2.53    0.71
  -5   8   4    2.23    0.59
   4  -8  -4    5.39    0.81
  -4   8   4    3.91    0.67
   3  -8  -4    0.64    0.54
  -3   8   4    0.82    0.48
   2  -8  -4    0.07    0.46
  -2   8   4   -0.06    0.39
   1  -8  -4    0.05    0.46
  -1   8   4    0.06    0.38
   0  -8  -4   -0.82    0.36
   0   8   4    0.52    0.40
  -1  -8  -4    1.44    0.51
  -2  -8  -4    0.45    0.45
   3   8   4    4.31    0.66
   4   8   4    0.68    0.50
   5   8   4   -1.53    0.43
   6   8   4    4.33    0.90
   7   8   4    0.56    0.75
   8   8   4    2.94    1.02
   9  -9  -4    0.36    0.74
   8  -9  -4    1.09    0.74
   7  -9  -4   22.37    1.47
   6  -9  -4    0.30    0.64
   5  -9  -4    3.79    0.82
  -5   9   4    4.10    0.72
   4  -9  -4    0.95    0.63
  -4   9   4    0.62    0.53
   3  -9  -4   14.12    1.15
  -3   9   4   12.83    0.94
   2  -9  -4   11.47    1.05
  -2   9   4   11.73    0.87
   1  -9  -4    1.12    0.56
  -1   9   4    1.19    0.49
   0  -9  -4   -0.17    0.47
   0   9   4   -0.95    0.37
  -1  -9  -4    3.91    0.70
  -2  -9  -4    1.06    0.56
   3   9   4    2.47    0.61
   4   9   4    0.80    0.54
   5   9   4    0.88    0.61
   7   9   4    4.55    1.03
   9 -10  -4    0.46    0.72
   8 -10  -4    0.11    0.75
   7 -10  -4   10.06    1.24
   6 -10  -4   -0.09    0.58
   5 -10  -4    4.04    0.84
  -5  10   4    2.73    0.69
   4 -10  -4    1.13    0.70
  -4  10   4   -0.31    0.50
   3 -10  -4    4.11    0.82
  -3  10   4    3.29    0.67
   2 -10  -4    1.96    0.69
  -2  10   4    0.16    0.47
   1 -10  -4    7.96    0.96
  -1  10   4    8.52    0.81
   0 -10  -4    1.66    0.62
   0  10   4    1.78    0.54
  -1 -10  -4   25.39    1.35
   1  10   4   28.90    1.23
  -2 -10  -4    0.81    0.59
   3  10   4    0.90    0.55
   4  10   4   13.94    1.16
   7  10   4    8.37    1.22
   8 -11  -4    0.59    0.80
   7 -11  -4    1.08    0.81
   6 -11  -4   11.36    1.29
   5 -11  -4    5.32    1.00
   4 -11  -4    0.52    0.69
  -4  11   4    0.83    0.59
   3 -11  -4    1.47    0.73
  -3  11   4   -0.55    0.48
   2 -11  -4    6.75    0.95
  -2  11   4    9.21    0.89
   1 -11  -4    0.97    0.69
  -1  11   4    0.85    0.55
   0 -11  -4    1.98    0.72
   0  11   4    2.00    0.61
  -1 -11  -4    3.88    0.80
   1  11   4    3.43    0.67
  -2 -11  -4   23.48    1.34
   3  11   4    4.80    0.79
   4  11   4   10.61    1.10
   7 -12  -4    0.64    0.77
   6 -12  -4    2.07    0.89
   5 -12  -4    0.95    0.70
   4 -12  -4    2.85    0.91
   3 -12  -4    3.64    0.90
   2 -12  -4    0.57    0.66
   1 -12  -4    2.09    0.77
   0 -12  -4    6.50    0.99
  -1 -12  -4    3.71    0.84
  -2 -12  -4   -0.23    0.63
   3  12   4    1.27    0.62
   4  12   4    5.53    0.90
   6 -13  -4    0.69    0.86
   5 -13  -4    0.71    0.79
   4 -13  -4    0.09    0.70
   3 -13  -4    6.39    1.06
   2 -13  -4    5.52    0.99
   1 -13  -4    1.00    0.74
   0 -13  -4    8.67    1.13
  -1 -13  -4    0.47    0.73
  -2 -13  -4    0.65    0.70
   3  13   4    0.00    0.60
   5 -14  -4    1.47    0.94
   4 -14  -4    0.03    0.81
   3 -14  -4    1.90    0.84
   2 -14  -4   -0.38    0.75
   1 -14  -4    0.51    0.75
   0 -14  -4    0.42    0.77
  -1 -14  -4   -0.43    0.73
  -2 -14  -4   -0.87    0.69
   3  14   4    0.57    0.69
   3 -15  -4    0.85    0.91
   2 -15  -4    0.29    0.83
   1 -15  -4    1.24    0.88
   0 -15  -4    1.11    0.88
  -1 -15  -4    6.75    1.14
   3  15  -5    1.02    0.94
  -2 -15   5    3.40    0.97
  -1 -15   5    0.94    0.79
   0 -15   5    1.61    0.85
   1 -15   5   11.57    1.37
   2 -15   5    1.48    0.82
   5  14  -5    4.78    1.10
   4  14  -5    0.54    0.83
   3  14  -5   -0.34    0.69
  -2 -14   5    0.16    0.73
   0 -14   5    0.62    0.68
   1 -14   5   -0.37    0.65
   2 -14   5    0.68    0.75
   3 -14   5    1.30    0.84
   4 -14   5   -0.07    0.76
   6  13  -5   10.58    1.42
   5  13  -5   24.58    1.62
   4  13  -5   -0.39    0.71
  -2 -13   5    0.99    0.73
  -1 -13   5    1.17    0.73
   0 -13   5    4.55    0.93
   1 -13   5    1.83    0.80
   1 -13   5    1.80    0.77
   2 -13   5   -0.61    0.65
   3 -13   5    0.97    0.77
   4 -13   5   -0.32    0.68
   5 -13   5    0.52    0.76
   7  12  -5    1.89    0.95
   6  12  -5    1.60    0.91
   5  12  -5   10.74    1.23
   4  12  -5    4.37    0.99
  -2 -12   5    7.62    1.00
  -1 -12   5    2.47    0.73
   0 -12   5   -0.44    0.62
   0 -12   5   -0.39    0.59
   1 -12   5   -0.15    0.56
   1 -12   5   -0.51    0.60
   2 -12   5    6.81    0.97
   2 -12   5    5.34    0.89
   3 -12   5    4.01    0.91
   4 -12   5    1.55    0.75
   5 -12   5    1.50    0.80
   6 -12   5    0.45    0.80
   8  11  -5    0.01    0.81
   7  11  -5    0.94    0.85
   6  11  -5    0.72    0.77
   5  11  -5   15.51    1.43
   4  11  -5    2.45    0.80
   3  11  -5   -0.30    0.58
  -2 -11   5    0.53    0.63
  -1 -11   5    4.68    0.85
  -1 -11   5    3.74    0.80
   0 -11   5    2.89    0.76
   0 -11   5    1.41    0.62
   1 -11   5    6.12    0.85
   1 -11   5    6.58    0.90
   2 -11   5    0.46    0.64
   2 -11   5    0.01    0.63
   3 -11   5    7.10    0.99
   3 -11   5    6.68    0.93
   4 -11   5    7.14    1.03
   5 -11   5    0.23    0.68
   6 -11   5    0.62    0.75
   7 -11   5    1.68    0.85
   9  10  -5    0.33    0.88
   8  10  -5   -0.96    0.67
   7  10  -5    2.44    0.90
   6  10  -5    6.11    1.01
   5  10  -5    0.75    0.65
   4  10  -5    2.58    0.77
   3  10  -5    0.44    0.57
  -2 -10   5    0.18    0.50
  -1 -10   5    1.85    0.61
  -1 -10   5    1.77    0.63
   0 -10   5    0.77    0.58
   0 -10   5    0.28    0.50
   1 -10   5    0.45    0.53
   1 -10   5   -0.66    0.56
   2 -10   5   11.19    1.06
   2 -10   5   10.93    1.08
   3 -10   5    5.10    0.84
   3 -10   5    5.62    0.87
   4 -10   5    0.35    0.69
   4 -10   5    1.32    0.68
   5 -10   5   -0.72    0.61
   6 -10   5   -0.18    0.64
   7 -10   5   -0.41    0.70
   9   9  -5    1.29    0.82
   8   9  -5    1.11    0.74
   7   9  -5   -0.07    0.60
   6   9  -5    3.22    0.85
   5   9  -5    3.45    0.82
   4   9  -5    0.19    0.55
   3   9  -5   -0.40    0.48
  -2  -9   5    3.34    0.70
  -2  -9   5    3.11    0.65
  -1  -9   5    1.04    0.57
  -1  -9   5    0.52    0.55
   0  -9   5    1.72    0.58
   0  -9   5    1.93    0.59
   1  -9   5    0.23    0.46
   1  -9   5    0.41    0.45
   2  -9   5   16.68    1.15
   2  -9   5   16.84    1.10
   3  -9   5    0.31    0.60
   3  -9   5    0.99    0.60
   4  -9   5   10.48    1.06
   4  -9   5    8.52    1.06
   5  -9   5   -0.10    0.73
   5  -9   5   -0.67    0.54
   6  -9   5    4.31    0.88
   7  -9   5    4.75    0.93
  10   8  -5    1.65    0.86
   9   8  -5    0.12    0.76
   8   8  -5    1.06    0.77
   7   8  -5   -0.47    0.60
   6   8  -5   -0.04    0.56
   5   8  -5   11.53    1.14
   4   8  -5    7.62    0.86
   3   8  -5   -0.47    0.41
  -2  -8   5   -0.21    0.43
  -2  -8   5    0.43    0.50
  -1  -8   5    0.16    0.44
  -1  -8   5    0.57    0.45
   0  -8   5    0.43    0.46
   0  -8   5    0.49    0.45
   1  -8   5    5.13    0.72
   1  -8   5    4.60    0.64
   2  -8   5    0.92    0.51
   2  -8   5    0.96    0.48
   3  -8   5    5.27    0.76
   3  -8   5    4.66    0.80
   4  -8   5    2.96    0.80
   4  -8   5    3.53    0.74
   5  -8   5    0.59    0.58
   5  -8   5    0.80    0.76
   6  -8   5    1.97    0.82
   6  -8   5    1.27    0.64
   7  -8   5    6.03    0.96
  10   7  -5    2.12    0.93
   9   7  -5   -0.28    0.70
   8   7  -5    1.81    0.78
   7   7  -5    8.73    1.04
   6   7  -5    1.46    0.65
   5   7  -5    3.69    0.75
   4   7  -5   27.11    1.25
   3   7  -5    1.68    0.57
  -2  -7   5    0.19    0.43
  -2  -7   5   -0.54    0.37
  -1  -7   5   19.92    1.06
  -1  -7   5   19.29    1.02
   0  -7   5    1.68    0.50
   0  -7   5    1.46    0.49
   1  -7   5   13.30    0.87
   1  -7   5   13.03    0.86
   2  -7   5    5.75    0.77
   2  -7   5    5.43    0.67
   3  -7   5    6.64    0.82
   3  -7   5    6.64    0.77
   4  -7   5    0.33    0.68
   4  -7   5    0.69    0.54
   5  -7   5    7.49    1.14
   5  -7   5    6.74    0.88
   6  -7   5    0.54    0.58
   6  -7   5    1.72    0.77
   7  -7   5    6.49    0.94
   7  -7   5    5.43    0.97
  10   6  -5    0.72    0.73
   9   6  -5    0.60    0.82
   8   6  -5    2.52    0.78
   7   6  -5    1.42    0.64
   6   6  -5    0.23    0.55
   5   6  -5    0.98    0.57
   4   6  -5   10.57    0.82
   3   6  -5   18.03    0.93
  -2  -6   5    5.30    0.68
  -1  -6   5   30.20    1.12
  -1  -6   5   31.44    1.21
   0  -6   5    2.37    0.48
   0  -6   5    1.03    0.48
   1  -6   5   -0.73    0.44
   1  -6   5    0.74    0.40
   2  -6   5    0.11    0.44
   2  -6   5   -0.58    0.36
   3  -6   5   12.07    0.92
   3  -6   5   12.71    0.85
   4  -6   5    2.83    0.66
   4  -6   5    3.08    0.59
   5  -6   5    5.22    0.76
   5  -6   5    5.91    0.86
   6  -6   5   -0.86    0.55
   6  -6   5    1.00    0.59
   7  -6   5    1.00    0.75
   7  -6   5    0.65    0.63
  10   5  -5    2.62    0.90
   9   5  -5    0.11    0.58
   8   5  -5    3.00    0.80
   7   5  -5    2.26    0.72
   6   5  -5   11.29    1.04
   5   5  -5   59.12    1.71
   4   5  -5    6.83    0.74
   3   5  -5    0.40    0.37
  -3  -5   5    0.03    0.37
   2   5  -5   66.90    1.54
  -2  -5   5   64.84    1.66
  -1  -5   5   15.91    0.98
  -1  -5   5   17.59    0.85
   0  -5   5   -1.85    0.65
   0  -5   5    3.87    0.50
   1  -5   5    1.81    0.53
   1  -5   5    1.55    0.42
   2  -5   5    3.59    0.52
   2  -5   5    3.10    0.67
   3  -5   5    1.61    0.42
   3  -5   5    1.13    0.49
   4  -5   5    0.15    0.40
   4  -5   5    0.72    0.56
   5  -5   5    2.17    0.69
   5  -5   5    1.46    0.52
   6  -5   5    4.85    0.75
   6  -5   5    5.17    0.86
   7  -5   5   -0.16    0.55
   7  -5   5   -0.42    0.60
   8  -5   5    5.59    1.02
  11   4  -5    1.72    0.91
  10   4  -5    4.21    0.97
   9   4  -5    4.82    0.89
   8   4  -5    7.76    1.05
   7   4  -5    3.61    0.75
   6   4  -5    0.56    0.52
   5   4  -5   17.05    0.99
   4   4  -5    3.60    0.60
   3   4  -5   34.34    1.13
  -3  -4   5   33.33    1.22
   2   4  -5    2.38    0.48
  -2  -4   5    2.16    0.46
  -1  -4   5   58.42    0.88
  -1  -4   5   56.94    1.28
  -1  -4   5   57.27    1.48
   0  -4   5    3.02    0.52
   0  -4   5    3.34    0.44
   1  -4   5    0.99    0.46
   1  -4   5    1.40    0.36
   2  -4   5    9.12    0.65
   2  -4   5    9.16    0.79
   3  -4   5    0.37    0.43
   3  -4   5    0.47    0.36
   4  -4   5   12.51    0.83
   4  -4   5   12.89    0.95
   5  -4   5    9.72    0.79
   5  -4   5   10.16    0.99
   6  -4   5    4.14    0.83
   6  -4   5    3.24    0.65
   7  -4   5    4.88    0.89
   8  -4   5    5.22    0.97
   9  -4   5   12.34    1.35
  11   3  -5    3.06    0.96
  10   3  -5    0.12    0.73
   9   3  -5   -0.24    0.68
   8   3  -5   28.27    1.51
   7   3  -5   -0.23    0.53
   6   3  -5    9.27    0.90
   5   3  -5   14.05    0.85
   4   3  -5   -0.29    0.35
   3   3  -5   17.24    0.80
  -3  -3   5   18.18    0.93
   2   3  -5    2.07    0.41
  -2  -3   5    1.02    0.26
  -2  -3   5    1.40    0.44
   1   3  -5    0.21    0.30
  -1  -3   5    1.17    0.36
  -1  -3   5    0.61    0.23
   0  -3   5   63.14    1.46
   0  -3   5   64.15    1.20
   1  -3   5    9.00    0.74
   1  -3   5    8.50    0.52
   2  -3   5   16.50    0.70
   2  -3   5   13.61    1.04
   3  -3   5    1.20    0.47
   3  -3   5    0.92    0.35
   4  -3   5    0.22    0.33
   4  -3   5   -0.32    0.42
   5  -3   5    0.84    0.41
   5  -3   5    0.12    0.51
   6  -3   5   -0.06    0.44
   6  -3   5    0.05    0.55
   7  -3   5    7.82    1.02
   8  -3   5    7.55    1.06
   9  -3   5    5.53    1.05
  11   2  -5    3.34    1.04
  10   2  -5    0.84    0.72
   9   2  -5   12.10    1.28
   8   2  -5    4.65    0.87
   7   2  -5   42.74    1.62
   6   2  -5   67.97    1.86
   5   2  -5   36.88    1.26
   4   2  -5   17.96    0.90
   3   2  -5   45.89    1.18
  -3  -2   5   45.84    1.24
  -3  -2   5   47.03    1.09
   2   2  -5   12.93    0.64
  -2  -2   5   11.93    0.56
  -2  -2   5   12.89    0.75
   1   2  -5    5.97    0.44
  -1  -2   5    6.52    0.58
  -1  -2   5    6.13    0.42
   0  -2   5   33.37    1.01
   0  -2   5   31.90    0.71
   1  -2   5   23.49    0.96
   1  -2   5   23.21    0.62
   2  -2   5   53.66    1.48
   2  -2   5   52.40    1.01
   3  -2   5    7.27    0.53
   3  -2   5    6.78    0.71
   4  -2   5   12.31    0.95
   4  -2   5   12.02    0.72
   5  -2   5    3.36    0.52
   5  -2   5    3.20    0.65
   6  -2   5    0.09    0.46
   6  -2   5    0.61    0.58
   7  -2   5    2.64    0.76
   8  -2   5    6.86    1.10
   9  -2   5   37.50    1.93
  11   1  -5    0.96    0.92
  10   1  -5    1.94    0.81
   9   1  -5    1.53    0.71
   8   1  -5   -0.22    0.52
   7   1  -5   14.20    1.02
   6   1  -5   42.70    1.48
   5   1  -5   10.18    0.74
   4   1  -5    0.50    0.39
   3   1  -5    5.14    0.54
  -3  -1   5    5.79    0.51
  -3  -1   5    5.54    0.52
   2   1  -5   57.47    1.13
  -2  -1   5   57.84    1.14
  -2  -1   5   57.51    1.21
   1   1  -5   14.51    0.51
  -1  -1   5   14.28    0.62
  -1  -1   5   13.93    0.66
   0   1  -5    1.25    0.21
   0  -1   5    1.33    0.35
   1  -1   5    0.11    0.31
   1  -1   5    0.16    0.17
   2  -1   5   63.11    1.56
   2  -1   5   65.86    1.01
   3  -1   5   19.32    0.66
   3  -1   5   20.04    1.00
   4  -1   5    7.71    0.81
   4  -1   5    7.11    0.56
   5  -1   5   27.49    1.00
   5  -1   5   27.19    1.28
   6  -1   5    1.99    0.69
   6  -1   5    2.69    0.56
   7  -1   5   11.76    1.18
   8  -1   5    4.83    0.95
   9  -1   5    1.39    0.78
  11   0  -5   -0.07    0.80
  10   0  -5    5.57    1.08
   9   0  -5    7.41    1.08
   8   0  -5    1.33    0.63
   7   0  -5   19.72    1.20
   6   0  -5   15.16    1.00
   5   0  -5    4.03    0.61
   4   0  -5   56.43    1.42
  -4   0   5   56.10    1.40
   3   0  -5   19.68    0.79
  -3   0   5   19.74    0.75
  -3   0   5   20.28    0.85
   2   0  -5   27.30    0.78
  -2   0   5   27.11    0.88
  -2   0   5   26.75    0.80
   1   0  -5   93.40    1.25
  -1   0   5   89.50    1.52
  -1   0   5   94.17    1.57
   0   0   5    6.48    0.51
   1   0   5    0.05    0.31
   2   0   5   49.96    1.42
   2   0   5   49.91    0.80
   3   0   5    9.06    0.82
   3   0   5    9.09    0.50
   4   0   5    5.32    0.70
   4   0   5    6.37    0.53
   5   0   5    5.53    0.59
   5   0   5    5.25    0.76
   6   0   5   43.00    1.77
   7   0   5    2.33    0.78
   8   0   5   -0.59    0.62
   9   0   5    0.11    0.80
  11  -1  -5    0.81    0.87
  10  -1  -5    3.17    0.88
   9  -1  -5    6.28    1.04
   8  -1  -5    3.01    0.75
   7  -1  -5   -0.14    0.52
   6  -1  -5    1.24    0.51
   5  -1  -5    7.20    0.73
   4  -1  -5    6.12    0.63
  -4   1   5    5.92    0.62
   3  -1  -5   41.70    1.09
  -3   1   5   39.92    0.91
  -3   1   5   41.73    1.17
   2  -1  -5   24.29    0.75
  -2   1   5   23.66    0.71
  -2   1   5   22.96    0.83
   1  -1  -5   -0.11    0.21
  -1   1   5    0.60    0.34
  -1   1   5    0.05    0.23
   0  -1  -5   59.04    0.72
   0   1   5   57.82    1.25
   1   1   5    0.46    0.35
   2   1   5    2.78    0.25
   2   1   5    1.83    0.49
   3   1   5   52.41    1.56
   3   1   5   52.40    0.98
   4   1   5   15.45    1.06
   4   1   5   14.94    0.65
   5   1   5   29.78    1.45
   5   1   5   29.44    1.01
   6   1   5   39.36    1.70
   7   1   5    1.98    0.78
   8   1   5    3.94    0.94
   9   1   5    2.23    0.89
  11  -2  -5    0.60    0.83
  10  -2  -5    0.98    0.77
   9  -2  -5    1.17    0.69
   8  -2  -5    3.17    0.81
   7  -2  -5   -0.29    0.53
   6  -2  -5    4.87    0.73
   5  -2  -5    1.84    0.49
   4  -2  -5   60.71    1.50
  -4   2   5   58.82    1.48
   3  -2  -5    1.06    0.39
  -3   2   5    0.76    0.24
  -3   2   5    0.45    0.37
   2  -2  -5    0.16    0.28
  -2   2   5   -0.22    0.29
  -2   2   5   -0.02    0.19
   1  -2  -5   15.08    0.56
  -1   2   5   15.46    0.75
  -1   2   5   14.65    0.58
   0  -2  -5   10.26    0.41
   0   2   5    9.33    0.58
   1   2   5    8.65    0.67
   1   2   5    7.28    0.34
   2   2   5    3.82    0.55
   2   2   5    4.62    0.34
   3   2   5   14.96    0.95
   3   2   5   14.86    0.57
   4   2   5   10.61    0.59
   4   2   5   11.76    0.90
   5   2   5    0.46    0.52
   5   2   5    2.19    0.45
   6   2   5    2.98    0.77
   7   2   5    2.15    0.81
   8   2   5    0.52    0.81
   9   2   5    0.36    0.86
  11  -3  -5    1.41    0.87
  10  -3  -5    1.20    0.85
   9  -3  -5    0.50    0.69
   8  -3  -5    0.97    0.68
   7  -3  -5    9.70    0.99
   6  -3  -5    0.99    0.54
   5  -3  -5   12.59    0.85
  -5   3   5   13.28    0.86
   4  -3  -5    9.39    0.76
  -4   3   5    8.80    0.74
   3  -3  -5    0.67    0.38
  -3   3   5    0.19    0.17
  -3   3   5   -0.11    0.37
   2  -3  -5    1.68    0.40
  -2   3   5    2.21    0.25
  -2   3   5    2.61    0.45
   1  -3  -5    0.35    0.30
  -1   3   5    0.70    0.25
  -1   3   5    0.47    0.36
   0  -3  -5    1.42    0.30
   0   3   5    1.31    0.34
  -1  -3  -5    0.11    0.23
   1   3   5    0.21    0.34
   2   3   5    6.74    0.45
   2   3   5    7.93    0.72
   3   3   5   39.03    1.36
   3   3   5   39.00    0.93
   4   3   5    0.90    0.53
   4   3   5    1.32    0.37
   5   3   5    4.20    0.77
   5   3   5    3.43    0.54
   6   3   5    4.16    0.88
   7   3   5   -0.02    0.61
   8   3   5    2.04    0.90
   9   3   5   24.25    1.77
  11  -4  -5    1.83    0.92
  10  -4  -5    1.05    0.72
   9  -4  -5    0.53    0.70
   8  -4  -5    0.83    0.59
   7  -4  -5    5.53    0.85
   6  -4  -5    7.66    0.86
   5  -4  -5   -0.11    0.42
  -5   4   5   -0.35    0.36
   4  -4  -5    1.12    0.46
  -4   4   5    1.52    0.48
   3  -4  -5    0.66    0.39
  -3   4   5    0.45    0.40
   2  -4  -5    5.39    0.53
  -2   4   5    6.37    0.64
  -2   4   5    4.56    0.33
   1  -4  -5  108.42    1.77
  -1   4   5  105.16    1.96
  -1   4   5  104.55    1.63
   0  -4  -5   25.59    0.79
   0   4   5   26.15    0.88
  -1  -4  -5    2.93    0.38
   1   4   5    2.85    0.46
   2   4   5   16.42    0.65
   2   4   5   17.17    0.92
   3   4   5    6.21    0.75
   3   4   5    5.01    0.51
   4   4   5    4.56    0.50
   4   4   5    3.61    0.70
   5   4   5    4.80    0.80
   6   4   5   18.27    1.39
   7   4   5    1.45    0.78
   8   4   5    4.06    0.98
   9   4   5    1.91    0.92
  11  -5  -5    1.24    0.84
  10  -5  -5    6.21    1.12
   9  -5  -5    3.35    0.89
   8  -5  -5    0.63    0.66
   7  -5  -5    4.47    0.84
   6  -5  -5    2.18    0.63
   5  -5  -5    3.99    0.67
  -5   5   5    3.28    0.64
   4  -5  -5   36.64    1.25
  -4   5   5   36.68    1.30
   3  -5  -5    0.63    0.41
  -3   5   5   -0.06    0.37
   2  -5  -5   61.58    1.46
  -2   5   5   61.90    0.98
  -2   5   5   61.17    1.50
   1  -5  -5    5.37    0.56
  -1   5   5    5.95    0.48
  -1   5   5    6.51    0.66
   0  -5  -5   22.89    0.86
   0   5   5   22.55    0.84
  -1  -5  -5    0.68    0.36
   1   5   5    1.02    0.38
   2   5   5    0.26    0.40
   2   5   5    1.00    0.35
   3   5   5    3.03    0.64
   3   5   5    1.75    0.39
   4   5   5    8.46    0.93
   4   5   5    6.75    0.65
   5   5   5    4.47    0.80
   6   5   5   16.50    1.26
   7   5   5   17.11    1.56
   8   5   5    0.27    0.77
   9   5   5    0.66    0.89
  10  -6  -5    2.15    0.87
   9  -6  -5    0.84    0.76
   8  -6  -5    2.61    0.80
   7  -6  -5    4.32    0.85
   6  -6  -5    0.89    0.58
   5  -6  -5    0.59    0.50
  -5   6   5    0.50    0.47
   4  -6  -5   14.54    0.96
  -4   6   5   15.23    0.92
   3  -6  -5    5.05    0.66
  -3   6   5    4.64    0.61
   2  -6  -5   17.65    0.92
  -2   6   5   20.75    0.99
  -2   6   5   19.47    0.56
   1  -6  -5    1.72    0.46
  -1   6   5    1.45    0.44
  -1   6   5    1.25    0.31
   0  -6  -5    2.46    0.49
   0   6   5    1.97    0.47
   0   6   5    1.92    0.40
  -1  -6  -5   16.45    0.82
   1   6   5   19.08    0.91
  -2  -6  -5   13.68    0.78
   2   6   5   15.06    0.93
   3   6   5   22.63    0.92
   3   6   5   23.99    1.24
   4   6   5   21.80    1.00
   4   6   5   22.23    1.32
   5   6   5    1.69    0.68
   6   6   5   -0.23    0.63
   7   6   5    4.56    0.95
   8   6   5   -0.50    0.60
  10  -7  -5    2.58    0.94
   9  -7  -5    5.62    1.00
   8  -7  -5    1.28    0.73
   7  -7  -5    8.21    1.02
   6  -7  -5    9.32    0.96
   5  -7  -5    0.97    0.54
  -5   7   5    0.33    0.49
   4  -7  -5   13.13    0.95
  -4   7   5   12.56    0.94
   3  -7  -5    5.45    0.71
  -3   7   5    4.93    0.67
   2  -7  -5    2.07    0.53
  -2   7   5    1.93    0.51
   1  -7  -5    1.99    0.49
  -1   7   5    1.87    0.36
  -1   7   5    1.67    0.48
   0  -7  -5    8.83    0.77
   0   7   5    8.68    0.76
   0   7   5    8.64    0.65
  -1  -7  -5    3.53    0.58
   1   7   5    3.02    0.56
  -2  -7  -5    9.32    0.76
   2   7   5    8.01    0.80
   3   7   5    0.55    0.42
   3   7   5    0.47    0.50
   4   7   5   10.31    0.87
   4   7   5    8.94    1.01
   5   7   5   12.45    1.23
   6   7   5    3.89    0.92
   7   7   5    4.37    1.01
   8   7   5    2.10    0.90
  10  -8  -5    5.72    1.12
   9  -8  -5    1.31    0.80
   8  -8  -5    0.56    0.72
   7  -8  -5    4.07    0.83
   6  -8  -5    3.80    0.77
   5  -8  -5   11.95    1.12
  -5   8   5   12.97    1.08
   4  -8  -5    0.39    0.54
  -4   8   5    0.49    0.51
   3  -8  -5   -0.29    0.49
  -3   8   5    0.93    0.51
   2  -8  -5   -0.31    0.43
  -2   8   5   -0.10    0.38
   1  -8  -5    1.59    0.54
  -1   8   5    1.36    0.51
   0  -8  -5   22.65    1.06
   0   8   5   23.02    1.11
  -1  -8  -5   12.87    0.88
  -2  -8  -5    2.59    0.56
   3   8   5   35.04    1.30
   4   8   5    2.37    0.69
   5   8   5    6.92    1.05
   6   8   5    9.10    1.19
   7   8   5    5.43    1.05
   8   8   5    5.30    1.19
   9  -9  -5    0.54    0.73
   8  -9  -5    0.19    0.70
   7  -9  -5    0.42    0.74
   6  -9  -5    8.09    1.03
   5  -9  -5    0.93    0.62
  -5   9   5    1.42    0.61
   4  -9  -5   12.14    1.15
  -4   9   5   11.54    1.01
   3  -9  -5    5.85    0.85
  -3   9   5    6.54    0.80
   2  -9  -5    5.71    0.83
  -2   9   5    6.18    0.75
   1  -9  -5   25.46    1.25
  -1   9   5   26.49    1.21
   0  -9  -5    1.86    0.60
   0   9   5    2.27    0.60
  -1  -9  -5   19.24    1.08
  -2  -9  -5   -0.03    0.53
   3   9   5    7.29    0.84
   4   9   5    2.64    0.74
   5   9   5    0.21    0.61
   6   9   5    0.21    0.70
   7   9   5    7.87    1.26
   9 -10  -5   -0.44    0.80
   8 -10  -5    0.75    0.74
   7 -10  -5    0.59    0.71
   6 -10  -5   14.06    1.38
   5 -10  -5    8.04    1.09
  -5  10   5    7.31    0.88
   4 -10  -5    9.12    1.09
  -4  10   5   10.03    0.97
   3 -10  -5   14.12    1.26
  -3  10   5   12.96    1.00
   2 -10  -5    1.25    0.67
  -2  10   5    1.16    0.58
   1 -10  -5    1.80    0.66
  -1  10   5    0.45    0.51
   0 -10  -5   -0.46    0.52
   0  10   5   -0.15    0.47
  -1 -10  -5    2.00    0.68
   1  10   5    2.33    0.62
  -2 -10  -5    0.69    0.59
   3  10   5    6.65    0.84
   5  10   5   -0.25    0.62
   6  10   5    0.73    0.70
   8 -11  -5    1.57    0.92
   7 -11  -5    0.48    0.71
   6 -11  -5    9.66    1.23
   5 -11  -5    3.98    0.93
  -5  11   5    5.89    0.92
   4 -11  -5    0.85    0.72
  -4  11   5   -0.61    0.49
   3 -11  -5    1.48    0.73
  -3  11   5    0.62    0.56
   2 -11  -5    2.14    0.73
  -2  11   5    2.05    0.62
   1 -11  -5    6.55    0.95
  -1  11   5    4.65    0.71
   0 -11  -5    2.47    0.72
   0  11   5    1.52    0.59
  -1 -11  -5    5.12    0.85
   1  11   5    5.37    0.79
  -2 -11  -5    4.35    0.82
   3  11   5    3.88    0.74
   5  11   5   -0.15    0.66
   6  11   5   -0.92    0.65
   7 -12  -5    1.19    0.87
   6 -12  -5   -0.13    0.69
   5 -12  -5    2.01    0.83
   4 -12  -5    0.12    0.78
   3 -12  -5    8.66    1.15
   2 -12  -5   -0.03    0.64
   1 -12  -5    0.37    0.70
   0 -12  -5    2.43    0.80
  -1 -12  -5   10.60    1.13
  -2 -12  -5    0.82    0.69
   5  12   5    2.94    0.90
   6 -13  -5    0.59    0.86
   5 -13  -5    0.97    0.76
   4 -13  -5    2.18    0.88
   3 -13  -5   -0.11    0.75
   2 -13  -5   -0.69    0.67
   1 -13  -5    0.89    0.73
   0 -13  -5    1.93    0.82
  -1 -13  -5    0.49    0.71
  -2 -13  -5   -0.41    0.69
   5 -14  -5   -1.13    0.79
   4 -14  -5    5.34    1.15
   3 -14  -5    0.51    0.86
   2 -14  -5    0.61    0.79
   1 -14  -5    1.07    0.85
   0 -14  -5    4.23    0.98
  -1 -14  -5    0.85    0.80
  -2 -14  -5   -0.78    0.72
   3 -15  -5    3.96    1.10
   2 -15  -5    3.06    0.97
   1 -15  -5   -0.20    0.81
   0 -15  -5    4.31    1.02
   3  15  -6    0.52    0.86
  -2 -15   6    2.55    0.91
  -1 -15   6    1.14    0.80
   0 -15   6    0.79    0.79
   1 -15   6    0.40    0.76
   2 -15   6   -0.19    0.77
   5  14  -6    3.07    1.03
   4  14  -6    2.72    0.95
   3  14  -6    0.40    0.83
  -2 -14   6    1.71    0.81
  -1 -14   6    2.48    0.87
   0 -14   6   -0.64    0.61
   1 -14   6   -0.22    0.70
   2 -14   6    0.38    0.75
   3 -14   6   -0.71    0.68
   6  13  -6    1.24    0.89
   5  13  -6    1.19    0.81
   4  13  -6    2.27    0.92
   3  13  -6    8.04    1.16
  -2 -13   6    0.19    0.64
  -1 -13   6    8.04    1.05
   0 -13   6    3.22    0.88
   0 -13   6    2.88    0.84
   1 -13   6    2.74    0.81
   1 -13   6    3.71    0.93
   2 -13   6    0.48    0.69
   3 -13   6    0.22    0.71
   4 -13   6    1.26    0.79
   5 -13   6    2.50    0.89
   7  12  -6    4.86    1.15
   6  12  -6   -0.33    0.74
   5  12  -6    0.64    0.81
   4  12  -6   -0.16    0.65
   3  12  -6    1.55    0.80
  -2 -12   6    6.82    1.01
  -1 -12   6   14.47    1.34
  -1 -12   6   12.09    1.21
   0 -12   6    0.02    0.60
   0 -12   6    0.41    0.64
   1 -12   6    1.38    0.73
   1 -12   6    3.91    0.85
   2 -12   6    3.73    0.83
   2 -12   6    2.54    0.80
   3 -12   6    0.14    0.66
   4 -12   6   -0.23    0.66
   5 -12   6    2.51    0.87
   6 -12   6    6.64    1.09
   8  11  -6    3.90    1.05
   7  11  -6   -0.64    0.63
   6  11  -6    0.41    0.80
   5  11  -6   -0.99    0.59
   4  11  -6   -0.72    0.60
   3  11  -6    1.01    0.63
  -2 -11   6   -0.84    0.54
  -1 -11   6   -0.12    0.63
  -1 -11   6   -0.42    0.58
   0 -11   6    3.06    0.77
   0 -11   6    3.62    0.79
   1 -11   6   -0.40    0.56
   1 -11   6   -0.14    0.60
   2 -11   6   -0.50    0.64
   2 -11   6   -0.37    0.56
   3 -11   6    2.75    0.86
   3 -11   6    3.77    0.80
   4 -11   6    0.50    0.63
   5 -11   6    0.46    0.71
   6 -11   6    0.03    0.67
   8  10  -6    0.31    0.80
   7  10  -6    1.09    0.72
   6  10  -6    2.05    0.79
   5  10  -6    6.76    1.03
   4  10  -6    9.41    1.09
   3  10  -6    0.06    0.62
  -2 -10   6    4.13    0.80
  -2 -10   6    1.85    0.70
  -1 -10   6    5.63    0.89
  -1 -10   6    5.45    0.84
   0 -10   6    0.69    0.62
   0 -10   6   -0.78    0.44
   1 -10   6    2.61    0.72
   1 -10   6    2.12    0.65
   2 -10   6   16.17    1.22
   2 -10   6   15.33    1.12
   3 -10   6    5.26    1.00
   3 -10   6    6.06    0.88
   4 -10   6   -0.19    0.59
   4 -10   6    0.24    0.79
   5 -10   6    0.55    0.66
   6 -10   6    0.01    0.67
   9   9  -6    0.43    0.83
   8   9  -6    3.65    0.97
   7   9  -6    1.75    0.79
   6   9  -6    0.71    0.70
   5   9  -6   26.37    1.49
   4   9  -6   -0.04    0.54
   3   9  -6    0.45    0.59
  -2  -9   6   16.72    1.12
  -2  -9   6   14.08    1.01
  -1  -9   6    0.34    0.53
  -1  -9   6    0.34    0.49
   0  -9   6    1.63    0.58
   0  -9   6    2.34    0.68
   1  -9   6    0.12    0.50
   1  -9   6    0.98    0.54
   2  -9   6   13.47    1.08
   2  -9   6   13.27    1.03
   3  -9   6   12.93    1.00
   3  -9   6   10.66    1.25
   4  -9   6   -0.56    0.85
   4  -9   6    0.62    0.58
   5  -9   6    3.36    0.99
   5  -9   6    5.49    0.90
   6  -9   6    1.59    0.73
   9   8  -6    1.60    0.85
   8   8  -6    0.61    0.74
   7   8  -6   -1.30    0.56
   6   8  -6    0.65    0.63
   5   8  -6    0.18    0.54
   4   8  -6    2.08    0.63
   3   8  -6    0.22    0.52
  -2  -8   6   32.39    1.39
  -2  -8   6   31.71    1.36
  -1  -8   6    0.84    0.50
  -1  -8   6    1.29    0.53
   0  -8   6    0.53    0.47
   0  -8   6    0.94    0.53
   1  -8   6    3.16    0.61
   1  -8   6    3.33    0.67
   2  -8   6   -0.17    0.44
   2  -8   6    0.15    0.55
   3  -8   6   14.40    1.02
   3  -8   6   15.85    1.26
   4  -8   6    3.98    0.74
   4  -8   6    3.20    0.88
   5  -8   6    9.49    1.16
   5  -8   6    5.55    0.87
   6  -8   6    3.03    0.85
   6  -8   6    3.47    0.82
  10   7  -6    1.71    0.94
   9   7  -6    0.12    0.74
   8   7  -6    0.36    0.70
   7   7  -6   -0.23    0.62
   6   7  -6    0.62    0.59
   5   7  -6   10.24    1.00
   4   7  -6    0.22    0.45
   3   7  -6    6.83    0.79
  -3  -7   6    7.92    0.87
  -2  -7   6   67.08    1.88
  -1  -7   6    6.85    0.79
  -1  -7   6    6.50    0.72
   0  -7   6    6.27    0.77
   0  -7   6    6.04    0.68
   1  -7   6    0.34    0.49
   1  -7   6    0.14    0.39
   2  -7   6    0.32    0.64
   2  -7   6    1.16    0.47
   3  -7   6    9.57    0.85
   3  -7   6    7.40    0.90
   4  -7   6    0.22    0.48
   4  -7   6    0.32    0.59
   5  -7   6   11.53    1.15
   5  -7   6   13.78    1.06
   6  -7   6    7.93    1.06
   6  -7   6    6.77    0.92
   7  -7   6    6.60    1.03
  10   6  -6   -0.53    0.69
   9   6  -6   -0.10    0.64
   8   6  -6   -0.14    0.59
   7   6  -6    3.51    0.79
   6   6  -6    2.26    0.64
   5   6  -6    0.32    0.48
   4   6  -6    0.38    0.49
   3   6  -6    2.37    0.56
  -3  -6   6    2.11    0.57
   2   6  -6    3.01    0.53
  -2  -6   6    2.11    0.55
  -1  -6   6    1.68    0.48
  -1  -6   6    0.78    0.46
   0  -6   6    8.92    0.82
   0  -6   6    8.91    0.35
   0  -6   6    9.49    0.73
   1  -6   6    2.69    0.49
   1  -6   6    3.88    0.68
   2  -6   6    1.12    0.54
   2  -6   6    1.30    0.43
   3  -6   6    1.48    0.62
   3  -6   6    2.48    0.56
   4  -6   6    1.66    0.73
   4  -6   6    1.14    0.52
   5  -6   6   34.72    1.39
   5  -6   6   32.11    1.70
   6  -6   6    1.01    0.72
   7  -6   6    0.36    0.68
   8  -6   6    4.91    1.01
  10   5  -6    3.39    0.96
   9   5  -6    3.79    0.88
   8   5  -6    4.11    0.89
   7   5  -6    0.45    0.56
   6   5  -6    4.88    0.77
   5   5  -6    4.14    0.64
   4   5  -6   11.86    0.86
   3   5  -6    0.87    0.44
  -3  -5   6    0.63    0.44
   2   5  -6    0.23    0.40
  -2  -5   6   -0.42    0.35
  -1  -5   6   12.23    0.43
  -1  -5   6   12.68    0.90
  -1  -5   6   12.10    0.74
   0  -5   6    1.09    0.47
   0  -5   6    0.90    0.38
   1  -5   6   20.00    1.09
   1  -5   6   22.14    0.86
   2  -5   6   13.71    0.89
   2  -5   6   12.75    0.77
   3  -5   6    3.37    0.53
   3  -5   6    3.01    0.61
   4  -5   6    9.46    0.80
   4  -5   6   11.82    1.04
   5  -5   6    8.05    0.94
   5  -5   6    8.06    0.83
   6  -5   6    0.54    0.65
   7  -5   6   -0.03    0.67
   8  -5   6    2.70    0.91
   9  -5   6   -1.05    0.76
  11   4  -6    2.61    0.90
  10   4  -6   -2.14    0.61
   9   4  -6    1.52    0.71
   8   4  -6   24.93    1.48
   7   4  -6    1.36    0.63
   6   4  -6   15.47    1.05
   5   4  -6    1.11    0.52
   4   4  -6    2.88    0.53
   3   4  -6   11.68    0.71
  -3  -4   6   10.41    0.86
   2   4  -6   17.44    0.79
  -2  -4   6   18.43    1.03
  -2  -4   6   21.64    0.67
  -1  -4   6   24.27    0.63
  -1  -4   6   20.57    1.07
   0  -4   6    4.83    0.49
   0  -4   6    6.74    0.92
   1  -4   6   -0.21    0.36
   1  -4   6    0.38    0.32
   2  -4   6    1.12    0.44
   2  -4   6    0.78    0.33
   3  -4   6    7.68    0.62
   3  -4   6    7.16    0.77
   4  -4   6    4.43    0.56
   4  -4   6    3.76    0.71
   5  -4   6    1.61    0.54
   5  -4   6    0.89    0.63
   6  -4   6   13.97    1.26
   7  -4   6   -0.04    0.72
   8  -4   6    0.22    0.73
   9  -4   6   -1.86    0.72
  11   3  -6    1.32    0.88
  10   3  -6   -0.62    0.70
   9   3  -6    0.88    0.70
   8   3  -6   21.31    1.38
   7   3  -6    8.54    0.95
   6   3  -6   18.11    1.10
   5   3  -6   31.79    1.23
   4   3  -6    0.84    0.44
   3   3  -6    6.57    0.62
  -3  -3   6    7.06    0.69
  -3  -3   6    5.30    0.53
   2   3  -6   70.93    1.42
  -2  -3   6   74.79    1.27
  -2  -3   6   70.70    1.62
   1   3  -6   31.23    0.88
  -1  -3   6   30.69    1.14
  -1  -3   6   32.38    0.79
   0  -3   6    0.71    0.29
   0  -3   6    0.97    0.43
   1  -3   6    3.29    0.38
   1  -3   6    2.84    0.64
   2  -3   6    1.97    0.35
   2  -3   6    1.92    0.51
   3  -3   6    3.21    0.41
   3  -3   6    3.06    0.61
   4  -3   6    4.30    0.76
   4  -3   6    3.27    0.49
   5  -3   6    2.27    0.49
   5  -3   6    2.07    0.62
   6  -3   6   40.78    1.68
   7  -3   6    0.51    0.67
   8  -3   6    5.26    0.97
   9  -3   6   -0.71    0.75
  11   2  -6    1.27    0.86
  10   2  -6    0.15    0.75
   9   2  -6    4.15    0.92
   8   2  -6    4.25    0.87
   7   2  -6   -0.07    0.55
   6   2  -6    3.98    0.70
   5   2  -6   58.76    1.62
   4   2  -6   46.10    1.29
   3   2  -6    5.81    0.58
  -3  -2   6    6.68    0.53
  -3  -2   6    6.06    0.61
   2   2  -6    4.07    0.45
  -2  -2   6    2.92    0.49
  -2  -2   6    3.04    0.39
   1   2  -6    2.75    0.36
  -1  -2   6    2.79    0.37
  -1  -2   6    2.51    0.46
   0  -2   6   22.67    0.93
   1  -2   6    0.14    0.36
   1  -2   6   -0.12    0.21
   2  -2   6    7.36    0.45
   2  -2   6    7.31    0.73
   3  -2   6   18.94    0.68
   3  -2   6   17.34    0.97
   4  -2   6    5.95    0.54
   4  -2   6    5.62    0.77
   5  -2   6    0.15    0.55
   6  -2   6   18.56    1.24
   7  -2   6    0.11    0.62
   8  -2   6    1.87    0.82
   9  -2   6    3.58    0.99
  11   1  -6    1.29    0.91
  10   1  -6    5.20    1.04
   9   1  -6   -0.97    0.63
   8   1  -6    5.52    0.90
   7   1  -6   20.30    1.25
   6   1  -6    0.83    0.52
   5   1  -6   14.81    0.90
   4   1  -6   11.01    0.75
  -4  -1   6   11.17    0.73
   3   1  -6    6.14    0.58
  -3  -1   6    5.92    0.57
  -3  -1   6    6.50    0.57
   2   1  -6   79.98    1.39
  -2  -1   6   80.02    1.46
  -2  -1   6   82.09    1.61
   1   1  -6   18.37    0.57
  -1  -1   6   17.52    0.74
  -1  -1   6   17.88    0.83
   0   1  -6    0.32    0.19
   0  -1   6    0.31    0.35
   1  -1   6    4.29    0.27
   1  -1   6    4.90    0.60
   2  -1   6   14.31    0.47
   2  -1   6   15.88    0.89
   3  -1   6    3.69    0.65
   3  -1   6    4.39    0.38
   4  -1   6   -0.03    0.30
   4  -1   6    0.26    0.48
   5  -1   6    4.27    0.79
   6  -1   6   15.40    1.20
   7  -1   6    2.56    0.83
   8  -1   6    2.13    0.90
   9  -1   6    1.25    0.91
  11   0  -6    0.89    0.79
  10   0  -6    0.84    0.77
   9   0  -6    0.82    0.76
   8   0  -6    6.09    0.95
   7   0  -6   14.41    1.18
   6   0  -6   -0.36    0.46
   5   0  -6    4.91    0.65
   4   0  -6   -0.14    0.34
  -4   0   6   -0.23    0.37
   3   0  -6   -0.01    0.33
  -3   0   6    0.27    0.36
  -3   0   6    0.26    0.31
   2   0  -6   12.60    0.60
  -2   0   6   12.38    0.67
  -2   0   6   13.25    0.68
   1   0  -6    2.82    0.29
  -1   0   6    2.92    0.43
  -1   0   6    2.72    0.43
   0   0   6    0.95    0.34
   1   0   6    1.95    0.43
   2   0   6   13.73    0.87
   2   0   6   13.48    0.37
   3   0   6    7.28    0.78
   3   0   6    8.13    0.46
   4   0   6    1.62    0.56
   4   0   6    2.20    0.37
   5   0   6   19.59    1.20
   6   0   6    4.99    0.87
   7   0   6    1.21    0.74
   8   0   6    0.45    0.69
   9   0   6    4.32    1.01
  11  -1  -6    2.35    0.96
  10  -1  -6    0.31    0.77
   9  -1  -6    3.40    0.93
   8  -1  -6    1.88    0.67
   7  -1  -6    1.45    0.63
   6  -1  -6    0.04    0.48
   5  -1  -6   18.05    0.92
  -5   1   6   16.16    0.91
   4  -1  -6   -0.20    0.34
  -4   1   6   -0.29    0.34
   3  -1  -6    4.43    0.50
  -3   1   6    4.63    0.45
  -3   1   6    4.75    0.54
   2  -1  -6   25.92    0.77
  -2   1   6   25.22    0.79
  -2   1   6   25.50    0.90
   1  -1  -6   27.43    0.66
  -1   1   6   28.24    1.00
  -1   1   6   27.09    0.87
   0   1   6   29.84    1.00
   1   1   6    3.72    0.54
   2   1   6    3.59    0.59
   2   1   6    3.53    0.23
   3   1   6    0.10    0.39
   3   1   6    0.36    0.22
   4   1   6    0.46    0.48
   5   1   6   26.69    1.36
   6   1   6    1.41    0.66
   7   1   6   -0.24    0.59
   8   1   6    5.28    1.05
   9   1   6   -0.17    0.84
  11  -2  -6   -0.60    0.69
  10  -2  -6   -0.35    0.73
   9  -2  -6    3.72    0.93
   8  -2  -6    8.40    1.05
   7  -2  -6    0.94    0.62
   6  -2  -6    0.06    0.50
   5  -2  -6   24.27    1.13
  -5   2   6   23.49    1.14
   4  -2  -6    1.91    0.48
  -4   2   6    1.50    0.45
   3  -2  -6   12.50    0.73
  -3   2   6   13.46    0.59
  -3   2   6   12.94    0.86
   2  -2  -6    6.48    0.51
  -2   2   6    6.64    0.63
  -2   2   6    6.68    0.49
   1  -2  -6    6.27    0.43
  -1   2   6    6.41    0.61
  -1   2   6    6.73    0.54
   0  -2  -6   28.24    0.58
   0   2   6   29.57    0.98
   1   2   6    9.69    0.32
   1   2   6   11.02    0.71
   2   2   6    0.37    0.36
   2   2   6    0.14    0.19
   3   2   6    0.48    0.24
   3   2   6    0.56    0.43
   4   2   6    6.64    0.82
   5   2   6    7.22    0.94
   6   2   6   -0.60    0.51
   7   2   6    1.76    0.80
   8   2   6    0.51    0.79
   9   2   6    1.43    0.93
  11  -3  -6   -0.61    0.72
  10  -3  -6    1.29    0.77
   9  -3  -6    6.82    1.10
   8  -3  -6   -0.09    0.65
   7  -3  -6    0.87    0.57
   6  -3  -6    4.00    0.72
   5  -3  -6   22.08    1.12
  -5   3   6   22.65    1.14
   4  -3  -6    3.22    0.53
  -4   3   6    3.53    0.60
   3  -3  -6    0.12    0.34
  -3   3   6    0.30    0.21
  -3   3   6    0.00    0.36
   2  -3  -6    5.06    0.50
  -2   3   6    4.69    0.39
  -2   3   6    4.52    0.59
   1  -3  -6   69.81    1.25
  -1   3   6   72.22    1.36
  -1   3   6   68.47    1.58
   0  -3  -6   13.94    0.53
   0   3   6   13.39    0.71
   1   3   6   26.65    1.02
   2   3   6   10.34    0.47
   2   3   6   11.19    0.84
   3   3   6   12.73    0.57
   3   3   6   12.64    0.90
   4   3   6    3.02    0.66
   5   3   6    1.10    0.62
   6   3   6    1.85    0.71
   7   3   6    8.65    1.20
   8   3   6    3.45    0.99
   9   3   6    1.02    0.85
  11  -4  -6   -0.07    0.81
  10  -4  -6    0.25    0.71
   9  -4  -6    5.69    1.00
   8  -4  -6    0.48    0.69
   7  -4  -6    0.16    0.50
   6  -4  -6    0.36    0.52
   5  -4  -6   13.17    0.96
  -5   4   6   15.18    1.02
   4  -4  -6   -0.28    0.37
  -4   4   6   -0.18    0.38
   3  -4  -6   31.02    1.08
  -3   4   6   33.25    0.62
  -3   4   6   33.30    1.25
   2  -4  -6    4.23    0.49
  -2   4   6    2.73    0.51
  -2   4   6    3.56    0.33
   1  -4  -6   31.22    0.94
  -1   4   6   30.92    0.89
  -1   4   6   30.61    1.14
   0  -4  -6    2.40    0.37
   0   4   6    2.13    0.40
  -1  -4  -6    1.43    0.31
   1   4   6    1.25    0.40
   2   4   6   41.84    0.94
   2   4   6   41.20    1.38
   3   4   6    1.36    0.50
   3   4   6    0.84    0.33
   4   4   6    0.01    0.49
   5   4   6   12.37    1.20
   6   4   6    5.89    0.99
   7   4   6    0.21    0.72
   8   4   6   -0.22    0.80
  11  -5  -6    3.27    1.07
  10  -5  -6    0.77    0.82
   9  -5  -6    1.05    0.69
   8  -5  -6    0.07    0.63
   7  -5  -6    9.86    1.03
   6  -5  -6    0.18    0.53
   5  -5  -6    1.37    0.53
  -5   5   6    0.76    0.49
   4  -5  -6   15.55    0.94
  -4   5   6   14.08    0.93
   3  -5  -6    6.42    0.65
  -3   5   6    5.71    0.66
   2  -5  -6    7.14    0.64
  -2   5   6    6.59    0.43
  -2   5   6    8.10    0.76
   1  -5  -6   14.27    0.77
  -1   5   6   14.46    0.87
  -1   5   6   15.68    0.66
   0  -5  -6    3.36    0.45
   0   5   6    1.97    0.42
  -1  -5  -6   13.54    0.67
   1   5   6   13.63    0.79
   2   5   6    3.39    0.45
   2   5   6    2.53    0.56
   3   5   6   -0.09    0.44
   4   5   6    2.05    0.66
   5   5   6    2.56    0.73
   6   5   6   23.96    1.47
   7   5   6    3.61    0.91
   8   5   6    3.41    0.98
  10  -6  -6    1.57    0.85
   9  -6  -6    5.39    0.99
   8  -6  -6   -0.75    0.54
   7  -6  -6    3.09    0.76
   6  -6  -6    0.14    0.59
  -6   6   6    0.53    0.60
   5  -6  -6    0.84    0.53
  -5   6   6    1.16    0.53
   4  -6  -6    1.37    0.51
  -4   6   6    2.20    0.58
   3  -6  -6    5.72    0.68
  -3   6   6    4.98    0.66
   2  -6  -6    0.83    0.44
  -2   6   6    1.08    0.43
  -2   6   6    1.20    0.26
   1  -6  -6    0.68    0.41
  -1   6   6    0.10    0.41
  -1   6   6    0.40    0.29
   0  -6  -6    0.30    0.37
   0   6   6   -0.92    0.37
   0   6   6   -0.05    0.31
  -1  -6  -6    1.87    0.42
   1   6   6    1.57    0.44
   2   6   6    1.03    0.47
   2   6   6    1.03    0.36
   3   6   6    2.79    0.65
   4   6   6    0.07    0.51
   5   6   6    7.58    1.02
   6   6   6    3.77    0.91
   7   6   6    0.90    0.80
   8   6   6   -0.17    0.70
  10  -7  -6   -0.23    0.72
   9  -7  -6    9.62    1.26
   8  -7  -6   11.13    1.23
   7  -7  -6   -0.59    0.56
   6  -7  -6    0.44    0.55
  -6   7   6    1.59    0.67
   5  -7  -6   12.45    0.96
  -5   7   6   12.87    1.06
   4  -7  -6    0.60    0.54
  -4   7   6    0.54    0.53
   3  -7  -6    4.80    0.69
  -3   7   6    4.37    0.66
   2  -7  -6    2.33    0.56
  -2   7   6    2.59    0.56
   1  -7  -6    5.00    0.64
  -1   7   6    5.73    0.71
  -1   7   6    5.10    0.51
   0  -7  -6   13.00    0.80
   0   7   6   12.70    0.93
   0   7   6   13.14    0.79
  -1  -7  -6    1.94    0.48
   1   7   6    0.86    0.44
  -2  -7  -6    2.27    0.52
   2   7   6    2.55    0.59
   3   7   6   11.80    1.09
   4   7   6    1.48    0.67
   5   7   6    1.35    0.70
   6   7   6    6.62    1.09
   7   7   6    2.33    0.87
   8   7   6    2.49    1.02
  10  -8  -6    0.36    0.77
   9  -8  -6    5.17    1.01
   8  -8  -6    5.09    0.90
   7  -8  -6    8.51    1.06
   6  -8  -6    0.38    0.62
  -6   8   6    0.33    0.57
   5  -8  -6    0.79    0.57
  -5   8   6   -0.23    0.52
   4  -8  -6    0.61    0.55
  -4   8   6    0.66    0.55
   3  -8  -6    4.11    0.73
  -3   8   6    5.90    0.79
   2  -8  -6    1.05    0.56
  -2   8   6    0.14    0.44
   1  -8  -6    2.55    0.59
  -1   8   6    3.08    0.61
   0  -8  -6   12.11    0.93
   0   8   6   11.00    0.78
   0   8   6   11.08    0.96
  -1  -8  -6    0.76    0.49
   1   8   6    0.49    0.44
  -2  -8  -6   12.29    0.94
   2   8   6   12.11    0.99
   3   8   6    1.25    0.60
   4   8   6   23.40    1.43
   5   8   6   19.09    1.35
   6   8   6    2.46    0.81
   7   8   6    1.58    0.87
   9  -9  -6    4.59    0.98
   8  -9  -6    0.12    0.71
   7  -9  -6    1.55    0.79
   6  -9  -6    1.59    0.72
  -6   9   6    2.45    0.72
   5  -9  -6    1.24    0.70
  -5   9   6    1.35    0.61
   4  -9  -6    0.34    0.59
  -4   9   6   -0.31    0.55
   3  -9  -6    0.88    0.60
  -3   9   6    0.58    0.57
   2  -9  -6   -0.65    0.55
  -2   9   6   -0.09    0.50
   1  -9  -6    1.36    0.57
  -1   9   6    2.27    0.62
   0  -9  -6    9.85    0.92
   0   9   6    9.43    0.95
  -1  -9  -6   -0.17    0.51
   1   9   6    0.38    0.48
  -2  -9  -6   16.87    1.04
   2   9   6   12.93    1.01
   3   9   6    3.73    0.81
   4   9   6    1.27    0.69
   5   9   6    5.18    0.95
   6   9   6    1.38    0.76
   7   9   6    0.19    0.75
   9 -10  -6    2.56    1.02
   8 -10  -6   -0.17    0.76
   7 -10  -6    2.34    0.86
   6 -10  -6    3.37    0.91
  -6  10   6    3.85    0.79
   5 -10  -6    0.49    0.65
  -5  10   6    0.76    0.64
   4 -10  -6   17.64    1.35
  -4  10   6   14.88    1.15
   3 -10  -6    1.35    0.68
  -3  10   6    1.18    0.62
   2 -10  -6    0.41    0.61
  -2  10   6   -0.39    0.50
   1 -10  -6   12.50    1.08
  -1  10   6   14.41    1.06
   0 -10  -6    1.61    0.61
   0  10   6    2.29    0.67
  -1 -10  -6   35.10    1.42
   1  10   6   28.95    1.39
  -2 -10  -6   12.73    1.07
   2  10   6   11.56    1.09
   3  10   6   -0.21    0.58
   4  10   6    4.56    0.87
   5  10   6    0.00    0.64
   6  10   6    6.41    1.13
   8 -11  -6   -0.84    0.75
   7 -11  -6    2.93    0.97
   6 -11  -6    1.26    0.80
   5 -11  -6    3.55    0.91
  -5  11   6    1.22    0.71
   4 -11  -6    3.37    0.87
  -4  11   6    3.99    0.81
   3 -11  -6    0.62    0.73
  -3  11   6    1.40    0.62
   2 -11  -6    1.59    0.70
  -2  11   6    0.42    0.57
   1 -11  -6    0.27    0.62
  -1  11   6    0.57    0.57
   0 -11  -6    6.10    0.92
   0  11   6    7.48    0.90
  -1 -11  -6    4.85    0.82
   1  11   6    4.54    0.80
   3  11   6    4.14    0.86
   4  11   6    0.29    0.63
   5  11   6    1.39    0.80
   7 -12  -6    0.58    0.84
   6 -12  -6    1.57    0.87
   5 -12  -6   -0.27    0.73
  -5  12   6    0.07    0.63
   4 -12  -6   -0.15    0.64
  -4  12   6    0.77    0.66
   3 -12  -6    0.57    0.74
  -3  12   6   -0.33    0.58
   2 -12  -6    3.73    0.88
  -2  12   6    2.01    0.66
   1 -12  -6    0.22    0.64
  -1  12   6    0.04    0.55
   0 -12  -6    3.55    0.82
   0  12   6    3.41    0.76
  -1 -12  -6    0.81    0.67
   1  12   6    0.53    0.58
   2  12   6    0.30    0.57
   4  12   6    1.82    0.76
   6 -13  -6    1.51    0.91
   5 -13  -6    1.17    0.89
   4 -13  -6    2.27    0.91
   3 -13  -6    0.93    0.79
   2 -13  -6    0.07    0.70
   1 -13  -6    1.28    0.77
   0 -13  -6    0.86    0.76
  -1 -13  -6   -0.03    0.69
   4 -14  -6    1.04    0.86
   3 -14  -6    1.40    0.89
   2 -14  -6   -0.23    0.82
   1 -14  -6    0.94    0.81
   0 -14  -6    1.89    0.89
   3  15  -7    1.08    0.93
  -2 -15   7    2.35    0.89
  -1 -15   7   -0.11    0.66
   0 -15   7   -0.57    0.62
   1 -15   7    0.13    0.75
   5  14  -7    1.85    0.96
   4  14  -7   -0.83    0.78
   3  14  -7    0.72    0.84
  -2 -14   7   -0.43    0.70
  -1 -14   7    3.59    0.91
   0 -14   7   -0.82    0.64
   0 -14   7    0.42    0.81
   1 -14   7    0.73    0.74
   1 -14   7   -0.12    0.77
   2 -14   7    0.67    0.77
   3 -14   7   -0.59    0.68
   6  13  -7   -0.15    0.78
   5  13  -7    0.41    0.84
   4  13  -7    4.32    1.01
   3  13  -7    2.65    0.90
  -2 -13   7    0.72    0.73
  -1 -13   7   -0.91    0.71
  -1 -13   7   -0.44    0.56
   0 -13   7   13.50    1.38
   0 -13   7    7.73    1.08
   1 -13   7   -0.17    0.72
   1 -13   7   -0.11    0.59
   2 -13   7   -0.08    0.73
   2 -13   7    0.82    0.72
   3 -13   7    0.40    0.70
   4 -13   7    0.61    0.77
   7  12  -7    5.43    1.22
   6  12  -7    0.97    0.88
   5  12  -7    2.43    0.82
   4  12  -7    1.23    0.75
   3  12  -7    4.92    0.96
  -2 -12   7    0.74    0.69
  -1 -12   7   -0.38    0.72
  -1 -12   7    1.30    0.70
   0 -12   7   -0.48    0.63
   0 -12   7    0.40    0.61
   1 -12   7    1.53    0.70
   1 -12   7   -0.06    0.68
   2 -12   7    5.42    0.92
   2 -12   7    4.78    0.99
   3 -12   7    1.47    0.76
   3 -12   7    1.65    0.72
   4 -12   7    3.69    0.90
   5 -12   7   -0.31    0.65
   8  11  -7   -0.50    0.74
   7  11  -7    8.54    1.22
   6  11  -7    1.09    0.82
   5  11  -7    0.65    0.74
   4  11  -7    0.05    0.70
   3  11  -7    1.93    0.74
  -2 -11   7    5.68    1.00
  -2 -11   7    5.99    0.93
  -1 -11   7   -0.52    0.57
  -1 -11   7    0.59    0.61
   0 -11   7    1.05    0.67
   0 -11   7    0.78    0.63
   1 -11   7    0.15    0.57
   1 -11   7    0.26    0.69
   2 -11   7    4.04    0.89
   2 -11   7    2.57    0.74
   3 -11   7   -0.38    0.55
   3 -11   7    0.05    0.65
   4 -11   7    0.47    0.70
   4 -11   7   -0.27    0.61
   5 -11   7    5.77    1.00
   8  10  -7    1.08    0.86
   7  10  -7   -1.45    0.63
   6  10  -7    0.66    0.75
   5  10  -7    1.38    0.76
   4  10  -7    1.63    0.76
   3  10  -7   -0.59    0.57
  -2 -10   7    1.09    0.63
  -2 -10   7    0.78    0.62
  -1 -10   7    3.07    0.77
  -1 -10   7    2.64    0.71
   0 -10   7    8.45    1.06
   0 -10   7   10.25    1.01
   1 -10   7    0.53    0.58
   1 -10   7    2.35    0.71
   2 -10   7    6.30    0.97
   2 -10   7    3.45    0.74
   3 -10   7    0.15    0.66
   3 -10   7   -0.04    0.55
   4 -10   7    1.64    0.83
   4 -10   7    2.84    0.73
   5 -10   7    2.23    0.97
   5 -10   7    4.01    0.87
   9   9  -7    2.60    1.00
   8   9  -7   -0.65    0.61
   7   9  -7    1.25    0.73
   6   9  -7    0.95    0.68
   5   9  -7    4.79    0.91
   4   9  -7    2.44    0.73
   3   9  -7    0.62    0.61
  -3  -9   7    0.99    0.66
  -2  -9   7    5.42    0.85
  -2  -9   7    7.39    0.92
  -1  -9   7    1.86    0.62
  -1  -9   7    2.83    0.71
   0  -9   7    1.62    0.59
   0  -9   7    1.38    0.70
   1  -9   7    2.41    0.63
   1  -9   7    3.01    1.01
   2  -9   7    7.54    1.04
   2  -9   7    9.36    0.94
   3  -9   7    8.33    0.93
   3  -9   7    9.60    1.09
   4  -9   7    0.01    0.76
   4  -9   7   -0.20    0.52
   5  -9   7    4.68    1.01
   6  -9   7    2.19    0.99
   9   8  -7   -0.65    0.68
   8   8  -7   -0.45    0.71
   7   8  -7    0.08    0.66
   6   8  -7   51.65    1.97
   5   8  -7    1.31    0.61
   4   8  -7    6.76    0.89
   3   8  -7    1.48    0.58
  -3  -8   7    0.88    0.60
  -2  -8   7   -0.17    0.50
  -1  -8   7    1.09    0.51
  -1  -8   7    0.12    0.48
   0  -8   7    0.79    0.55
   0  -8   7    0.20    0.48
   1  -8   7    2.29    0.64
   1  -8   7    0.85    0.53
   2  -8   7    2.40    0.84
   2  -8   7    3.65    0.69
   3  -8   7    3.88    0.95
   3  -8   7    2.47    0.63
   4  -8   7    2.15    0.82
   4  -8   7    1.97    0.58
   5  -8   7    8.43    1.14
   6  -8   7    0.52    0.79
  10   7  -7    0.06    0.81
   9   7  -7    1.45    0.85
   8   7  -7    0.06    0.70
   7   7  -7    0.99    0.73
   6   7  -7    5.65    0.85
   5   7  -7   37.62    1.56
   4   7  -7    0.52    0.54
   3   7  -7    3.10    0.62
  -3  -7   7    4.88    0.75
   2   7  -7    0.80    0.48
  -2  -7   7    0.20    0.44
  -1  -7   7    1.07    0.47
  -1  -7   7    0.77    0.53
   0  -7   7    0.62    0.49
   0  -7   7    0.78    0.44
   1  -7   7   12.42    0.89
   1  -7   7   13.89    1.06
   2  -7   7   13.92    0.95
   2  -7   7   15.48    1.15
   3  -7   7    7.86    1.02
   3  -7   7    7.69    0.78
   4  -7   7   -0.08    0.47
   4  -7   7    0.30    0.74
   5  -7   7    0.83    0.80
   6  -7   7    0.65    0.71
   7  -7   7   -0.08    0.84
  10   6  -7   -0.28    0.72
   9   6  -7    7.23    1.11
   8   6  -7   -0.24    0.67
   7   6  -7   24.92    1.43
   6   6  -7    8.49    0.98
   5   6  -7    9.83    0.94
   4   6  -7   22.66    1.13
   3   6  -7   15.10    0.85
  -3  -6   7   13.20    0.95
   2   6  -7   20.57    0.96
  -2  -6   7   20.40    1.10
  -1  -6   7    0.91    0.43
  -1  -6   7    1.40    0.44
   0  -6   7    7.90    0.81
   0  -6   7    8.30    0.69
   1  -6   7    5.54    0.60
   1  -6   7    4.14    0.70
   2  -6   7   11.11    0.79
   2  -6   7   11.71    1.07
   3  -6   7    5.65    0.67
   3  -6   7    5.12    0.82
   4  -6   7    9.81    1.05
   4  -6   7    8.89    0.82
   5  -6   7   15.70    1.22
   6  -6   7    1.11    0.77
   7  -6   7    2.24    0.85
   8  -6   7    0.12    0.76
  10   5  -7   -0.25    0.70
   9   5  -7   -0.47    0.65
   8   5  -7   -0.16    0.56
   7   5  -7   21.35    1.26
   6   5  -7    3.11    0.66
   5   5  -7    0.36    0.47
   4   5  -7    1.05    0.50
  -4  -5   7    1.34    0.51
   3   5  -7    7.94    0.74
  -3  -5   7    7.14    0.79
   2   5  -7    3.34    0.52
  -2  -5   7    2.83    0.60
  -2  -5   7    2.24    0.30
  -1  -5   7    0.28    0.22
  -1  -5   7    0.19    0.38
  -1  -5   7   -0.27    0.43
   0  -5   7   14.40    0.77
   0  -5   7   15.64    0.97
   1  -5   7    1.38    0.53
   1  -5   7    1.82    0.43
   2  -5   7    3.95    0.70
   2  -5   7    3.80    0.50
   3  -5   7   -0.23    0.36
   3  -5   7   -0.64    0.48
   4  -5   7   -0.09    0.42
   4  -5   7    1.42    0.77
   5  -5   7    7.59    0.99
   6  -5   7   12.28    1.21
   7  -5   7    7.76    1.08
   8  -5   7    0.19    0.75
  11   4  -7    2.02    0.94
  10   4  -7    3.70    0.98
   9   4  -7    0.85    0.66
   8   4  -7    3.13    0.83
   7   4  -7    5.25    0.83
   6   4  -7    0.42    0.51
   5   4  -7    5.18    0.71
   4   4  -7    4.40    0.59
  -4  -4   7    4.79    0.66
   3   4  -7    0.40    0.38
  -3  -4   7    0.21    0.29
  -3  -4   7    0.79    0.44
   2   4  -7    7.07    0.61
  -2  -4   7    7.65    0.52
  -2  -4   7    7.85    0.77
   1   4  -7    2.59    0.44
  -1  -4   7    2.23    0.50
  -1  -4   7    1.84    0.33
   0  -4   7    3.62    0.61
   0  -4   7    4.07    0.45
   1  -4   7    3.58    0.59
   1  -4   7    3.68    0.44
   2  -4   7    2.22    0.38
   2  -4   7    2.53    0.60
   3  -4   7    2.06    0.43
   3  -4   7    1.28    0.60
   4  -4   7    1.13    0.58
   5  -4   7   13.01    1.22
   6  -4   7   16.02    1.23
   7  -4   7   10.80    1.22
   8  -4   7    3.37    1.05
  11   3  -7    5.75    1.10
  10   3  -7    4.77    1.02
   9   3  -7    7.60    1.13
   8   3  -7    3.62    0.85
   7   3  -7    2.17    0.70
   6   3  -7    4.77    0.76
   5   3  -7    0.43    0.45
   4   3  -7    1.88    0.49
  -4  -3   7    1.96    0.52
   3   3  -7    6.21    0.62
  -3  -3   7    7.60    0.72
  -3  -3   7    6.36    0.51
   2   3  -7   13.66    0.67
  -2  -3   7   13.52    0.66
  -2  -3   7   10.98    0.85
   1   3  -7   10.94    0.58
  -1  -3   7   10.82    0.61
  -1  -3   7   14.36    1.09
   0  -3   7   10.03    0.78
   0  -3   7   11.37    0.59
   1  -3   7    2.10    0.52
   1  -3   7    2.30    0.33
   2  -3   7   35.78    0.88
   2  -3   7   36.79    1.40
   3  -3   7   15.54    1.05
   3  -3   7   14.43    0.70
   4  -3   7    2.95    0.71
   5  -3   7    2.58    0.75
   6  -3   7   16.20    1.25
   7  -3   7    7.35    1.08
   8  -3   7    2.30    0.91
  11   2  -7    0.74    0.84
  10   2  -7    1.98    0.84
   9   2  -7   17.26    1.50
   8   2  -7   19.75    1.28
   7   2  -7    2.53    0.70
   6   2  -7   51.38    1.65
   5   2  -7    2.16    0.55
   4   2  -7    7.03    0.68
  -4  -2   7    4.94    0.57
  -4  -2   7    6.34    0.67
   3   2  -7    1.59    0.41
  -3  -2   7    2.57    0.50
  -3  -2   7    2.14    0.41
   2   2  -7    6.86    0.54
  -2  -2   7    6.98    0.71
  -2  -2   7    6.41    0.54
   1   2  -7    9.97    0.53
  -1  -2   7    9.92    0.63
  -1  -2   7   10.59    0.84
   0   2  -7   12.71    0.48
   0  -2   7   11.64    0.93
   1  -2   7   12.37    0.83
   1  -2   7   12.16    0.45
   2  -2   7    0.57    0.23
   2  -2   7    0.56    0.45
   3  -2   7    7.17    0.83
   4  -2   7    0.61    0.52
   5  -2   7    5.85    0.91
   6  -2   7    5.21    0.88
   7  -2   7    0.68    0.71
   8  -2   7    0.80    0.79
   9  -2   7    0.31    0.83
  11   1  -7    2.71    0.97
  10   1  -7    0.22    0.70
   9   1  -7    7.05    1.11
   8   1  -7   11.22    1.20
   7   1  -7    4.73    0.78
   6   1  -7    0.79    0.55
   5   1  -7    1.40    0.50
   4   1  -7    0.34    0.40
  -4  -1   7   -0.15    0.33
  -4  -1   7    0.52    0.40
   3   1  -7    1.91    0.42
  -3  -1   7    1.77    0.46
  -3  -1   7    2.65    0.44
   2   1  -7    1.23    0.34
  -2  -1   7    0.94    0.34
  -2  -1   7    0.56    0.35
   1   1  -7    1.66    0.30
  -1  -1   7    1.27    0.42
  -1  -1   7    1.25    0.39
   0   1  -7   31.15    0.57
   0  -1   7   31.51    1.20
   1  -1   7   12.57    0.81
   2  -1   7    0.97    0.46
   2  -1   7    0.80    0.20
   3  -1   7    2.63    0.57
   4  -1   7    1.37    0.61
   5  -1   7   -0.09    0.51
   6  -1   7    0.87    0.66
   7  -1   7    3.76    0.88
   8  -1   7    0.49    0.77
   9  -1   7    0.97    0.84
  11   0  -7    5.25    1.15
  10   0  -7    1.77    0.88
   9   0  -7    2.83    0.89
   8   0  -7   -0.12    0.58
   7   0  -7    4.30    0.77
   6   0  -7    7.66    0.84
   5   0  -7    4.29    0.60
  -5   0   7    3.96    0.61
   4   0  -7   35.45    1.15
  -4   0   7   35.52    1.22
  -4   0   7   36.62    1.10
   3   0  -7   64.66    1.40
  -3   0   7   65.19    1.43
  -3   0   7   63.95    1.52
   2   0  -7   42.25    0.98
  -2   0   7   42.30    1.18
  -2   0   7   40.07    1.17
   1   0  -7   14.72    0.50
  -1   0   7   15.18    0.79
  -1   0   7   14.49    0.82
   0   0   7    1.21    0.44
   1   0   7   50.38    1.49
   2   0   7   10.76    0.90
   3   0   7   -0.12    0.41
   4   0   7    0.68    0.52
   5   0   7   25.91    1.46
   6   0   7    2.27    0.79
   7   0   7    0.69    0.75
   8   0   7    0.90    0.84
   9   0   7    2.22    1.02
  11  -1  -7    0.54    0.77
  10  -1  -7   23.94    1.59
   9  -1  -7    1.82    0.82
   8  -1  -7    0.71    0.65
   7  -1  -7    0.56    0.60
   6  -1  -7    9.54    0.93
   5  -1  -7    0.52    0.46
  -5   1   7    1.24    0.46
   4  -1  -7    1.00    0.44
  -4   1   7    1.49    0.35
  -4   1   7    0.62    0.43
   3  -1  -7    6.68    0.58
  -3   1   7    6.50    0.65
  -3   1   7    5.97    0.52
   2  -1  -7   45.34    1.04
  -2   1   7   46.74    1.20
  -2   1   7   45.80    1.30
   1  -1  -7    3.17    0.30
  -1   1   7    2.27    0.46
  -1   1   7    2.84    0.46
   0   1   7   13.86    0.86
   1   1   7   17.74    0.96
   2   1   7    7.70    0.78
   3   1   7   10.58    0.86
   4   1   7    6.59    0.84
   5   1   7   -0.38    0.48
   6   1   7   10.88    1.22
   7   1   7   -0.13    0.64
   8   1   7    0.02    0.70
  11  -2  -7    0.08    0.78
  10  -2  -7    1.28    0.83
   9  -2  -7    1.84    0.82
   8  -2  -7    0.24    0.64
   7  -2  -7   10.74    1.10
   6  -2  -7    0.98    0.57
   5  -2  -7    0.60    0.47
  -5   2   7   -0.44    0.38
   4  -2  -7    0.08    0.38
  -4   2   7    0.20    0.26
  -4   2   7    0.47    0.42
   3  -2  -7    2.28    0.45
  -3   2   7    2.74    0.37
  -3   2   7    2.34    0.51
   2  -2  -7    0.03    0.29
  -2   2   7    1.56    0.48
  -2   2   7    0.06    0.38
   1  -2  -7    7.41    0.44
  -1   2   7    7.47    0.70
  -1   2   7    8.78    0.71
   0  -2  -7    0.11    0.17
   0   2   7    0.06    0.33
   1   2   7   15.08    0.84
   2   2   7   24.96    1.11
   3   2   7   -0.42    0.41
   4   2   7    9.17    0.95
   5   2   7    0.43    0.60
   6   2   7   23.96    1.47
   7   2   7    2.22    0.81
   8   2   7    1.03    0.79
  11  -3  -7    0.08    0.83
  10  -3  -7    5.11    1.10
   9  -3  -7    3.53    0.93
   8  -3  -7    0.53    0.70
   7  -3  -7    1.65    0.70
   6  -3  -7   20.24    1.22
  -6   3   7   17.99    1.09
   5  -3  -7    0.67    0.49
  -5   3   7   -0.11    0.43
   4  -3  -7    0.01    0.38
  -4   3   7    0.27    0.41
  -4   3   7    0.22    0.23
   3  -3  -7   25.09    0.93
  -3   3   7   25.92    0.73
  -3   3   7   24.23    1.10
   2  -3  -7    1.00    0.36
  -2   3   7    0.68    0.41
  -2   3   7    0.26    0.27
   1  -3  -7   10.61    0.54
  -1   3   7   10.10    0.65
  -1   3   7   11.09    0.80
   0  -3  -7    1.90    0.28
   0   3   7    1.86    0.42
   1   3   7   28.20    1.07
   1   3   7   28.44    0.62
   2   3   7    2.17    0.53
   3   3   7    1.39    0.54
   4   3   7   20.58    1.22
   5   3   7   -0.11    0.54
   6   3   7   17.66    1.40
   7   3   7    2.14    0.82
   8   3   7    0.45    0.79
  11  -4  -7   -0.15    0.76
  10  -4  -7    0.79    0.77
   9  -4  -7    1.75    0.72
   8  -4  -7    0.77    0.68
   7  -4  -7    8.21    1.00
   6  -4  -7    2.16    0.64
  -6   4   7    1.05    0.55
   5  -4  -7   -0.10    0.45
  -5   4   7    0.23    0.45
   4  -4  -7    2.54    0.52
  -4   4   7    2.13    0.54
   3  -4  -7    1.48    0.44
  -3   4   7    1.48    0.51
  -3   4   7    2.47    0.28
   2  -4  -7    2.13    0.42
  -2   4   7    2.29    0.34
  -2   4   7    1.99    0.51
   1  -4  -7    0.26    0.30
  -1   4   7    0.06    0.40
  -1   4   7   -0.06    0.27
   0  -4  -7    3.17    0.38
   0   4   7    3.28    0.49
  -1  -4  -7    3.77    0.37
   1   4   7    3.53    0.54
   2   4   7    1.63    0.48
   3   4   7    3.44    0.69
   4   4   7   28.27    1.46
   5   4   7    4.37    0.92
   6   4   7    3.12    0.88
   7   4   7    1.29    0.79
   8   4   7    1.43    0.84
  10  -5  -7    3.43    1.02
   9  -5  -7    0.66    0.73
   8  -5  -7   -0.83    0.62
   7  -5  -7    1.19    0.68
   6  -5  -7   20.69    1.26
  -6   5   7   18.71    1.19
   5  -5  -7    0.01    0.48
  -5   5   7    0.06    0.45
   4  -5  -7   12.30    0.88
  -4   5   7   10.89    0.94
   3  -5  -7   -0.15    0.38
  -3   5   7    0.22    0.40
   2  -5  -7    3.48    0.51
  -2   5   7    2.78    0.56
  -2   5   7    3.51    0.38
   1  -5  -7   13.17    0.73
  -1   5   7   13.28    0.67
  -1   5   7   15.53    0.93
   0  -5  -7   15.85    0.72
   0   5   7   15.41    0.79
  -1  -5  -7    0.35    0.31
   1   5   7    0.60    0.39
   2   5   7   23.91    1.16
   3   5   7    0.96    0.52
   4   5   7    0.44    0.58
   5   5   7    0.72    0.62
   6   5   7   -0.08    0.66
   7   5   7    0.54    0.69
   8   5   7    1.09    0.88
  10  -6  -7    0.81    0.84
   9  -6  -7    8.55    1.19
   8  -6  -7    5.50    0.95
   7  -6  -7    0.26    0.64
   6  -6  -7    6.23    0.86
  -6   6   7    5.79    0.88
   5  -6  -7    0.32    0.51
  -5   6   7   -0.02    0.48
   4  -6  -7    2.35    0.56
  -4   6   7    3.07    0.62
   3  -6  -7    9.34    0.82
  -3   6   7    9.22    0.86
   2  -6  -7   18.13    0.92
  -2   6   7   15.98    1.04
   1  -6  -7    0.56    0.39
  -1   6   7    0.18    0.43
  -1   6   7    0.45    0.32
   0  -6  -7    0.39    0.36
   0   6   7    1.12    0.50
   0   6   7    1.23    0.41
  -1  -6  -7    0.64    0.36
   1   6   7    0.26    0.40
   2   6   7   10.79    0.88
   3   6   7   34.48    1.49
   4   6   7    7.24    0.95
   5   6   7   14.91    1.35
   6   6   7    0.37    0.65
   7   6   7    1.20    0.81
  10  -7  -7    0.33    0.86
   9  -7  -7    0.43    0.79
   8  -7  -7    0.81    0.70
   7  -7  -7   -0.25    0.62
   6  -7  -7    1.82    0.67
  -6   7   7    2.37    0.70
   5  -7  -7    0.05    0.65
  -5   7   7   -0.38    0.50
   4  -7  -7    0.30    0.54
  -4   7   7    0.28    0.52
   3  -7  -7    0.29    0.50
  -3   7   7   -0.60    0.41
   2  -7  -7    6.08    0.72
  -2   7   7    5.80    0.77
   1  -7  -7   11.48    0.87
  -1   7   7   12.94    1.03
   0  -7  -7   -0.22    0.38
   0   7   7    0.10    0.38
   0   7   7   -0.26    0.47
  -1  -7  -7   13.07    0.83
   1   7   7   11.59    0.84
   2   7   7   10.77    0.99
   3   7   7   12.50    1.13
   4   7   7   10.87    1.16
   5   7   7   22.08    1.43
   6   7   7    1.64    0.76
   7   7   7    0.62    0.74
   9  -8  -7   -0.43    0.72
   8  -8  -7    1.10    0.77
   7  -8  -7   -0.50    0.60
   6  -8  -7    8.43    1.01
  -6   8   7    7.66    1.02
   5  -8  -7    8.56    1.01
  -5   8   7    6.09    0.85
   4  -8  -7    0.29    0.56
  -4   8   7   -0.43    0.54
   3  -8  -7    2.61    0.67
  -3   8   7    1.60    0.60
   2  -8  -7    1.44    0.61
  -2   8   7    1.28    0.57
   1  -8  -7    3.37    0.63
  -1   8   7    3.53    0.69
   0  -8  -7    1.15    0.52
   0   8   7    1.73    0.48
   0   8   7    1.23    0.56
   1   8   7    3.50    0.65
   2   8   7   12.94    1.01
   3   8   7    3.79    0.73
   4   8   7    3.66    0.83
   5   8   7    3.09    0.88
   6   8   7    0.57    0.71
   7   8   7    0.50    0.74
   9  -9  -7    0.69    0.72
   8  -9  -7    1.02    0.81
   7  -9  -7   -0.53    0.68
   6  -9  -7    5.58    0.96
  -6   9   7    4.47    0.84
   5  -9  -7    4.41    0.80
  -5   9   7    5.77    0.85
   4  -9  -7    0.02    0.61
  -4   9   7   -0.23    0.50
   3  -9  -7    7.44    0.93
  -3   9   7    9.46    0.96
   2  -9  -7    1.47    0.62
  -2   9   7    1.49    0.63
   1  -9  -7    0.52    0.57
  -1   9   7    1.49    0.62
   0  -9  -7    5.39    0.77
   0   9   7    3.59    0.75
   1   9   7   24.42    1.19
   1   9   7   22.43    1.27
   2   9   7    0.03    0.49
   3   9   7    0.42    0.60
   4   9   7    2.88    0.80
   5   9   7    4.75    0.96
   6   9   7   -1.05    0.62
   8 -10  -7    8.11    1.24
   7 -10  -7    3.24    0.93
   6 -10  -7    0.09    0.62
  -6  10   7    1.29    0.69
   5 -10  -7    2.48    0.83
  -5  10   7    1.66    0.69
   4 -10  -7    3.96    0.86
  -4  10   7    4.05    0.81
   3 -10  -7    0.13    0.65
  -3  10   7   -0.50    0.55
   2 -10  -7    1.43    0.69
  -2  10   7    0.83    0.55
   1 -10  -7    3.60    0.76
  -1  10   7    3.04    0.74
   0 -10  -7    0.03    0.52
   0  10   7   -0.16    0.56
   1  10   7    0.82    0.55
   2  10   7    8.89    1.01
   3  10   7    3.72    0.81
   4  10   7    1.18    0.70
   5  10   7   -0.32    0.63
   8 -11  -7    1.80    0.93
   7 -11  -7    0.07    0.78
   6 -11  -7    2.92    0.90
  -6  11   7    3.03    0.89
   5 -11  -7    1.36    0.80
  -5  11   7    1.39    0.71
   4 -11  -7   -0.38    0.64
  -4  11   7    0.69    0.64
   3 -11  -7    2.20    0.79
  -3  11   7    2.60    0.75
   2 -11  -7    5.01    0.89
  -2  11   7    5.20    0.85
   1 -11  -7    1.68    0.71
  -1  11   7    2.47    0.70
   0 -11  -7    1.81    0.69
   0  11   7    2.02    0.68
   1  11   7    0.46    0.63
   3  11   7    4.83    0.94
   4  11   7    0.30    0.66
   5  11   7    0.54    0.63
   7 -12  -7    2.78    1.01
   6 -12  -7   -0.69    0.77
  -6  12   7   -0.75    0.68
   5 -12  -7    5.88    1.06
  -5  12   7    4.28    0.86
   4 -12  -7    1.07    0.76
  -4  12   7   -0.26    0.58
   3 -12  -7    2.16    0.84
  -3  12   7    2.77    0.77
   2 -12  -7    1.52    0.79
  -2  12   7    0.69    0.62
   1 -12  -7    9.31    1.10
  -1  12   7    8.92    1.03
   0  12   7    3.05    0.77
   1  12   7    0.50    0.63
   2  12   7    0.17    0.56
   6 -13  -7    3.87    1.10
   5 -13  -7   -0.27    0.81
   4 -13  -7    2.28    0.90
   3 -13  -7    1.44    0.80
   2 -13  -7    1.53    0.83
   1 -13  -7   -0.09    0.70
   4 -14  -7   -0.12    0.81
   3 -14  -7    1.33    0.89
   2 -14  -7    8.46    1.19
   1 -14  -7   -0.35    0.74
   4  14  -8   -0.95    0.71
   3  14  -8   -0.16    0.81
  -1 -14   8    3.67    1.03
  -1 -14   8    4.13    0.97
   0 -14   8    0.81    0.89
   0 -14   8    1.13    0.78
   1 -14   8    1.22    0.87
   1 -14   8    0.60    0.73
   2 -14   8    2.97    0.88
   6  13  -8    0.78    0.93
   5  13  -8    3.33    1.03
   4  13  -8    1.19    0.86
   3  13  -8    0.19    0.74
  -2 -13   8    3.71    0.92
  -1 -13   8    1.82    0.89
  -1 -13   8    1.14    0.75
   0 -13   8    0.17    0.68
   0 -13   8   -0.19    0.78
   1 -13   8   -1.22    0.68
   1 -13   8   -0.80    0.59
   2 -13   8   -0.17    0.78
   2 -13   8   -0.88    0.59
   3 -13   8    2.87    0.87
   7  12  -8    0.70    0.85
   6  12  -8   -0.31    0.82
   5  12  -8   -0.45    0.70
   4  12  -8    0.03    0.73
   3  12  -8    2.05    0.78
  -2 -12   8    1.10    0.73
  -2 -12   8    1.20    0.80
  -1 -12   8   10.95    1.26
  -1 -12   8   10.09    1.13
   0 -12   8   -0.69    0.56
   0 -12   8    0.86    0.73
   1 -12   8    0.45    0.64
   1 -12   8    1.22    0.74
   2 -12   8    0.95    0.78
   2 -12   8   -0.36    0.61
   3 -12   8    0.30    0.67
   3 -12   8   -1.41    0.69
   8  11  -8   -0.16    0.91
   7  11  -8    1.12    0.92
   6  11  -8    1.34    0.84
   5  11  -8    0.97    0.74
   4  11  -8    1.60    0.72
   3  11  -8    4.94    0.94
  -2 -11   8    1.03    0.71
  -2 -11   8    0.28    0.64
  -1 -11   8    3.12    0.76
  -1 -11   8    4.06    0.86
   0 -11   8    4.22    0.81
   0 -11   8    4.13    0.91
   1 -11   8    1.32    0.78
   1 -11   8    0.25    0.60
   2 -11   8    1.73    0.75
   2 -11   8    1.90    0.71
   3 -11   8    0.83    0.67
   3 -11   8    1.60    0.81
   4 -11   8   -0.60    0.76
   8  10  -8   -0.71    0.78
   7  10  -8   -0.28    0.76
   6  10  -8    7.72    1.13
   5  10  -8    7.02    1.06
   4  10  -8   -0.83    0.60
   3  10  -8    0.57    0.67
  -3 -10   8    0.95    0.66
  -2 -10   8   -0.64    0.56
  -1 -10   8    1.55    0.72
  -1 -10   8    1.93    0.68
   0 -10   8    2.27    0.68
   0 -10   8    3.80    0.83
   1 -10   8   -0.48    0.58
   1 -10   8    1.47    0.63
   2 -10   8    6.05    0.84
   2 -10   8    4.81    0.94
   3 -10   8    0.05    0.77
   3 -10   8    2.69    0.71
   4 -10   8   -0.94    0.75
   5 -10   8    5.37    1.29
   9   9  -8    2.40    0.94
   8   9  -8   -0.18    0.70
   7   9  -8    1.35    0.79
   6   9  -8    3.20    0.84
   5   9  -8    0.16    0.60
   4   9  -8    9.02    1.03
   3   9  -8    1.91    0.67
  -3  -9   8    1.57    0.69
  -2  -9   8   -0.66    0.53
  -1  -9   8    7.28    0.86
  -1  -9   8    7.21    0.98
   0  -9   8   -1.01    0.55
   0  -9   8   -0.41    0.46
   1  -9   8    5.31    1.04
   1  -9   8    9.26    0.92
   2  -9   8    1.82    0.59
   2  -9   8    1.36    0.69
   3  -9   8    2.00    0.89
   3  -9   8    2.44    0.68
   4  -9   8    0.18    0.88
   5  -9   8    8.05    1.22
   6  -9   8   -0.49    0.89
   9   8  -8    0.21    0.83
   8   8  -8    0.16    0.73
   7   8  -8    1.93    0.78
   6   8  -8   -0.34    0.61
   5   8  -8    7.01    0.95
   4   8  -8    8.22    0.94
   3   8  -8   -0.23    0.47
  -3  -8   8   -0.44    0.55
   2   8  -8    2.57    0.63
  -2  -8   8    3.02    0.72
  -1  -8   8   -0.37    0.58
  -1  -8   8   -0.21    0.46
   0  -8   8    4.20    0.68
   0  -8   8    4.53    0.86
   1  -8   8   15.38    1.03
   1  -8   8   14.35    1.16
   2  -8   8    0.65    0.80
   2  -8   8    1.59    0.57
   3  -8   8    7.35    0.82
   3  -8   8    8.00    1.06
   4  -8   8    0.05    0.67
   5  -8   8   11.85    1.30
   6  -8   8    0.12    0.85
   7  -8   8    3.45    1.04
  10   7  -8   -0.41    0.74
   9   7  -8    1.01    0.85
   8   7  -8   -0.50    0.67
   7   7  -8    0.68    0.62
   6   7  -8    0.69    0.60
   5   7  -8    0.52    0.55
   4   7  -8   16.09    1.00
  -4  -7   8   16.02    1.18
   3   7  -8    1.26    0.54
  -3  -7   8    0.60    0.58
   2   7  -8   -0.22    0.44
  -2  -7   8    0.11    0.53
  -1  -7   8   22.46    1.26
  -1  -7   8   19.64    1.02
   0  -7   8    5.81    0.70
   0  -7   8    5.56    0.82
   1  -7   8    1.04    0.66
   1  -7   8    1.22    0.46
   2  -7   8   10.34    1.18
   2  -7   8   10.81    0.86
   3  -7   8    5.91    1.10
   3  -7   8    5.15    0.70
   4  -7   8    3.61    0.89
   5  -7   8    1.36    0.82
   6  -7   8    1.36    0.84
   7  -7   8    1.78    0.92
  10   6  -8    4.49    1.02
   9   6  -8    1.45    0.77
   8   6  -8    3.12    0.89
   7   6  -8    3.13    0.79
   6   6  -8    2.87    0.76
   5   6  -8    4.40    0.73
   4   6  -8   -0.08    0.44
  -4  -6   8    0.24    0.52
   3   6  -8    0.74    0.47
  -3  -6   8    1.00    0.54
   2   6  -8    3.86    0.59
  -2  -6   8    4.11    0.71
  -1  -6   8    2.82    0.60
  -1  -6   8    3.32    0.56
   0  -6   8   18.51    1.12
   0  -6   8   20.15    0.96
   1  -6   8   -0.36    0.50
   1  -6   8    0.21    0.37
   2  -6   8    1.57    0.47
   2  -6   8    0.81    0.61
   3  -6   8    9.74    1.08
   4  -6   8    0.52    0.62
   5  -6   8    0.96    0.68
   6  -6   8   11.12    1.26
   7  -6   8    1.67    0.94
   8  -6   8    1.66    0.93
  10   5  -8    5.91    1.17
   9   5  -8    0.27    0.67
   8   5  -8    1.46    0.69
   7   5  -8    0.23    0.61
   6   5  -8    0.38    0.51
   5   5  -8    0.37    0.50
   4   5  -8    2.57    0.58
  -4  -5   8    2.04    0.58
   3   5  -8    3.18    0.57
  -3  -5   8    3.60    0.64
  -3  -5   8    3.23    0.40
   2   5  -8    6.67    0.63
  -2  -5   8    5.22    0.44
  -2  -5   8    5.81    0.74
   1   5  -8   16.37    0.79
  -1  -5   8   15.69    0.99
  -1  -5   8   17.32    0.63
   0  -5   8    0.66    0.52
   0  -5   8    0.89    0.38
   1  -5   8   11.53    0.72
   1  -5   8   13.65    1.06
   2  -5   8   13.46    1.02
   2  -5   8   15.19    0.77
   3  -5   8    5.98    0.85
   4  -5   8   21.44    1.43
   5  -5   8    0.32    0.66
   6  -5   8    9.16    1.08
   7  -5   8    1.55    0.84
   8  -5   8    1.95    0.93
  11   4  -8    1.24    0.86
  10   4  -8    9.24    1.27
   9   4  -8    3.92    0.93
   8   4  -8    0.43    0.70
   7   4  -8   11.68    1.13
   6   4  -8    4.66    0.76
   5   4  -8    0.73    0.49
   4   4  -8    8.10    0.76
  -4  -4   8    7.22    0.78
   3   4  -8   48.73    1.37
  -3  -4   8   50.91    1.59
  -3  -4   8   49.11    1.14
   2   4  -8   -0.05    0.36
  -2  -4   8    0.02    0.41
  -2  -4   8   -0.55    0.25
   1   4  -8   12.17    0.65
  -1  -4   8   12.25    0.63
  -1  -4   8   12.87    0.90
   0  -4   8    2.40    0.60
   0  -4   8    2.20    0.39
   1  -4   8    3.43    0.64
   1  -4   8    4.21    0.46
   2  -4   8    7.79    0.58
   2  -4   8    8.04    0.89
   3  -4   8    3.25    0.72
   4  -4   8   36.55    1.62
   5  -4   8   -0.14    0.58
   6  -4   8    0.02    0.71
   7  -4   8    0.50    0.77
   8  -4   8   -0.13    0.81
  11   3  -8    1.69    0.93
  10   3  -8    4.60    1.04
   9   3  -8    0.90    0.69
   8   3  -8   -0.61    0.58
   7   3  -8   32.65    1.48
   6   3  -8    1.04    0.58
   5   3  -8    5.99    0.73
   4   3  -8    0.94    0.42
  -4  -3   8    1.61    0.44
  -4  -3   8    1.92    0.53
   3   3  -8    0.61    0.39
  -3  -3   8    0.19    0.40
  -3  -3   8    0.12    0.34
   2   3  -8    5.97    0.56
  -2  -3   8    5.82    0.53
  -2  -3   8    4.99    0.68
   1   3  -8    0.83    0.30
  -1  -3   8    1.20    0.37
  -1  -3   8    0.89    0.54
   0   3  -8   10.05    0.51
   0  -3   8   10.12    0.82
   1  -3   8   22.37    1.12
   1  -3   8   21.72    0.68
   2  -3   8    7.24    0.82
   3  -3   8    4.89    0.75
   4  -3   8   46.79    1.79
   5  -3   8   -0.41    0.63
   6  -3   8    4.39    0.96
   7  -3   8    1.17    0.77
   8  -3   8    0.43    0.85
  11   2  -8    0.54    0.89
  10   2  -8    1.21    0.86
   9   2  -8   12.12    1.26
   8   2  -8    3.62    0.81
   7   2  -8   12.72    1.11
   6   2  -8    5.64    0.77
   5   2  -8   -0.33    0.42
   4   2  -8   53.39    1.44
  -4  -2   8   54.38    1.52
  -4  -2   8   55.03    1.40
   3   2  -8    4.29    0.53
  -3  -2   8    5.39    0.65
  -3  -2   8    4.41    0.53
   2   2  -8    1.64    0.36
  -2  -2   8    1.13    0.37
  -2  -2   8    1.10    0.42
   1   2  -8   17.00    0.60
  -1  -2   8   16.30    0.90
  -1  -2   8   16.42    0.79
   0   2  -8    9.76    0.44
   0  -2   8   10.36    0.81
   1  -2   8   11.85    0.87
   2  -2   8   -0.57    0.35
   3  -2   8    1.13    0.59
   4  -2   8   19.84    1.31
   5  -2   8    6.43    0.99
   6  -2   8    1.19    0.69
   7  -2   8    9.09    1.17
   8  -2   8    2.87    0.91
  11   1  -8    8.25    1.38
  10   1  -8    8.55    1.25
   9   1  -8    9.11    1.19
   8   1  -8    1.59    0.74
   7   1  -8    0.12    0.57
   6   1  -8    5.77    0.79
   5   1  -8    2.60    0.57
  -5  -1   8    2.33    0.51
   4   1  -8   18.57    0.87
  -4  -1   8   18.73    0.93
  -4  -1   8   19.39    0.92
   3   1  -8   41.81    1.13
  -3  -1   8   42.36    1.27
  -3  -1   8   42.96    1.22
   2   1  -8   24.95    0.78
  -2  -1   8   24.23    1.04
  -2  -1   8   26.82    0.98
   1   1  -8   50.52    0.95
  -1  -1   8   51.48    1.32
  -1  -1   8   50.43    1.46
   0   1  -8   25.01    0.50
   0  -1   8   25.08    1.07
   1  -1   8   -0.37    0.37
   2  -1   8    9.17    0.92
   3  -1   8    4.76    0.77
   4  -1   8   13.13    1.05
   5  -1   8    7.93    1.05
   6  -1   8    2.03    0.72
   7  -1   8    1.39    0.79
   8  -1   8    1.17    0.84
  11   0  -8    2.28    0.97
  10   0  -8    3.17    0.98
   9   0  -8    2.87    0.82
   8   0  -8   -0.17    0.54
   7   0  -8    1.51    0.65
   6   0  -8   10.62    0.94
   5   0  -8    0.80    0.46
  -5   0   8   -0.18    0.43
   4   0  -8    0.97    0.42
  -4   0   8    1.13    0.40
  -4   0   8    0.74    0.46
   3   0  -8    8.14    0.58
  -3   0   8    8.38    0.67
  -3   0   8    9.07    0.74
   2   0  -8   10.79    0.56
  -2   0   8   11.02    0.76
  -2   0   8   10.08    0.72
   1   0  -8    1.12    0.25
  -1   0   8    1.25    0.41
  -1   0   8    1.76    0.46
   0   0   8    1.15    0.46
   1   0   8   15.61    0.98
   2   0   8    2.13    0.54
   3   0   8    1.44    0.56
   4   0   8    0.33    0.51
   5   0   8    2.64    0.83
   6   0   8    1.34    0.70
   7   0   8    0.28    0.69
   8   0   8    0.49    0.77
  11  -1  -8    0.63    0.84
  10  -1  -8    2.06    0.93
   9  -1  -8    1.92    0.83
   8  -1  -8   -0.02    0.64
   7  -1  -8    9.26    1.03
   6  -1  -8    0.04    0.50
  -6   1   8    0.30    0.49
   5  -1  -8    1.56    0.51
  -5   1   8    0.79    0.45
   4  -1  -8   23.05    0.96
  -4   1   8   25.08    1.13
  -4   1   8   24.12    0.88
   3  -1  -8    5.74    0.55
  -3   1   8    6.35    0.68
  -3   1   8    5.38    0.56
   2  -1  -8   10.81    0.61
  -2   1   8   10.97    0.84
  -2   1   8   10.13    0.69
   1  -1  -8    0.31    0.22
  -1   1   8    0.27    0.43
  -1   1   8    0.71    0.35
   0   1   8    0.60    0.36
   1   1   8    0.18    0.36
   2   1   8    6.05    0.73
   3   1   8   16.80    1.06
   4   1   8   23.12    1.31
   5   1   8    3.56    0.78
   6   1   8    6.72    1.04
   7   1   8    3.06    0.96
   8   1   8    0.57    0.87
  11  -2  -8    3.23    1.09
  10  -2  -8    0.44    0.85
   9  -2  -8    1.24    0.73
   8  -2  -8    3.92    0.85
   7  -2  -8   19.73    1.32
   6  -2  -8    1.11    0.60
  -6   2   8    0.77    0.54
   5  -2  -8    1.20    0.52
  -5   2   8    1.31    0.50
   4  -2  -8   11.90    0.80
  -4   2   8   12.93    0.66
  -4   2   8   12.79    0.88
   3  -2  -8   87.15    1.68
  -3   2   8   86.98    1.95
  -3   2   8   88.75    1.62
   2  -2  -8   -0.07    0.27
  -2   2   8    0.16    0.42
  -2   2   8    0.65    0.37
   1  -2  -8    2.28    0.31
  -1   2   8    2.88    0.47
  -1   2   8    2.08    0.50
   0   2   8   -0.21    0.33
   1   2   8   34.19    1.28
   2   2   8   17.40    1.01
   3   2   8    2.20    0.61
   4   2   8    2.09    0.64
   5   2   8   38.13    1.77
   6   2   8   -0.07    0.67
   7   2   8    4.26    0.92
   8   2   8    2.86    0.98
  11  -3  -8    0.01    0.85
  10  -3  -8    1.56    0.90
   9  -3  -8   -0.75    0.61
   8  -3  -8    2.60    0.74
   7  -3  -8    9.87    1.04
   6  -3  -8    6.28    0.86
  -6   3   8    5.96    0.82
   5  -3  -8   18.56    1.05
  -5   3   8   19.31    1.10
   4  -3  -8    3.23    0.54
  -4   3   8    3.40    0.38
  -4   3   8    2.35    0.58
   3  -3  -8    0.27    0.35
  -3   3   8    0.49    0.45
  -3   3   8    0.12    0.27
   2  -3  -8    1.87    0.37
  -2   3   8    2.39    0.41
  -2   3   8    2.73    0.58
   1  -3  -8    0.13    0.25
  -1   3   8    0.28    0.40
  -1   3   8    0.04    0.30
   0   3   8    8.14    0.72
   1   3   8   11.25    0.82
   2   3   8    4.43    0.68
   3   3   8    3.95    0.72
   4   3   8   13.70    1.09
   5   3   8    1.13    0.63
   6   3   8   13.35    1.39
   7   3   8    7.09    1.20
   8   3   8    3.48    1.09
  11  -4  -8    0.77    0.87
  10  -4  -8    0.37    0.81
   9  -4  -8    5.54    1.03
   8  -4  -8    2.68    0.76
   7  -4  -8   -0.13    0.61
   6  -4  -8    7.80    0.87
  -6   4   8    6.94    0.87
   5  -4  -8    4.61    0.71
  -5   4   8    4.19    0.68
   4  -4  -8    0.64    0.44
  -4   4   8    2.54    0.58
   3  -4  -8   10.73    0.71
  -3   4   8   10.25    0.56
  -3   4   8   10.48    0.89
   2  -4  -8    0.24    0.35
  -2   4   8    0.28    0.44
  -2   4   8    0.15    0.27
   1  -4  -8    0.05    0.29
  -1   4   8    0.38    0.34
  -1   4   8    1.13    0.47
   0   4   8   53.94    1.47
   1   4   8    1.59    0.47
   2   4   8    5.25    0.72
   3   4   8    0.35    0.52
   4   4   8   44.92    1.83
   5   4   8    4.93    0.91
   6   4   8    1.94    0.78
   7   4   8    1.11    0.82
   8   4   8    6.82    1.32
  10  -5  -8    0.54    0.88
   9  -5  -8    0.40    0.77
   8  -5  -8    0.85    0.63
   7  -5  -8    2.91    0.74
   6  -5  -8    0.16    0.56
  -6   5   8   -0.51    0.50
   5  -5  -8    1.82    0.57
  -5   5   8    1.18    0.57
   4  -5  -8    6.65    0.74
  -4   5   8    7.40    0.82
   3  -5  -8    1.21    0.43
  -3   5   8    0.40    0.47
   2  -5  -8    0.14    0.35
  -2   5   8    0.17    0.26
  -2   5   8    0.55    0.46
   1  -5  -8    4.69    0.53
  -1   5   8    4.68    0.73
  -1   5   8    6.14    0.59
   0   5   8    8.21    0.74
   1   5   8    5.82    0.69
   2   5   8    3.25    0.64
   3   5   8    7.20    0.91
   4   5   8    7.72    1.02
   5   5   8    3.48    0.81
   6   5   8    0.96    0.71
   7   5   8    0.84    0.81
  10  -6  -8    4.07    1.10
   9  -6  -8    2.92    0.88
   8  -6  -8    0.41    0.72
   7  -6  -8    5.39    0.90
   6  -6  -8    7.60    0.94
  -6   6   8    9.44    1.05
   5  -6  -8    0.73    0.53
  -5   6   8   -0.31    0.55
   4  -6  -8    0.76    0.50
  -4   6   8    1.26    0.56
   3  -6  -8   -0.21    0.42
  -3   6   8    0.84    0.50
   2  -6  -8    4.97    0.61
  -2   6   8    4.39    0.71
   1  -6  -8    3.10    0.51
  -1   6   8    4.42    0.72
  -1   6   8    3.34    0.48
   0   6   8   11.68    0.99
   0   6   8   10.19    0.76
   1   6   8   15.58    0.96
   2   6   8   -0.03    0.48
   3   6   8    6.71    0.92
   4   6   8    3.63    0.83
   5   6   8    3.89    0.86
   6   6   8    3.32    0.95
   7   6   8    4.98    1.14
  10  -7  -8    5.62    1.17
   9  -7  -8   -0.43    0.76
   8  -7  -8    1.47    0.80
   7  -7  -8    0.53    0.65
  -7   7   8    0.53    0.68
   6  -7  -8   -0.14    0.57
  -6   7   8    0.39    0.59
   5  -7  -8    2.35    0.66
  -5   7   8    1.25    0.69
   4  -7  -8    0.45    0.54
  -4   7   8    0.69    0.60
   3  -7  -8    0.61    0.54
  -3   7   8    1.50    0.60
   2  -7  -8   15.82    0.98
  -2   7   8   15.51    1.05
   1  -7  -8    0.81    0.44
  -1   7   8    2.21    0.63
   0   7   8    2.59    0.54
   0   7   8    3.16    0.69
   1   7   8   11.97    0.93
   2   7   8    6.52    0.87
   3   7   8    6.29    0.91
   4   7   8    6.47    0.97
   5   7   8    0.35    0.63
   6   7   8    0.22    0.73
   7   7   8   -0.15    0.78
   9  -8  -8    0.43    0.75
   8  -8  -8   -0.07    0.71
   7  -8  -8    3.90    0.87
  -7   8   8    4.86    0.92
   6  -8  -8    1.50    0.70
  -6   8   8    1.02    0.66
   5  -8  -8    3.47    0.79
  -5   8   8    2.42    0.70
   4  -8  -8    4.12    0.78
  -4   8   8    5.28    0.83
   3  -8  -8    1.07    0.58
  -3   8   8    1.34    0.60
   2  -8  -8    7.85    0.85
  -2   8   8    5.48    0.80
   1  -8  -8    0.25    0.48
  -1   8   8    0.20    0.52
   0   8   8    0.50    0.57
   1   8   8    5.65    0.77
   2   8   8    3.58    0.73
   3   8   8   12.58    1.20
   4   8   8    1.10    0.67
   5   8   8    0.34    0.69
   6   8   8    1.59    0.84
   9  -9  -8    1.76    0.87
   8  -9  -8    2.45    0.87
   7  -9  -8    0.45    0.76
  -7   9   8    0.08    0.71
   6  -9  -8    6.63    1.03
  -6   9   8    3.54    0.90
   5  -9  -8    4.23    0.88
  -5   9   8    3.42    0.79
   4  -9  -8    2.24    0.75
  -4   9   8    3.33    0.79
   3  -9  -8    2.38    0.70
  -3   9   8    2.71    0.72
   2  -9  -8    4.07    0.75
  -2   9   8    3.14    0.71
   1  -9  -8   -0.66    0.50
  -1   9   8    0.59    0.60
   0   9   8    3.04    0.76
   1   9   8    5.75    0.91
   2   9   8    1.90    0.67
   3   9   8    0.41    0.59
   4   9   8    0.82    0.65
   5   9   8    1.72    0.82
   8 -10  -8   17.49    1.62
   7 -10  -8   16.38    1.52
  -7  10   8   18.18    1.33
   6 -10  -8    8.44    1.13
  -6  10   8    7.83    1.07
   5 -10  -8    1.02    0.72
  -5  10   8    0.79    0.70
   4 -10  -8    1.57    0.73
  -4  10   8    1.60    0.75
   3 -10  -8    1.08    0.69
  -3  10   8    1.31    0.62
   2 -10  -8   -1.07    0.52
  -2  10   8    0.13    0.58
   1 -10  -8    1.03    0.64
  -1  10   8    0.35    0.60
   0  10   8   31.31    1.52
   1  10   8    1.04    0.65
   3  10   8    2.38    0.73
   4  10   8    2.28    0.76
   5  10   8    0.87    0.75
   7 -11  -8    0.82    0.81
   6 -11  -8   -0.17    0.73
  -6  11   8   -0.34    0.61
   5 -11  -8   -1.08    0.64
  -5  11   8    1.19    0.75
   4 -11  -8    0.10    0.70
  -4  11   8    0.45    0.65
   3 -11  -8    0.06    0.67
  -3  11   8    1.42    0.68
   2 -11  -8   -0.82    0.59
  -2  11   8    0.22    0.56
  -1  11   8    1.44    0.68
   0  11   8    1.75    0.64
   1  11   8    1.32    0.66
   2  11   8   -0.75    0.57
   4  11   8   -0.23    0.63
   6 -12  -8   -0.51    0.75
  -6  12   8   -1.23    0.57
   5 -12  -8    3.71    0.92
  -5  12   8    3.50    0.88
   4 -12  -8   -1.36    0.66
  -4  12   8   -0.78    0.59
   3 -12  -8    1.42    0.77
  -3  12   8    1.00    0.69
   2 -12  -8    3.82    0.92
  -2  12   8    3.95    0.86
  -1  12   8    0.73    0.68
   0  12   8    0.45    0.64
   1  12   8   -1.00    0.59
   2  12   8    0.82    0.68
   5 -13  -8    1.54    0.91
   4 -13  -8    3.28    0.96
   3 -13  -8    1.87    0.86
   2 -13  -8    0.57    0.78
   3  14  -9    1.73    0.82
  -1 -14   9    0.13    0.71
  -1 -14   9    1.78    0.98
   0 -14   9    0.69    0.84
   0 -14   9    1.44    0.83
   1 -14   9    0.33    0.82
   1 -14   9    0.33    0.75
   5  13  -9    4.43    1.07
   4  13  -9    1.17    0.75
   3  13  -9    0.02    0.77
  -2 -13   9    1.25    0.88
  -1 -13   9    1.29    0.89
  -1 -13   9    0.25    0.69
   0 -13   9    1.33    0.84
   0 -13   9    1.42    0.74
   1 -13   9   -1.02    0.57
   1 -13   9    0.30    0.83
   2 -13   9    1.11    0.89
   2 -13   9    0.51    0.68
   3 -13   9    0.85    0.92
   6  12  -9    0.32    0.84
   5  12  -9    1.18    0.82
   4  12  -9    2.98    0.93
   3  12  -9    5.65    1.01
  -2 -12   9    0.43    0.81
  -1 -12   9    0.68    0.72
  -1 -12   9    0.69    0.66
   0 -12   9    6.49    1.06
   0 -12   9    4.82    0.92
   1 -12   9   -0.54    0.57
   1 -12   9    0.15    0.80
   2 -12   9    0.48    0.67
   2 -12   9    0.62    0.88
   3 -12   9    1.83    0.87
   4 -12   9    0.82    0.93
   7  11  -9    0.94    0.83
   6  11  -9    7.51    1.18
   5  11  -9   -0.62    0.70
   4  11  -9    1.35    0.75
   3  11  -9    0.77    0.73
  -3 -11   9    0.39    0.68
   2  11  -9   18.80    1.26
  -2 -11   9   17.77    1.36
  -1 -11   9    1.78    0.70
  -1 -11   9    0.11    0.71
   0 -11   9    1.01    0.65
   0 -11   9    1.35    0.80
   1 -11   9    0.17    0.61
   1 -11   9    0.27    0.76
   2 -11   9    0.63    0.73
   2 -11   9    1.22    0.68
   3 -11   9    4.28    1.00
   4 -11   9    0.22    0.80
   8  10  -9    2.02    0.96
   7  10  -9    0.53    0.81
   6  10  -9    2.87    0.92
   5  10  -9    1.38    0.76
   4  10  -9    5.82    0.93
   3  10  -9    2.37    0.74
  -3 -10   9    2.73    0.77
   2  10  -9    2.68    0.74
  -2 -10   9    2.08    0.78
  -1 -10   9    1.87    0.68
  -1 -10   9    2.47    0.76
   0 -10   9   -0.31    0.51
   0 -10   9   -0.15    0.63
   1 -10   9    1.06    0.68
   1 -10   9    1.19    0.58
   2 -10   9    0.84    0.66
   2 -10   9    0.54    0.76
   3 -10   9    3.35    0.93
   4 -10   9   -0.53    0.90
   5 -10   9    1.88    1.07
   9   9  -9    0.12    0.84
   8   9  -9    1.43    0.86
   7   9  -9   13.91    1.37
   6   9  -9    7.84    1.11
   5   9  -9    5.04    0.88
   4   9  -9    0.66    0.64
  -4  -9   9    0.03    0.62
   3   9  -9   -0.08    0.54
  -3  -9   9   -0.02    0.59
   2   9  -9   -0.01    0.55
  -2  -9   9   -0.21    0.60
  -1  -9   9    2.76    0.84
  -1  -9   9    3.57    0.72
   0  -9   9   11.71    1.02
   0  -9   9   11.03    1.14
   1  -9   9   47.68    1.64
   1  -9   9   44.99    1.87
   2  -9   9   12.12    1.30
   2  -9   9   12.13    1.04
   3  -9   9    2.48    0.96
   4  -9   9    0.71    0.87
   5  -9   9    1.69    1.13
   6  -9   9   -0.61    0.93
   9   8  -9    0.20    0.81
   8   8  -9    3.95    0.90
   7   8  -9    1.62    0.78
   6   8  -9    0.64    0.68
   5   8  -9    1.73    0.70
   4   8  -9    1.67    0.65
  -4  -8   9    0.56    0.64
   3   8  -9    0.66    0.56
  -3  -8   9    0.62    0.57
   2   8  -9   -0.62    0.53
  -2  -8   9   -0.82    0.52
  -1  -8   9   22.38    1.41
  -1  -8   9   23.61    1.23
   0  -8   9    7.10    0.82
   0  -8   9    6.69    0.96
   1  -8   9   -0.17    0.76
   1  -8   9    2.94    0.66
   2  -8   9    7.55    1.05
   3  -8   9    0.57    0.85
   4  -8   9    1.97    0.87
   5  -8   9    1.56    0.89
   6  -8   9    0.60    0.86
  10   7  -9    0.66    0.94
   9   7  -9    0.27    0.84
   8   7  -9    0.45    0.67
   7   7  -9   10.41    1.13
   6   7  -9    7.96    1.00
   5   7  -9    9.83    1.00
   4   7  -9    5.26    0.78
  -4  -7   9    4.41    0.86
   3   7  -9   13.45    0.92
  -3  -7   9   11.76    1.09
   2   7  -9    2.80    0.60
  -2  -7   9    3.91    0.76
  -1  -7   9    1.70    0.65
   0  -7   9    2.92    0.77
   0  -7   9    5.59    0.67
   1  -7   9    4.75    0.93
   1  -7   9    4.04    0.63
   2  -7   9   18.38    1.51
   3  -7   9   18.99    1.38
   4  -7   9    8.43    1.13
   5  -7   9    0.86    0.77
   6  -7   9    0.66    0.98
   7  -7   9    1.23    0.93
  10   6  -9    1.27    0.83
   9   6  -9    2.58    0.86
   8   6  -9   -0.07    0.61
   7   6  -9    0.16    0.63
   6   6  -9    1.46    0.60
   5   6  -9    1.71    0.62
   4   6  -9    1.70    0.60
  -4  -6   9    1.11    0.60
   3   6  -9    3.18    0.60
  -3  -6   9    3.22    0.66
   2   6  -9    7.07    0.71
  -2  -6   9    4.80    0.76
   1   6  -9    5.10    0.64
  -1  -6   9    5.65    0.77
   0  -6   9    7.26    0.95
   0  -6   9    9.13    0.74
   1  -6   9    1.44    0.45
   1  -6   9    0.46    0.60
   2  -6   9    5.21    0.92
   3  -6   9   16.46    1.49
   4  -6   9    4.16    1.06
   5  -6   9    1.18    0.75
   6  -6   9    2.70    0.91
   7  -6   9    0.97    0.86
  10   5  -9   -0.04    0.81
   9   5  -9    3.03    0.91
   8   5  -9   -0.14    0.67
   7   5  -9    3.06    0.79
   6   5  -9    4.65    0.78
   5   5  -9    5.31    0.75
   4   5  -9    0.06    0.43
  -4  -5   9    0.11    0.52
   3   5  -9   -0.41    0.36
  -3  -5   9    0.04    0.30
  -3  -5   9    0.42    0.53
   2   5  -9    0.10    0.37
  -2  -5   9    0.63    0.44
   1   5  -9    1.49    0.43
  -1  -5   9    2.02    0.37
  -1  -5   9    1.25    0.52
   0  -5   9    1.28    0.67
   0  -5   9    0.43    0.37
   1  -5   9    2.69    0.48
   1  -5   9    2.36    0.70
   2  -5   9   -0.15    0.57
   3  -5   9   15.69    1.23
   4  -5   9   16.44    1.23
   5  -5   9    5.77    1.01
   6  -5   9    1.68    0.73
   7  -5   9    3.12    0.92
  10   4  -9    0.66    0.82
   9   4  -9    0.24    0.65
   8   4  -9    0.82    0.68
   7   4  -9    0.89    0.63
   6   4  -9    6.16    0.83
   5   4  -9    0.69    0.52
  -5  -4   9    0.54    0.48
   4   4  -9    4.21    0.63
  -4  -4   9    3.02    0.61
  -4  -4   9    2.74    0.50
   3   4  -9    2.23    0.47
  -3  -4   9    2.27    0.43
  -3  -4   9    1.89    0.59
   2   4  -9    1.61    0.42
  -2  -4   9    1.45    0.50
  -2  -4   9    1.49    0.37
   1   4  -9    3.40    0.44
  -1  -4   9    2.34    0.60
  -1  -4   9    3.21    0.44
   0   4  -9   14.68    0.66
   0  -4   9   14.64    1.10
   1  -4   9    4.99    0.84
   2  -4   9   -0.33    0.50
   3  -4   9   16.24    1.19
   4  -4   9    8.26    1.09
   5  -4   9    8.39    1.10
   6  -4   9    1.63    0.80
   7  -4   9   -0.92    0.74
  11   3  -9    5.93    1.29
  10   3  -9    0.37    0.80
   9   3  -9    0.48    0.73
   8   3  -9    6.73    0.98
   7   3  -9   15.11    1.05
   6   3  -9    2.44    0.61
   5   3  -9    1.01    0.50
  -5  -3   9    1.26    0.55
   4   3  -9   -0.09    0.37
  -4  -3   9    0.23    0.43
  -4  -3   9   -0.41    0.35
   3   3  -9   -0.21    0.34
  -3  -3   9    0.20    0.33
  -3  -3   9    1.01    0.44
   2   3  -9    7.27    0.58
  -2  -3   9    6.98    0.59
  -2  -3   9    7.56    0.79
   1   3  -9   11.09    0.57
  -1  -3   9   11.33    0.74
  -1  -3   9   10.86    0.88
   0   3  -9    9.28    0.50
   0  -3   9    8.61    0.87
   1  -3   9   59.99    1.88
   2  -3   9   -0.32    0.47
   3  -3   9    0.89    0.58
   4  -3   9    1.99    0.79
   5  -3   9    2.98    0.85
   6  -3   9    1.15    0.73
   7  -3   9    0.27    0.90
   8  -3   9    2.97    1.03
  11   2  -9    2.66    0.95
  10   2  -9    0.70    0.81
   9   2  -9    2.61    0.82
   8   2  -9   -0.02    0.66
   7   2  -9    0.51    0.60
   6   2  -9    0.12    0.50
   5   2  -9   -0.15    0.43
  -5  -2   9   -0.05    0.43
  -5  -2   9    0.41    0.46
   4   2  -9   -0.29    0.38
  -4  -2   9    0.00    0.39
  -4  -2   9   -0.06    0.34
   3   2  -9    0.00    0.35
  -3  -2   9   -0.10    0.35
  -3  -2   9   -0.23    0.37
   2   2  -9   21.95    0.77
  -2  -2   9   21.80    1.05
  -2  -2   9   21.24    0.90
   1   2  -9   20.89    0.67
  -1  -2   9   21.50    0.92
  -1  -2   9   20.55    1.11
   0  -2   9   17.03    1.00
   1  -2   9    3.48    0.64
   2  -2   9   -0.39    0.46
   3  -2   9    5.36    0.85
   5  -2   9   -0.79    0.55
   6  -2   9    1.73    0.83
   7  -2   9    3.37    1.00
   8  -2   9    1.23    0.91
  11   1  -9   -0.33    0.75
  10   1  -9    4.03    1.00
   9   1  -9    1.21    0.80
   8   1  -9    3.16    0.83
   7   1  -9    0.08    0.53
   6   1  -9    1.96    0.59
   5   1  -9    6.07    0.74
  -5  -1   9    5.64    0.70
  -5  -1   9    6.00    0.73
   4   1  -9    1.11    0.46
  -4  -1   9    0.52    0.43
  -4  -1   9    1.39    0.45
   3   1  -9    7.01    0.61
  -3  -1   9    7.27    0.70
  -3  -1   9    6.98    0.66
   2   1  -9   11.13    0.58
  -2  -1   9    9.63    0.76
  -2  -1   9   10.76    0.86
   1   1  -9    4.58    0.36
  -1  -1   9    3.72    0.56
  -1  -1   9    5.44    0.67
   0  -1   9   25.22    1.18
   1  -1   9    3.07    0.59
   2  -1   9    0.43    0.50
   3  -1   9    6.57    0.91
   4  -1   9    8.47    1.05
   5  -1   9   -0.40    0.56
   6  -1   9    0.86    0.68
   7  -1   9    1.04    0.84
   8  -1   9    0.10    0.87
  11   0  -9    2.26    0.95
  10   0  -9    3.30    1.00
   9   0  -9    0.22    0.72
   8   0  -9    3.50    0.78
   7   0  -9    7.35    0.93
   6   0  -9    0.46    0.51
  -6   0   9    0.35    0.47
   5   0  -9    3.93    0.63
  -5   0   9    3.93    0.67
  -5   0   9    3.58    0.56
   4   0  -9    3.06    0.54
  -4   0   9    3.61    0.56
  -4   0   9    2.53    0.53
   3   0  -9   55.33    1.31
  -3   0   9   59.66    1.53
  -3   0   9   58.36    1.58
   2   0  -9   -0.09    0.27
  -2   0   9   -0.25    0.35
  -2   0   9    0.64    0.43
   1   0  -9    9.15    0.43
  -1   0   9    8.30    0.73
  -1   0   9   10.49    0.75
   0   0   9   12.51    0.91
   1   0   9    3.12    0.61
   2   0   9    1.36    0.62
   3   0   9    6.30    0.88
   4   0   9    2.89    0.73
   5   0   9    5.78    0.99
   6   0   9    0.04    0.63
   7   0   9    0.75    0.78
   8   0   9   -0.46    0.70
  11  -1  -9    6.28    1.24
  10  -1  -9    0.13    0.82
   9  -1  -9    4.56    0.98
   8  -1  -9   -0.52    0.56
   7  -1  -9    0.17    0.54
   6  -1  -9    2.16    0.64
  -6   1   9    4.15    0.76
   5  -1  -9    1.15    0.54
  -5   1   9    2.28    0.60
  -5   1   9    1.82    0.44
   4  -1  -9    6.42    0.65
  -4   1   9    6.77    0.64
  -4   1   9    5.02    0.66
   3  -1  -9    0.48    0.36
  -3   1   9    0.95    0.36
  -3   1   9   -0.07    0.39
   2  -1  -9    1.59    0.34
  -2   1   9    1.80    0.43
  -2   1   9    1.49    0.51
  -1   1   9   11.37    0.82
  -1   1   9   10.75    0.78
   0   1   9   12.33    0.84
   1   1   9    0.61    0.46
   2   1   9    5.79    0.80
   3   1   9    0.69    0.57
   4   1   9   10.17    1.13
   5   1   9    0.59    0.61
   6   1   9    3.04    0.88
   7   1   9    2.85    0.90
   8   1   9    2.13    0.94
  11  -2  -9   -0.72    0.78
  10  -2  -9    5.97    1.09
   9  -2  -9    0.21    0.75
   8  -2  -9    3.64    0.83
   7  -2  -9    3.95    0.81
   6  -2  -9    2.53    0.68
  -6   2   9    1.88    0.66
   5  -2  -9    0.26    0.45
  -5   2   9    0.40    0.48
   4  -2  -9    0.28    0.42
  -4   2   9    0.54    0.36
  -4   2   9   -0.30    0.39
   3  -2  -9    1.09    0.38
  -3   2   9    1.23    0.47
  -3   2   9    1.60    0.42
   2  -2  -9    6.97    0.54
  -2   2   9    6.91    0.64
  -2   2   9    6.83    0.78
  -1   2   9    4.50    0.67
  -1   2   9    3.31    0.52
   0   2   9    2.31    0.53
   1   2   9   -0.71    0.36
   2   2   9   10.01    0.94
   3   2   9    4.13    0.81
   4   2   9   17.64    1.25
   5   2   9    0.50    0.67
   6   2   9    0.98    0.73
   7   2   9    6.13    1.11
  11  -3  -9    2.35    1.06
  10  -3  -9    0.33    0.88
   9  -3  -9    0.20    0.76
   8  -3  -9    8.19    1.07
   7  -3  -9    1.79    0.74
   6  -3  -9    0.21    0.57
  -6   3   9    1.25    0.64
   5  -3  -9    0.70    0.50
  -5   3   9    1.74    0.60
   4  -3  -9   12.82    0.82
  -4   3   9   10.58    0.94
   3  -3  -9    4.62    0.54
  -3   3   9    3.51    0.65
  -3   3   9    4.85    0.53
   2  -3  -9   -0.06    0.28
  -2   3   9    0.16    0.47
  -2   3   9    0.16    0.31
  -1   3   9   21.23    1.16
  -1   3   9   21.40    0.95
   0   3   9   26.36    1.11
   1   3   9    0.81    0.49
   2   3   9   18.14    1.08
   3   3   9    1.37    0.58
   4   3   9    8.16    1.03
   5   3   9    0.36    0.64
   6   3   9    0.84    0.70
   7   3   9    8.83    1.27
  10  -4  -9    1.29    0.90
   9  -4  -9    1.04    0.73
   8  -4  -9    1.38    0.68
   7  -4  -9    0.91    0.66
  -7   4   9   -0.73    0.60
   6  -4  -9    5.13    0.81
  -6   4   9    1.96    0.67
   5  -4  -9    0.19    0.49
  -5   4   9    0.70    0.58
   4  -4  -9    4.71    0.65
  -4   4   9    5.09    0.78
   3  -4  -9    5.15    0.58
  -3   4   9    6.61    0.80
   2  -4  -9   16.58    0.79
  -2   4   9   17.92    1.07
  -2   4   9   18.11    0.81
  -1   4   9    5.48    0.73
  -1   4   9    4.67    0.59
   0   4   9   19.78    1.01
   1   4   9    8.35    0.86
   2   4   9    0.14    0.48
   3   4   9    1.99    0.67
   4   4   9    1.15    0.67
   5   4   9    0.82    0.73
   6   4   9    2.21    0.84
   7   4   9    2.65    0.94
  10  -5  -9    0.08    0.80
   9  -5  -9    0.23    0.76
   8  -5  -9    1.72    0.80
   7  -5  -9    3.44    0.83
  -7   5   9    5.05    0.93
   6  -5  -9    1.95    0.67
  -6   5   9    2.55    0.77
   5  -5  -9    0.86    0.57
  -5   5   9    1.70    0.66
   4  -5  -9    7.58    0.78
  -4   5   9    6.72    0.86
   3  -5  -9    1.46    0.48
  -3   5   9    1.17    0.56
   2  -5  -9    0.32    0.38
  -2   5   9    0.62    0.56
  -1   5   9    0.14    0.52
  -1   5   9   -0.42    0.32
   0   5   9   14.63    1.04
   0   5   9   13.76    0.92
   1   5   9   34.43    1.36
   2   5   9    9.30    0.97
   3   5   9    2.47    0.72
   4   5   9    7.07    1.02
   5   5   9    2.38    0.81
   6   5   9    0.85    0.70
   7   5   9    0.97    0.85
  10  -6  -9   -0.39    0.84
   9  -6  -9   -0.93    0.67
   8  -6  -9    1.92    0.81
   7  -6  -9   -0.03    0.60
  -7   6   9   -0.01    0.60
   6  -6  -9    1.42    0.64
  -6   6   9    1.98    0.71
   5  -6  -9    0.10    0.51
  -5   6   9    0.56    0.59
   4  -6  -9   11.79    0.91
  -4   6   9   10.01    1.01
   3  -6  -9   18.00    1.03
  -3   6   9   18.19    1.15
   2  -6  -9    1.09    0.45
  -2   6   9    1.22    0.57
  -1   6   9    3.06    0.67
   0   6   9   11.19    0.82
   0   6   9   11.28    1.03
   1   6   9   28.39    1.28
   2   6   9   17.15    1.13
   3   6   9   19.65    1.28
   4   6   9   -0.13    0.60
   5   6   9    3.02    0.89
   6   6   9    0.63    0.74
   9  -7  -9    1.80    0.90
   8  -7  -9    3.25    0.89
   7  -7  -9    0.34    0.65
  -7   7   9    1.52    0.76
   6  -7  -9   -0.08    0.61
  -6   7   9    0.42    0.61
   5  -7  -9    3.34    0.73
  -5   7   9    1.98    0.68
   4  -7  -9    1.18    0.60
  -4   7   9    1.43    0.63
   3  -7  -9    3.40    0.69
  -3   7   9    3.18    0.73
   2  -7  -9    4.32    0.67
  -2   7   9    5.44    0.86
  -1   7   9    2.10    0.65
   0   7   9    4.81    0.81
   0   7   9    6.68    0.74
   1   7   9    3.47    0.67
   2   7   9    0.30    0.55
   3   7   9    9.03    1.09
   4   7   9    0.40    0.66
   5   7   9   -0.52    0.66
   6   7   9    1.27    0.86
   9  -8  -9   -0.33    0.75
   8  -8  -9    3.88    0.94
   7  -8  -9   -0.35    0.63
  -7   8   9    0.43    0.72
   6  -8  -9    4.75    0.89
  -6   8   9    6.63    0.99
   5  -8  -9    5.10    0.87
  -5   8   9    5.13    0.95
   4  -8  -9    3.47    0.74
  -4   8   9    2.98    0.77
   3  -8  -9    2.94    0.68
  -3   8   9    3.81    0.77
   2  -8  -9   -0.15    0.48
  -2   8   9   -0.16    0.53
  -1   8   9    8.77    1.03
   0   8   9    0.24    0.62
   1   8   9    1.76    0.58
   2   8   9    9.18    1.04
   3   8   9    0.20    0.57
   4   8   9   -0.55    0.59
   5   8   9    1.03    0.77
   8  -9  -9    5.52    1.07
   7  -9  -9    0.64    0.77
  -7   9   9    0.03    0.76
   6  -9  -9    0.85    0.77
  -6   9   9    1.54    0.72
   5  -9  -9    4.04    0.86
  -5   9   9    4.87    0.93
   4  -9  -9    4.27    0.85
  -4   9   9    5.70    0.93
   3  -9  -9    7.24    0.91
  -3   9   9    7.10    1.00
  -2   9   9    1.43    0.66
  -1   9   9    6.82    0.92
   0   9   9   17.72    1.23
   1   9   9    0.90    0.65
   2   9   9    1.18    0.62
   3   9   9    2.70    0.77
   4   9   9   -0.05    0.64
   5   9   9   -0.08    0.67
   8 -10  -9    1.59    0.88
   7 -10  -9   -0.24    0.76
  -7  10   9    0.88    0.79
   6 -10  -9    1.31    0.77
  -6  10   9    0.21    0.65
   5 -10  -9    0.18    0.69
  -5  10   9   -0.47    0.67
   4 -10  -9   -0.32    0.63
  -4  10   9   -0.06    0.64
   3 -10  -9   13.40    1.21
  -3  10   9   14.66    1.26
  -2  10   9    2.61    0.77
  -1  10   9    0.62    0.64
   0  10   9    5.10    0.93
   1  10   9   -0.17    0.62
   4  10   9    1.24    0.77
   7 -11  -9    1.88    0.94
  -7  11   9    3.23    0.94
   6 -11  -9   -0.46    0.73
  -6  11   9    0.82    0.78
   5 -11  -9    0.33    0.72
  -5  11   9    0.91    0.74
   4 -11  -9    2.82    0.87
  -4  11   9    2.78    0.82
   3 -11  -9    4.25    0.87
  -3  11   9    6.04    0.94
  -2  11   9    3.31    0.83
  -1  11   9   13.85    1.26
   0  11   9    2.73    0.76
   1  11   9    2.93    0.83
   2  11   9    0.70    0.70
   6 -12  -9    1.41    0.92
  -6  12   9    1.78    0.87
   5 -12  -9    0.44    0.79
  -5  12   9    0.61    0.77
   4 -12  -9    3.96    0.98
  -4  12   9    3.80    0.86
  -3  12   9   -0.36    0.66
  -2  12   9    2.00    0.77
  -1  12   9    0.86    0.73
   0  12   9    8.64    1.12
   1  12   9    1.10    0.68
   2  12   9    3.93    0.90
   4 -13  -9    7.08    1.22
  -4  13   9    3.99    0.96
  -3  13   9   -0.57    0.57
  -2  13   9    1.16    0.74
  -1  13   9   -0.34    0.63
   0  13   9    1.07    0.76
   2  14 -10   -0.04    0.77
  -2 -14  10   -0.51    0.87
  -1 -14  10    1.52    0.81
  -1 -14  10    1.18    0.93
   5  13 -10    0.15    0.81
   4  13 -10   -0.34    0.68
   3  13 -10    1.45    0.90
   2  13 -10    0.95    0.79
  -2 -13  10   -0.15    0.78
  -1 -13  10   -0.17    0.83
  -1 -13  10    0.20    0.67
   0 -13  10    1.90    0.94
   0 -13  10    0.45    0.73
   1 -13  10    2.79    1.00
   1 -13  10    0.68    0.71
   2 -13  10   -0.27    0.83
   6  12 -10   -0.31    0.78
   5  12 -10    2.19    0.85
   4  12 -10   -0.41    0.67
   3  12 -10    1.59    0.80
  -3 -12  10    3.98    1.04
   2  12 -10    2.34    0.82
  -2 -12  10    2.81    0.94
  -1 -12  10    0.95    0.71
  -1 -12  10   -0.72    0.65
   0 -12  10    0.24    0.62
   0 -12  10    1.81    0.84
   1 -12  10   -0.09    0.59
   1 -12  10   -1.29    0.78
   2 -12  10    0.20    0.80
   3 -12  10    1.64    0.95
   7  11 -10    0.95    0.88
   6  11 -10    1.75    0.90
   5  11 -10    1.89    0.85
   4  11 -10   -0.22    0.65
   3  11 -10    1.30    0.74
  -3 -11  10    3.00    0.92
   2  11 -10    2.76    0.79
  -2 -11  10    4.38    0.97
  -1 -11  10    2.60    0.77
  -1 -11  10    0.78    0.69
   0 -11  10    5.00    1.03
   0 -11  10    2.25    0.74
   1 -11  10   -0.38    0.72
   2 -11  10   -0.39    0.71
   3 -11  10    4.12    1.03
   4 -11  10   -0.51    0.81
   8  10 -10    0.53    0.84
   7  10 -10    7.46    1.19
   6  10 -10   -0.31    0.66
   5  10 -10   -0.44    0.66
   4  10 -10    0.57    0.66
  -4 -10  10   -0.25    0.67
   3  10 -10   -0.21    0.63
  -3 -10  10    0.13    0.72
   2  10 -10    2.87    0.74
  -2 -10  10    1.76    0.80
  -1 -10  10    0.55    0.58
  -1 -10  10    0.32    0.72
   0 -10  10    8.99    1.00
   0 -10  10    7.63    1.08
   1 -10  10    3.85    0.95
   2 -10  10    2.45    0.80
   3 -10  10    6.07    1.15
   4 -10  10    1.45    1.00
   5 -10  10    4.77    1.27
   8   9 -10   -0.69    0.75
   7   9 -10    1.29    0.79
   6   9 -10    6.52    1.02
   5   9 -10   -0.09    0.56
   4   9 -10   -0.35    0.59
  -4  -9  10    1.10    0.72
   3   9 -10    1.25    0.65
  -3  -9  10    1.11    0.76
   2   9 -10    2.79    0.72
  -2  -9  10    2.24    0.82
  -1  -9  10   12.30    1.24
   0  -9  10    5.80    1.01
   0  -9  10    6.89    0.85
   1  -9  10    7.55    1.04
   2  -9  10   -1.40    0.76
   3  -9  10    1.29    0.93
   4  -9  10    1.26    0.93
   5  -9  10   -0.90    0.91
   9   8 -10    0.25    0.84
   8   8 -10    0.88    0.78
   7   8 -10    1.13    0.67
   6   8 -10   -0.25    0.64
   5   8 -10    0.42    0.65
   4   8 -10    0.19    0.55
  -4  -8  10    0.87    0.66
   3   8 -10    2.70    0.66
  -3  -8  10    2.13    0.73
   2   8 -10   10.40    0.97
  -2  -8  10   10.62    1.21
  -1  -8  10   -0.67    0.65
   0  -8  10   -0.74    0.51
   0  -8  10   -0.08    0.50
   1  -8  10    0.86    0.74
   2  -8  10   -0.29    0.72
   3  -8  10    3.12    1.04
   4  -8  10    1.64    0.88
   5  -8  10    2.34    1.13
   9   7 -10    1.65    0.84
   8   7 -10    0.05    0.66
   7   7 -10   -0.30    0.63
   6   7 -10    0.22    0.61
   5   7 -10    2.19    0.72
  -5  -7  10    1.57    0.67
   4   7 -10    5.42    0.80
  -4  -7  10    5.24    0.88
   3   7 -10    1.09    0.56
  -3  -7  10    1.80    0.69
   2   7 -10    6.72    0.78
  -2  -7  10    5.29    0.91
   1   7 -10    0.20    0.46
  -1  -7  10    1.09    0.65
   0  -7  10    3.14    0.80
   0  -7  10    1.04    0.51
   1  -7  10    9.95    1.36
   2  -7  10    2.62    0.83
   3  -7  10   -0.29    0.68
   4  -7  10    6.29    1.10
   5  -7  10    0.26    0.83
   6  -7  10    0.28    0.87
  10   6 -10    1.93    0.88
   9   6 -10    1.82    0.89
   8   6 -10   -0.19    0.65
   7   6 -10   -0.48    0.57
   6   6 -10    1.72    0.67
   5   6 -10    0.42    0.56
  -5  -6  10    0.41    0.58
   4   6 -10    0.53    0.64
  -4  -6  10   -0.03    0.53
   3   6 -10    1.86    0.53
  -3  -6  10    0.39    0.55
   2   6 -10    5.73    0.68
  -2  -6  10    5.73    0.88
   1   6 -10    9.96    0.75
  -1  -6  10   11.14    1.10
   0  -6  10   61.45    2.15
   1  -6  10   11.59    1.21
   2  -6  10   21.08    1.49
   3  -6  10    0.97    0.81
   4  -6  10    0.85    0.78
   5  -6  10   -1.32    0.65
   6  -6  10    1.73    0.94
  10   5 -10    0.05    0.79
   9   5 -10    4.12    0.96
   8   5 -10    0.88    0.71
   7   5 -10   -0.24    0.59
   6   5 -10    0.10    0.56
   5   5 -10    1.73    0.60
  -5  -5  10    1.49    0.65
   4   5 -10    6.06    0.73
  -4  -5  10    5.78    0.81
   3   5 -10    1.71    0.52
  -3  -5  10    1.29    0.58
   2   5 -10    6.18    0.63
  -2  -5  10    5.50    0.80
   1   5 -10    1.81    0.43
  -1  -5  10    3.66    0.75
   0  -5  10   32.15    1.51
   1  -5  10    8.27    1.16
   2  -5  10    6.92    1.00
   3  -5  10    4.97    0.94
   4  -5  10   14.24    1.35
   5  -5  10    0.26    0.70
   6  -5  10   -0.12    0.81
   7  -5  10    0.28    0.75
  10   4 -10    0.42    0.78
   9   4 -10    8.63    1.18
   8   4 -10    0.83    0.68
   7   4 -10    1.06    0.66
   6   4 -10    5.27    0.81
   5   4 -10    0.65    0.52
  -5  -4  10    0.10    0.53
   4   4 -10    2.17    0.55
  -4  -4  10    2.00    0.61
  -4  -4  10    1.67    0.46
   3   4 -10    2.66    0.50
  -3  -4  10    2.16    0.44
  -3  -4  10    1.88    0.61
   2   4 -10   19.63    0.85
  -2  -4  10   19.44    1.15
  -2  -4  10   20.10    0.87
   1   4 -10    8.27    0.58
  -1  -4  10    7.99    0.94
  -1  -4  10    9.16    0.68
   0  -4  10   24.81    1.31
   1  -4  10    1.35    0.57
   2  -4  10   59.35    2.08
   3  -4  10    0.32    0.77
   4  -4  10    5.42    1.03
   5  -4  10    4.14    0.90
   6  -4  10    0.30    0.66
   7  -4  10    1.48    0.79
  10   3 -10    0.26    0.83
   9   3 -10    9.24    1.20
   8   3 -10    0.13    0.63
   7   3 -10   -0.11    0.57
   6   3 -10   12.28    0.92
   5   3 -10    0.07    0.47
  -5  -3  10    0.51    0.54
  -5  -3  10    0.03    0.47
   4   3 -10    0.57    0.46
  -4  -3  10   -0.02    0.41
  -4  -3  10    0.90    0.52
   3   3 -10    1.73    0.45
  -3  -3  10    2.79    0.51
  -3  -3  10    2.05    0.60
   2   3 -10   39.56    1.08
  -2  -3  10   40.83    1.52
  -2  -3  10   40.17    1.19
  -1  -3  10    4.95    0.80
  -1  -3  10    4.77    0.60
   0  -3  10    3.58    0.74
   1  -3  10    2.05    0.63
   2  -3  10    6.36    0.89
   3  -3  10    1.13    0.75
   4  -3  10    1.36    0.66
   5  -3  10    7.22    1.09
   6  -3  10    6.28    1.05
   7  -3  10    4.52    1.10
  10   2 -10   -0.45    0.78
   9   2 -10    1.07    0.77
   8   2 -10   12.35    1.20
   7   2 -10   10.79    1.06
   6   2 -10    7.37    0.87
   5   2 -10   -0.09    0.43
  -5  -2  10    0.17    0.46
  -5  -2  10   -0.43    0.41
   4   2 -10    9.73    0.79
  -4  -2  10    9.17    0.79
  -4  -2  10    9.99    0.90
   3   2 -10    8.04    0.67
  -3  -2  10    7.84    0.82
  -3  -2  10    6.63    0.67
   2   2 -10    2.69    0.41
  -2  -2  10    2.28    0.60
  -2  -2  10    2.69    0.50
  -1  -2  10    2.74    0.62
  -1  -2  10    4.21    0.59
   0  -2  10    1.65    0.57
   1  -2  10    0.86    0.52
   2  -2  10   15.50    1.10
   3  -2  10    1.23    0.60
   4  -2  10    1.28    0.71
   5  -2  10   14.58    1.47
   6  -2  10   -0.28    0.75
   7  -2  10    0.73    0.92
  11   1 -10   10.29    1.48
  10   1 -10   -0.90    0.68
   9   1 -10    0.16    0.69
   8   1 -10    0.27    0.65
   7   1 -10    4.29    0.80
   6   1 -10    3.23    0.70
  -6  -1  10    3.35    0.70
   5   1 -10    0.64    0.47
  -5  -1  10    0.47    0.44
  -5  -1  10   -0.03    0.45
   4   1 -10    9.07    0.70
  -4  -1  10    8.73    0.84
  -4  -1  10   10.20    0.86
   3   1 -10    3.67    0.51
  -3  -1  10    4.10    0.61
  -3  -1  10    3.58    0.60
   2   1 -10    1.01    0.33
  -2  -1  10    1.63    0.49
  -2  -1  10    0.82    0.50
  -1  -1  10    1.60    0.49
  -1  -1  10    1.35    0.51
   0  -1  10    0.43    0.45
   1  -1  10   15.30    1.09
   2  -1  10    0.27    0.52
   3  -1  10    4.65    0.85
   4  -1  10    0.61    0.70
   5  -1  10   -0.51    0.63
   6  -1  10    1.44    0.77
   7  -1  10    0.68    0.83
  11   0 -10    0.83    0.94
  10   0 -10    0.19    0.80
   9   0 -10    1.80    0.77
   8   0 -10    1.88    0.76
   7   0 -10    3.72    0.77
   6   0 -10   -1.11    0.47
  -6   0  10    0.57    0.53
   5   0 -10    2.01    0.55
  -5   0  10    3.38    0.57
  -5   0  10    3.48    0.68
   4   0 -10    0.80    0.44
  -4   0  10    0.51    0.44
  -4   0  10    1.33    0.48
   3   0 -10    5.54    0.55
  -3   0  10    5.61    0.64
  -3   0  10    6.50    0.73
   2   0 -10   -0.10    0.28
  -2   0  10   -0.29    0.43
  -2   0  10    0.08    0.42
  -1   0  10    6.52    0.75
  -1   0  10    6.07    0.71
   0   0  10    4.82    0.73
   1   0  10    3.74    0.68
   2   0  10    0.62    0.56
   3   0  10    2.78    0.72
   4   0  10   -0.58    0.58
   5   0  10    1.29    0.76
   6   0  10   -0.54    0.62
   7   0  10   -0.67    0.74
  11  -1 -10    0.77    0.97
  10  -1 -10    0.84    0.85
   9  -1 -10    2.13    0.77
   8  -1 -10    0.62    0.68
   7  -1 -10    0.10    0.54
   6  -1 -10    1.65    0.62
  -6   1  10    0.62    0.60
   5  -1 -10    1.64    0.53
  -5   1  10    1.31    0.44
  -5   1  10    1.28    0.59
   4  -1 -10   76.36    1.73
  -4   1  10   79.67    2.03
  -4   1  10   81.20    1.81
   3  -1 -10   22.53    0.87
  -3   1  10   19.48    1.05
  -3   1  10   20.81    0.99
  -2   1  10    2.93    0.59
  -2   1  10    2.30    0.52
  -1   1  10   25.10    1.15
  -1   1  10   24.45    1.12
   0   1  10    3.48    0.63
   1   1  10    3.05    0.62
   2   1  10   13.19    1.16
   3   1  10    1.28    0.64
   4   1  10   23.19    1.49
   5   1  10   21.12    1.46
   6   1  10    0.49    0.73
   7   1  10    0.44    0.83
  10  -2 -10    1.08    0.83
   9  -2 -10    4.74    0.97
   8  -2 -10    7.74    1.10
   7  -2 -10    0.98    0.67
  -7   2  10    0.48    0.61
   6  -2 -10    0.68    0.58
  -6   2  10    0.05    0.53
   5  -2 -10    6.66    0.80
  -5   2  10    7.10    0.85
   4  -2 -10    5.03    0.65
  -4   2  10    5.65    0.61
  -4   2  10    5.40    0.74
   3  -2 -10    4.61    0.53
  -3   2  10    5.28    0.75
  -3   2  10    4.96    0.62
  -2   2  10    2.59    0.64
  -2   2  10    4.29    0.61
  -1   2  10    4.21    0.68
  -1   2  10    3.37    0.59
   0   2  10   11.50    0.89
   1   2  10    0.64    0.51
   2   2  10   11.63    1.11
   3   2  10    0.48    0.61
   4   2  10    1.72    0.75
   5   2  10   10.34    1.27
   6   2  10   -0.34    0.70
   7   2  10   -0.08    0.73
  10  -3 -10   -0.91    0.76
   9  -3 -10    0.99    0.77
   8  -3 -10    0.80    0.75
   7  -3 -10   -0.12    0.61
  -7   3  10    0.47    0.67
   6  -3 -10    0.30    0.57
  -6   3  10   -0.12    0.58
   5  -3 -10   10.59    0.93
  -5   3  10    8.77    0.95
   4  -3 -10    4.93    0.65
  -4   3  10    3.45    0.70
   3  -3 -10    0.35    0.36
  -3   3  10    0.18    0.38
  -3   3  10    0.26    0.51
  -2   3  10   10.55    0.77
  -2   3  10   10.91    1.00
  -1   3  10   17.13    0.93
  -1   3  10   16.63    1.13
   0   3  10    2.38    0.58
   1   3  10   17.30    1.08
   2   3  10   26.95    1.40
   3   3  10    5.08    0.89
   4   3  10    4.83    0.91
   5   3  10    3.83    0.93
   6   3  10    0.34    0.74
   7   3  10    0.25    0.85
  10  -4 -10   -1.03    0.76
   9  -4 -10    0.01    0.68
   8  -4 -10    2.90    0.89
   7  -4 -10    3.76    0.84
  -7   4  10    3.99    0.94
   6  -4 -10    8.00    0.95
  -6   4  10    7.49    0.98
   5  -4 -10    1.17    0.59
  -5   4  10    0.52    0.57
   4  -4 -10    8.89    0.80
  -4   4  10    8.98    0.97
   3  -4 -10    9.91    0.76
  -3   4  10   10.90    0.99
  -2   4  10   -0.51    0.34
  -2   4  10   -0.12    0.47
  -1   4  10    4.82    0.62
  -1   4  10    5.19    0.79
   0   4  10    4.00    0.64
   1   4  10    1.35    0.57
   2   4  10    8.26    0.96
   3   4  10    0.19    0.53
   4   4  10   -0.37    0.59
   5   4  10   -0.23    0.63
   6   4  10    3.72    0.92
  10  -5 -10   -0.93    0.74
   9  -5 -10    0.57    0.74
   8  -5 -10    6.47    1.05
   7  -5 -10   -0.36    0.61
  -7   5  10   -0.22    0.60
   6  -5 -10    0.69    0.63
  -6   5  10    0.24    0.56
   5  -5 -10    3.51    0.71
  -5   5  10    3.45    0.75
   4  -5 -10    2.97    0.61
  -4   5  10    2.61    0.66
   3  -5 -10    1.55    0.50
  -3   5  10    1.57    0.63
  -2   5  10    7.26    0.94
  -1   5  10    3.98    0.76
  -1   5  10    2.92    0.57
   0   5  10    0.73    0.50
   0   5  10    1.15    0.62
   1   5  10    0.62    0.52
   2   5  10    5.84    0.86
   3   5  10    0.19    0.57
   4   5  10    0.64    0.62
   5   5  10   15.89    1.51
   6   5  10    1.23    0.82
  10  -6 -10    1.85    0.88
   9  -6 -10   -0.57    0.76
   8  -6 -10    1.24    0.74
   7  -6 -10    0.57    0.62
  -7   6  10   -0.22    0.68
   6  -6 -10    2.41    0.69
  -6   6  10    2.45    0.74
   5  -6 -10    0.09    0.49
  -5   6  10    0.12    0.58
   4  -6 -10    8.43    0.87
  -4   6  10    7.61    0.96
   3  -6 -10    1.41    0.51
  -3   6  10    1.32    0.67
  -2   6  10    2.87    0.73
  -1   6  10   28.70    1.51
   0   6  10    0.94    0.50
   0   6  10    1.10    0.59
   1   6  10    4.24    0.73
   2   6  10   -0.28    0.48
   3   6  10    0.50    0.60
   4   6  10    1.94    0.78
   5   6  10    0.22    0.64
   6   6  10    1.02    0.84
   9  -7 -10    0.41    0.81
   8  -7 -10    6.86    1.11
   7  -7 -10    0.13    0.66
  -7   7  10    0.11    0.66
   6  -7 -10   -0.37    0.59
  -6   7  10    0.08    0.61
   5  -7 -10    1.67    0.67
  -5   7  10   -0.66    0.54
   4  -7 -10   17.37    1.18
  -4   7  10   14.24    1.24
  -3   7  10    2.37    0.70
  -2   7  10   -0.08    0.64
  -1   7  10    3.90    0.86
   0   7  10   14.34    1.22
   1   7  10   -0.57    0.48
   2   7  10    0.86    0.55
   3   7  10    0.80    0.64
   4   7  10    1.98    0.78
   5   7  10    1.98    0.80
   9  -8 -10   -0.22    0.76
   8  -8 -10    3.46    0.96
   7  -8 -10    2.57    0.81
  -7   8  10    3.33    0.86
   6  -8 -10    0.99    0.70
  -6   8  10   -0.13    0.69
   5  -8 -10   -0.38    0.62
  -5   8  10   -0.90    0.56
   4  -8 -10    2.54    0.72
  -4   8  10    2.49    0.77
  -3   8  10    2.21    0.74
  -2   8  10   -0.50    0.58
  -1   8  10   21.97    1.42
   0   8  10    0.89    0.65
   1   8  10    2.81    0.81
   2   8  10    3.79    0.80
   3   8  10    1.29    0.67
   4   8  10    0.24    0.67
   5   8  10    0.97    0.80
   8  -9 -10    1.05    0.83
   7  -9 -10    1.27    0.82
  -7   9  10   -0.74    0.70
   6  -9 -10    0.83    0.73
  -6   9  10   -0.33    0.59
   5  -9 -10    0.96    0.74
  -5   9  10    2.18    0.76
   4  -9 -10   -0.38    0.60
  -4   9  10    0.11    0.61
  -3   9  10    0.90    0.71
  -2   9  10    0.30    0.61
  -1   9  10   14.15    1.26
   0   9  10    4.86    0.95
   1   9  10    0.67    0.69
   3   9  10    2.53    0.81
   4   9  10    1.13    0.78
   7 -10 -10    0.03    0.78
  -7  10  10    1.96    0.88
   6 -10 -10    1.45    0.83
  -6  10  10   -0.14    0.71
   5 -10 -10    1.28    0.77
  -5  10  10    0.37    0.76
  -4  10  10    0.77    0.68
  -3  10  10    0.60    0.66
  -2  10  10    1.88    0.73
  -1  10  10    0.53    0.69
   0  10  10    2.31    0.76
   1  10  10    1.70    0.72
   6 -11 -10    0.48    0.86
  -6  11  10    0.94    0.72
   5 -11 -10    0.06    0.75
  -5  11  10    0.11    0.74
  -4  11  10    0.60    0.76
  -3  11  10    1.56    0.78
  -2  11  10    0.06    0.67
  -1  11  10    0.57    0.72
   0  11  10    3.57    0.89
   1  11  10    1.46    0.78
   2  11  10    0.23    0.71
   5 -12 -10    0.54    0.86
  -5  12  10   -0.66    0.74
  -4  12  10    1.51    0.83
  -3  12  10   -0.46    0.62
  -2  12  10    0.40    0.72
  -1  12  10    0.41    0.72
   0  12  10    2.25    0.84
   1  12  10    1.46    0.78
   4  13 -11    1.15    0.81
   3  13 -11   -0.31    0.73
  -3 -13  11   -1.46    0.75
   2  13 -11    2.54    0.84
  -2 -13  11    1.88    0.93
  -1 -13  11    0.16    0.76
   0 -13  11   -0.34    0.71
   5  12 -11   -0.21    0.75
   4  12 -11    0.30    0.76
   3  12 -11    2.96    0.90
  -3 -12  11    3.26    1.03
   2  12 -11    1.02    0.74
  -2 -12  11   -0.20    0.74
  -1 -12  11   -0.38    0.72
   0 -12  11    3.37    1.01
   1 -12  11    3.56    1.08
   2 -12  11    3.28    1.04
   6  11 -11    0.40    0.79
   5  11 -11   -0.48    0.70
   4  11 -11    0.35    0.75
  -4 -11  11    1.47    0.79
   3  11 -11    2.82    0.83
  -3 -11  11    1.70    0.87
   2  11 -11   -0.25    0.64
  -2 -11  11    1.19    0.82
  -1 -11  11   -0.61    0.63
   0 -11  11    2.25    0.93
   1 -11  11   -0.22    0.77
   2 -11  11   -0.29    0.80
   3 -11  11    0.07    0.81
   7  10 -11   -0.07    0.76
   6  10 -11    0.65    0.76
   5  10 -11    2.27    0.85
   4  10 -11   -0.27    0.67
  -4 -10  11    0.86    0.75
   3  10 -11   -0.25    0.60
  -3 -10  11    0.83    0.77
   2  10 -11   -0.14    0.60
  -2 -10  11   -0.03    0.63
   1  10 -11    5.20    0.84
  -1 -10  11    5.98    1.08
   0 -10  11    2.71    0.82
   1 -10  11    1.42    0.80
   2 -10  11    0.36    0.70
   3 -10  11   -0.94    0.76
   4 -10  11   -0.32    0.99
   8   9 -11   16.26    1.52
   7   9 -11    1.50    0.81
   6   9 -11    5.64    0.97
   5   9 -11   -0.19    0.66
   4   9 -11    5.06    0.88
  -4  -9  11    5.90    1.05
   3   9 -11   11.40    1.06
  -3  -9  11   12.11    1.27
   2   9 -11    0.87    0.62
  -2  -9  11    1.51    0.74
   1   9 -11    6.47    0.85
  -1  -9  11    5.88    1.02
   0  -9  11    3.16    0.87
   1  -9  11    1.71    0.82
   2  -9  11    0.34    0.81
   3  -9  11   -0.06    0.94
   4  -9  11   -0.43    0.96
   5  -9  11   -0.51    1.01
   9   8 -11    1.48    0.83
   8   8 -11    1.40    0.77
   7   8 -11    6.44    1.05
   6   8 -11    6.71    0.99
   5   8 -11    1.13    0.71
  -5  -8  11    0.16    0.67
   4   8 -11    0.61    0.59
  -4  -8  11    0.74    0.62
   3   8 -11    1.71    0.66
  -3  -8  11    2.69    0.81
   2   8 -11    1.88    0.62
  -2  -8  11    2.33    0.84
  -1  -8  11    2.11    0.75
   0  -8  11   10.30    1.27
   1  -8  11   17.24    1.50
   2  -8  11    0.00    0.82
   3  -8  11    3.15    1.02
   4  -8  11   -0.52    0.97
   5  -8  11   -0.03    0.89
   9   7 -11   -0.35    0.72
   8   7 -11    0.72    0.74
   7   7 -11    0.94    0.66
   6   7 -11    1.35    0.70
   5   7 -11   -0.12    0.56
  -5  -7  11    0.90    0.70
   4   7 -11    0.16    0.57
  -4  -7  11    0.62    0.61
   3   7 -11    0.93    0.59
  -3  -7  11    1.27    0.69
   2   7 -11    0.63    0.48
  -2  -7  11    0.11    0.66
  -1  -7  11    0.49    0.66
   0  -7  11    4.19    0.87
   1  -7  11   10.48    1.26
   2  -7  11    3.36    0.96
   3  -7  11   -0.42    0.70
   4  -7  11    1.22    0.82
   5  -7  11    7.57    1.26
   9   6 -11    2.78    0.92
   8   6 -11    0.13    0.61
   7   6 -11    1.63    0.72
   6   6 -11    0.54    0.59
   5   6 -11    2.84    0.70
  -5  -6  11    3.05    0.78
   4   6 -11    2.24    0.65
  -4  -6  11    1.32    0.67
   3   6 -11    1.89    0.56
  -3  -6  11    0.65    0.65
   2   6 -11    0.71    0.48
  -2  -6  11    0.72    0.62
  -1  -6  11    1.64    0.68
   0  -6  11    7.53    1.16
   1  -6  11   20.78    1.49
   2  -6  11    5.10    1.12
   3  -6  11    2.43    0.89
   4  -6  11    2.32    0.86
   5  -6  11    0.43    0.93
   6  -6  11    2.24    0.97
  10   5 -11   -0.43    0.79
   9   5 -11   -0.63    0.70
   8   5 -11    0.74    0.68
   7   5 -11   -0.12    0.62
   6   5 -11    1.94    0.65
   5   5 -11    3.69    0.69
  -5  -5  11    1.80    0.71
   4   5 -11    1.77    0.58
  -4  -5  11    1.19    0.63
   3   5 -11    1.06    0.50
  -3  -5  11    2.34    0.71
   2   5 -11   -0.08    0.40
  -2  -5  11   -0.91    0.55
  -1  -5  11    0.87    0.68
   0  -5  11    5.63    0.95
   1  -5  11   10.65    1.26
   2  -5  11   22.23    1.43
   3  -5  11    0.12    0.71
   4  -5  11    5.46    0.99
   5  -5  11    3.55    0.97
   6  -5  11    0.19    0.80
  10   4 -11    0.08    0.79
   9   4 -11   -0.26    0.69
   8   4 -11    0.37    0.64
   7   4 -11    1.25    0.69
   6   4 -11   -0.47    0.53
   5   4 -11    0.39    0.51
  -5  -4  11    1.00    0.51
  -5  -4  11    0.56    0.59
   4   4 -11    3.55    0.63
  -4  -4  11    1.47    0.63
  -4  -4  11    3.21    0.56
   3   4 -11    0.67    0.45
  -3  -4  11    0.84    0.57
  -3  -4  11    0.76    0.42
  -2  -4  11    2.27    0.67
  -2  -4  11    2.44    0.50
  -1  -4  11    9.85    0.75
  -1  -4  11    9.58    1.04
   0  -4  11    8.38    0.74
   0  -4  11    9.61    1.16
   1  -4  11    4.18    0.87
   2  -4  11   -1.23    0.60
   3  -4  11    4.85    0.97
   4  -4  11    7.09    1.16
   5  -4  11   -0.43    0.72
   6  -4  11    2.84    0.97
  10   3 -11    0.17    0.74
   9   3 -11    0.37    0.77
   8   3 -11    4.02    0.87
   7   3 -11    2.74    0.75
   6   3 -11    2.64    0.68
   5   3 -11    2.44    0.62
  -5  -3  11    1.60    0.56
  -5  -3  11    3.79    0.73
   4   3 -11    8.67    0.78
  -4  -3  11    6.99    0.90
  -4  -3  11    6.52    0.76
   3   3 -11    1.51    0.45
  -3  -3  11    0.71    0.44
  -3  -3  11    0.77    0.52
  -2  -3  11    4.11    0.74
  -2  -3  11    3.49    0.57
  -1  -3  11    4.90    0.80
  -1  -3  11    4.97    0.63
   0  -3  11    1.77    0.64
   1  -3  11   -0.07    0.53
   2  -3  11    1.56    0.77
   3  -3  11    0.93    0.66
   4  -3  11    2.93    0.86
   5  -3  11   -0.78    0.65
   6  -3  11    0.06    0.68
  10   2 -11   -0.30    0.67
   9   2 -11    2.07    0.82
   8   2 -11    0.00    0.66
   7   2 -11    3.12    0.77
   6   2 -11   10.06    0.97
  -6  -2  11    9.57    0.97
   5   2 -11    2.27    0.61
  -5  -2  11    2.07    0.59
  -5  -2  11    2.73    0.68
   4   2 -11    5.78    0.68
  -4  -2  11    6.12    0.79
  -4  -2  11    6.54    0.75
   3   2 -11    0.03    0.37
  -3  -2  11    0.87    0.50
  -3  -2  11    0.17    0.43
  -2  -2  11    7.78    0.77
  -2  -2  11    7.31    0.87
  -1  -2  11   10.18    0.86
  -1  -2  11    8.60    0.93
   0  -2  11   -0.99    0.45
   1  -2  11    1.37    0.66
   2  -2  11   24.47    1.47
   3  -2  11    2.11    0.72
   4  -2  11    1.74    0.79
   5  -2  11    7.01    1.09
   6  -2  11    0.06    0.80
  10   1 -11   -0.06    0.80
   9   1 -11    0.16    0.72
   8   1 -11    4.05    0.89
   7   1 -11    1.51    0.69
   6   1 -11    0.87    0.56
  -6  -1  11    0.61    0.60
   5   1 -11    5.14    0.72
  -5  -1  11    5.06    0.78
  -5  -1  11    4.30    0.71
   4   1 -11    8.11    0.75
  -4  -1  11    7.36    0.80
  -4  -1  11    7.69    0.84
   3   1 -11    1.16    0.42
  -3  -1  11    2.12    0.56
  -3  -1  11    1.78    0.54
  -2  -1  11    6.99    0.77
  -2  -1  11    7.61    0.89
  -1  -1  11    0.75    0.49
  -1  -1  11    0.97    0.51
   0  -1  11    0.58    0.54
   1  -1  11   13.03    1.18
   2  -1  11    2.10    0.70
   3  -1  11    0.17    0.55
   4  -1  11    0.19    0.60
   5  -1  11   -0.15    0.67
   6  -1  11    0.83    0.83
  10   0 -11    0.50    0.83
   9   0 -11    1.31    0.81
   8   0 -11    2.94    0.82
   7   0 -11    4.79    0.87
   6   0 -11    2.09    0.67
  -6   0  11    1.97    0.69
   5   0 -11    5.18    0.71
  -5   0  11    5.12    0.79
  -5   0  11    5.88    0.72
   4   0 -11    9.45    0.79
  -4   0  11    8.46    0.83
  -4   0  11    9.35    0.89
  -3   0  11   -0.48    0.38
  -3   0  11    0.30    0.49
  -2   0  11    2.02    0.57
  -2   0  11    1.70    0.57
  -1   0  11    0.00    0.49
  -1   0  11   -0.29    0.39
   0   0  11    8.34    0.90
   1   0  11    5.26    0.80
   2   0  11    0.16    0.58
   3   0  11    8.48    1.10
   4   0  11   11.12    1.22
   5   0  11    2.80    0.84
   6   0  11    1.50    0.87
  10  -1 -11   -0.10    0.83
   9  -1 -11    0.31    0.80
   8  -1 -11    0.74    0.71
   7  -1 -11    0.25    0.64
  -7   1  11   -0.31    0.62
   6  -1 -11   -0.17    0.54
  -6   1  11    0.80    0.64
   5  -1 -11   -0.10    0.45
  -5   1  11    0.60    0.54
   4  -1 -11    8.09    0.77
  -4   1  11    6.15    0.80
  -4   1  11    8.54    0.77
  -3   1  11    0.67    0.50
  -3   1  11    1.63    0.53
  -2   1  11    4.29    0.73
  -2   1  11    2.78    0.60
  -1   1  11    0.82    0.50
  -1   1  11    1.55    0.55
   0   1  11    3.56    0.70
   1   1  11    0.29    0.49
   2   1  11    0.46    0.58
   3   1  11    7.14    0.99
   4   1  11    7.19    1.03
   5   1  11    3.02    0.92
   6   1  11    0.51    0.82
  10  -2 -11    0.21    0.83
   9  -2 -11    1.85    0.93
   8  -2 -11    1.47    0.79
   7  -2 -11    4.71    0.90
  -7   2  11    3.53    0.85
   6  -2 -11    3.47    0.76
  -6   2  11    4.18    0.81
   5  -2 -11   13.47    1.04
  -5   2  11   11.50    1.08
   4  -2 -11    0.82    0.48
  -4   2  11    2.30    0.68
  -3   2  11    4.43    0.74
  -3   2  11    5.42    0.71
  -2   2  11    1.44    0.50
  -2   2  11    1.67    0.59
  -1   2  11   -0.12    0.52
  -1   2  11    0.06    0.45
   0   2  11   10.33    0.93
   1   2  11    0.39    0.52
   2   2  11    0.09    0.65
   3   2  11   -0.07    0.60
   4   2  11    2.75    0.87
   5   2  11    9.75    1.28
   6   2  11    1.35    0.87
  10  -3 -11    2.73    1.02
   9  -3 -11    2.99    0.99
   8  -3 -11    6.40    1.07
   7  -3 -11    8.00    1.03
  -7   3  11    7.21    1.01
   6  -3 -11    0.36    0.57
  -6   3  11    0.44    0.60
   5  -3 -11    0.25    0.54
  -5   3  11    0.31    0.58
   4  -3 -11   16.89    0.97
  -4   3  11   17.26    1.16
  -3   3  11   27.43    1.34
  -2   3  11   33.24    1.46
  -2   3  11   33.24    1.27
  -1   3  11    5.84    0.87
  -1   3  11    3.60    0.64
   0   3  11    0.65    0.51
   1   3  11    2.63    0.66
   2   3  11   17.06    1.19
   3   3  11    5.83    0.94
   4   3  11    5.00    0.99
   5   3  11    4.00    0.94
   6   3  11    0.32    0.79
  10  -4 -11    2.39    0.99
   9  -4 -11    1.67    0.87
   8  -4 -11    0.39    0.70
   7  -4 -11    0.66    0.67
  -7   4  11    1.01    0.70
   6  -4 -11    5.56    0.87
  -6   4  11    3.61    0.85
   5  -4 -11    1.08    0.57
  -5   4  11    1.66    0.67
   4  -4 -11    0.58    0.46
  -4   4  11    0.89    0.63
  -3   4  11   18.29    1.26
  -2   4  11   13.69    1.16
  -1   4  11   24.96    1.37
  -1   4  11   26.31    1.16
   0   4  11   12.73    1.00
   0   4  11   12.80    1.14
   1   4  11    0.91    0.61
   2   4  11   11.48    1.13
   3   4  11    7.28    1.01
   4   4  11    1.01    0.70
   5   4  11    0.17    0.71
   6   4  11    0.51    0.80
  10  -5 -11    0.82    0.86
   9  -5 -11    0.65    0.83
   8  -5 -11   -0.08    0.76
  -8   5  11    0.15    0.70
   7  -5 -11    0.61    0.71
  -7   5  11    0.85    0.76
   6  -5 -11    0.79    0.63
  -6   5  11    1.38    0.69
   5  -5 -11   13.51    1.02
  -5   5  11   14.18    1.24
  -4   5  11    0.64    0.60
  -3   5  11    3.20    0.73
  -2   5  11   -0.05    0.54
  -1   5  11   64.40    1.77
  -1   5  11   64.49    2.09
   0   5  11   16.63    1.26
   0   5  11   17.58    1.11
   1   5  11   18.31    1.18
   2   5  11   -0.04    0.51
   3   5  11   -0.77    0.57
   4   5  11    0.76    0.70
   5   5  11    0.37    0.65
   9  -6 -11    0.45    0.82
   8  -6 -11   -0.49    0.70
  -8   6  11   -0.13    0.65
   7  -6 -11    0.36    0.65
  -7   6  11    0.92    0.73
   6  -6 -11   -1.06    0.56
  -6   6  11    1.31    0.76
   5  -6 -11   19.71    1.23
  -5   6  11   17.41    1.27
  -4   6  11    1.83    0.73
  -3   6  11    6.80    0.94
  -2   6  11    0.18    0.60
  -1   6  11    0.83    0.62
   0   6  11    0.16    0.47
   0   6  11   -0.15    0.62
   1   6  11   13.95    1.09
   2   6  11    1.03    0.60
   3   6  11    1.69    0.73
   4   6  11    0.38    0.67
   5   6  11    2.57    0.94
   9  -7 -11    0.62    0.85
   8  -7 -11    0.79    0.81
  -8   7  11    1.49    0.83
   7  -7 -11    2.98    0.80
  -7   7  11    3.71    0.91
   6  -7 -11    0.42    0.60
  -6   7  11   -0.42    0.68
   5  -7 -11   -0.17    0.58
  -5   7  11    0.03    0.57
  -4   7  11    2.31    0.78
  -3   7  11    1.09    0.71
  -2   7  11   -0.31    0.60
  -1   7  11    0.53    0.65
   0   7  11   -0.31    0.65
   1   7  11    3.82    0.74
   2   7  11    3.78    0.82
   3   7  11   -0.38    0.55
   4   7  11   -0.28    0.62
   5   7  11    0.55    0.69
   8  -8 -11    1.15    0.81
  -8   8  11    0.53    0.71
   7  -8 -11    0.41    0.69
  -7   8  11    0.39    0.77
   6  -8 -11    0.76    0.70
  -6   8  11    0.01    0.68
   5  -8 -11   13.46    1.20
  -5   8  11   12.98    1.28
  -4   8  11    0.03    0.61
  -3   8  11    3.10    0.86
  -2   8  11    5.41    0.96
  -1   8  11    2.95    0.81
   0   8  11    5.02    0.92
   1   8  11    1.63    0.78
   3   8  11    2.04    0.74
   4   8  11   -0.16    0.68
   8  -9 -11    2.63    0.96
  -8   9  11    2.97    0.96
   7  -9 -11    0.94    0.77
  -7   9  11    0.43    0.72
   6  -9 -11    0.10    0.70
  -6   9  11    0.32    0.69
  -5   9  11    5.07    1.01
  -4   9  11    1.31    0.78
  -3   9  11    2.52    0.84
  -2   9  11    7.31    1.04
  -1   9  11   -0.07    0.64
   0   9  11    0.21    0.66
   1   9  11   -0.08    0.71
   7 -10 -11   -1.21    0.72
  -7  10  11   -0.86    0.74
   6 -10 -11   -0.59    0.72
  -6  10  11   -0.67    0.66
  -5  10  11   10.07    1.21
  -4  10  11    0.06    0.72
  -3  10  11    0.74    0.76
  -2  10  11    1.41    0.77
  -1  10  11    0.07    0.72
   0  10  11    2.16    0.83
   1  10  11    3.17    0.89
   2  10  11    1.53    0.77
  -5  11  11    2.43    0.85
  -4  11  11    0.96    0.74
  -3  11  11    2.85    0.87
  -2  11  11   -0.12    0.72
  -1  11  11    8.44    1.20
   0  11  11    0.33    0.68
   1  11  11    1.20    0.83
  -3  12  11    0.37    0.77
  -2  12  11    2.44    0.91
  -1  12  11    2.01    0.88
   4  12 -12    0.83    0.81
  -4 -12  12    2.02    0.89
   3  12 -12   -0.16    0.70
  -3 -12  12    0.90    0.87
   2  12 -12    1.00    0.77
  -2 -12  12   -0.09    0.81
  -1 -12  12    0.04    0.87
   0 -12  12    0.88    0.93
   1 -12  12   -0.97    0.86
   6  11 -12    0.07    0.80
   5  11 -12    1.60    0.91
   4  11 -12    4.08    0.96
  -4 -11  12    4.32    1.07
   3  11 -12    0.12    0.66
  -3 -11  12   -0.39    0.79
  -2 -11  12    4.20    1.03
  -1 -11  12    0.79    0.88
   0 -11  12    0.11    0.83
   1 -11  12    3.69    1.04
   2 -11  12    5.10    1.20
   7  10 -12    4.19    1.01
   6  10 -12    0.11    0.71
   5  10 -12   -0.08    0.70
   4  10 -12   -0.34    0.65
  -4 -10  12   -0.32    0.64
   3  10 -12    0.79    0.67
  -3 -10  12    1.24    0.80
  -2 -10  12    9.01    1.21
  -1 -10  12    4.46    1.07
   0 -10  12   -0.13    0.73
   1 -10  12    8.17    1.24
   2 -10  12   -0.48    0.80
   3 -10  12    3.76    1.10
   8   9 -12    0.86    0.87
   7   9 -12    1.87    0.86
   6   9 -12    0.16    0.70
   5   9 -12   -0.14    0.67
  -5  -9  12    0.45    0.75
   4   9 -12    6.98    0.96
  -4  -9  12    6.87    1.07
   3   9 -12    4.09    0.82
  -3  -9  12    3.08    0.86
  -2  -9  12    4.50    1.00
  -1  -9  12   10.49    1.28
   0  -9  12    0.92    0.79
   1  -9  12    1.92    0.82
   2  -9  12    1.65    0.98
   3  -9  12   -1.23    0.95
   4  -9  12   15.51    1.67
   8   8 -12    1.89    0.84
   7   8 -12   -0.49    0.69
   6   8 -12    0.13    0.64
   5   8 -12    0.45    0.64
  -5  -8  12    1.32    0.77
   4   8 -12   14.26    1.10
  -4  -8  12   17.25    1.41
   3   8 -12    1.39    0.63
  -3  -8  12    1.70    0.77
  -2  -8  12    4.06    0.90
  -1  -8  12    2.57    0.81
   0  -8  12   27.90    1.63
   1  -8  12   -0.30    0.71
   2  -8  12    5.19    1.10
   3  -8  12    1.65    1.08
   4  -8  12   -0.26    0.93
   9   7 -12    0.80    0.84
   8   7 -12    0.87    0.77
   7   7 -12    0.06    0.65
   6   7 -12    3.32    0.79
   5   7 -12   -0.34    0.53
  -5  -7  12   -0.58    0.64
   4   7 -12    0.00    0.54
  -4  -7  12   -0.36    0.60
   3   7 -12    3.60    0.68
  -3  -7  12    2.77    0.87
  -2  -7  12   36.92    1.81
  -1  -7  12   -1.30    0.61
   0  -7  12    8.65    1.17
   1  -7  12    1.24    0.82
   2  -7  12    0.72    0.80
   3  -7  12    1.54    0.88
   4  -7  12    3.36    1.14
   5  -7  12    1.96    1.01
   9   6 -12    0.26    0.78
   8   6 -12   -0.03    0.72
   7   6 -12    1.18    0.71
   6   6 -12   -0.20    0.59
   5   6 -12    8.01    0.89
  -5  -6  12    5.38    0.91
   4   6 -12    0.87    0.54
  -4  -6  12    1.59    0.67
   3   6 -12    1.73    0.58
  -3  -6  12    1.02    0.73
  -2  -6  12   36.47    1.72
  -1  -6  12    5.24    0.93
   0  -6  12   11.86    1.33
   1  -6  12    1.52    0.87
   2  -6  12   -0.88    0.74
   3  -6  12    1.09    0.78
   4  -6  12    2.77    1.03
   5  -6  12    0.06    0.85
   9   5 -12   -0.29    0.74
   8   5 -12   -0.20    0.65
   7   5 -12    0.52    0.65
   6   5 -12    0.96    0.60
  -6  -5  12    0.55    0.64
   5   5 -12    0.31    0.50
  -5  -5  12    0.34    0.61
   4   5 -12    1.33    0.54
  -4  -5  12    1.65    0.65
  -3  -5  12    1.37    0.74
  -2  -5  12    7.03    1.02
  -1  -5  12    1.53    0.84
   0  -5  12   23.48    1.49
   1  -5  12    5.11    0.98
   2  -5  12   -0.84    0.64
   3  -5  12    9.49    1.22
   4  -5  12    0.57    0.77
   5  -5  12    0.87    0.87
  10   4 -12    1.99    0.91
   9   4 -12    1.08    0.82
   8   4 -12    3.65    0.87
   7   4 -12    0.09    0.59
   6   4 -12   -0.32    0.55
  -6  -4  12    0.20    0.53
   5   4 -12    3.44    0.67
  -5  -4  12    1.74    0.66
   4   4 -12    3.81    0.65
  -4  -4  12    3.53    0.77
  -3  -4  12   -0.08    0.55
  -2  -4  12   18.99    1.23
  -1  -4  12    5.48    0.95
   0  -4  12   11.25    1.32
   1  -4  12    3.29    0.84
   2  -4  12    1.31    0.84
   3  -4  12    5.53    1.01
   4  -4  12    1.22    0.80
   5  -4  12    3.92    1.09
   6  -4  12    4.49    1.05
  10   3 -12    1.18    0.86
   9   3 -12    1.21    0.78
   8   3 -12    2.16    0.78
   7   3 -12    0.29    0.62
   6   3 -12    2.42    0.67
  -6  -3  12    3.35    0.77
  -6  -3  12    2.59    0.67
   5   3 -12   12.14    0.98
  -5  -3  12   14.47    1.14
  -5  -3  12   11.53    0.98
   4   3 -12   16.67    0.91
  -4  -3  12   17.10    1.24
  -4  -3  12   15.74    1.02
  -3  -3  12    0.14    0.56
  -3  -3  12    0.53    0.47
  -2  -3  12    4.29    0.80
  -2  -3  12    3.42    0.62
  -1  -3  12    9.48    1.10
  -1  -3  12    8.56    0.84
   0  -3  12   12.51    0.96
   0  -3  12   10.26    1.10
   1  -3  12    0.25    0.59
   2  -3  12    0.17    0.66
   3  -3  12    4.26    0.89
   4  -3  12    6.43    1.07
   5  -3  12    1.29    0.90
   6  -3  12   -0.47    0.66
  10   2 -12    5.73    1.12
   9   2 -12   -0.34    0.71
   8   2 -12    5.30    0.96
   7   2 -12   -0.56    0.57
   6   2 -12   13.74    1.05
  -6  -2  12   12.76    1.12
  -6  -2  12   12.21    1.09
   5   2 -12    0.09    0.52
  -5  -2  12    0.44    0.55
  -5  -2  12    0.71    0.61
   4   2 -12    0.88    0.49
  -4  -2  12    1.24    0.61
  -4  -2  12    1.59    0.55
  -3  -2  12    0.74    0.57
  -3  -2  12    0.65    0.50
  -2  -2  12    4.29    0.69
  -2  -2  12    5.62    0.92
  -1  -2  12    0.18    0.60
  -1  -2  12   -0.13    0.47
   0  -2  12   24.09    1.43
   1  -2  12   -0.20    0.63
   2  -2  12    0.15    0.58
   3  -2  12   -0.49    0.62
   4  -2  12    3.74    0.87
   5  -2  12    2.93    0.97
   6  -2  12    2.41    0.93
  10   1 -12    1.72    0.94
   9   1 -12    1.08    0.79
   8   1 -12    1.89    0.80
   7   1 -12    0.40    0.66
   6   1 -12   -0.16    0.52
  -6  -1  12   -0.33    0.55
  -6  -1  12    0.80    0.58
   5   1 -12    3.22    0.66
  -5  -1  12    5.33    0.77
  -5  -1  12    3.69    0.77
  -4  -1  12    1.57    0.59
  -4  -1  12    0.66    0.55
  -3  -1  12    0.59    0.53
  -3  -1  12    0.00    0.52
  -2  -1  12   10.10    1.07
  -2  -1  12   10.03    0.92
  -1  -1  12   35.62    1.58
  -1  -1  12   37.03    1.42
   0  -1  12    7.40    0.97
   1  -1  12    5.63    1.00
   2  -1  12    1.47    0.70
   3  -1  12    0.10    0.63
   4  -1  12    2.42    0.85
   5  -1  12    1.47    0.86
   6  -1  12    3.58    1.09
  10   0 -12    0.58    0.84
   9   0 -12   -0.71    0.69
   8   0 -12    7.05    1.07
   7   0 -12    0.86    0.67
  -7   0  12    0.23    0.64
   6   0 -12    3.15    0.74
  -6   0  12    2.10    0.72
   5   0 -12   11.64    0.91
  -5   0  12   15.06    1.11
  -5   0  12   11.19    0.98
  -4   0  12    5.62    0.73
  -4   0  12    5.87    0.79
  -3   0  12   15.54    1.10
  -3   0  12   15.95    1.09
  -2   0  12    3.29    0.69
  -2   0  12    3.04    0.73
  -1   0  12    0.89    0.55
  -1   0  12   -0.09    0.46
   0   0  12    3.33    0.73
   1   0  12    4.52    0.89
   2   0  12    1.37    0.65
   3   0  12    1.53    0.69
   4   0  12    3.70    0.89
   5   0  12    0.95    0.75
   6   0  12    2.36    0.98
  10  -1 -12    1.41    0.93
   9  -1 -12    0.99    0.85
   8  -1 -12   -1.27    0.66
   7  -1 -12    2.58    0.81
  -7   1  12    0.85    0.68
   6  -1 -12    7.25    0.99
  -6   1  12    5.63    0.85
   5  -1 -12   13.30    1.05
  -5   1  12   12.62    1.15
  -4   1  12    7.26    0.79
  -4   1  12    6.38    0.89
  -3   1  12    9.58    1.00
  -3   1  12    8.39    0.91
  -2   1  12    2.68    0.67
  -2   1  12    1.60    0.62
  -1   1  12    0.97    0.56
  -1   1  12    0.48    0.56
   0   1  12   12.74    1.15
   1   1  12    0.28    0.58
   2   1  12   11.31    1.14
   3   1  12   47.64    2.03
   4   1  12    1.67    0.80
   5   1  12    0.53    0.77
   6   1  12   -0.52    0.78
  10  -2 -12    0.74    0.80
   9  -2 -12    0.56    0.81
   8  -2 -12    0.42    0.79
   7  -2 -12    3.28    0.83
  -7   2  12    3.87    0.88
   6  -2 -12    3.08    0.71
  -6   2  12    2.20    0.75
   5  -2 -12    2.22    0.63
  -5   2  12    1.89    0.69
  -4   2  12   13.20    1.16
  -3   2  12   23.37    1.33
  -3   2  12   22.09    1.21
  -2   2  12   -0.38    0.46
  -2   2  12    0.36    0.60
  -1   2  12    0.48    0.57
  -1   2  12    0.51    0.48
   0   2  12   24.40    1.34
   0   2  12   24.12    1.32
   1   2  12    1.86    0.65
   2   2  12    5.29    0.93
   3   2  12    0.88    0.67
   4   2  12    0.46    0.72
   5   2  12    1.18    0.83
   6   2  12    0.25    0.85
  10  -3 -12    0.73    0.88
   9  -3 -12    0.44    0.81
   8  -3 -12    3.27    0.90
  -8   3  12    3.39    0.87
   7  -3 -12   -0.52    0.58
  -7   3  12   -0.94    0.66
   6  -3 -12   -0.11    0.58
  -6   3  12    0.24    0.68
  -5   3  12   26.00    1.43
  -4   3  12    3.05    0.74
  -3   3  12    2.63    0.73
  -2   3  12    9.60    1.09
  -2   3  12   10.04    0.91
  -1   3  12   13.04    1.18
  -1   3  12   13.76    1.05
   0   3  12    5.68    0.81
   0   3  12    6.79    0.95
   1   3  12    0.28    0.55
   2   3  12    0.70    0.64
   3   3  12   -0.71    0.60
   4   3  12    2.86    0.86
   5   3  12    5.37    1.08
   9  -4 -12   -0.05    0.78
   8  -4 -12    1.95    0.85
  -8   4  12    0.03    0.67
   7  -4 -12   -0.69    0.60
  -7   4  12   -0.36    0.70
   6  -4 -12   -0.46    0.59
  -6   4  12   -0.54    0.59
  -5   4  12    3.96    0.84
  -4   4  12    5.68    0.94
  -3   4  12   11.67    1.14
  -2   4  12    0.98    0.67
  -1   4  12    8.75    0.89
  -1   4  12    8.35    1.06
   0   4  12   -0.48    0.45
   0   4  12    0.21    0.65
   1   4  12    1.97    0.67
   2   4  12    0.21    0.60
   3   4  12    3.22    0.87
   4   4  12    0.37    0.70
   5   4  12   -0.63    0.67
   9  -5 -12   -0.75    0.77
   8  -5 -12    3.11    0.91
  -8   5  12    2.07    0.92
   7  -5 -12    0.38    0.65
  -7   5  12   -0.76    0.63
   6  -5 -12    1.55    0.70
  -6   5  12    1.61    0.78
  -5   5  12    1.67    0.76
  -4   5  12    3.31    0.86
  -3   5  12   15.14    1.28
  -2   5  12    1.04    0.72
  -1   5  12    4.62    0.88
   0   5  12    0.00    0.48
   0   5  12    0.37    0.62
   1   5  12    0.45    0.55
   2   5  12    7.84    1.04
   3   5  12    1.66    0.76
   4   5  12    0.44    0.68
   5   5  12    0.74    0.82
   9  -6 -12   -0.35    0.72
   8  -6 -12    0.81    0.75
  -8   6  12    0.32    0.77
   7  -6 -12    1.85    0.75
  -7   6  12    0.04    0.70
   6  -6 -12    6.09    0.91
  -6   6  12    4.32    0.95
  -5   6  12    1.93    0.77
  -4   6  12    0.57    0.67
  -3   6  12    7.60    1.05
  -2   6  12    2.01    0.75
  -1   6  12   -0.19    0.65
   0   6  12    0.78    0.67
   1   6  12   -0.47    0.55
   2   6  12    0.15    0.59
   3   6  12    3.55    0.88
   4   6  12    0.80    0.73
   8  -7 -12    0.73    0.77
  -8   7  12    0.11    0.76
   7  -7 -12    0.27    0.70
  -7   7  12    1.01    0.76
  -6   7  12    2.43    0.88
  -5   7  12    0.04    0.64
  -4   7  12    1.15    0.71
  -3   7  12   15.14    1.35
  -2   7  12   -0.72    0.59
  -1   7  12   -0.05    0.62
   0   7  12    1.62    0.80
   1   7  12    2.55    0.83
   2   7  12    0.35    0.62
   3   7  12   -0.40    0.58
   4   7  12    5.47    1.06
   8  -8 -12   -0.47    0.74
  -8   8  12   -0.23    0.73
   7  -8 -12   -1.43    0.64
  -7   8  12   -0.08    0.69
  -6   8  12    2.16    0.82
  -5   8  12    2.02    0.78
  -4   8  12    2.50    0.82
  -3   8  12   14.40    1.39
  -2   8  12    2.51    0.88
  -1   8  12   -0.34    0.65
   0   8  12    1.45    0.80
   1   8  12    1.18    0.72
   3   8  12    0.83    0.69
  -7   9  12    0.45    0.78
  -6   9  12    0.26    0.72
  -5   9  12    1.70    0.81
  -4   9  12   -0.32    0.69
  -3   9  12    1.77    0.80
  -2   9  12    1.55    0.79
  -1   9  12   -0.11    0.70
   0   9  12    1.71    0.78
   1   9  12    2.25    0.85
   2   9  12   -0.74    0.65
  -6  10  12    0.28    0.78
  -5  10  12    0.98    0.84
  -4  10  12   -0.09    0.72
  -3  10  12    0.40    0.77
  -2  10  12    0.20    0.68
  -1  10  12    0.20    0.73
   0  10  12    0.35    0.68
   1  10  12    0.95    0.80
  -4  11  12   -1.44    0.72
  -3  11  12    1.14    0.77
  -2  11  12   -0.11    0.68
  -1  11  12    1.36    0.83
  -2 -12  13    5.45    1.14
   5  11 -13   -1.00    0.76
   4  11 -13    0.52    0.76
  -4 -11  13    2.07    0.95
  -3 -11  13    0.88    0.84
  -2 -11  13    2.60    0.98
  -1 -11  13    0.50    0.88
   0 -11  13    0.05    0.87
   1 -11  13    0.26    0.84
   6  10 -13    2.73    0.88
   5  10 -13    0.51    0.76
  -5 -10  13    1.25    0.85
   4  10 -13   -1.17    0.66
  -4 -10  13   -0.16    0.67
  -3 -10  13    2.06    0.79
  -2 -10  13    0.65    0.80
  -1 -10  13   10.09    1.36
   0 -10  13   -0.27    0.76
   1 -10  13   11.97    1.48
   2 -10  13    2.57    0.97
   7   9 -13    5.54    1.06
   6   9 -13    0.20    0.76
   5   9 -13   -0.04    0.66
  -5  -9  13   -0.33    0.65
   4   9 -13    0.16    0.67
  -4  -9  13    0.05    0.67
  -3  -9  13    0.11    0.66
  -2  -9  13    0.25    0.74
  -1  -9  13    2.42    0.92
   0  -9  13    4.05    1.03
   1  -9  13    0.08    0.89
   2  -9  13    0.29    0.94
   3  -9  13   -0.60    1.00
   8   8 -13    0.47    0.78
   7   8 -13    0.48    0.72
   6   8 -13    1.14    0.67
   5   8 -13   -0.43    0.61
  -5  -8  13    0.35    0.73
  -4  -8  13    1.22    0.76
  -3  -8  13    0.98    0.71
  -2  -8  13    1.94    0.76
  -1  -8  13   11.75    1.29
   0  -8  13    0.47    0.77
   1  -8  13    1.19    0.83
   2  -8  13    1.45    1.19
   3  -8  13    1.38    1.08
   8   7 -13    0.37    0.77
   7   7 -13    0.16    0.67
   6   7 -13    0.64    0.69
   5   7 -13    5.42    0.86
  -5  -7  13    3.94    0.90
  -4  -7  13    1.81    0.79
  -3  -7  13    1.07    0.80
  -2  -7  13    2.70    0.82
  -1  -7  13   17.17    1.35
   0  -7  13    1.33    0.77
   1  -7  13    1.66    0.97
   2  -7  13    0.34    0.81
   3  -7  13    2.25    1.16
   4  -7  13    1.90    1.03
   9   6 -13    0.98    0.81
   8   6 -13    0.20    0.74
   7   6 -13    0.14    0.72
   6   6 -13    0.21    0.64
  -6  -6  13    0.37    0.66
   5   6 -13   -0.47    0.54
  -5  -6  13    0.73    0.70
  -4  -6  13    0.05    0.61
  -3  -6  13   -0.26    0.65
  -2  -6  13    2.66    0.80
  -1  -6  13    1.66    0.72
   0  -6  13    2.75    0.94
   1  -6  13    2.20    0.87
   2  -6  13    1.81    0.89
   3  -6  13    0.43    0.80
   4  -6  13    5.52    1.19
   9   5 -13   -0.60    0.73
   8   5 -13   -0.19    0.67
   7   5 -13    1.69    0.74
   6   5 -13    0.06    0.62
  -6  -5  13    1.11    0.74
   5   5 -13    6.45    0.85
  -5  -5  13    7.19    1.04
  -4  -5  13    0.75    0.68
  -3  -5  13    1.29    0.73
  -2  -5  13    0.40    0.78
  -1  -5  13    1.69    0.83
   0  -5  13    0.64    0.83
   1  -5  13   -0.14    0.76
   2  -5  13    6.02    1.11
   3  -5  13    0.17    0.77
   4  -5  13    0.28    0.85
   5  -5  13   -0.25    0.86
   9   4 -13    1.96    0.86
   8   4 -13    1.02    0.72
   7   4 -13    1.37    0.69
   6   4 -13    1.31    0.64
  -6  -4  13    1.34    0.71
   5   4 -13    3.50    0.68
  -5  -4  13    3.38    0.80
  -4  -4  13    0.38    0.65
  -3  -4  13    0.50    0.62
  -2  -4  13    2.88    0.74
  -1  -4  13    1.10    0.71
   0  -4  13    0.73    0.77
   1  -4  13    0.33    0.72
   2  -4  13    2.13    0.83
   3  -4  13   -0.33    0.70
   4  -4  13   -0.12    0.81
   5  -4  13    2.03    0.93
   9   3 -13    1.67    0.85
   8   3 -13    2.19    0.82
   7   3 -13    4.79    0.90
   6   3 -13    2.55    0.68
  -6  -3  13    2.35    0.72
  -6  -3  13    1.94    0.72
  -5  -3  13    1.31    0.59
  -5  -3  13    0.05    0.57
  -4  -3  13    6.30    0.95
  -4  -3  13    6.64    0.79
  -3  -3  13    7.48    0.96
  -3  -3  13    7.19    0.81
  -2  -3  13    1.12    0.72
  -2  -3  13    1.82    0.56
  -1  -3  13   -0.02    0.49
  -1  -3  13    0.76    0.69
   0  -3  13   11.37    0.98
   0  -3  13   12.14    1.28
   1  -3  13    2.64    0.86
   2  -3  13    0.46    0.74
   3  -3  13    2.66    0.87
   4  -3  13    0.62    0.81
   5  -3  13    1.79    0.92
   9   2 -13   -0.12    0.69
   8   2 -13    0.16    0.73
   7   2 -13    1.77    0.71
   6   2 -13    2.25    0.67
  -6  -2  13    2.77    0.73
  -6  -2  13    2.94    0.75
  -5  -2  13    2.80    0.69
  -5  -2  13    2.06    0.69
  -4  -2  13    7.29    0.84
  -4  -2  13    7.15    0.95
  -3  -2  13   -0.25    0.60
  -3  -2  13    1.38    0.59
  -2  -2  13   -0.23    0.73
  -2  -2  13    0.06    0.53
  -1  -2  13    0.84    0.58
  -1  -2  13   -0.08    0.61
   0  -2  13   12.00    1.25
   0  -2  13   13.91    1.05
   1  -2  13    2.84    0.82
   2  -2  13    1.52    0.77
   3  -2  13    1.48    0.79
   4  -2  13    0.56    0.68
   5  -2  13    3.81    1.01
  10   1 -13    1.91    0.92
   9   1 -13   -0.21    0.82
   8   1 -13    1.75    0.79
   7   1 -13    0.43    0.63
  -7  -1  13    1.08    0.73
   6   1 -13    0.15    0.58
  -6  -1  13    0.24    0.65
  -5  -1  13    3.13    0.71
  -5  -1  13    3.57    0.74
  -4  -1  13    0.33    0.60
  -4  -1  13    0.82    0.55
  -3  -1  13   -0.40    0.60
  -3  -1  13    0.65    0.58
  -2  -1  13    1.09    0.61
  -2  -1  13    0.32    0.78
  -1  -1  13   11.11    1.03
  -1  -1  13   10.91    1.14
   0  -1  13    1.63    0.71
   0  -1  13    2.01    0.63
   1  -1  13    5.87    0.96
   2  -1  13    3.59    0.92
   3  -1  13    1.54    0.77
   4  -1  13    3.33    0.86
   5  -1  13    1.18    0.78
  10   0 -13   -0.80    0.71
   9   0 -13    0.05    0.78
   8   0 -13    0.07    0.70
   7   0 -13   -0.08    0.60
  -7   0  13   -0.90    0.57
   6   0 -13    4.67    0.83
  -6   0  13    5.75    0.86
  -5   0  13    1.07    0.61
  -4   0  13    9.73    0.94
  -4   0  13    8.61    0.95
  -3   0  13    0.42    0.59
  -3   0  13    0.89    0.68
  -2   0  13    7.37    1.02
  -2   0  13    6.31    0.91
  -1   0  13    1.71    0.66
  -1   0  13    1.74    0.70
   0   0  13    0.41    0.60
   0   0  13   -0.32    0.56
   1   0  13   18.24    1.32
   2   0  13    7.07    1.06
   3   0  13    1.13    0.69
   4   0  13    0.44    0.70
   5   0  13    1.19    0.79
  10  -1 -13   -0.70    0.78
   9  -1 -13    0.60    0.81
   8  -1 -13   -0.28    0.75
   7  -1 -13   -0.01    0.70
  -7   1  13    0.79    0.76
  -6   1  13    5.98    0.96
  -5   1  13    1.33    0.65
  -4   1  13    0.77    0.61
  -3   1  13    2.36    0.69
  -3   1  13    1.79    0.64
  -2   1  13    0.30    0.63
  -2   1  13    0.15    0.58
  -1   1  13   15.04    1.15
  -1   1  13   14.50    1.24
   0   1  13    5.77    0.91
   0   1  13    5.87    0.90
   1   1  13    7.28    1.00
   2   1  13   12.55    1.23
   3   1  13    0.20    0.68
   4   1  13   -0.83    0.72
   5   1  13    1.46    0.89
   9  -2 -13   -1.65    0.71
   8  -2 -13    0.18    0.74
  -8   2  13    0.49    0.70
   7  -2 -13    0.56    0.71
  -7   2  13    1.09    0.79
  -6   2  13    0.21    0.66
  -5   2  13   34.28    1.67
  -4   2  13   17.00    1.20
  -3   2  13    4.58    0.82
  -2   2  13    2.08    0.66
  -2   2  13    4.03    0.81
  -1   2  13    5.44    0.84
  -1   2  13    6.32    0.94
   0   2  13   29.21    1.49
   0   2  13   31.14    1.51
   1   2  13   -0.30    0.50
   2   2  13    6.33    0.98
   3   2  13    7.72    1.17
   4   2  13    0.06    0.72
   5   2  13    2.05    0.86
   9  -3 -13    1.28    0.83
   8  -3 -13   -0.37    0.70
  -8   3  13    0.01    0.77
   7  -3 -13    0.97    0.72
  -7   3  13   -0.05    0.68
  -6   3  13    0.99    0.72
  -5   3  13    4.78    0.92
  -4   3  13    2.12    0.77
  -3   3  13   25.98    1.50
  -2   3  13   15.32    1.30
  -1   3  13    1.48    0.59
  -1   3  13    1.16    0.69
   0   3  13    6.88    0.91
   0   3  13    7.76    1.06
   1   3  13    4.15    0.82
   2   3  13    5.45    0.91
   3   3  13    8.23    1.15
   4   3  13    1.59    0.77
   5   3  13    1.01    0.82
   9  -4 -13   -0.09    0.78
   8  -4 -13    0.45    0.76
  -8   4  13    1.06    0.83
   7  -4 -13    1.43    0.73
  -7   4  13    1.99    0.87
  -6   4  13    1.74    0.81
  -5   4  13    2.91    0.84
  -4   4  13    0.42    0.62
  -3   4  13   29.82    1.61
  -2   4  13    1.76    0.78
  -1   4  13   14.88    1.33
   0   4  13    2.37    0.65
   0   4  13    3.92    0.83
   1   4  13   -0.89    0.56
   2   4  13   -0.26    0.65
   3   4  13   -0.39    0.60
   4   4  13   -0.20    0.67
   9  -5 -13    0.60    0.84
   8  -5 -13    1.65    0.89
  -8   5  13    1.78    0.93
  -7   5  13    1.16    0.74
  -6   5  13    0.81    0.80
  -5   5  13    0.89    0.77
  -4   5  13    4.00    0.89
  -3   5  13    2.11    0.79
  -2   5  13    1.46    0.77
  -1   5  13    3.52    0.89
   0   5  13    1.89    0.81
   1   5  13   -0.35    0.57
   2   5  13    1.41    0.73
   3   5  13    0.32    0.74
   4   5  13    2.12    0.91
   8  -6 -13    0.84    0.82
  -8   6  13    0.93    0.90
  -7   6  13    1.08    0.85
  -6   6  13    6.24    1.10
  -5   6  13   -0.20    0.72
  -4   6  13    3.99    0.91
  -3   6  13    1.98    0.76
  -2   6  13    0.06    0.74
  -1   6  13    2.45    0.87
   0   6  13    8.48    1.12
   1   6  13    0.60    0.69
   2   6  13    1.88    0.76
   3   6  13    5.84    1.04
  -8   7  13   -0.65    0.76
  -7   7  13   -0.48    0.73
  -6   7  13    1.79    0.90
  -5   7  13   -1.41    0.56
  -4   7  13    1.08    0.77
  -3   7  13    0.67    0.75
  -2   7  13    3.29    0.93
  -1   7  13    0.94    0.69
   0   7  13    6.45    1.09
   1   7  13    0.68    0.71
   3   7  13    3.27    0.90
  -7   8  13    5.98    1.09
  -6   8  13   -0.78    0.65
  -5   8  13    6.91    1.08
  -4   8  13    0.07    0.69
  -3   8  13    5.98    1.03
  -2   8  13    0.44    0.75
  -1   8  13    1.40    0.82
   0   8  13    0.24    0.78
   1   8  13    1.83    0.87
  -6   9  13    1.11    0.83
  -5   9  13    2.44    0.91
  -4   9  13    0.31    0.72
  -3   9  13    0.24    0.80
  -2   9  13    1.35    0.82
  -1   9  13    0.96    0.84
   0   9  13   -0.24    0.68
   1   9  13    7.78    1.16
  -4  10  13    1.32    0.86
  -3  10  13    0.23    0.76
  -2  10  13   14.28    1.46
  -1  10  13    7.08    1.18
  -3 -11  14    0.41    0.86
  -2 -11  14    1.04    0.94
  -5 -10  14    0.83    0.79
  -4 -10  14    1.84    0.91
  -3 -10  14    0.26    0.74
  -2 -10  14    1.64    0.90
  -1 -10  14    3.99    1.08
   0 -10  14    0.35    0.88
   1 -10  14   -0.21    0.82
   6   9 -14   13.66    1.32
  -5  -9  14    2.65    0.94
  -4  -9  14    1.45    0.86
  -3  -9  14    0.01    0.70
  -2  -9  14    0.45    0.76
  -1  -9  14    2.16    0.89
   0  -9  14    3.15    1.01
   1  -9  14    0.82    0.86
   2  -9  14    0.08    0.90
   7   8 -14   -0.15    0.70
   6   8 -14    2.32    0.81
  -5  -8  14    0.57    0.79
  -4  -8  14   18.81    1.50
  -3  -8  14    3.53    0.96
  -2  -8  14    5.35    1.01
  -1  -8  14    4.70    0.99
   0  -8  14    0.37    0.80
   1  -8  14    2.14    1.05
   2  -8  14    0.94    1.06
   7   7 -14   -0.43    0.69
   6   7 -14    2.18    0.77
  -6  -7  14    1.01    0.79
  -5  -7  14   -0.24    0.65
  -4  -7  14   20.00    1.44
  -3  -7  14    0.58    0.78
  -2  -7  14    8.04    1.15
  -1  -7  14    0.40    0.75
   0  -7  14    2.68    0.90
   1  -7  14   -0.62    0.82
   2  -7  14   -0.10    0.86
   3  -7  14    1.00    1.04
   8   6 -14    1.33    0.79
   7   6 -14   -0.48    0.71
  -6  -6  14    3.53    0.93
  -5  -6  14    0.50    0.72
  -4  -6  14    8.85    1.15
  -3  -6  14   -0.44    0.66
  -2  -6  14    6.79    1.11
  -1  -6  14    6.31    1.07
   0  -6  14    0.96    0.88
   1  -6  14   -0.22    0.76
   2  -6  14    4.16    1.15
   3  -6  14   -0.68    0.73
   8   5 -14    0.13    0.69
   7   5 -14    0.53    0.66
  -6  -5  14    0.16    0.72
  -5  -5  14   -0.30    0.63
  -4  -5  14    2.49    0.82
  -3  -5  14   -0.35    0.57
  -2  -5  14    0.55    0.71
  -1  -5  14    2.25    0.88
   0  -5  14    3.24    1.01
   1  -5  14   -0.15    0.79
   2  -5  14    0.03    0.78
   3  -5  14    0.81    0.89
   4  -5  14   -0.35    0.79
   9   4 -14    1.03    0.82
   8   4 -14    5.08    1.00
   7   4 -14    3.08    0.81
  -6  -4  14    2.95    0.86
  -5  -4  14    0.78    0.71
  -4  -4  14    2.98    0.86
  -3  -4  14    2.60    0.78
  -2  -4  14    7.87    1.06
  -1  -4  14    0.62    0.81
   0  -4  14   -0.24    0.78
   1  -4  14   -0.74    0.68
   2  -4  14    2.22    0.87
   3  -4  14    1.30    0.93
   4  -4  14    0.65    0.78
   9   3 -14    2.43    0.88
   8   3 -14    2.98    0.90
   7   3 -14   -0.30    0.64
  -6  -3  14    0.80    0.66
  -5  -3  14    1.51    0.72
  -4  -3  14    0.30    0.64
  -3  -3  14    1.92    0.71
  -2  -3  14    0.74    0.75
  -1  -3  14   16.10    1.07
  -1  -3  14   12.51    1.34
   0  -3  14   -0.42    0.77
   0  -3  14    1.77    0.63
   1  -3  14   -0.48    0.66
   2  -3  14    4.21    0.97
   3  -3  14    0.42    0.78
   4  -3  14    0.31    0.75
   9   2 -14    1.26    0.81
   8   2 -14    0.32    0.74
  -7  -2  14    0.62    0.69
  -6  -2  14    0.58    0.65
  -6  -2  14    0.09    0.63
  -5  -2  14   -0.11    0.60
  -5  -2  14   -0.12    0.58
  -4  -2  14   -0.41    0.54
  -4  -2  14    1.11    0.67
  -3  -2  14   12.87    1.27
  -3  -2  14   12.85    1.11
  -2  -2  14   -0.89    0.51
  -2  -2  14    1.55    0.86
  -1  -2  14   12.80    1.32
  -1  -2  14   13.30    1.12
   0  -2  14    0.86    0.73
   0  -2  14    0.56    0.58
   1  -2  14    0.33    0.67
   2  -2  14    2.10    0.76
   3  -2  14   -0.65    0.60
   4  -2  14    0.74    0.77
   9   1 -14    0.94    0.87
   8   1 -14    1.15    0.79
  -7  -1  14    2.39    0.83
  -6  -1  14    1.18    0.70
  -5  -1  14    3.68    0.84
  -5  -1  14    4.61    0.84
  -4  -1  14    4.42    0.81
  -4  -1  14    5.34    0.87
  -3  -1  14    4.16    0.84
  -3  -1  14    5.27    0.83
  -2  -1  14    0.03    0.62
  -2  -1  14   -0.91    0.69
  -1  -1  14   17.02    1.25
  -1  -1  14   13.69    1.35
   0  -1  14    0.30    0.64
   0  -1  14    0.75    0.62
   1  -1  14    0.17    0.69
   2  -1  14    0.24    0.66
   3  -1  14    0.43    0.76
   4  -1  14    1.93    0.89
   9   0 -14    0.24    0.75
   8   0 -14    1.51    0.81
  -7   0  14    0.33    0.69
  -6   0  14    2.82    0.84
  -5   0  14   -0.38    0.62
  -4   0  14   10.64    1.11
  -4   0  14   10.29    1.05
  -3   0  14    1.44    0.68
  -3   0  14    0.87    0.67
  -2   0  14    1.31    0.79
  -2   0  14    1.79    0.73
  -1   0  14   11.54    1.16
  -1   0  14    9.89    1.17
   0   0  14    5.89    0.98
   0   0  14    7.61    1.00
   1   0  14    2.84    0.79
   2   0  14    3.06    0.83
   3   0  14    2.18    0.86
   4   0  14    0.87    0.79
   9  -1 -14    3.09    1.04
   8  -1 -14    1.61    0.85
  -8   1  14    0.82    0.76
  -7   1  14    3.21    0.90
  -6   1  14    1.75    0.77
  -5   1  14   32.60    1.60
  -4   1  14   -0.24    0.64
  -3   1  14   -0.53    0.56
  -3   1  14   -0.25    0.63
  -2   1  14   20.87    1.39
  -2   1  14   20.30    1.36
  -1   1  14    1.62    0.72
  -1   1  14    0.19    0.61
   0   1  14    3.25    0.84
   0   1  14    3.76    0.86
   1   1  14    3.57    0.89
   2   1  14    2.05    0.79
   3   1  14    2.98    0.92
   4   1  14    0.20    0.66
   9  -2 -14   -0.11    0.81
  -8   2  14    1.16    0.85
  -7   2  14    7.38    1.11
  -6   2  14    0.54    0.76
  -5   2  14    0.07    0.63
  -4   2  14    1.94    0.74
  -3   2  14    0.28    0.63
  -2   2  14    0.73    0.60
  -2   2  14    2.69    0.77
  -1   2  14    2.76    0.72
  -1   2  14    2.20    0.78
   0   2  14    0.36    0.62
   0   2  14   -0.71    0.54
   1   2  14    1.16    0.66
   2   2  14    0.25    0.58
   3   2  14    1.99    0.80
   4   2  14   -0.46    0.73
   9  -3 -14    1.27    0.86
  -8   3  14    2.18    0.87
  -7   3  14    8.49    1.17
  -6   3  14    1.06    0.79
  -5   3  14    3.18    0.92
  -4   3  14   -0.13    0.65
  -3   3  14    0.37    0.71
  -2   3  14   -0.05    0.62
  -1   3  14    0.11    0.66
  -1   3  14    0.14    0.58
   0   3  14    0.29    0.72
   0   3  14    0.54    0.59
   1   3  14    0.62    0.61
   2   3  14   -0.04    0.62
   3   3  14   -0.42    0.65
   4   3  14   -0.45    0.82
  -8   4  14    0.31    0.83
  -7   4  14    1.81    0.86
  -6   4  14    2.31    0.93
  -5   4  14   10.06    1.24
  -4   4  14   -0.06    0.72
  -3   4  14    2.15    0.83
  -2   4  14    4.71    0.96
  -1   4  14    0.13    0.69
   0   4  14    2.15    0.67
   0   4  14    1.19    0.78
   1   4  14    1.92    0.68
   2   4  14   -0.58    0.65
   3   4  14   -0.51    0.64
  -8   5  14   -0.41    0.83
  -7   5  14    1.82    0.85
  -6   5  14    1.21    0.91
  -5   5  14    9.11    1.18
  -4   5  14    1.12    0.81
  -3   5  14   -1.00    0.61
  -2   5  14    0.63    0.75
  -1   5  14    2.37    0.86
   0   5  14   -0.11    0.70
   1   5  14    1.27    0.81
   1   5  14    0.34    0.65
   2   5  14    2.70    0.85
   3   5  14    0.86    0.79
  -7   6  14   -0.31    0.77
  -6   6  14    0.45    0.86
  -5   6  14    7.92    1.21
  -4   6  14    0.09    0.71
  -3   6  14   -1.04    0.65
  -2   6  14   -0.09    0.74
  -1   6  14    2.68    0.90
   0   6  14    1.81    0.82
   1   6  14    0.95    0.77
   2   6  14   -0.25    0.66
  -7   7  14   -0.70    0.65
  -6   7  14    3.04    1.02
  -5   7  14   11.02    1.30
  -4   7  14   -0.18    0.70
  -3   7  14    0.01    0.77
  -2   7  14    0.76    0.74
  -1   7  14    1.27    0.82
   0   7  14    3.76    0.99
   1   7  14    0.79    0.74
  -6   8  14   -0.43    0.83
  -5   8  14    3.71    0.99
  -4   8  14    5.44    1.10
  -3   8  14    0.11    0.71
  -2   8  14    0.95    0.85
  -1   8  14    0.63    0.78
   0   8  14    5.13    1.13
   1   8  14    0.71    0.80
  -4   9  14    8.25    1.21
  -3   9  14    0.74    0.87
  -2   9  14   -0.24    0.74
  -1   9  14   -0.52    0.73
  -2 -10  15   -0.44    0.81
  -5  -9  15    2.37    0.93
  -4  -9  15    1.20    0.83
  -3  -9  15    3.28    1.01
  -2  -9  15    1.79    0.90
  -1  -9  15    0.81    0.85
   0  -9  15    1.25    0.97
  -6  -8  15    3.20    1.01
  -5  -8  15    4.57    1.07
  -4  -8  15    2.92    0.95
  -3  -8  15    1.99    0.88
  -2  -8  15    2.13    0.86
  -1  -8  15   -0.49    0.75
   0  -8  15    2.68    0.96
   1  -8  15    3.30    1.06
  -6  -7  15    2.91    0.98
  -5  -7  15    4.37    1.00
  -4  -7  15    2.57    0.93
  -3  -7  15    4.27    1.06
  -2  -7  15    0.77    0.72
  -1  -7  15   -0.84    0.74
   0  -7  15    5.15    1.13
   1  -7  15    1.40    0.94
   2  -7  15   -0.73    0.98
  -6  -6  15   -0.38    0.69
  -5  -6  15    1.07    0.82
  -4  -6  15    1.12    0.81
  -3  -6  15   -0.13    0.73
  -2  -6  15    1.78    0.77
  -1  -6  15    0.68    0.67
   0  -6  15    0.43    0.86
   1  -6  15   -0.24    0.98
   2  -6  15    4.19    1.23
  -6  -5  15   -0.39    0.70
  -5  -5  15    0.80    0.73
  -4  -5  15    0.00    0.71
  -3  -5  15    0.62    0.71
  -2  -5  15    3.99    0.90
  -1  -5  15   -0.17    0.76
   0  -5  15    5.78    1.17
   1  -5  15    1.51    1.05
   2  -5  15    2.21    0.95
   3  -5  15    0.12    0.94
  -6  -4  15    7.50    1.12
  -5  -4  15    2.11    0.77
  -4  -4  15    1.25    0.80
  -3  -4  15   -0.18    0.67
  -2  -4  15    9.29    1.15
  -1  -4  15   -0.20    0.77
   0  -4  15    0.29    0.78
   1  -4  15   -0.25    0.72
   2  -4  15   -0.85    0.66
   3  -4  15   -0.83    0.77
  -6  -3  15    5.81    1.02
  -5  -3  15    2.52    0.81
  -4  -3  15    0.54    0.71
  -3  -3  15    1.28    0.72
  -2  -3  15    4.32    0.95
  -1  -3  15    0.31    0.70
   0  -3  15    1.13    0.83
   1  -3  15   -0.94    0.68
   2  -3  15    0.34    0.84
   3  -3  15    3.24    0.98
  -7  -2  15    2.25    0.85
  -6  -2  15    4.04    0.90
  -5  -2  15    1.43    0.76
  -5  -2  15    2.13    0.78
  -4  -2  15    1.49    0.68
  -4  -2  15    0.71    0.67
  -3  -2  15    0.84    0.69
  -3  -2  15   -0.14    0.59
  -2  -2  15    3.29    0.96
  -2  -2  15    4.12    0.84
  -1  -2  15    1.78    0.82
  -1  -2  15    4.04    0.82
   0  -2  15    0.80    0.77
   0  -2  15    0.99    0.69
   1  -2  15    1.91    0.78
   2  -2  15    0.62    0.85
   3  -2  15    4.92    1.05
  -7  -1  15    1.68    0.83
  -6  -1  15    0.88    0.70
  -5  -1  15    2.73    0.80
  -4  -1  15   -0.14    0.56
  -4  -1  15   -0.09    0.57
  -3  -1  15    1.05    0.66
  -3  -1  15    0.96    0.70
  -2  -1  15   14.75    1.43
  -2  -1  15   15.76    1.32
  -1  -1  15   15.54    1.29
  -1  -1  15   16.44    1.33
   0  -1  15   -0.17    0.56
   0  -1  15   -0.52    0.57
   1  -1  15    4.15    0.95
   2  -1  15    1.80    0.83
   3  -1  15    8.29    1.24
  -8   0  15    1.04    0.87
  -7   0  15    0.42    0.81
  -6   0  15   -0.43    0.63
  -5   0  15    2.76    0.86
  -4   0  15    1.03    0.65
  -3   0  15    3.06    0.79
  -3   0  15    1.10    0.74
  -2   0  15    0.65    0.69
  -2   0  15    1.41    0.81
  -1   0  15    0.29    0.68
  -1   0  15   -0.87    0.60
   0   0  15    3.70    0.83
   0   0  15    4.24    0.92
   1   0  15    9.93    1.22
   2   0  15    2.13    0.87
   3   0  15    4.13    0.98
  -8   1  15    1.74    0.94
  -7   1  15    1.93    0.87
  -6   1  15    0.62    0.75
  -5   1  15    9.99    1.21
  -4   1  15    2.13    0.76
  -3   1  15    6.59    1.03
  -2   1  15   14.32    1.32
  -2   1  15   16.57    1.40
  -1   1  15    0.77    0.74
  -1   1  15    0.68    0.67
   0   1  15    4.43    0.93
   0   1  15    4.54    0.94
   1   1  15    3.36    0.83
   2   1  15   25.53    1.71
   3   1  15    6.14    1.11
  -8   2  15   -0.67    0.83
  -7   2  15   14.16    1.43
  -6   2  15   10.54    1.30
  -5   2  15   12.23    1.32
  -4   2  15    4.33    0.94
  -3   2  15    2.11    0.82
  -2   2  15   10.23    1.22
  -1   2  15    0.07    0.60
  -1   2  15   -1.28    0.64
   0   2  15    5.75    1.02
   0   2  15    3.07    0.83
   1   2  15    0.72    0.70
   2   2  15   11.63    1.30
   3   2  15   -0.08    0.72
  -8   3  15    0.42    0.87
  -7   3  15    1.42    0.88
  -6   3  15   -0.82    0.68
  -5   3  15   32.91    1.81
  -4   3  15    0.51    0.77
  -3   3  15    0.30    0.70
  -2   3  15    2.09    0.89
  -1   3  15    2.30    0.83
   0   3  15    0.55    0.62
   0   3  15    1.92    0.87
   1   3  15    1.96    0.81
   1   3  15    2.18    0.78
   2   3  15    0.52    0.68
   3   3  15   -0.16    0.69
  -8   4  15    3.24    1.07
  -7   4  15   -0.61    0.77
  -6   4  15    0.57    0.85
  -5   4  15   -0.50    0.73
  -4   4  15    3.51    0.92
  -3   4  15    7.62    1.12
  -2   4  15    0.09    0.69
  -1   4  15   -0.29    0.68
   0   4  15    1.01    0.79
   1   4  15    2.35    0.88
   1   4  15    1.35    0.69
   2   4  15    0.68    0.71
  -7   5  15   -1.26    0.76
  -6   5  15    2.99    1.02
  -5   5  15    0.18    0.83
  -4   5  15   -0.05    0.79
  -3   5  15    0.52    0.80
  -2   5  15    5.43    1.04
  -1   5  15    1.22    0.83
   0   5  15    0.28    0.81
   1   5  15    9.16    1.29
   2   5  15    0.48    0.72
  -6   6  15    0.66    0.85
  -5   6  15    0.59    0.92
  -4   6  15    0.32    0.78
  -3   6  15    0.66    0.88
  -2   6  15    0.07    0.86
  -1   6  15   -0.43    0.71
   0   6  15    0.38    0.86
   1   6  15    5.11    1.08
  -6   7  15    3.13    1.14
  -5   7  15    3.85    1.04
  -4   7  15    0.50    0.81
  -3   7  15    1.60    0.85
  -2   7  15    1.41    0.87
  -1   7  15    2.20    0.92
   0   7  15    1.56    0.87
  -4   8  15    1.77    0.93
  -3   8  15    0.30    0.86
  -2   8  15    0.63    0.89
  -4  -8  16    1.28    0.85
  -3  -8  16    5.52    1.14
  -2  -8  16    2.85    1.02
  -1  -8  16    7.80    1.25
  -5  -7  16    0.72    0.82
  -4  -7  16    1.66    0.83
  -3  -7  16    7.32    1.27
  -2  -7  16    1.73    0.88
  -1  -7  16    0.97    0.80
   0  -7  16    1.44    0.92
  -6  -6  16    4.91    1.05
  -5  -6  16    1.54    0.88
  -4  -6  16    0.88    0.82
  -3  -6  16    1.72    0.86
  -2  -6  16    0.66    0.79
  -1  -6  16    1.06    0.81
   0  -6  16   -0.03    0.88
   1  -6  16    0.11    0.91
  -6  -5  16   -0.47    0.72
  -5  -5  16   -0.28    0.73
  -4  -5  16    1.90    0.93
  -3  -5  16    1.72    0.87
  -2  -5  16   -0.13    0.77
  -1  -5  16   -0.57    0.84
   0  -5  16    4.42    1.13
   1  -5  16    1.36    1.01
  -6  -4  16    0.20    0.71
  -5  -4  16    3.22    0.94
  -4  -4  16    0.55    0.73
  -3  -4  16    2.44    0.90
  -2  -4  16    1.28    0.80
  -1  -4  16   -1.61    0.78
   0  -4  16    5.76    1.27
   1  -4  16    0.62    0.92
   2  -4  16   -0.63    0.75
  -5  -3  16    4.91    0.99
  -4  -3  16    1.17    0.77
  -3  -3  16    0.46    0.73
  -2  -3  16    3.06    0.86
  -1  -3  16   -0.58    0.80
   0  -3  16    0.41    0.94
   1  -3  16    0.79    0.77
   2  -3  16   -0.84    0.74
  -4  -2  16    1.57    0.79
  -3  -2  16   11.39    1.27
  -2  -2  16    0.23    0.75
  -1  -2  16    2.20    0.90
   0  -2  16    1.18    0.89
   1  -2  16   -0.70    0.65
   2  -2  16    0.52    0.82
  -7  -1  16   -0.09    0.74
  -6  -1  16    2.24    0.86
  -5  -1  16    1.07    0.74
  -4  -1  16    1.55    0.78
  -4  -1  16    2.73    0.76
  -3  -1  16   12.29    1.25
  -3  -1  16   14.17    1.32
  -2  -1  16    3.56    0.89
  -2  -1  16    2.67    0.93
  -1  -1  16   -0.84    0.65
  -1  -1  16   -0.80    0.69
   0  -1  16    2.29    0.85
   0  -1  16    2.06    0.85
   1  -1  16   -0.41    0.60
   1  -1  16    0.26    0.74
   2  -1  16   -0.14    0.67
  -8   0  16   -0.15    0.82
  -7   0  16   -0.04    0.81
  -6   0  16    2.07    0.93
  -5   0  16    1.12    0.78
  -4   0  16    0.08    0.71
  -3   0  16    3.53    0.92
  -3   0  16    3.56    0.81
  -2   0  16    1.78    0.82
  -2   0  16    0.96    0.79
  -1   0  16   -0.69    0.68
  -1   0  16   -0.21    0.70
   0   0  16    2.00    0.81
   0   0  16    0.48    0.77
   1   0  16   -0.77    0.67
   1   0  16    0.82    0.70
   2   0  16    3.65    0.98
  -7   1  16    3.95    1.00
  -6   1  16    3.98    1.03
  -5   1  16   -0.23    0.75
  -4   1  16    1.31    0.76
  -3   1  16    9.29    1.12
  -2   1  16   -0.88    0.68
  -2   1  16    1.22    0.79
  -1   1  16    2.09    0.85
  -1   1  16    0.11    0.65
   0   1  16    0.22    0.73
   0   1  16    0.24    0.72
   1   1  16    2.48    0.85
   1   1  16    3.87    0.96
   2   1  16    0.35    0.66
  -7   2  16    1.45    0.89
  -6   2  16    0.91    0.92
  -5   2  16    1.10    0.79
  -4   2  16    0.50    0.79
  -3   2  16    2.61    0.84
  -2   2  16    0.47    0.71
  -1   2  16   -0.33    0.67
  -1   2  16    1.72    0.78
   0   2  16   -0.58    0.62
   0   2  16   -0.14    0.78
   1   2  16    3.38    0.97
   1   2  16    2.06    0.78
   2   2  16    1.29    0.76
  -7   3  16    9.22    1.30
  -6   3  16   -0.27    0.75
  -5   3  16    0.98    0.85
  -4   3  16    1.61    0.86
  -3   3  16    4.01    0.98
  -2   3  16    1.16    0.79
  -1   3  16    0.28    0.79
   0   3  16    5.97    0.99
   0   3  16    7.76    1.20
   1   3  16    3.51    0.98
   1   3  16    5.29    1.00
  -6   4  16    2.60    0.98
  -5   4  16   -0.49    0.72
  -4   4  16   -0.05    0.83
  -3   4  16   -0.34    0.70
  -2   4  16    5.01    1.10
  -1   4  16   -0.11    0.79
   0   4  16    0.73    0.91
   1   4  16    2.27    0.91
  -6   5  16    0.24    0.89
  -5   5  16    1.36    0.86
  -4   5  16    1.10    0.90
  -3   5  16    0.35    0.83
  -2   5  16    2.28    0.97
  -1   5  16   -1.78    0.68
   0   5  16    0.46    0.90
  -5   6  16    0.35    0.86
  -4   6  16    1.32    0.88
  -3   6  16    3.92    1.09
  -2   6  16    0.60    0.83
  -1   6  16    0.94    0.83
  -4  -6  17    2.33    1.00
  -3  -6  17    0.60    0.78
  -2  -6  17    1.09    0.87
  -1  -6  17    0.65    0.82
  -5  -5  17    2.30    0.94
  -4  -5  17    0.04    0.85
  -3  -5  17    2.63    0.96
  -2  -5  17    2.01    0.91
  -1  -5  17    2.19    0.92
   0  -5  17    0.20    0.98
  -6  -4  17    1.24    0.85
  -5  -4  17    1.79    0.87
  -4  -4  17    1.28    0.84
  -3  -4  17    0.87    0.79
  -2  -4  17    2.72    0.92
  -1  -4  17    0.47    0.85
   0  -4  17   -1.50    0.82
  -5  -3  17    0.22    0.74
  -4  -3  17    0.77    0.77
  -3  -3  17    1.54    0.76
  -2  -3  17    0.76    0.78
  -1  -3  17    1.92    1.04
   0  -3  17    0.84    0.85
  -4  -2  17    2.02    0.81
  -3  -2  17    3.83    0.95
  -2  -2  17    2.57    0.90
  -1  -2  17    3.71    1.05
   0  -2  17   -0.75    0.79
   1  -2  17    8.59    1.34
  -6  -1  17    6.14    1.12
  -5  -1  17    0.84    0.80
  -4  -1  17    3.22    0.93
  -3  -1  17    4.08    0.90
  -3  -1  17    1.06    0.82
  -2  -1  17    0.12    0.67
  -2  -1  17    0.74    0.84
  -1  -1  17    2.22    0.84
  -1  -1  17    0.94    0.89
   0  -1  17    1.19    0.84
   0  -1  17    2.19    0.89
   1  -1  17   -0.20    0.78
   1  -1  17   -0.08    0.78
  -6   0  17    0.23    0.85
  -5   0  17    7.49    1.15
  -4   0  17    0.42    0.70
  -3   0  17   -0.79    0.71
  -2   0  17    1.20    0.84
  -2   0  17   -0.48    0.76
  -1   0  17    0.20    0.67
  -1   0  17    0.48    0.81
   0   0  17    6.62    1.14
   0   0  17    2.48    0.93
  -6   1  17    5.14    1.14
  -5   1  17    8.14    1.24
  -4   1  17    1.64    0.88
  -3   1  17    0.04    0.70
  -2   1  17    3.03    0.96
  -1   1  17    0.26    0.78
  -1   1  17    0.65    0.76
   0   1  17   -0.49    0.69
   0   1  17    0.64    0.87
  -6   2  17    2.85    1.05
  -5   2  17    5.52    1.10
  -4   2  17    0.58    0.83
  -3   2  17    0.06    0.84
  -2   2  17    1.67    0.88
  -1   2  17   -0.61    0.73
   0   2  17    5.18    1.04
   0   2  17    5.31    1.11
  -5   3  17    3.81    1.07
  -4   3  17    2.52    0.92
  -3   3  17    0.37    0.79
  -2   3  17    2.03    0.91
  -1   3  17    2.29    0.89
  -5   4  17    0.72    0.88
  -4   4  17    0.23    0.84
  -3   4  17    0.90    0.86
  -2   4  17   -0.30    0.87
  -4  -3  18    1.00    0.85
  -3  -3  18   -0.85    0.69
  -3  -2  18    1.05    0.74
  -2  -2  18    1.40    0.88
  -2  -1  18    1.33    0.92
  -4   0  18    0.01    0.81
  -3   0  18   -0.36    0.78
  -2   0  18   -0.24    0.81
  -4   1  18    0.22    0.85
  -3   1  18    0.19    0.90
   0   0   0    0.00    0.00
;
_shelx_hkl_checksum              22158
#END Tags that were not found in dictionaries
loop_
_space_group_symop_operation_xyz
'x, y, z'
'-x, -y, -z'
loop_
_atom_site_type_symbol
_atom_site_label
_atom_site_fract_x
_atom_site_fract_y
_atom_site_fract_z
_atom_site_U_iso_or_equiv
_atom_site_adp_type
_atom_site_calc_flag
_atom_site_refinement_flags_adp
_atom_site_refinement_flags_posn
_atom_site_occupancy
S S1 0.37760(10) 0.42083(6) 0.10366(5) 0.0294(2) Uani d . . 1
O O3 0.2936(2) 0.39179(16) 0.00428(13) 0.0300(6) Uani d . . 1
C C1 0.9931(3) 0.3842(2) 0.77139(18) 0.0168(7) Uani d . . 1
C C2 0.7211(3) 0.4213(2) 0.4166(2) 0.0209(7) Uani d . . 1
C C3 1.0012(3) 0.2793(2) 0.77088(18) 0.0171(7) Uani d . . 1
C C4 1.1278(3) 0.2357(2) 0.82518(18) 0.0185(7) Uani d . . 1
H H4 1.2072 0.279 0.8584 0.022 Uiso calc U R 1
C C5 0.9153(3) 0.4538(2) 0.70643(18) 0.0155(7) Uani d . . 1
C C6 1.1386(3) 0.6115(2) 0.99571(19) 0.0233(8) Uani d . . 1
H H6 1.1637 0.5458 1.0137 0.028 Uiso calc U R 1
C C7 0.7913(3) 0.5250(2) 0.56189(19) 0.0196(7) Uani d . . 1
H H7 0.7947 0.5876 0.5964 0.024 Uiso calc U R 1
C C8 0.7267(3) 0.5201(2) 0.46908(19) 0.0183(7) Uani d . . 1
C C9 0.8793(3) 0.2140(2) 0.72374(17) 0.0172(7) Uani d . . 1
H H9 0.7962 0.2422 0.6847 0.021 Uiso calc U R 1
C C10 0.7983(3) 0.3371(2) 0.46375(19) 0.0177(7) Uani d . . 1
C C11 1.0203(3) 0.5420(2) 0.83387(19) 0.0181(7) Uani d . . 1
C C12 0.8062(3) 0.2382(2) 0.40831(18) 0.0183(7) Uani d . . 1
C C13 1.0279(3) 0.7223(2) 0.8786(2) 0.0235(8) Uani d . . 1
H H13 0.9783 0.7326 0.8161 0.028 Uiso calc U R 1
C C14 0.8543(3) 0.4411(2) 0.61027(19) 0.0177(7) Uani d . . 1
C C15 0.6573(3) 0.6107(2) 0.41880(19) 0.0209(7) Uani d . . 1
C C16 0.8602(3) 0.3498(2) 0.55672(18) 0.0167(7) Uani d . . 1
H H16 0.9097 0.2953 0.5875 0.02 Uiso calc U R 1
C C17 1.0636(3) 0.6258(2) 0.90436(19) 0.0178(7) Uani d . . 1
C C18 0.9024(3) 0.1632(2) 0.46858(19) 0.0245(8) Uani d . . 1
H H18A 1.0015 0.1919 0.4927 0.037 Uiso calc U R 1
H H18B 0.9041 0.1006 0.431 0.037 Uiso calc U R 1
H H18C 0.863 0.1492 0.5204 0.037 Uiso calc U R 1
C C19 0.8780(3) 0.1138(2) 0.73272(18) 0.0184(7) Uani d . . 1
C C20 0.7433(3) 0.0444(2) 0.69087(19) 0.0201(7) Uani d . . 1
C C21 1.1765(3) 0.6930(2) 1.0603(2) 0.0262(8) Uani d . . 1
H H21 1.2282 0.6833 1.1226 0.031 Uiso calc U R 1
C C22 1.2826(3) 0.0910(2) 0.8869(2) 0.0239(8) Uani d . . 1
C C23 1.1408(3) 0.1359(2) 0.83194(18) 0.0198(7) Uani d . . 1
C C24 1.1392(4) 0.7885(2) 1.0343(2) 0.0297(8) Uani d . . 1
H H24 1.1652 0.8443 1.0788 0.036 Uiso calc U R 1
C C25 0.6151(3) 0.1030(2) 0.6360(2) 0.0274(8) Uani d . . 1
H H25A 0.5904 0.1554 0.6774 0.041 Uiso calc U R 1
H H25B 0.5309 0.0571 0.6101 0.041 Uiso calc U R 1
H H25C 0.6423 0.134 0.5856 0.041 Uiso calc U R 1
C C26 1.0110(3) 0.0694(2) 0.78936(19) 0.0208(7) Uani d . . 1
C C27 0.6747(4) 0.7042(2) 0.4859(2) 0.0292(8) Uani d . . 1
H H27A 0.6267 0.6917 0.5342 0.044 Uiso calc U R 1
H H27B 0.6304 0.7611 0.4519 0.044 Uiso calc U R 1
H H27C 0.7783 0.7198 0.5146 0.044 Uiso calc U R 1
C C28 0.7759(3) -0.0391(2) 0.62448(19) 0.0262(8) Uani d . . 1
H H28A 0.8063 -0.0089 0.5748 0.039 Uiso calc U R 1
H H28B 0.6882 -0.0817 0.5976 0.039 Uiso calc U R 1
H H28C 0.8539 -0.08 0.6588 0.039 Uiso calc U R 1
C C29 0.8721(4) 0.2561(2) 0.32735(19) 0.0291(8) Uani d . . 1
H H29A 0.8075 0.2976 0.2835 0.044 Uiso calc U R 1
H H29B 0.8833 0.1915 0.2956 0.044 Uiso calc U R 1
H H29C 0.9674 0.2906 0.3516 0.044 Uiso calc U R 1
C C30 1.0644(4) 0.8035(2) 0.9438(2) 0.0286(8) Uani d . . 1
H H30 1.0381 0.8691 0.9264 0.034 Uiso calc U R 1
C C31 0.6925(3) -0.0037(2) 0.76765(19) 0.0281(8) Uani d . . 1
H H31A 0.7702 -0.0438 0.8032 0.042 Uiso calc U R 1
H H31B 0.606 -0.047 0.7395 0.042 Uiso calc U R 1
H H31C 0.6688 0.0492 0.809 0.042 Uiso calc U R 1
C C32 0.6525(3) 0.1893(2) 0.3712(2) 0.0269(8) Uani d . . 1
H H32A 0.6132 0.1766 0.4234 0.04 Uiso calc U R 1
H H32B 0.6574 0.1256 0.336 0.04 Uiso calc U R 1
H H32C 0.5892 0.2344 0.3307 0.04 Uiso calc U R 1
C C33 1.4091(3) 0.1683(2) 0.9100(2) 0.0296(8) Uani d . . 1
H H33A 1.4222 0.1924 0.8525 0.044 Uiso calc U R 1
H H33B 1.4982 0.1372 0.9438 0.044 Uiso calc U R 1
H H33C 1.388 0.225 0.9486 0.044 Uiso calc U R 1
C C34 0.4937(3) 0.5914(2) 0.3748(2) 0.0275(8) Uani d . . 1
H H34A 0.4783 0.5345 0.3282 0.041 Uiso calc U R 1
H H34B 0.4516 0.6513 0.3452 0.041 Uiso calc U R 1
H H34C 0.4467 0.5761 0.4229 0.041 Uiso calc U R 1
C C35 0.7324(3) 0.6334(2) 0.3436(2) 0.0290(8) Uani d . . 1
H H35A 0.8361 0.6484 0.3725 0.043 Uiso calc U R 1
H H35B 0.6882 0.6914 0.3115 0.043 Uiso calc U R 1
H H35C 0.7208 0.575 0.299 0.043 Uiso calc U R 1
C C36 1.2612(4) 0.0580(2) 0.9784(2) 0.0347(9) Uani d . . 1
H H36A 1.3484 0.025 1.0125 0.052 Uiso calc U R 1
H H36B 1.1772 0.011 0.9652 0.052 Uiso calc U R 1
H H36C 1.2442 0.1169 1.016 0.052 Uiso calc U R 1
C C37 1.3237(4) 0.0010(2) 0.8303(2) 0.0377(9) Uani d . . 1
H H37A 1.3272 0.0218 0.7695 0.057 Uiso calc U R 1
H H37B 1.2508 -0.0537 0.8218 0.057 Uiso calc U R 1
H H37C 1.4192 -0.0221 0.8635 0.057 Uiso calc U R 1
C C38 0.5647(4) 0.4130(3) 0.1077(2) 0.0462(11) Uani d . . 1
H H38A 0.5803 0.3495 0.0758 0.069 Uiso calc U R 1
H H38B 0.6233 0.4159 0.1724 0.069 Uiso calc U R 1
H H38C 0.5935 0.4692 0.077 0.069 Uiso calc U R 1
C C39 0.3662(4) 0.3170(3) 0.1685(2) 0.0471(11) Uani d . . 1
H H39A 0.2653 0.3057 0.1696 0.071 Uiso calc U R 1
H H39B 0.428 0.3305 0.2321 0.071 Uiso calc U R 1
H H39C 0.3992 0.2571 0.1399 0.071 Uiso calc U R 1
O O1 1.0129(2) -0.02164(15) 0.80284(13) 0.0294(6) Uani d . . 1
O O2 0.6527(2) 0.41075(15) 0.33284(13) 0.0301(6) Uani d . . 1
N N2 0.9303(3) 0.54951(17) 0.75140(15) 0.0186(6) Uani d . . 1
N N1 1.0673(3) 0.44626(18) 0.84759(17) 0.0176(6) Uani d . . 1
H H1 1.124(3) 0.424(2) 0.897(2) 0.030(10) Uiso d . . 1
loop_
_atom_site_aniso_label
_atom_site_aniso_U_11
_atom_site_aniso_U_22
_atom_site_aniso_U_33
_atom_site_aniso_U_12
_atom_site_aniso_U_13
_atom_site_aniso_U_23
S1 0.0306(5) 0.0342(5) 0.0185(4) 0.0011(4) -0.0012(4) 0.0004(4)
O3 0.0290(13) 0.0374(14) 0.0154(11) 0.0041(11) -0.0069(10) -0.0026(10)
C1 0.0148(16) 0.0209(18) 0.0135(15) -0.0034(14) 0.0033(13) -0.0034(13)
C2 0.0171(17) 0.0268(19) 0.0177(17) -0.0018(14) 0.0030(14) 0.0024(14)
C3 0.0168(17) 0.0224(18) 0.0109(15) -0.0016(14) 0.0028(13) -0.0027(13)
C4 0.0174(17) 0.0215(18) 0.0134(15) -0.0025(14) 0.0009(13) -0.0053(13)
C5 0.0125(16) 0.0166(17) 0.0168(16) -0.0003(13) 0.0036(13) -0.0009(13)
C6 0.0228(19) 0.0262(19) 0.0201(17) 0.0006(15) 0.0049(15) -0.0002(14)
C7 0.0187(17) 0.0181(17) 0.0215(17) 0.0003(14) 0.0053(14) -0.0019(13)
C8 0.0147(16) 0.0224(18) 0.0180(16) -0.0024(14) 0.0056(13) -0.0006(13)
C9 0.0147(17) 0.0254(19) 0.0100(15) 0.0030(14) 0.0012(13) -0.0006(13)
C10 0.0147(16) 0.0208(18) 0.0175(16) -0.0013(14) 0.0048(13) -0.0007(13)
C11 0.0199(17) 0.0182(18) 0.0164(16) -0.0010(14) 0.0057(14) 0.0003(13)
C12 0.0197(17) 0.0201(17) 0.0142(16) -0.0011(14) 0.0043(13) -0.0028(13)
C13 0.029(2) 0.0253(19) 0.0167(17) -0.0045(15) 0.0078(14) -0.0030(14)
C14 0.0155(17) 0.0201(18) 0.0166(16) -0.0020(14) 0.0033(13) 0.0001(13)
C15 0.0193(18) 0.0225(18) 0.0200(17) 0.0006(14) 0.0035(14) 0.0017(13)
C16 0.0150(16) 0.0169(17) 0.0178(16) -0.0015(13) 0.0036(13) 0.0018(13)
C17 0.0199(17) 0.0172(17) 0.0172(16) -0.0012(14) 0.0076(13) -0.0025(13)
C18 0.031(2) 0.0217(18) 0.0207(17) 0.0003(15) 0.0073(15) -0.0032(14)
C19 0.0190(17) 0.0226(18) 0.0125(16) -0.0018(14) 0.0037(13) -0.0027(13)
C20 0.0181(17) 0.0223(18) 0.0188(16) -0.0029(14) 0.0033(14) 0.0009(13)
C21 0.027(2) 0.034(2) 0.0163(17) -0.0042(16) 0.0055(14) -0.0030(15)
C22 0.0211(18) 0.0183(18) 0.0260(18) 0.0019(15) -0.0037(15) -0.0023(14)
C23 0.0198(18) 0.0215(19) 0.0159(16) -0.0002(14) 0.0019(13) 0.0000(13)
C24 0.041(2) 0.025(2) 0.0234(18) -0.0070(17) 0.0121(16) -0.0085(15)
C25 0.0175(18) 0.029(2) 0.0298(18) -0.0045(15) -0.0013(15) -0.0021(15)
C26 0.0262(19) 0.0194(19) 0.0174(17) 0.0010(15) 0.0066(14) 0.0020(13)
C27 0.029(2) 0.026(2) 0.0304(19) 0.0089(16) 0.0015(16) 0.0068(15)
C28 0.0267(19) 0.0263(19) 0.0225(17) -0.0037(15) 0.0032(15) -0.0044(14)
C29 0.034(2) 0.033(2) 0.0207(17) 0.0001(17) 0.0091(15) -0.0041(15)
C30 0.042(2) 0.0208(19) 0.0241(18) -0.0014(16) 0.0111(16) 0.0007(14)
C31 0.0251(19) 0.028(2) 0.0278(18) -0.0107(16) 0.0032(15) -0.0027(15)
C32 0.0256(19) 0.027(2) 0.0247(18) -0.0064(16) 0.0035(15) -0.0040(14)
C33 0.0169(18) 0.030(2) 0.036(2) 0.0022(15) -0.0027(15) -0.0009(15)
C34 0.0220(19) 0.030(2) 0.0291(19) 0.0018(16) 0.0031(15) 0.0111(15)
C35 0.0224(19) 0.036(2) 0.0287(19) 0.0016(16) 0.0042(15) 0.0129(15)
C36 0.033(2) 0.030(2) 0.031(2) -0.0019(17) -0.0097(16) 0.0070(16)
C37 0.027(2) 0.034(2) 0.044(2) 0.0109(17) -0.0035(17) -0.0073(17)
C38 0.028(2) 0.080(3) 0.027(2) -0.013(2) -0.0009(17) 0.0141(19)
C39 0.027(2) 0.071(3) 0.038(2) -0.011(2) -0.0041(17) 0.026(2)
O1 0.0267(13) 0.0208(13) 0.0343(13) -0.0008(11) -0.0027(10) 0.0041(10)
O2 0.0347(14) 0.0316(14) 0.0168(12) 0.0039(11) -0.0047(10) -0.0013(10)
N2 0.0208(15) 0.0171(14) 0.0158(13) -0.0016(11) 0.0017(11) -0.0007(11)
N1 0.0177(15) 0.0183(15) 0.0132(14) -0.0009(12) -0.0014(12) -0.0005(11)
loop_
_atom_type_symbol
_atom_type_description
_atom_type_scat_dispersion_real
_atom_type_scat_dispersion_imag
_atom_type_scat_source
C C 0.0033 0.0016 'International Tables Vol C Tables 4.2.6.8 and 6.1.1.4'
H H 0.0000 0.0000 'International Tables Vol C Tables 4.2.6.8 and 6.1.1.4'
N N 0.0061 0.0033 'International Tables Vol C Tables 4.2.6.8 and 6.1.1.4'
O O 0.0106 0.0060 'International Tables Vol C Tables 4.2.6.8 and 6.1.1.4'
S S 0.1246 0.1234 'International Tables Vol C Tables 4.2.6.8 and 6.1.1.4'
loop_
_geom_angle_atom_site_label_1
_geom_angle_atom_site_label_2
_geom_angle_atom_site_label_3
_geom_angle
O3 S1 C39 107.22(15)
O3 S1 C38 106.09(14)
C39 S1 C38 97.57(17)
N1 C1 C3 121.6(2)
N1 C1 C5 103.6(2)
C3 C1 C5 134.8(3)
O2 C2 C10 120.6(3)
O2 C2 C8 119.9(3)
C10 C2 C8 119.4(3)
C1 C3 C4 119.7(3)
C1 C3 C9 121.7(3)
C4 C3 C9 118.3(3)
C23 C4 C3 123.2(3)
C23 C4 H4 118.4
C3 C4 H4 118.4
N2 C5 C14 119.9(2)
N2 C5 C1 108.7(2)
C14 C5 C1 130.5(3)
C21 C6 C17 119.9(3)
C21 C6 H6 120.0
C17 C6 H6 120.0
C8 C7 C14 123.5(3)
C8 C7 H7 118.3
C14 C7 H7 118.3
C7 C8 C2 117.5(3)
C7 C8 C15 122.6(3)
C2 C8 C15 119.9(2)
C19 C9 C3 122.6(3)
C19 C9 H9 118.7
C3 C9 H9 118.7
C16 C10 C2 118.3(3)
C16 C10 C12 121.8(3)
C2 C10 C12 119.9(2)
N2 C11 N1 112.7(2)
N2 C11 C17 123.8(3)
N1 C11 C17 123.5(3)
C10 C12 C18 111.8(2)
C10 C12 C32 109.4(2)
C18 C12 C32 107.5(2)
C10 C12 C29 110.6(2)
C18 C12 C29 107.2(2)
C32 C12 C29 110.4(2)
C30 C13 C17 120.2(3)
C30 C13 H13 119.9
C17 C13 H13 119.9
C5 C14 C7 118.9(3)
C5 C14 C16 123.2(3)
C7 C14 C16 117.7(3)
C27 C15 C8 111.2(2)
C27 C15 C34 107.0(2)
C8 C15 C34 111.2(3)
C27 C15 C35 108.0(3)
C8 C15 C35 109.4(2)
C34 C15 C35 109.9(2)
C10 C16 C14 123.0(3)
C10 C16 H16 118.5
C14 C16 H16 118.5
C13 C17 C6 119.6(3)
C13 C17 C11 118.5(3)
C6 C17 C11 121.9(3)
C12 C18 H18A 109.5
C12 C18 H18B 109.5
H18A C18 H18B 109.5
C12 C18 H18C 109.5
H18A C18 H18C 109.5
H18B C18 H18C 109.5
C9 C19 C26 118.4(3)
C9 C19 C20 123.3(3)
C26 C19 C20 118.2(3)
C25 C20 C19 111.2(2)
C25 C20 C31 106.8(3)
C19 C20 C31 110.8(2)
C25 C20 C28 108.0(2)
C19 C20 C28 110.8(2)
C31 C20 C28 109.2(2)
C24 C21 C6 120.0(3)
C24 C21 H21 120.0
C6 C21 H21 120.0
C33 C22 C36 108.2(2)
C33 C22 C23 111.4(2)
C36 C22 C23 108.4(3)
C33 C22 C37 107.7(3)
C36 C22 C37 110.5(3)
C23 C22 C37 110.6(2)
C4 C23 C26 118.3(3)
C4 C23 C22 121.8(3)
C26 C23 C22 119.8(3)
C30 C24 C21 120.4(3)
C30 C24 H24 119.8
C21 C24 H24 119.8
C20 C25 H25A 109.5
C20 C25 H25B 109.5
H25A C25 H25B 109.5
C20 C25 H25C 109.5
H25A C25 H25C 109.5
H25B C25 H25C 109.5
O1 C26 C19 120.7(3)
O1 C26 C23 120.5(3)
C19 C26 C23 118.8(3)
C15 C27 H27A 109.5
C15 C27 H27B 109.5
H27A C27 H27B 109.5
C15 C27 H27C 109.5
H27A C27 H27C 109.5
H27B C27 H27C 109.5
C20 C28 H28A 109.5
C20 C28 H28B 109.5
H28A C28 H28B 109.5
C20 C28 H28C 109.5
H28A C28 H28C 109.5
H28B C28 H28C 109.5
C12 C29 H29A 109.5
C12 C29 H29B 109.5
H29A C29 H29B 109.5
C12 C29 H29C 109.5
H29A C29 H29C 109.5
H29B C29 H29C 109.5
C24 C30 C13 119.8(3)
C24 C30 H30 120.1
C13 C30 H30 120.1
C20 C31 H31A 109.5
C20 C31 H31B 109.5
H31A C31 H31B 109.5
C20 C31 H31C 109.5
H31A C31 H31C 109.5
H31B C31 H31C 109.5
C12 C32 H32A 109.5
C12 C32 H32B 109.5
H32A C32 H32B 109.5
C12 C32 H32C 109.5
H32A C32 H32C 109.5
H32B C32 H32C 109.5
C22 C33 H33A 109.5
C22 C33 H33B 109.5
H33A C33 H33B 109.5
C22 C33 H33C 109.5
H33A C33 H33C 109.5
H33B C33 H33C 109.5
C15 C34 H34A 109.5
C15 C34 H34B 109.5
H34A C34 H34B 109.5
C15 C34 H34C 109.5
H34A C34 H34C 109.5
H34B C34 H34C 109.5
C15 C35 H35A 109.5
C15 C35 H35B 109.5
H35A C35 H35B 109.5
C15 C35 H35C 109.5
H35A C35 H35C 109.5
H35B C35 H35C 109.5
C22 C36 H36A 109.5
C22 C36 H36B 109.5
H36A C36 H36B 109.5
C22 C36 H36C 109.5
H36A C36 H36C 109.5
H36B C36 H36C 109.5
C22 C37 H37A 109.5
C22 C37 H37B 109.5
H37A C37 H37B 109.5
C22 C37 H37C 109.5
H37A C37 H37C 109.5
H37B C37 H37C 109.5
S1 C38 H38A 109.5
S1 C38 H38B 109.5
H38A C38 H38B 109.5
S1 C38 H38C 109.5
H38A C38 H38C 109.5
H38B C38 H38C 109.5
S1 C39 H39A 109.5
S1 C39 H39B 109.5
H39A C39 H39B 109.5
S1 C39 H39C 109.5
H39A C39 H39C 109.5
H39B C39 H39C 109.5
C11 N2 C5 106.2(2)
C11 N1 C1 108.1(2)
C11 N1 H1 128.(2)
C1 N1 H1 123.(2)
loop_
_geom_bond_atom_site_label_1
_geom_bond_atom_site_label_2
_geom_bond_distance
S1 O3 1.5127(19)
S1 C39 1.766(3)
S1 C38 1.779(3)
C1 N1 1.385(3)
C1 C3 1.405(4)
C1 C5 1.455(4)
C2 O2 1.248(3)
C2 C10 1.469(4)
C2 C8 1.485(4)
C3 C4 1.420(4)
C3 C9 1.435(4)
C4 C23 1.349(4)
C4 H4 0.95
C5 N2 1.393(3)
C5 C14 1.401(4)
C6 C21 1.385(4)
C6 C17 1.393(4)
C6 H6 0.95
C7 C8 1.360(4)
C7 C14 1.427(4)
C7 H7 0.95
C8 C15 1.533(4)
C9 C19 1.355(4)
C9 H9 0.95
C10 C16 1.359(3)
C10 C12 1.529(4)
C11 N2 1.314(3)
C11 N1 1.371(4)
C11 C17 1.463(4)
C12 C18 1.538(4)
C12 C32 1.542(4)
C12 C29 1.545(4)
C13 C30 1.386(4)
C13 C17 1.390(4)
C13 H13 0.95
C14 C16 1.428(4)
C15 C27 1.531(4)
C15 C34 1.535(4)
C15 C35 1.539(4)
C16 H16 0.95
C18 H18A 0.98
C18 H18B 0.98
C18 H18C 0.98
C19 C26 1.482(4)
C19 C20 1.537(4)
C20 C25 1.537(4)
C20 C31 1.540(4)
C20 C28 1.540(4)
C21 C24 1.383(4)
C21 H21 0.95
C22 C33 1.529(4)
C22 C36 1.536(4)
C22 C23 1.537(4)
C22 C37 1.545(4)
C23 C26 1.484(4)
C24 C30 1.382(4)
C24 H24 0.95
C25 H25A 0.98
C25 H25B 0.98
C25 H25C 0.98
C26 O1 1.245(3)
C27 H27A 0.98
C27 H27B 0.98
C27 H27C 0.98
C28 H28A 0.98
C28 H28B 0.98
C28 H28C 0.98
C29 H29A 0.98
C29 H29B 0.98
C29 H29C 0.98
C30 H30 0.95
C31 H31A 0.98
C31 H31B 0.98
C31 H31C 0.98
C32 H32A 0.98
C32 H32B 0.98
C32 H32C 0.98
C33 H33A 0.98
C33 H33B 0.98
C33 H33C 0.98
C34 H34A 0.98
C34 H34B 0.98
C34 H34C 0.98
C35 H35A 0.98
C35 H35B 0.98
C35 H35C 0.98
C36 H36A 0.98
C36 H36B 0.98
C36 H36C 0.98
C37 H37A 0.98
C37 H37B 0.98
C37 H37C 0.98
C38 H38A 0.98
C38 H38B 0.98
C38 H38C 0.98
C39 H39A 0.98
C39 H39B 0.98
C39 H39C 0.98
N1 H1 0.87(3)
