#------------------------------------------------------------------------------
#$Date: 2016-02-18 17:37:37 +0200 (Thu, 18 Feb 2016) $
#$Revision: 176729 $
#$URL: svn://www.crystallography.net/cod/cif/1/51/38/1513814.cif $
#------------------------------------------------------------------------------
#
# This file is available in the Crystallography Open Database (COD),
# http://www.crystallography.net/
#
# All data on this site have been placed in the public domain by the
# contributors.
#
data_1513814
loop_
_publ_author_name
'Cui, Jian'
'Jia, Qun'
'Feng, Ruo-Zhu'
'Liu, Shan-Shan'
'He, Tian'
'Zhang, Chi'
_publ_section_title
;
 Boron trifluoride etherate functioning as a fluorine source in an
 iodosobenzene-mediated intramolecular aminofluorination of homoallylic
 amines.
;
_journal_issue                   5
_journal_name_full               'Organic letters'
_journal_page_first              1442
_journal_page_last               1445
_journal_paper_doi               10.1021/ol500238k
_journal_volume                  16
_journal_year                    2014
_chemical_absolute_configuration ad
_chemical_formula_moiety         'C17 H18 F N O2 S'
_chemical_formula_sum            'C17 H18 F N O2 S'
_chemical_formula_weight         319.38
_chemical_name_systematic
; 
 ? 
;
_space_group_crystal_system      monoclinic
_space_group_IT_number           7
_space_group_name_Hall           'P -2yc'
_space_group_name_H-M_alt        'P 1 c 1'
_symmetry_space_group_name_Hall  'P -2yc'
_symmetry_space_group_name_H-M   'P 1 c 1'
_atom_sites_solution_hydrogens   geom
_atom_sites_solution_primary     direct
_atom_sites_solution_secondary   difmap
_audit_creation_method           SHELXL-2013
_cell_angle_alpha                90
_cell_angle_beta                 90.605(4)
_cell_angle_gamma                90
_cell_formula_units_Z            4
_cell_length_a                   6.1325(10)
_cell_length_b                   7.0271(12)
_cell_length_c                   34.947(4)
_cell_measurement_reflns_used    6204
_cell_measurement_temperature    113(2)
_cell_measurement_theta_max      31.30
_cell_measurement_theta_min      2.30
_cell_volume                     1505.9(4)
_computing_cell_refinement       'CrystalClear-SM Expert 2.0 r4'
_computing_data_collection
'CrystalClear-SM Expert 2.0 r4 (Rigaku, 2009)'
_computing_data_reduction        'CrystalClear-SM Expert 2.0 r4'
_computing_molecular_graphics    'CrystalStructure 4.0'
_computing_publication_material  'CrystalStructure 4.0 (Rigaku, 2009)'
_computing_structure_refinement  'SHELXL-2013 (Sheldrick, 2013)'
_computing_structure_solution    'SHELXS97 (Sheldrick, 1997)'
_diffrn_ambient_temperature      113(2)
_diffrn_detector_area_resol_mean 14.222
_diffrn_measured_fraction_theta_full 0.999
_diffrn_measured_fraction_theta_max 0.998
_diffrn_measurement_device_type  'Rigaku Saturn724 CCD'
_diffrn_measurement_method       \w
_diffrn_radiation_type           MoK\a
_diffrn_radiation_wavelength     0.71075
_diffrn_reflns_av_R_equivalents  0.0415
_diffrn_reflns_av_unetI/netI     0.0618
_diffrn_reflns_Laue_measured_fraction_full 0.999
_diffrn_reflns_Laue_measured_fraction_max 0.998
_diffrn_reflns_limit_h_max       8
_diffrn_reflns_limit_h_min       -8
_diffrn_reflns_limit_k_max       9
_diffrn_reflns_limit_k_min       -9
_diffrn_reflns_limit_l_max       40
_diffrn_reflns_limit_l_min       -46
_diffrn_reflns_number            14011
_diffrn_reflns_point_group_measured_fraction_full 0.816
_diffrn_reflns_point_group_measured_fraction_max 0.791
_diffrn_reflns_theta_full        25.242
_diffrn_reflns_theta_max         27.921
_diffrn_reflns_theta_min         2.331
_exptl_absorpt_coefficient_mu    0.232
_exptl_absorpt_correction_T_max  0.950
_exptl_absorpt_correction_T_min  0.812
_exptl_absorpt_correction_type   multi-scan
_exptl_absorpt_process_details   'Jacobson, R. (1998) Private communication'
_exptl_crystal_colour            colorless
_exptl_crystal_density_diffrn    1.409
_exptl_crystal_density_method    'not measured'
_exptl_crystal_description       prism
_exptl_crystal_F_000             672
_exptl_crystal_size_max          0.260
_exptl_crystal_size_mid          0.240
_exptl_crystal_size_min          0.220
_refine_diff_density_max         0.409
_refine_diff_density_min         -0.355
_refine_diff_density_rms         0.055
_refine_ls_abs_structure_details
; 
 Flack x determined using 1495 quotients [(I+)-(I-)]/[(I+)+(I-)] 
 (Parsons and Flack (2004), Acta Cryst. A60, s61). 
;
_refine_ls_abs_structure_Flack   0.03(5)
_refine_ls_extinction_method     none
_refine_ls_goodness_of_fit_ref   1.002
_refine_ls_hydrogen_treatment    constr
_refine_ls_matrix_type           full
_refine_ls_number_parameters     399
_refine_ls_number_reflns         5705
_refine_ls_number_restraints     2
_refine_ls_restrained_S_all      1.002
_refine_ls_R_factor_all          0.0446
_refine_ls_R_factor_gt           0.0400
_refine_ls_shift/su_max          0.000
_refine_ls_shift/su_mean         0.000
_refine_ls_structure_factor_coef Fsqd
_refine_ls_weighting_details
'w=1/[\s^2^(Fo^2^)+(0.0514P)^2^] where P=(Fo^2^+2Fc^2^)/3'
_refine_ls_weighting_scheme      calc
_refine_ls_wR_factor_gt          0.0972
_refine_ls_wR_factor_ref         0.1013
_reflns_Friedel_coverage         0.583
_reflns_Friedel_fraction_full    0.632
_reflns_Friedel_fraction_max     0.584
_reflns_number_gt                4986
_reflns_number_total             5705
_reflns_threshold_expression     'I > 2\s(I)'
_cod_data_source_file            ol500238k_si_004.cif
_cod_data_source_block           shelxl
_cod_database_code               1513814
#BEGIN Tags that were not found in dictionaries:
_shelx_space_group_comment
; 
The symmetry employed for this shelxl refinement is uniquely defined 
by the following loop, which should always be used as a source of 
symmetry information in preference to the above space-group names. 
They are only intended as comments. 
;
_shelx_estimated_absorpt_t_min   0.942
_shelx_estimated_absorpt_t_max   0.951
_shelxl_version_number           2013-3
_shelx_res_file
; 
TITL  _m130530c 
CELL  0.71075 6.13250 7.02710 34.94700 90.000 90.605 90.000 
ZERR  4 0.00100 0.00120 0.00400 0.000 0.004 0.000 
LATT -1 
SYMM    +X,    -Y, .50+Z 
SFAC C H N O F S 
UNIT 68 72 4 8 4 4 
SHEL 99999.000000 0.000000 
L.S. 5 
FMAP 2 
PLAN -5 
WPDB -2 
HTAB 
TEMP -160.0 
ACTA 
conf 
bond $h 
SIZE 0.260 0.240 0.220 
WGHT    0.051400 
FVAR       0.65729 
S1    6    0.231560    0.140441    0.389134    11.00000    0.02132    0.02336 = 
         0.01761   -0.00143    0.00246   -0.00499 
S2    6    0.352233    0.347590    0.201925    11.00000    0.01997    0.02450 = 
         0.01552   -0.00035    0.00319   -0.00228 
F1    5    0.209546   -0.233594    0.488586    11.00000    0.09184    0.04268 = 
         0.02858    0.00423   -0.01557   -0.01457 
F2    5    0.365976    0.734645    0.103584    11.00000    0.04987    0.03251 = 
         0.02631    0.00470   -0.01370   -0.00127 
N1    3    0.141089   -0.000969    0.421860    11.00000    0.02150    0.02183 = 
         0.01911    0.00302    0.00451    0.00556 
N2    3    0.435744    0.492242    0.169297    11.00000    0.02176    0.02276 = 
         0.01679    0.00021    0.00399    0.00350 
O1    4    0.465311    0.116338    0.388027    11.00000    0.02178    0.05030 = 
         0.02527   -0.00228    0.00136   -0.01013 
O2    4    0.142215    0.326054    0.396356    11.00000    0.04795    0.01866 = 
         0.02604   -0.00222    0.00426   -0.00181 
O3    4    0.446176    0.165634    0.193769    11.00000    0.03698    0.02208 = 
         0.02159   -0.00042    0.00548   -0.00331 
O4    4    0.121351    0.367933    0.203772    11.00000    0.01625    0.04761 = 
         0.02147   -0.00324    0.00096   -0.00464 
C1    1    0.211081   -0.201351    0.421964    11.00000    0.03396    0.02813 = 
         0.03140    0.00513    0.00548    0.01196 
AFIX  23 
H1A   2    0.370421   -0.212363    0.426243    11.00000   -1.20000 
H1B   2    0.171302   -0.265237    0.397626    11.00000   -1.20000 
AFIX   0 
C2    1    0.088161   -0.282273    0.454538    11.00000    0.05611    0.02770 = 
         0.02409    0.00706    0.00034   -0.00259 
AFIX  13 
H2    2    0.067380   -0.422848    0.451950    11.00000   -1.20000 
AFIX   0 
C3    1   -0.122423   -0.179010    0.454794    11.00000    0.04018    0.03864 = 
         0.03321   -0.00097    0.01136   -0.00602 
AFIX  23 
H3A   2   -0.182398   -0.175852    0.480977    11.00000   -1.20000 
H3B   2   -0.229490   -0.242282    0.437635    11.00000   -1.20000 
AFIX   0 
C4    1   -0.074212    0.027007    0.440475    11.00000    0.02350    0.03533 = 
         0.02446    0.00074    0.00362   -0.00053 
AFIX  13 
H4    2   -0.184753    0.062191    0.420458    11.00000   -1.20000 
AFIX   0 
C5    1   -0.073281    0.178479    0.471580    11.00000    0.03256    0.02204 = 
         0.01694    0.00285    0.01082   -0.00245 
C6    1    0.098927    0.208314    0.495905    11.00000    0.02840    0.03642 = 
         0.02463    0.00819   -0.00132   -0.00460 
AFIX  43 
H6    2    0.229864    0.138187    0.492648    11.00000   -1.20000 
AFIX   0 
C7    1    0.084798    0.338456    0.524985    11.00000    0.04138    0.03770 = 
         0.02621    0.00943   -0.00138   -0.00847 
AFIX  43 
H7    2    0.205538    0.358458    0.541759    11.00000   -1.20000 
AFIX   0 
C8    1   -0.106946    0.441257    0.529876    11.00000    0.05984    0.02523 = 
         0.02116   -0.00088    0.01228   -0.00838 
AFIX  43 
H8    2   -0.116488    0.530326    0.550239    11.00000   -1.20000 
AFIX   0 
C9    1   -0.280443    0.416102    0.505980    11.00000    0.03653    0.02450 = 
         0.03207    0.00200    0.01393    0.00089 
AFIX  43 
H9    2   -0.410581    0.487028    0.509497    11.00000   -1.20000 
AFIX   0 
C10   1   -0.265096    0.283150    0.475817    11.00000    0.03397    0.03298 = 
         0.02302    0.00596    0.00117   -0.00639 
AFIX  43 
H10   2   -0.384113    0.265104    0.458576    11.00000   -1.20000 
AFIX   0 
C11   1    0.131863    0.058286    0.344251    11.00000    0.02185    0.01648 = 
         0.01525   -0.00009    0.00100   -0.00144 
C12   1    0.271301    0.064574    0.313218    11.00000    0.01478    0.02273 = 
         0.02407   -0.00038    0.00295   -0.00390 
AFIX  43 
H12   2    0.417117    0.107941    0.316365    11.00000   -1.20000 
AFIX   0 
C13   1    0.194594    0.006464    0.277408    11.00000    0.02640    0.02374 = 
         0.01823   -0.00052    0.00584   -0.00175 
AFIX  43 
H13   2    0.289594    0.010074    0.256123    11.00000   -1.20000 
AFIX   0 
C14   1   -0.018301   -0.056628    0.272298    11.00000    0.02296    0.01754 = 
         0.02103    0.00105   -0.00243    0.00105 
C15   1   -0.153876   -0.064527    0.303980    11.00000    0.01914    0.02236 = 
         0.02908   -0.00216    0.00006   -0.00120 
AFIX  43 
H15   2   -0.298541   -0.111088    0.301076    11.00000   -1.20000 
AFIX   0 
C16   1   -0.080577   -0.005410    0.339648    11.00000    0.01985    0.02700 = 
         0.02172   -0.00155    0.00532   -0.00180 
AFIX  43 
H16   2   -0.175728   -0.008516    0.360915    11.00000   -1.20000 
AFIX   0 
C17   1   -0.102009   -0.115745    0.233316    11.00000    0.03333    0.03160 = 
         0.02034   -0.00387   -0.00346    0.00590 
AFIX 137 
H17A  2   -0.106766   -0.254940    0.231797    11.00000   -1.50000 
H17B  2   -0.004653   -0.066362    0.213598    11.00000   -1.50000 
H17C  2   -0.248971   -0.064324    0.229238    11.00000   -1.50000 
AFIX   0 
C18   1    0.361614    0.693022    0.170664    11.00000    0.02683    0.02376 = 
         0.02508    0.00029    0.00307    0.00462 
AFIX  23 
H18A  2    0.404558    0.754543    0.195089    11.00000   -1.20000 
H18B  2    0.201538    0.702555    0.167227    11.00000   -1.20000 
AFIX   0 
C19   1    0.480384    0.779736    0.137241    11.00000    0.03480    0.02236 = 
         0.01890   -0.00254   -0.00252   -0.00041 
AFIX  13 
H19   2    0.498096    0.920378    0.140336    11.00000   -1.20000 
AFIX   0 
C20   1    0.698015    0.679083    0.137346    11.00000    0.03098    0.02267 = 
         0.02080   -0.00266    0.00511   -0.00384 
AFIX  23 
H20A  2    0.803749    0.746899    0.154045    11.00000   -1.20000 
H20B  2    0.757315    0.673580    0.111131    11.00000   -1.20000 
AFIX   0 
C21   1    0.656116    0.475721    0.152744    11.00000    0.01888    0.02224 = 
         0.01527   -0.00160    0.00093    0.00208 
AFIX  13 
H21   2    0.763870    0.446855    0.173622    11.00000   -1.20000 
AFIX   0 
C22   1    0.670814    0.323941    0.122052    11.00000    0.02635    0.01909 = 
         0.01319    0.00251    0.00351   -0.00108 
C23   1    0.500777    0.291531    0.096079    11.00000    0.03111    0.02001 = 
         0.02264    0.00298    0.00247    0.00168 
AFIX  43 
H23   2    0.368120    0.360437    0.098105    11.00000   -1.20000 
AFIX   0 
C24   1    0.526693    0.157598    0.067175    11.00000    0.04052    0.03021 = 
         0.01619    0.00233    0.00032   -0.00456 
AFIX  43 
H24   2    0.410908    0.135916    0.049433    11.00000   -1.20000 
AFIX   0 
C25   1    0.717100    0.056173    0.063879    11.00000    0.04433    0.02440 = 
         0.02125   -0.00190    0.01453   -0.00323 
AFIX  43 
H25   2    0.731835   -0.035067    0.044014    11.00000   -1.20000 
AFIX   0 
C26   1    0.887893    0.086692    0.089493    11.00000    0.02992    0.02930 = 
         0.03000    0.00412    0.00974    0.00316 
AFIX  43 
H26   2    1.019862    0.016992    0.087224    11.00000   -1.20000 
AFIX   0 
C27   1    0.864216    0.220083    0.118490    11.00000    0.02142    0.02649 = 
         0.02847    0.00305    0.00502    0.00141 
AFIX  43 
H27   2    0.980745    0.241049    0.136116    11.00000   -1.20000 
AFIX   0 
C28   1    0.455326    0.421400    0.246750    11.00000    0.02041    0.02061 = 
         0.01859    0.00253    0.00319   -0.00068 
C29   1    0.666001    0.371943    0.258311    11.00000    0.02013    0.02186 = 
         0.02448    0.00406    0.00674   -0.00109 
AFIX  43 
H29   2    0.760755    0.307868    0.241266    11.00000   -1.20000 
AFIX   0 
C30   1    0.735508    0.417924    0.295252    11.00000    0.01698    0.02618 = 
         0.02863    0.00791   -0.00223   -0.00361 
AFIX  43 
H30   2    0.880008    0.387063    0.303107    11.00000   -1.20000 
AFIX   0 
C31   1    0.596587    0.508726    0.321031    11.00000    0.03477    0.02427 = 
         0.01791    0.00303    0.00208   -0.00729 
C32   1    0.389171    0.558375    0.308332    11.00000    0.03097    0.02175 = 
         0.02383   -0.00451    0.00714   -0.00001 
AFIX  43 
H32   2    0.294193    0.622898    0.325270    11.00000   -1.20000 
AFIX   0 
C33   1    0.317476    0.516688    0.271898    11.00000    0.02169    0.02027 = 
         0.02530   -0.00079    0.00230    0.00050 
AFIX  43 
H33   2    0.174825    0.552508    0.263853    11.00000   -1.20000 
AFIX   0 
C34   1    0.672713    0.548950    0.361601    11.00000    0.04004    0.04068 = 
         0.02699    0.00220   -0.00409   -0.01281 
AFIX 137 
H34A  2    0.615216    0.672190    0.369891    11.00000   -1.50000 
H34B  2    0.832446    0.552023    0.362533    11.00000   -1.50000 
H34C  2    0.619733    0.448664    0.378629    11.00000   -1.50000 
AFIX   0 
HKLF 4 
  
REM   _m130530c 
REM R1 =  0.0400 for    4986 Fo > 4sig(Fo)  and  0.0446 for all    5705 data 
REM    399 parameters refined using      2 restraints 
  
END 
  
WGHT      0.0514      0.0000 
  
REM Instructions for potential hydrogen bonds 
EQIV $1 x-1, y, z 
HTAB C4 O1_$1 
HTAB C16 O1_$1 
EQIV $2 x, y+1, z 
HTAB C19 O3_$2 
EQIV $3 x+1, y, z 
HTAB C21 O4_$3 
HTAB C29 O4_$3 
  
REM Highest difference peak  0.409,  deepest hole -0.355,  1-sigma level  0.055 
Q1    1  -0.1946 -0.2797  0.4419  11.00000  0.05    0.41 
Q2    1   0.1543  0.0177  0.4620  11.00000  0.05    0.38 
Q3    1  -0.1318 -0.3450  0.4195  11.00000  0.05    0.37 
Q4    1  -0.2017  0.2142  0.4585  11.00000  0.05    0.29 
Q5    1   0.0837 -0.1624  0.4797  11.00000  0.05    0.29 
;
_shelx_res_checksum              17571
_shelx_hkl_file
; 
   0   0  -3   -0.40    2.12 
   0   0  -3   -0.20    8.30 
   0   0   3    0.45    0.90 
   0   0   3    0.65    0.44 
   0   0  -4  812.85   11.04 
   0   0  -4  809.18   10.91 
   0   0  -4  733.00   10.44 
   0   0   4  796.36   11.23 
   0   0  -4  772.05   10.52 
   0   0   4  774.51   10.65 
   0  -1   0    8.36    1.23 
   0   1   0    9.32    1.15 
   0  -1   0    7.32    0.91 
   0   1   0    7.68    0.89 
   0   1   0    7.69    1.00 
   0   0  -5    0.97    0.97 
   0   0   5    1.09    1.89 
   0   0  -5    0.07    0.24 
   0   0  -5    0.13    1.32 
   0   0  -5    0.34    0.30 
   0   0   5    0.34    0.28 
   0   1  -1 1316.62   17.85 
   0  -1  -1 1257.39   16.86 
   0   1   1 1345.28   18.00 
   0   1  -1 1268.69   16.64 
   0   1   1 1248.90   16.94 
   0  -1  -1 1376.28   18.62 
   0  -1   1 1398.21   18.83 
   0   1  -1 1343.05   18.02 
   0  -1   1 1348.41   18.22 
   0   1   1 1276.51   16.82 
   0   1  -2 3270.19   43.08 
   0  -1   2 3188.45   42.12 
   0  -1  -2 3190.21   41.69 
   0   1   2 3297.54   43.02 
   0   1  -2 3264.62   42.48 
   0  -1  -2 3035.36   40.33 
   0   1   2 3432.19   45.14 
   0  -1   2 3217.03   42.07 
   0   1  -2 3320.30   43.36 
   0   1   2 3133.15   40.86 
   0  -1  -2 3347.71   43.64 
   1   0   0  786.73   11.61 
   1   0   0  819.07   11.70 
  -1   0   0  847.01   12.46 
  -1   0   0  756.89   11.17 
   1   0  -1    0.09    0.55 
  -1   0   1   -0.17    0.80 
   1   0  -1    0.98    0.31 
  -1   0  -1    0.40    0.62 
   1   0   1    0.45    0.76 
   1   0   1    0.15    0.30 
  -1   0  -1    0.53    0.53 
   0   1   3   36.86    3.37 
   0  -1  -3   34.03    3.11 
   0  -1   3   33.95    3.23 
   0  -1  -3   34.65    3.31 
   0   1  -3   34.37    3.19 
   0  -1   3   30.70    2.88 
   0  -1  -3   33.89    3.20 
   0   1   3   33.69    3.17 
   0   1   3   33.23    3.16 
   0   1  -3   32.81    3.33 
   0   0  -6  329.82    6.12 
   0   0  -6  252.28    4.61 
   0   0   6  311.26    5.31 
   0   0  -6  332.46    5.19 
   0   0  -6  336.26    5.11 
   0   0   6  328.76    5.37 
   1   0  -2 1548.22   21.15 
  -1   0   2 1472.04   20.25 
   0  -1  -4  587.84    8.78 
   0   1   4  596.89    8.71 
   0  -1  -4  579.48    7.84 
   0   1  -4  624.60    9.58 
   0   1   4  580.43    7.87 
   0  -1  -4  621.27    9.17 
   0   1  -4  602.70    8.69 
   0  -1   4  435.30    6.79 
   0  -1   4  616.27    8.88 
   0   1   4  632.38    9.52 
   1   0  -3    0.53    0.32 
  -1   0   3    2.15    1.06 
   1   0   3    1.38    0.73 
  -1   0  -3    0.05    0.50 
  -1   0  -3   -0.03    0.97 
   1   0   3    0.43    0.60 
  -1   0   4   30.95    2.95 
   1   0  -4   29.01    2.82 
  -1   0   4   32.59    3.19 
   1   0  -4   25.19    2.62 
   1   0  -4   30.86    3.34 
   1   0   4 7607.20   99.75 
   0   0   7   -0.08    1.20 
   0   0  -7    1.07    2.14 
   0   0  -7    0.19    0.58 
   0   0  -7    0.72    0.37 
   0   0  -7    0.34    0.38 
   0   0   7    0.88    0.70 
  -1   0  -4 7753.10  102.78 
   1   0   4 6867.94   89.47 
   0   1  -5  417.15    8.28 
   0  -1  -5  400.43    5.49 
   0   1   5  384.60    5.34 
   0  -1  -5  426.18    7.38 
   0  -1   5  396.24    6.36 
   0  -1  -5  416.17    6.79 
   0   1   5  390.82    6.21 
   0   1  -5  410.48    6.46 
   0  -1   5  416.96    6.44 
   0   1   5  399.97    6.46 
  -1   0   5    0.23    0.20 
  -1   0   5    0.12    0.82 
   1   0  -5    0.80    0.41 
   1   0  -5    0.35    0.45 
   1   0  -5    1.06    0.52 
  -1  -1   0 3606.09   49.49 
   1   1   0 3712.82   49.31 
   1   1   0 3755.47   53.22 
   1  -1   0 3670.02   48.74 
  -1  -1   0 4172.82   57.90 
  -1   1   0 3766.10   49.95 
   1  -1   0 3803.17   50.43 
   1   1   0 3233.50   43.39 
   1  -1   0 3807.94   50.25 
  -1   0  -5    0.64    0.75 
  -1  -1   1  127.63   11.63 
   1   1  -1  124.58   11.31 
   1   0   5    0.30    0.86 
   1  -1  -1  123.82   11.26 
   1   1  -1  140.53   12.82 
   1  -1  -1  114.05   10.34 
   1  -1  -1  134.47   12.56 
  -1   0  -5    0.29    0.51 
   1   0   5    0.07    0.59 
  -1   1   1  122.53   11.14 
   1  -1   1  810.25   11.94 
  -1   1  -1  677.57   10.31 
  -1  -1  -1  736.30   11.31 
  -1   1  -1  741.32   10.78 
   1   1   1  747.66   11.47 
   1  -1   1  732.03   10.80 
   1   1   1  766.65   11.45 
   1   1   1  761.59   10.97 
  -1  -1  -1  751.87   11.14 
   0   1   6 2050.82   26.72 
   0  -1  -6 2195.32   30.12 
   0  -1   6 2268.65   30.62 
   0  -1   6 2112.07   28.62 
   0   1   6 2090.09   28.38 
   0   1  -6 2136.77   33.74 
   0   1  -6 2095.02   28.75 
   0   1   6 2107.97   28.75 
   0  -1  -6 2031.28   27.68 
   0  -1  -6 2024.55   26.35 
   1  -1  -2 4765.58   62.93 
  -1   1   2 4643.98   61.30 
   1  -1  -2 4544.11   59.87 
  -1  -1   2 4844.31   68.82 
  -1   1   2 4674.56   61.61 
   1   1  -2 4934.56   65.46 
   1   1   2    7.09    3.23 
   1   1   2   14.35    1.55 
  -1   1  -2   13.87    1.66 
   1  -1   2   16.52    2.62 
  -1  -1  -2   14.56    1.73 
  -1  -1  -2   17.43    1.82 
  -1   1  -2   15.25    1.66 
   1  -1   2   14.11    1.59 
   1   1   2   15.69    2.05 
   0   0  -8   11.36    1.83 
   0   0   8   16.75    1.88 
   0   0  -8   17.39    2.39 
   0   0  -8   16.95    1.79 
   0   0   8   15.62    1.70 
   0   0  -8   14.17    1.53 
   1  -1  -3  644.93    9.53 
   1  -1  -3  699.82   10.68 
  -1   1   3  689.52   10.49 
   1  -1  -3  661.00    9.84 
   1   1  -3  674.60   10.50 
  -1  -1   3  701.49   10.85 
  -1   1   3  645.22    9.73 
  -1  -1  -3 1043.34   15.04 
   1   1   3 1048.15   14.47 
  -1   1  -3 1116.59   16.05 
   1  -1   3 1078.01   15.36 
   1   1   3 1038.17   14.54 
  -1  -1  -3 1104.52   16.23 
  -1   1  -3 1024.43   14.75 
   1   1   3 1120.71   16.48 
   1  -1   3 1057.21   15.02 
  -1   0   6 1098.23   15.14 
   1   0  -6 1185.53   16.26 
  -1   0   6 1249.17   17.57 
   1   0  -6 1140.30   16.57 
  -1   0   6 1159.38   16.64 
   1   0  -6 1313.73   18.73 
  -1   0  -6 3398.06   46.05 
   1   0   6 3465.05   46.69 
   1   0   6 2992.92   39.90 
  -1   0  -6 3805.70   50.18 
  -1   1   4  599.93    9.24 
   1  -1  -4  572.83    8.90 
   1  -1  -4  573.71    9.11 
  -1   1   4  569.47    9.29 
   1  -1  -4  586.30    8.95 
   1   1  -4  577.65    9.64 
  -1  -1   4  598.53    9.79 
   0   1   7 3618.29   46.95 
   0   1  -7 4122.85   59.63 
   1  -1   4  279.64    5.01 
   1   1   4  276.47    8.00 
   0  -1   7 3948.60   53.33 
   1  -1   4  326.40    5.70 
  -1  -1  -4  258.55    5.42 
  -1   1  -4  282.82    5.14 
   1   1   4  293.14    5.99 
   0   1   7 3828.99   52.00 
   0  -1  -7 3816.90   51.27 
  -1  -1  -4  307.47    5.38 
   1   1   4  264.57    4.36 
  -1   1  -4  248.56    4.71 
   0  -1   7 3653.64   49.09 
   0  -1  -7 3973.63   52.83 
   0   1   7 3710.26   49.50 
   0   1  -7 4082.41   55.03 
  -1   0   7    0.13    0.81 
  -1   0   7    3.33    1.53 
   1   0  -7    0.65    0.33 
  -1   0   7   -0.68    0.98 
   1   0  -7    0.38    0.46 
   1   0  -7    1.29    2.14 
   0   0   9   -0.39    1.79 
   0   0   9   -1.95    4.54 
   0   0  -9   -0.12   25.68 
   0   0  -9   -0.17    2.02 
   0   0  -9    0.42    0.29 
   0   0  -9    0.34    0.27 
   1   1  -5 9832.27  261.62 
  -1   1   5 9580.31  124.86 
   1  -1  -510018.02  264.87 
  -1   1   5 9403.12  122.46 
   1  -1  -5 9461.68  123.27 
   1  -1  -5 9935.86  262.71 
   1   1  -510194.27  269.51 
  -1  -1   510022.58  266.16 
  -1   1   5 9764.68  129.60 
   1   0   7    0.04    0.77 
  -1   0  -7    0.56    1.95 
   1   0   7    0.03    0.82 
  -1   0  -7    0.34    0.61 
   1  -1   5  409.25    6.84 
  -1  -1  -5  412.69    7.47 
   1   1   5  405.80    7.41 
   1  -1   5  457.54    7.50 
   1   1   5  453.48    6.67 
  -1   1  -5  413.53    7.19 
  -1  -1  -5  449.73    6.73 
  -1   1  -5  477.31    7.86 
   1   1   5  458.27    8.13 
   0   1  -8  505.27   14.91 
   0  -1  -8  512.91   21.94 
   0  -1  -8  505.06    6.91 
   0   1   8  474.63    6.51 
   0  -1   8  437.78   19.21 
   0  -1  -8  523.53   10.16 
   0  -1   8  502.83    8.31 
   0   1  -8  495.16   77.57 
   0   1   8  487.33   32.38 
   0   1   8  491.45   29.32 
   1  -1  -6 2511.61   34.19 
  -1   1   6 2379.34   32.50 
   1   1  -6 2480.43   36.85 
   1   1  -6 2407.71   33.17 
  -1   1   6 2487.31   33.80 
   1  -1  -6 2640.09   36.05 
  -1   1   6 2393.22   32.35 
   1  -1  -6 2543.65   34.23 
  -1  -1   6 2440.46   34.57 
  -1   1  -6  604.05    9.50 
  -1  -1  -6  604.24    8.79 
  -1  -1  -6  549.38    9.34 
  -1   1  -6  554.13    8.98 
   1  -1   6  609.56    9.49 
   1  -1   6  577.36    9.26 
   1   1   6  557.52   10.61 
   1   1   6  534.25    7.70 
   1   1   6  556.43    9.69 
   1   0  -8  569.21    8.51 
   1   0  -8  613.64   10.75 
  -1   0   8  566.02    9.31 
  -1   0   8  558.14    8.35 
   1   0  -8  579.77   10.30 
  -1   0   8  602.54    9.45 
  -1   0  -8  678.23   10.01 
   1   0   8  715.66   11.59 
   1   0   8  676.31    9.89 
  -1   0  -8  697.18   12.32 
   0   2   0   38.65    3.72 
   0  -2   0   -0.07    0.99 
   0  -2   0    1.69    0.74 
   0   2   0    0.52    0.23 
   0   2   0    1.54    0.70 
   0  -2  -1  109.36   10.23 
   0  -2   1  107.80    9.93 
   0   0 -10 2405.09   33.50 
   0   2   1  117.57   10.82 
   0   2  -1  102.70    9.45 
   0  -2   1  112.65   10.29 
   0  -2  -1  109.81   10.01 
   0  -2  -1  116.08   10.43 
   0   2  -1  110.92    9.98 
   0   2   1  112.21   10.08 
   0   2  -1  108.75    9.80 
   0   0 -10 1993.42   28.37 
   0   0  10 2681.47   36.79 
   0   2   1  110.13   10.12 
   0   2  -1  105.19    9.63 
   0   0  10 2589.30   34.87 
   0   0 -10 2602.52   34.68 
   0   0 -10 2620.36   36.98 
   0   2  -2 5436.79   72.28 
   0   2   2 4944.80   65.03 
   0  -2  -2 4802.44   62.66 
   0  -2  -2 5171.97   67.93 
   0  -2  -2 4899.72   65.40 
   0  -2   2 5496.07   72.54 
   0  -2   2 4744.12   62.94 
   0   2  -2 4808.97   62.45 
   0   2   2 4827.08   62.89 
   0   2  -2 5032.94   66.23 
   0   2   2 5241.75   69.37 
  -1  -1   7   42.96    4.98 
  -1   1   7   47.87    4.65 
   1   1  -7   54.65    5.34 
  -1   1   7   46.35    4.52 
  -1   1   7   47.99    4.60 
  -1  -1   7   54.80    5.55 
   1   1  -7   71.34   29.32 
   1  -1  -7   59.23    5.82 
  -1  -1   7   47.42    4.28 
   1  -1  -7   49.17    5.27 
   1   1  -7   54.86    4.93 
   1  -1  -7   48.65    4.63 
   0  -1   9 1971.53   27.15 
   0  -1   9 1902.73   26.90 
   0   1  -9 2005.13   28.11 
   0  -1  -9 2034.10   26.65 
   0   1   9 2045.58   28.50 
   0   1  -9 2074.72   29.08 
   0   1   9 1918.55   26.98 
   0  -1  -9 1933.42   33.72 
   0   1   9 2020.07   26.52 
   0  -1  -9 2042.82   28.85 
  -1  -1  -7 1141.58   15.47 
   1  -1   7 1117.37   16.36 
   1   1   7 1132.49   16.89 
   1  -1   7 1191.26   17.15 
   1   1   7 1177.19   24.72 
  -1   1  -7 1299.14   18.58 
  -1  -1  -7 1156.52   17.40 
  -1   1  -7 1156.85   17.02 
   1   1   7 1218.59   16.44 
   0  -2   3 5452.15   71.60 
   0   2   3 5462.57   72.22 
   0   2   3 5112.29   68.36 
   0   2  -3 5159.12   67.95 
   0  -2   3 5218.13   87.73 
   0   2   3 5278.09   68.85 
   0   2  -3 5055.78   65.81 
   0  -2  -3 5963.97   78.72 
   0   2  -3 5839.88  110.73 
   0  -2  -3 5370.48   70.54 
   0  -2  -3 5339.59   69.74 
   1   0  -9    0.72    0.45 
  -1   0   9    3.58    1.45 
   1   0  -9    0.38    0.76 
  -1   0   9    0.55    1.19 
  -1   0   9    0.55    0.67 
   1   0  -9    0.43    0.45 
  -1   0  -9    2.11    2.00 
  -1   0  -9    1.72    2.71 
   1   0   9    3.61    1.84 
   1   0   9    0.28    0.68 
   0   2  -4 3666.17   60.50 
   0  -2  -4 3174.82   42.21 
   0  -2  -4 3264.54   43.97 
   0   2   4 3370.39   44.51 
   0  -2   4 3132.05   41.23 
   0  -2  -4 3551.60   47.81 
   0   2   4 3314.49   45.14 
   0  -2   4 3585.50   48.31 
   0  -2   4 3038.84   40.51 
   0   2  -4 3262.63   42.93 
   0   2   4 3293.19   43.51 
  -1  -1   8 2490.30   32.46 
   1  -1  -8 2603.64   35.79 
   1   1  -8 2632.61   36.55 
  -1  -1   8 2665.16   37.03 
   1   1  -8 2657.87   36.81 
  -1  -1   8 2370.60   32.76 
   1  -1  -8 2528.27   34.62 
   1   1  -8 2557.81   33.53 
   1  -1  -8 2546.17   34.76 
  -1   1   8 2550.45   34.91 
  -1   1   8 2433.79   32.86 
  -1   1   8 2472.57   35.20 
   0   0 -11    0.44    0.42 
   0   0  11   -0.41    9.59 
   0   0  11   -0.13    5.57 
   0   0 -11    1.05    1.21 
   0   0 -11   -4.68   30.91 
  -1  -1  -8 1081.04   14.67 
   1   1   8 1032.87   14.05 
   1  -1   8 1025.62   15.42 
  -1   1  -8 1090.13   17.05 
   1   1   8  997.40   15.56 
   1  -1   8 1137.91   16.52 
  -1  -1  -8 1077.25   16.50 
  -1   1  -8 1007.70   14.91 
   1   1   8 1064.94   16.23 
   0  -2   5  475.14    8.15 
   0   2  -5  443.70   63.06 
   0  -2  -5  447.45    6.74 
   0  -2   5  397.98    6.52 
   0   2   5  467.75    7.03 
   0   2  -5  452.58    7.10 
   0  -2  -5  408.75    6.70 
   0  -2  -5  451.66    8.22 
   0   2   5  447.32    7.15 
   0   2   5  450.60    8.38 
   0  -2   5  500.39    8.06 
   0   1 -10   75.75   24.64 
   0  -1 -10   63.09    5.71 
   0   1 -10   64.53   31.20 
   0  -1 -10   76.43   39.15 
   0  -1 -10   61.28    5.95 
   0   1  10   58.28    5.29 
   0   1 -10   61.40   31.55 
   0  -1  10   82.52   29.93 
   0   1  10   67.19   12.67 
   0   1  10   63.98   21.52 
  -2   0   0  943.64   15.54 
   2   0   0  966.96   14.73 
  -2   0   0 1028.98   15.72 
   2   0   0 1093.09   16.98 
   2   0  -1    1.85    0.77 
  -2   0   1    1.51    0.91 
   2   0  -1    0.53    0.92 
   1   0 -10 2703.58   37.35 
   2   0   1    0.42    0.66 
  -2   0  -1    2.81    1.46 
   2   0   1    0.95    0.57 
   1   0 -10 2644.24   37.23 
  -1   0  10 2608.79   36.76 
   1   0 -10 2560.74   34.52 
  -1   0  10 2550.86   34.45 
  -2   0  -1    1.07    0.73 
  -1   0  10 2789.67   37.84 
  -1  -2   0  788.88   12.46 
   1  -2   0  770.73   12.19 
   1   2   0  920.84   13.83 
   1  -2   0  767.73   10.73 
  -1  -2   0  876.47   13.25 
   1   2   0  812.81   11.83 
   1   2   0  811.89   17.97 
  -1   2   0  818.25   12.51 
  -1   2   0  827.96   13.02 
   1  -2   0  807.55   13.31 
   1  -2  -1  971.76   14.37 
  -1   2   1 1031.95   15.44 
   1  -2  -1 1134.50   17.66 
  -1  -2   1  984.26   17.07 
   1   2  -1  992.11   14.14 
   1  -2  -1  960.31   13.10 
  -1  -2   1 1015.67   27.90 
   1  -2  -1  993.20   13.69 
   1   2  -1 1010.09   35.27 
   1   2  -1  985.87   14.66 
  -1   2   1 1007.85   15.58 
  -1  -2  -1 1485.28   24.31 
   1   2   1 1500.48   21.15 
  -1  -2  -1 1443.41   21.10 
   1   2   1 1460.22   20.34 
  -1  -2  -1 1462.65   21.02 
   1  -2   1 1502.49   22.22 
   1   2   1 1563.22   22.17 
   1  -2   1 1360.52   18.36 
   1  -2   1 1306.49   18.81 
  -1   2  -1 1418.02   20.39 
   2   0  -2 1534.78   22.44 
  -2   0   2 1506.00   21.94 
   2   0  -2 1529.63   22.51 
  -1   0 -10 7074.84   94.00 
   1   0  10 6271.54   82.34 
  -1   0 -10 5926.29   77.78 
   1   0  10 6597.46   87.64 
  -2   0  -2 4329.55   59.88 
   2   0   2 4221.03   57.84 
  -2   0  -2 4708.89   63.04 
   2   0   2 4501.15   61.08 
   0   2  -6  129.16   12.41 
   0   2   6  132.20   12.59 
   0  -2  -6  127.28   11.51 
   0  -2   6  115.71   10.88 
   0  -2  -6  116.45   10.91 
   0   2   6  135.30   12.32 
   0  -2   6  115.25   10.48 
   0   2  -6  111.90   10.21 
   0   2   6  123.57   11.14 
   0  -2  -6  136.87   12.47 
   0  -2   6  138.89   12.58 
   1  -2  -2 1274.87   17.27 
   1   2  -2 1325.39   18.25 
   1   2  -2 1235.00   18.55 
   1   2  -2 1307.08   19.34 
   1  -2  -2 1319.55   18.93 
  -1  -2   2 1270.12   31.87 
  -1   2   2 1241.11   18.15 
  -1  -2   2 1264.29   18.49 
   1  -2  -2 1237.08   18.36 
  -1   2   2 1221.00   18.51 
   1  -2   2   36.29    4.73 
  -1  -2  -2   41.70   17.25 
  -1  -2  -2   33.69    3.44 
   1   2   2   31.36    3.28 
  -1  -2  -2   15.90    6.45 
   1  -2   2   31.98    3.04 
   1   2   2   35.04    3.43 
  -1   2  -2   29.92    3.14 
   1  -2   2   28.51    2.95 
  -1   2  -2   32.18    3.17 
   1   2   2   33.61    3.37 
  -1   1   9  450.30    8.25 
  -1  -1   9  498.99    8.79 
   1   1  -9  487.99    7.01 
   1  -1  -9  493.43    8.57 
  -1  -1   9  442.12    6.25 
   1  -1  -9  442.66    8.24 
   1   1  -9  438.60    7.93 
  -1   1   9  454.62    8.09 
   1  -1  -9  439.50    8.02 
  -1  -1   9  480.23    8.87 
  -1   1   9  453.18    7.56 
   1   1  -9  428.10   25.45 
   2   0  -3    0.59    0.84 
  -2   0   3    0.35    0.60 
  -1  -1  -9  187.76   17.20 
   1   1   9  165.19   15.22 
  -1  -1  -9  216.00    3.49 
   1   1   9  180.86   16.57 
  -1   1  -9  193.62   17.68 
   1  -1   9  205.08    4.27 
   1  -1   9  179.15   16.66 
   1   1   9  211.89    3.37 
  -1   1  -9  197.42    6.33 
   2   0   3    1.21    1.06 
  -2   0  -3    0.19    0.73 
   2   0   3    0.19    0.92 
  -2   0  -3    0.67    1.05 
   1  -2  -3  547.59    8.73 
   1  -2  -3  519.88    7.69 
  -1  -2   3  510.73    8.91 
   1   2  -3  581.32    8.48 
  -1   2   3  544.83    9.06 
   1  -2  -3  574.55   10.16 
   1   2  -3  539.93   10.72 
  -1   2   3  547.33    9.70 
  -1  -2   3  529.02   39.08 
   1   2   3  706.74   10.79 
   1  -2   3  701.13   11.17 
  -1  -2  -3  748.54   12.57 
   1  -2   3  665.57    9.81 
   1   2   3  723.04   11.11 
   1  -2   3  688.07   10.90 
   1   2   3  746.66   11.62 
  -1  -2  -3  735.42   23.28 
  -1   2  -3  729.13   11.52 
  -1   2  -3  723.89   10.56 
  -1  -2  -3  730.34   11.60 
   0   0  12  322.66    5.91 
   0   0  12  324.90    6.64 
   0   0 -12  323.52    5.64 
   0   0 -12  340.53    5.80 
   0   0 -12  264.73    6.28 
   2   0  -4    6.43    2.64 
  -2   0   4   10.22    4.27 
   0   1  11 1764.00   25.27 
   0   1 -11 1690.17   24.82 
   0   1  11 1674.18   22.63 
   0   1 -11 1767.58   27.28 
   0  -1 -11 1567.52   20.84 
   0   1 -11 1740.03   24.67 
   0  -1 -11 1674.51   24.43 
   0   1  11 1682.27   24.23 
   0  -1  11 1699.15   26.38 
   0  -1 -11 1670.70   24.00 
  -1   2   4  212.05    5.59 
   1   2  -4  202.65    3.33 
  -1  -2   4  177.53   22.28 
   1   2  -4  159.20   16.34 
  -1   2   4  200.10    4.22 
   1  -2  -4  190.34   17.23 
   1  -2  -4  200.02    4.03 
  -1  -2   4  188.63   18.11 
  -2   0  -4   75.92    7.20 
   2   0   4   74.34    6.96 
   1  -2  -4  210.73    4.99 
   2   0   4   71.77    7.87 
  -2   0  -4   70.59    6.84 
   0   2   7  139.06   13.35 
  -1   2  -4  635.92   10.41 
  -1  -2  -4  551.78    9.48 
   0   2  -7  146.51   13.35 
   1  -2   4  540.59    9.05 
   0  -2  -7  139.75   12.56 
   0   2  -7   94.07    9.86 
   0  -2   7  132.18   12.25 
   0  -2  -7  140.28   12.81 
   0   2   7  137.04   12.77 
   1   2   4  577.04    8.71 
   0   2   7  128.33   11.55 
   0  -2  -7  137.06   12.63 
   1   2   4  561.31   11.51 
   1  -2   4  547.87    8.28 
  -1  -2  -4  597.86   24.90 
  -1   2  -4  568.76    8.59 
   1   2   4  565.35    9.41 
   0  -2   7  153.26   13.93 
  -1  -2  -4  577.69   11.93 
  -1   0  11    3.16    1.54 
  -1   0  11    0.61    0.88 
   1   0 -11    0.46    0.59 
   1   0 -11    1.67    1.09 
  -1   0  11    0.58    0.43 
   1   0 -11    0.60    0.45 
   2   0  -5    1.28    0.60 
   2   0  -5    0.53    0.30 
  -2   0   5    0.66    1.32 
   2   1   0  332.21    6.31 
  -2  -1   0  297.27    6.70 
   2  -1   0  329.65    6.44 
   2   1   0  321.95    6.94 
  -2  -1   0  326.93    6.39 
   2  -1   0  294.65    6.11 
  -2   1   0  292.29    6.16 
   1   0  11   -0.49    1.57 
   1   0  11   -0.12    0.78 
  -1   0 -11    1.00    1.12 
  -1   0 -11    0.29    0.50 
  -2   1   1  227.75    5.24 
   2   1  -1  201.08    4.50 
   2  -1  -1  209.49    6.00 
   2   1  -1  186.87   17.18 
  -2  -1   1  213.42    4.75 
   2  -1  -1  189.82   17.69 
   1  -2  -5 1275.25   20.06 
   1   2  -5 1181.61   17.20 
  -1   2   5 1100.93   15.46 
  -1  -2   5 1234.10   23.12 
   1   2  -5 1255.87   16.76 
   1  -2  -5 1140.26   16.44 
   1  -2  -5 1191.48   16.77 
   1   2  -5 1104.06   29.10 
  -1   2   5  977.17   15.09 
  -1   2   5 1191.55   17.19 
  -1  -2   5 1131.52   16.52 
  -2   1  -1   65.78    6.40 
  -1  -1  10   53.41    5.79 
   1   1 -10   25.70   11.25 
  -2  -1  -1   64.08    8.02 
   2  -1   1   39.53    4.02 
  -2   1  -1   60.80    6.02 
   1  -1 -10   54.53    5.17 
  -1  -1  10   54.42    5.47 
   2  -1   1   52.87    5.77 
   1   1 -10   50.89    6.20 
   1  -1 -10   54.08    5.54 
   1   1 -10   53.69    5.15 
   2   1   1   45.52    5.45 
  -1  -1  10   51.93    4.74 
  -2  -1  -1   61.46    6.14 
  -1   1  10   54.43    5.30 
   1  -1 -10   54.25    5.27 
  -1   1  10   54.00    5.28 
   2   1   1   51.25    5.12 
  -1   1  10   53.13    5.11 
  -2   0  -5    0.25    0.88 
   2   0   5    0.34    0.73 
   2   0   5    0.43    1.22 
  -2   0  -5    0.41    0.93 
   1  -2   5  315.81    6.04 
  -1   2  -5  301.84    6.06 
  -1  -2  -5  316.89    8.41 
  -1   2  -5  299.57    5.54 
  -1  -2  -5  305.97    6.50 
   1   2   5  292.45    5.71 
   1   2   5  271.82   10.67 
  -1  -2  -5  286.12   13.88 
   1   2   5  310.17    6.04 
   1  -2   5  282.04    4.98 
  -2   1   2   63.34    6.12 
   2  -1  -2   67.43    6.42 
   2   1  -2   64.00    6.42 
   2  -1  -2   63.62    6.56 
   2  -1  -2   58.76    6.07 
  -2  -1   2   61.37    5.90 
   2   1  -2   58.51    5.64 
  -1   1 -10  265.44    6.48 
   1  -1  10  247.40    5.01 
  -1  -1 -10  279.63    4.52 
   1   1  10  246.46    5.81 
  -1  -1 -10  263.00    6.09 
  -1   1 -10  266.93    5.91 
   1  -1  10  278.41    5.90 
   1   1  10  263.98    4.05 
   1   1  10  243.36    6.25 
  -2  -1  -2  179.77   16.36 
  -2   1  -2  165.45   15.20 
  -2  -1  -2  171.67   15.93 
   2   1   2  146.57   13.38 
   2   1   2  171.16   15.77 
  -2   1  -2  168.35   15.58 
   2  -1   2  167.63   15.37 
   2  -1   2  158.83   14.52 
   0  -2   8 2405.48   33.52 
   2  -1  -3   77.96    7.39 
   0   2   8 2327.34   31.94 
   2   1  -3   74.28    7.00 
   0   2   8 2339.47   33.47 
   0  -2  -8 2478.58   34.15 
   0   2  -8 2501.82   41.16 
   2  -1  -3   79.64    7.54 
   0   2   8 2349.38   31.16 
   2   1  -3   77.37    7.55 
  -2   1   3   75.36    7.17 
  -2  -1   3   73.19    6.98 
   0   2  -8 2395.22   33.07 
   0  -2  -8 2389.74   31.52 
   0  -2  -8 2351.10   32.85 
   0  -2   8 2448.03   33.56 
  -2   1  -3  377.00    7.48 
   2   1   3  348.41    6.36 
  -2  -1  -3  389.90    9.75 
   2  -1   3  374.37    7.03 
   2  -1   3  350.95    8.13 
  -2  -1  -3  370.10    6.80 
   2   1   3  346.98    7.40 
  -2   1  -3  368.78    7.12 
   2   0  -6   50.09    4.79 
   2   0  -6   55.66    6.74 
  -2   0   6   51.20    5.08 
   1  -2  -6 2035.55   29.67 
   1   2  -6 2721.65   37.53 
  -1  -2   6 2595.01   44.64 
  -1  -2   6 2779.74   60.29 
  -1   2   6 2437.57   33.94 
  -1   2   6 2533.39   34.12 
   1  -2  -6 2492.14   34.56 
   1   2  -6 2689.21   42.03 
   1  -2  -6 2429.35   32.93 
  -1   2   6 2424.72   33.88 
   2   0   6  248.00    5.89 
  -2   0  -6  266.36    6.19 
  -2   0  -6  261.46    5.48 
   2   0   6  274.44    6.08 
  -1  -2  -6  207.35    4.97 
  -1  -2  -6  198.83    4.24 
   1   2   6  197.76    6.46 
  -1   2  -6  193.93    6.05 
   1  -2   6  169.72   15.47 
  -1   2  -6  197.21    6.45 
   1   2   6  201.76    7.26 
  -1  -2  -6  211.82   10.74 
   1   2   6  199.09    4.03 
   1  -2   6  198.10    6.05 
   0  -1 -12  359.11    7.62 
   0   1  12  336.40   10.56 
   0   1  12  381.36    5.85 
   0   1 -12  374.32    7.73 
   0  -1  12  337.21   21.23 
   0   1 -12  345.81    7.60 
   0  -1 -12  361.66    5.44 
   0   1  12  331.60   25.09 
   0  -1 -12  335.14    6.84 
   0   1 -12  332.71    6.71 
   0   0  13   -0.22    6.92 
   0   0 -13   -0.12    4.40 
   0   0  13   -1.12    6.05 
   0   0 -13    0.61    0.95 
   0   0 -13    0.73    0.63 
   2   1  -4  195.52    6.48 
  -2  -1   4  206.84    5.49 
   2  -1  -4  195.31    6.44 
   2  -1  -4  219.65    5.10 
  -2   1   4  213.53    4.94 
   2  -1   4   27.13    2.87 
   2   1   4   27.29    2.77 
  -2   1  -4   26.77    2.99 
  -2  -1  -4   25.40    2.67 
   2  -1   4   31.07    3.26 
   2   1   4   26.71    3.01 
  -2   1  -4   29.91    4.23 
  -2  -1  -4   32.65    5.74 
   1   0 -12   26.66    3.11 
  -1   0  12   28.38    3.04 
   1   0 -12   31.02    3.27 
  -1   0  12   28.73    3.29 
  -1   0  12   27.18    3.13 
   1   0 -12   30.63    3.38 
   1  -1 -11   62.53    6.10 
   1  -1 -11   59.13    5.80 
   1   1 -11   54.72    6.07 
  -1  -1  11   54.80    5.92 
  -1  -1  11   71.70    6.97 
   1   1 -11   71.14   26.09 
  -1   1  11   57.82    5.59 
   1  -1 -11   58.75    5.53 
  -1   1  11   65.27    6.25 
  -1  -1  11   67.74    6.25 
  -1   1  11   68.11    6.36 
   2   0  -7    0.12    0.51 
   2   0  -7    0.29    1.02 
  -2   0   7    0.93    1.36 
   2   0  -7    0.53    1.43 
   1   0  12  588.09    9.08 
  -1   0 -12  579.40   10.60 
  -1   0 -12  550.74    8.59 
   1   0  12  585.33   10.48 
   2  -1  -5  310.53    6.20 
   2   1  -5  314.64    6.51 
  -2  -1   5  324.25    7.26 
   2  -1  -5  321.78    7.07 
  -2   1   5  314.21    7.01 
   1   1  11  812.98   11.13 
   1  -1  11  838.20   12.76 
  -1   2   7  259.47    4.94 
  -1   2   7  237.96    5.58 
  -1   1 -11  849.63   15.36 
  -1   2   7  240.26    5.28 
  -1  -1 -11  834.14   14.01 
   1   1  11  805.10   13.92 
   1   1  11  775.07   12.87 
   1  -1  11  774.07   12.65 
   1  -2  -7  249.58    5.88 
   1   2  -7  208.33   10.68 
  -1  -1 -11  861.03   11.87 
   1  -2  -7  218.45    4.42 
  -1   1 -11  840.98   14.77 
   1  -2  -7  253.21    6.10 
   1   2  -7  243.46    6.91 
  -1  -2   7  251.22   10.51 
   0  -2   9  632.16   29.99 
   0   2   9  591.39    8.34 
   0  -2  -9  619.32   24.03 
   0   2  -9  580.39   10.10 
   0   2   9  651.22   23.90 
   0   2   9  610.64   12.41 
   0  -2  -9  639.76    8.92 
   0  -2  -9  617.91   10.54 
   0   2  -9  651.64   11.60 
   0  -2   9  623.71   10.99 
  -2   0  -7    0.67    0.49 
   2   0   7    0.35    1.14 
  -2   0  -7    0.97    1.35 
   2   0   7    0.44    0.90 
   2  -1   5   80.59    7.57 
   2   1   5   70.79    6.62 
  -2   1  -5   79.23    7.70 
  -2  -1  -5   84.65    7.91 
  -2   1  -5   71.14    6.84 
  -2  -1  -5   73.81    7.64 
   2   1   5   68.33    6.67 
   2  -1   5   69.49    6.66 
   1   2   7  357.32    6.89 
   1   2   7  356.61    5.54 
  -1  -2  -7  348.08    6.29 
  -1   2  -7  329.95    5.96 
   1   2   7  337.53    7.39 
   1  -2   7  348.10    6.17 
  -1   2  -7  367.91    7.17 
   1  -2   7  365.34    6.89 
  -1  -2  -7  374.82    7.41 
  -1  -2  -7  359.36   13.91 
  -2   1   6  183.11   16.76 
   2  -1  -6  198.69    7.34 
  -2  -1   6  200.88    5.50 
   2   1  -6  180.42   17.74 
   2  -1  -6  199.72    4.69 
   2  -1  -6  189.65   17.39 
  -2   1   6  200.86    4.88 
   2   1   6  108.36    9.97 
  -2  -1  -6  121.98   11.19 
  -2   0   8 2520.89   35.56 
   2   0  -8 2381.70   34.66 
  -2  -1  -6  113.82   10.82 
   2  -1   6  123.08   11.47 
   2   1   6  113.95   11.53 
   2   0  -8 2359.00   32.25 
  -2   1  -6  120.09   11.15 
   2  -1   6  131.92   12.12 
  -2   1  -6  114.75   11.14 
   0   1 -13    0.86    3.02 
   0  -1 -13   -1.23    1.87 
   0   1 -13   -1.23   13.06 
   0  -1 -13    0.98    0.47 
   0  -1 -13    1.06    0.53 
   0   1  13    0.01    1.00 
   0  -1 -13    1.26    0.97 
   0  -1  13   -0.78    6.82 
   0   1  13   -1.16   17.17 
   0   1 -13    0.88    0.54 
  -1   2   8  283.94    5.74 
   1   2  -8  335.26  124.45 
   1  -2  -8  294.31    6.35 
  -1  -2   8  295.95   10.11 
   1  -2  -8  293.61    5.85 
   1  -2  -8  297.23    5.40 
  -1   2   8  286.03    6.42 
  -1   2   8  282.16    5.42 
   1   2  -8  277.85    7.51 
   2   0   8 1874.37   26.25 
  -2   0  -8 1552.08   22.39 
  -2   0  -8 1615.62   25.16 
   2   0   8 1633.46   24.33 
   0   0  14  635.14   10.20 
   0   0 -14  666.45   12.70 
   0   0  14  660.05   12.38 
   0   0 -14  648.72   10.65 
   0   0 -14  680.21   10.47 
   1  -2   8  239.89    5.26 
   1   2   8  246.61    3.93 
  -1  -2  -8  218.87   14.17 
   1   2   8  209.55    7.92 
  -1  -2  -8  250.51    4.19 
   1  -2   8  242.44    4.97 
  -1   2  -8  242.73    5.60 
  -1  -2  -8  232.27    5.36 
   1   2   8  253.18    5.57 
  -1   2  -8  254.90    5.27 
   0  -2 -10 1201.63   16.03 
   0   2 -10 1121.34   17.28 
   0   2  10 1009.10   13.58 
   0   2  10  864.87   15.25 
   0  -2 -10 1135.18   19.33 
   0   2 -10 1335.15   19.84 
   0   2  10 1160.83   17.39 
   0  -2  10 1211.33   17.92 
   0  -2 -10 1153.10   17.53 
   0  -2  10 1073.92   16.93 
  -1  -1  12  515.79   15.36 
  -1   0  13   -0.45    1.08 
  -1  -1  12  518.62   15.22 
   1   0 -13    0.57    0.72 
   1   0 -13    1.64    1.07 
  -1   1  12  495.68   14.37 
   1   0 -13    2.66    1.10 
   1  -1 -12  526.65   15.51 
   1   1 -12  522.20   15.33 
  -1   0  13   -0.13    0.80 
   1  -1 -12  560.65   15.92 
   1  -1 -12  530.38   15.58 
  -1  -1  12  525.25   14.47 
  -1   1  12  511.14   14.94 
  -1   0  13    2.84    1.60 
  -1   1  12  539.79   15.13 
   1   1 -12  500.42   19.76 
   2   1  -7  637.66   17.34 
   2   1  -7  680.49   19.63 
   2  -1  -7  634.98   18.24 
  -2  -1   7  466.43   14.15 
   2   1  -7  625.41   18.37 
  -2   1   7  635.63   18.05 
   2  -1  -7  644.43   18.46 
   2  -1  -7  651.38   18.58 
  -2   1   7  659.26   18.80 
   1  -1  12 1248.47   34.10 
  -1  -1 -12 1129.73   30.20 
  -1   1 -12 1371.40   37.39 
   1   1  12 1282.05   37.12 
   1   1  12 1201.26   32.01 
   1   1  12 1331.91   36.87 
   1  -1  12 1164.32   32.24 
  -1  -1 -12 1305.55   36.93 
  -1   1 -12 1372.04   39.15 
   1   0  13    0.43    1.42 
  -1   0 -13    1.83    1.04 
   1   0  13    0.38    0.25 
  -1   0 -13   -0.99   16.02 
   2  -1   7  135.13    5.22 
  -2  -1  -7  130.61    4.57 
  -2   1  -7  146.72    5.26 
  -2   1  -7  129.23    4.92 
   2  -1   7  121.24    4.41 
   2   1   7  125.74    4.37 
   2   1   7  130.27    5.12 
  -2   0   9    0.13    0.69 
   2   0  -9    0.47    0.51 
  -1   2   9 2533.49   68.21 
  -1  -2   9 1974.35   57.84 
   1   2  -9 2561.83   83.72 
   1  -2  -9 2534.39   67.62 
  -1   2   9 2489.17   66.68 
   1  -2  -9 2573.70   69.45 
   1   2  -9 2450.86   65.92 
  -1   2   9 2639.01   70.71 
   1  -2  -9 2553.22   68.77 
  -1  -2   9 2530.25   68.02 
   2   0   9    0.89    0.92 
  -2   0  -9    0.36    0.97 
  -2   0  -9    0.95    0.68 
  -1   2  -9   22.58    1.62 
   1   2   9   25.55    1.77 
   1  -2   9   30.99    4.35 
  -1  -2  -9   22.42    1.02 
   1   2   9   28.53    1.19 
   1  -2   9   24.07    1.66 
  -1  -2  -9   36.88    2.30 
  -1  -2  -9   32.31   14.54 
   1   2   9   24.06    1.59 
   2   1  -8  625.69   17.07 
   2  -1  -8  643.63   18.46 
   2  -1  -8  639.00   19.22 
  -2   1   8  608.57   17.46 
  -2   1   8  671.62   19.09 
   2   1  -8  674.93   19.65 
   2  -1  -8  636.42   18.56 
   2   1  -8  630.66   18.49 
  -2  -1   8  648.15   18.86 
   0   2  11   74.08    2.24 
   0  -2  11   76.22   23.80 
   0   2  11   74.94   20.67 
   0  -2  11   54.84    4.93 
   0   2 -11   92.60   31.22 
   0   2  11   76.01   20.36 
   0  -2 -11   69.92    2.11 
   0   2 -11   62.76   18.77 
   0  -2 -11   51.63    2.91 
   0  -2 -11   64.43    7.46 
  -2   1  -8  284.60    9.00 
  -2  -1  -8  276.96    8.31 
   2  -1   8  292.39    9.82 
   2   1   8  263.15    8.76 
   2   1   8  276.92    8.39 
   2  -1   8  243.33    9.29 
  -2  -1  -8  276.54    9.42 
  -2   1  -8  276.09    9.04 
   0   1  14  228.68   17.30 
   0  -1 -14  223.32   20.41 
   0   1 -14  367.18  151.42 
   0   1 -14  255.03    8.42 
   0  -1 -14  262.12   26.25 
   0  -1 -14  271.22    7.68 
   0   1 -14  369.25  132.27 
   0   1  14  260.18    8.48 
   0  -1 -14  256.85    8.58 
   0  -1  14  252.78    7.71 
   0  -1  14  235.95    7.67 
   0  -3   0   64.46    5.53 
   0   3   0   74.73    3.69 
   0   3   0   77.80    2.46 
   0   3   0   67.64    2.99 
   0  -3   0   78.34    3.33 
   0   3  -1  845.31   23.60 
   0   3   1  895.24   25.04 
   0   3  -1  852.46   23.65 
   0   3  -1  864.46   23.08 
   0  -3  -1  923.54   26.03 
   0  -3   1  893.81   25.09 
   0   3   1  832.11   22.28 
   0  -3  -1  885.51   24.78 
   0  -3   1  863.04   24.24 
   0   3  -1  827.77   22.17 
   0   3   1  926.43   25.80 
   1  -1 -13  666.90   19.46 
  -1   1  13  627.91   18.12 
  -1   1  13  637.78   18.60 
   1   1 -13  683.21   20.14 
   1  -1 -13  689.84   19.69 
  -1  -1  13  614.35   16.89 
   1  -1 -13  657.39   18.24 
  -1   1  13  698.02   19.33 
   1   1 -13  606.90   22.88 
  -1  -1  13  703.91   20.33 
  -1  -1  13  713.07   20.46 
   0   0 -15    0.68    0.89 
   0   0  15    0.66    0.39 
   0   0 -15    0.32    0.28 
   0   0  15    0.20    1.12 
   0   0 -15    0.37    0.97 
   0   3  -2  330.37    9.14 
   0  -3  -2  346.23   10.77 
   0   3   2  328.29   10.16 
   0   3  -2  330.04    9.90 
   0  -3  -2  344.27    9.65 
   0   3   2  356.32   11.14 
   0   3  -2  357.95   10.90 
   0  -3  -2  335.20   12.82 
   0  -3   2  352.24   10.64 
   0   3   2  368.02   10.13 
   0   3  -2  370.22   10.13 
   0  -3   2  306.18   11.48 
   1   0 -14  393.45   11.58 
  -1   0  14  422.17   12.44 
  -1   0  14  391.72   12.09 
  -1   0  14  395.58   11.40 
   1   0 -14  414.88   13.48 
   1   0 -14  403.98   11.71 
  -2   0  10  614.03   17.14 
   2   0 -10  642.84   17.91 
  -2   0  10  690.36   19.73 
   2   0 -10  626.14   18.44 
  -1  -1 -13  675.51   18.29 
   1  -1  13  744.35   21.25 
   1   1  13  598.69   17.50 
  -1  -1 -13  756.42   22.00 
   1  -1  13  692.39   19.36 
  -1   1 -13  698.86   25.84 
  -1   1 -13  629.36   19.78 
   1   1  13  701.78   18.88 
   1   1  13  675.51   19.56 
  -2   2   0    4.69    2.44 
   2   2   0    4.41    1.40 
   2  -2   0    3.94    1.58 
   2   2   0    3.78    1.56 
   2  -2   0    3.96    1.65 
   2   2   0    3.87    1.25 
  -2  -2   0    5.67    1.90 
   2  -2   0    3.86    1.71 
   2  -2  -1   20.18    2.25 
   2   2  -1   20.60    2.67 
  -2   2   1   21.22    1.82 
   2   2  -1   18.86    1.41 
   2  -2  -1   19.75    2.03 
  -2  -2   1   22.12    4.16 
   2   2  -1   18.63    1.10 
   2  -2  -1   25.60    5.59 
  -1   2  10  894.26   24.46 
   1  -2 -10  877.62   24.72 
   2   2   1   12.81    4.55 
   1  -2 -10  866.48   27.45 
  -1   2  10  835.05   24.21 
   1   2 -10  749.52   21.44 
   1  -2 -10  898.36   24.52 
   1   0  14 1874.45   51.21 
   2  -2   1   11.75    3.57 
  -2  -2  -1    8.94    1.21 
   2  -2   1   11.86    2.82 
   2   2   1    8.59    2.33 
  -2   2  -1   16.65    5.37 
   1   2 -10  873.45   24.45 
  -1  -2  10  875.33   24.49 
  -2  -2  -1   13.91    5.05 
  -1  -2  10  888.40   27.99 
  -1   0 -14 2120.79   56.77 
  -1   0 -14 2073.47   57.31 
  -1   2  10  855.24   24.05 
   2   2   1    8.51    3.18 
   2  -2   1   13.23    4.70 
   1   0  14 1828.11   49.13 
   0   3   3  830.39   23.53 
   0   3   3  829.45   22.50 
   0  -3  -3  861.59   24.29 
   0   3  -3  780.92   20.97 
   0   3  -3  847.75   23.73 
   0   3  -3  835.06   22.49 
   0   3   3  827.93   22.86 
   0  -3  -3  775.99   21.02 
   0  -3  -3  838.07   23.08 
   0  -3   3  855.39   24.07 
   0   3  -3  816.10   22.62 
   0  -3   3  714.50   27.24 
  -2   2   2  452.60   13.51 
   2  -2  -2  417.55   12.41 
   2   2  -2  378.45   11.79 
  -2   0 -10  574.60   17.28 
   2  -2  -2  436.17   13.39 
   2   0  10  520.35   15.65 
  -2  -2   2  418.16   12.61 
   2   2  -2  382.77   11.71 
  -2   0 -10  600.11   17.33 
   2   0  10  558.02   15.76 
   2  -2  -2  439.52   12.97 
   2   2  -2  401.01   12.41 
  -1  -2 -10  142.67    5.39 
   1   2  10  143.02    4.02 
   1   2  10  137.06    5.44 
   1  -2  10  120.70    4.44 
   1  -2  10  146.57    5.08 
   1   2  10  139.79    5.18 
   1   2  10  141.61    4.01 
  -1   2 -10  124.98    6.58 
  -1  -2 -10  144.15    5.56 
  -1   2 -10  140.92    5.32 
   2  -2   2  283.63    8.69 
  -2   2  -2  304.47    9.39 
   2   2   2  302.86   10.04 
   2   2   2  273.76    8.41 
   2  -2   2  294.90    9.60 
  -2  -2  -2  279.15    9.53 
  -2   2  -2  316.09   10.00 
  -2  -2  -2  295.84    9.13 
   2  -2   2  257.66   10.37 
   2   2   2  269.24    8.22 
   2  -1  -9   19.34    1.54 
   2  -1  -9   27.17    2.81 
  -2   1   9   20.93    2.06 
   2   1  -9   25.08    7.63 
  -2   1   9   18.42    1.50 
   2   1  -9   22.57    2.16 
  -2  -1   9   19.20    1.73 
   2  -2  -3  607.16   18.11 
   2   2  -3  582.33   15.98 
   2  -2  -3  586.07   17.15 
   2   2  -3  524.50   16.22 
  -2  -2   3  593.75   17.51 
   2   2  -3  539.40   15.95 
   2  -2  -3  551.54   16.11 
  -2   2   3  645.92   18.61 
   2   1   9  285.35    9.43 
   2  -1   9  256.37    8.10 
  -2  -1  -9  252.08    8.91 
  -2   1  -9  309.22    9.71 
   2  -1   9  265.81    8.72 
  -2   1  -9  253.18    8.59 
  -2  -1  -9  279.06    8.35 
   2   1   9  270.35    7.99 
   0  -3   4   14.61    1.43 
   0   3  -4   16.08    5.98 
   0  -3   4   13.81    3.95 
   0  -3  -4   11.46    5.16 
  -2   2  -3    8.33    2.81 
  -2  -2  -3    6.05    2.78 
   0   3   4   14.03    1.71 
   0  -3  -4   13.34    1.34 
   0   3   4   15.64    2.39 
   0   3  -4   13.99    1.42 
   0   3   4   15.73    4.44 
  -2  -2  -3    6.76    2.89 
   0  -3  -4   11.42    1.43 
   2   2   3    4.39    2.04 
   0   3  -4   12.96    1.01 
  -2   2  -3    9.71    4.27 
   2  -2   3    5.68    2.18 
   2   2   3   -0.59    1.32 
   2   2   3    5.58    2.00 
   2  -2   3    5.40    1.65 
   0   2  12  589.91   17.08 
   0  -2 -12  677.32   19.50 
   0  -2 -12  630.57   16.83 
   0   2  12  593.10   15.86 
   0  -2  12  600.83   17.72 
   0  -2  12  616.75   17.98 
   0   2 -12  615.74   17.74 
   0   2 -12  619.41   17.94 
   0  -2 -12  642.99   18.62 
   2   2  -4   72.08    2.52 
  -2  -2   4   75.55    3.54 
   2  -2  -4   81.87    4.08 
  -2   2   4   77.76    4.92 
   2   2  -4   70.33    3.25 
  -2   2   4   68.92    3.50 
   2  -2  -4   75.27    3.31 
   2   2  -4   71.15    3.25 
  -2   2  -4 1334.43   36.48 
  -2   2  -4  979.50   27.46 
  -2  -2  -4 1377.32   38.49 
   2   2   4 1198.52   32.66 
   2   2   4 1428.85   39.45 
   2  -2   4 1344.80   36.73 
   2   2   4 1301.13   35.39 
  -2  -2  -4 1357.47   37.22 
   0  -3  -5   41.38    1.86 
   0  -3   5   46.30    2.44 
   0   3  -5   50.18    1.96 
   0   3   5   48.68    1.97 
   0  -3  -5   46.18    1.96 
   0  -3   5   46.38    2.32 
   0   3   5   44.45    2.46 
   0   3  -5   51.75    2.84 
   0  -3  -5   54.99    2.99 
   0   3   5   50.98    2.25 
  -2   0  11    0.62    1.15 
  -2   0  11    0.39    1.05 
   2   0 -11   -0.40    1.00 
   2   0 -11    6.26    5.17 
   0   1 -15 2711.22   73.51 
   0  -1 -15 2769.06  460.86 
   0  -1 -15 2647.89   70.48 
   0   1  15 2786.06  464.32 
   0   1 -15 2745.00   81.89 
   0  -1  15 2860.40  476.25 
   0   1  15 2672.83   72.60 
   0   1 -15 2886.39  480.61 
   0  -1  15 2606.72   69.71 
   0  -1 -15 2951.96  491.86 
  -1   2  11  101.35   27.97 
   1  -2 -11   96.27    4.35 
  -1  -2  11   91.58    2.72 
   1  -2 -11   99.92    4.40 
  -1   2  11   86.85    4.04 
  -1  -2  11   84.99   23.51 
   1  -2 -11   97.51    3.38 
   1   2 -11   91.62    4.22 
  -1  -2  11   86.02    3.82 
  -1   2  11   88.48    3.17 
  -1  -2  11  110.97   43.84 
   1   1 -14   75.81    3.90 
  -1   1  14   67.45    4.67 
  -1   1  14   70.66    6.34 
   1  -1 -14   74.08    4.18 
  -1  -1  14   83.28    3.94 
   1   1 -14   79.10   24.54 
   1  -1 -14   67.89    2.68 
  -1  -1  14   79.47    6.69 
  -1  -1  14   63.68    5.24 
  -1   1  14   76.07    3.00 
   1  -1 -14   76.74    3.73 
   2  -1 -10  152.71    5.62 
  -2   1  10  155.66    5.74 
   2  -1 -10  148.47    5.61 
   2   1 -10  156.40    4.65 
  -2   1  10  155.51    5.63 
   2   1 -10  161.96    6.28 
   2  -1 -10  143.78    5.14 
  -2  -1  10  164.83    6.09 
  -2   2   5   19.39    1.71 
   2   2  -5   21.23    1.19 
   2  -2  -5   16.79    2.21 
  -2  -2   5   17.43    1.84 
   2  -2  -5   18.26    1.50 
   2   2  -5   21.52    1.67 
   1   2  11   87.13    2.43 
   2   0  11    0.93    1.47 
   1  -2  11   80.58    3.46 
  -2   0 -11    1.07    1.70 
   2   0  11    1.01    0.40 
  -1  -2 -11   86.22    3.90 
   1  -2  11   84.15    3.57 
  -1  -2 -11   86.00   14.02 
  -1   2 -11   82.85    3.95 
  -1   2 -11   94.30    4.88 
   1   2  11   89.32    2.50 
  -2   0 -11    0.28    0.61 
   1   2  11   80.39    3.68 
  -1   1 -14   70.71   37.43 
  -2   2  -5  349.15   10.97 
  -1   3   0  572.55   16.54 
  -2   2  -5  315.05    9.71 
   1  -1  14   42.52    3.40 
  -2  -2  -5  302.64   10.06 
   1   3   0  571.02   17.43 
  -1  -1 -14   57.91   24.30 
  -1  -1 -14   53.02    2.01 
   1   1  14   49.03    1.76 
   1   3   0  590.82   16.78 
  -1   1 -14   43.80    8.15 
  -1  -3   0  601.83   18.01 
   2   2   5  267.80    8.36 
  -2  -2  -5  294.46    8.90 
   1   3   0  629.55   18.68 
  -1   3   0  555.79   16.25 
   2  -2   5  317.50    9.67 
   1  -1  14   49.47    2.32 
   1   3   0  553.33   16.18 
   2   2   5  309.41    9.98 
   1  -3   0  557.98   18.11 
   2   2   5  271.82    9.22 
   1  -3   0  560.37   16.87 
  -1   0  15    0.16    0.26 
   1   0 -15    0.35    0.90 
   1   0 -15    0.35    0.42 
   1   0 -15   -0.83   12.00 
  -1   0  15    0.03    0.86 
   1   3   1 1618.76   44.13 
   1   3  -1  114.15    4.27 
  -1   3   1  118.18    5.18 
   0   0  16  809.56   22.91 
   1   3  -1  136.68    4.61 
  -1  -3  -1 1457.98   43.06 
   1  -3   1 1608.22   44.33 
   1  -3  -1  123.30    4.64 
   1   3   1 1498.93   42.49 
   1   3   1 1548.37   41.99 
  -1  -3   1  108.34    4.82 
   0   0 -16  872.97   25.53 
   1  -3   1 1527.15   42.02 
   1   3  -1  133.37    4.67 
   1   3   1 1648.19   49.16 
   0   0 -16  821.01   23.50 
  -1   3  -1 1454.90   40.00 
  -1   3  -1 1519.60   41.71 
   1   3  -1  119.56   12.10 
   2   1  10   11.38    1.44 
   2  -1  10   11.81    1.35 
  -2   1 -10   11.42    1.77 
  -2  -1 -10   13.29    1.10 
   2  -1  10   12.67    3.89 
  -2   1 -10   17.20    6.41 
   0   3  -6  199.57    6.88 
   0   3   6  185.43    6.36 
   0  -3  -6  184.06    6.22 
   0   3   6  206.91    6.34 
   0   3  -6  195.53    6.09 
   0  -3   6  199.28    7.25 
   0  -3  -6  200.66    6.24 
   0   3   6  202.18    6.13 
   0  -3  -6  205.35    7.19 
   1   3  -2   65.35    3.08 
   1  -3  -2   64.65    2.93 
  -1   3   2   57.71    2.87 
  -1   3   2   60.30    3.00 
   1  -3  -2   70.30    3.58 
   1   3  -2   68.76    2.83 
   1   3  -2   56.57    3.27 
   1  -3  -2   64.86    2.02 
   1   3  -2   62.60    2.85 
  -1  -3   2   65.85    2.70 
   1  -3  -2   69.11    2.11 
   1   0  15    0.39    0.55 
   1  -3   2 1002.60   28.00 
  -1  -3  -2 1033.93   28.85 
   1  -3   2 1002.33   28.03 
   1   3   2 1062.47   29.62 
   1   3   2  972.57   26.95 
   1   0  15    4.56    1.81 
   1   3   2 1031.49   28.57 
  -1  -3  -2 1102.89   30.62 
  -1   0 -15   -1.69   25.77 
  -1   0 -15   13.39    3.59 
   1   3   2  909.46   25.14 
  -1   3  -2  967.21   27.63 
   2  -2  -6   16.44    2.05 
   2  -2  -6   15.75    1.55 
   2   2  -6   17.28    0.84 
   2  -2  -6   18.19    1.54 
  -2  -2   6   15.12    1.89 
  -2   2   6   19.55    1.93 
   1  -3  -3  309.79    9.42 
   1   3  -3  295.94    8.64 
   1   3  -3  261.01   13.13 
  -1   3   3  317.63    9.76 
   1   3  -3  298.53   11.50 
   1   3  -3  295.34    9.03 
  -1  -3   3  311.21    9.96 
   1  -3  -3  313.60   11.91 
   1  -3  -3  316.49    8.89 
  -1   3  -3   59.96    3.20 
  -1  -3  -3   56.53    3.39 
   1  -3   3   58.61    2.97 
   1   3   3   55.45    2.49 
  -1  -3  -3   52.60    5.53 
  -1   3  -3   57.37    1.87 
   1   3   3   59.06    3.15 
   1   3   3   62.23    3.53 
   1  -3   3   54.47    3.08 
   1  -3   3   55.76    4.75 
   1   3   3   58.80    3.09 
  -2   2  -6   18.98    2.27 
  -2  -2  -6   15.99    1.85 
  -2   2  -6   16.04    1.78 
   2   2   6   15.79    1.63 
  -2  -2  -6   22.25    8.88 
   2   2   6   17.75    5.65 
   2  -2   6   15.28    1.30 
   2   2   6   12.73    1.11 
   0   2  13  735.25   23.44 
   0  -2  13  628.88   21.36 
   0   2  13  757.38   20.17 
   0   2 -13  750.09   36.27 
   0  -2 -13  834.22   25.06 
   0  -2 -13  770.95   20.51 
   0   2 -13  722.27   20.58 
   0  -2 -13  805.30   27.22 
  -1  -3   4  454.16   12.95 
  -1   3   4  460.08   13.45 
   1   3  -4  422.00   12.27 
   1   3  -4  424.29   12.06 
   1   3  -4  431.43   14.14 
   1  -3  -4  443.13   14.85 
   1  -3  -4  424.63   12.40 
   1   3  -4  460.66   14.48 
   1  -3  -4  459.20   13.02 
   1   3  -4  452.17   15.05 
   2   0 -12  145.67    5.93 
   2   0 -12  145.94    5.28 
   2   0 -12  131.73    4.53 
  -2   0  12  142.09    5.35 
  -2   0  12  142.23    4.86 
   1   3   4  126.36    4.60 
   1  -3   4  137.03    5.25 
  -1  -3  -4  126.21    4.65 
   1   3   4  132.19    4.59 
  -1   3  -4  124.28    4.92 
   1   3   4  126.27    4.59 
   1   3   4  128.16    4.58 
  -1  -3  -4  129.18    5.18 
   1  -3   4  129.54    4.01 
  -1   3  -4  124.82    3.92 
   0   3   7  169.66    5.40 
   0  -3   7  175.39    5.77 
   0  -3  -7  178.22    6.61 
   0   3  -7  151.99    7.74 
   0  -3   7  161.75    5.18 
   0   3  -7  172.51    5.41 
   0  -3  -7  194.37    6.13 
   0   3   7  173.35    5.38 
   0  -3  -7  153.43    4.74 
   2   1 -11   53.61    1.97 
   2   1 -11   57.71    3.47 
  -2   1  11   53.06    2.65 
  -2  -1  11   55.74    3.85 
  -2   1  11   52.19    2.83 
   2  -1 -11   57.44    2.91 
   2  -1 -11   56.11    2.81 
   2  -1 -11   57.82    4.32 
   1   2 -12 1261.19   34.86 
  -1  -2  12 1177.89   31.57 
  -1  -2  12 1315.93   36.37 
   1  -2 -12 1324.24   37.75 
   1  -2 -12 1062.75   28.87 
   1  -2 -12 1299.92   35.91 
  -1   2  12 1246.14   34.27 
  -1  -2  12 1317.97   37.94 
  -1   2  12 1250.33   33.96 
  -2  -2   7  923.94   26.16 
   2  -2  -7  920.88   27.09 
   2   2  -7  942.96   26.66 
  -2   2   7  942.11   26.48 
   2  -2  -7  910.88   25.32 
   2   2  -7  945.78   25.19 
   2  -2  -7  893.03   24.90 
  -2   0 -12 1599.98   44.53 
   1   2  12  465.76   14.03 
  -2   0 -12 1581.14   43.11 
   2   0  12 1772.47   49.29 
  -1   2 -12  419.61   12.94 
  -1   2 -12  430.87   13.26 
  -1  -2 -12  433.42   13.49 
   1  -2  12  430.58   12.94 
  -1  -2 -12  450.20   14.14 
  -2   1 -11  459.34   13.72 
   2   1  11  454.67   12.86 
  -2  -1 -11  444.30   12.71 
  -2  -1 -11  491.44   15.38 
   2  -1  11  391.76   11.73 
   2  -1  11  434.02   14.56 
  -2   1 -11  443.16   14.47 
   1  -3  -5  180.55    5.66 
   1   3  -5  184.82    6.47 
   1   3  -5  131.18   24.70 
  -1  -3   5  192.08    5.82 
  -2   2  -7  291.61    9.48 
   1   3  -5  167.80    5.30 
   2   2   7  269.22   11.63 
   2   2   7  278.77    8.26 
  -1   3   5  193.26    6.45 
  -2  -2  -7  298.33    8.98 
   2  -2   7  272.91    8.57 
  -2   2  -7  305.39   12.91 
   1  -3  -5  183.76    6.81 
  -2  -2  -7  305.85   10.31 
   1  -3  -5  187.61    6.14 
   2   2   7  278.51    9.27 
  -1   1  15  446.66   12.82 
   1  -1 -15  447.46   13.84 
   1  -1 -15  465.25   13.38 
   1  -1 -15  452.74   13.55 
  -1  -1  15  447.10   14.45 
   1   1 -15  488.95   14.85 
  -1   1  15  406.65   12.55 
  -1  -1  15  426.18   11.99 
   1   1 -15  394.07   14.84 
  -1  -3  -5   62.19    2.97 
   0   1  16   -4.79   45.35 
   1   3   5   63.29    2.58 
  -1   3  -5   61.97    2.34 
   1  -3   5   68.51    3.36 
   1   3   5   61.62    2.73 
   0  -1 -16    1.26    0.64 
   0   1 -16    3.34    3.49 
   1   3   5   63.64    3.07 
   1   3   5   59.28    2.51 
   0   1 -16    1.76    0.63 
   1  -3   5   61.87    2.29 
   0  -1 -16    5.15    9.96 
  -1   3  -5   72.28    3.66 
   0  -1 -16    2.26    1.19 
   0  -1  16    1.40    0.65 
  -1  -3  -5   65.50    6.47 
   0   1 -16    0.86    2.29 
   1   1  15  995.85   26.70 
  -1   1 -15 1103.15   30.36 
   1  -1  15 1017.65   28.11 
  -1  -1 -15  908.06   26.17 
  -1   1 -15 1005.94   28.86 
  -1  -1 -15 1012.20   27.21 
   0  -3  -8  282.11    9.37 
  -1   0  16   93.56    3.78 
   1   0 -16  104.69    7.83 
   0  -3   8  285.36    9.14 
   0   3  -8  311.96   10.10 
   0  -3   8  275.70    8.49 
   0   3   8  275.78    8.79 
   0  -3  -8  287.43    8.72 
  -1   0  16   94.89    3.89 
   1   0 -16  100.38    3.74 
   0   3  -8  277.60   10.34 
   0  -3  -8  281.10    9.65 
   1   0 -16   97.21    3.74 
   0   3   8  286.49    8.55 
   0   0 -17    1.09    2.37 
   0   0 -17    0.96    0.53 
   0   0  17   -0.85    2.93 
  -1   3   6  188.22    5.69 
   1   3  -6  191.60    6.33 
  -1   3   6  194.10    6.36 
   1  -3  -6  177.21    5.69 
  -1   0 -16 2940.10  489.62 
   1  -3  -6  179.24    6.12 
  -1  -3   6  192.03    5.75 
   1   0  16 2803.19  466.63 
   1   3  -6  192.41    5.84 
   1  -3  -6  183.18    6.98 
   1   3  -6  173.11    6.06 
  -1   0 -16 2523.86   67.55 
  -2  -2   8   34.73   13.56 
  -2   2   8   26.30    2.81 
   2   2  -8   23.29    0.88 
   2  -2  -8   21.10    1.62 
   2   2  -8   24.08    0.81 
   2  -2  -8   33.71    2.61 
  -1   3  -6  317.38   10.09 
   1   3   6  305.89    9.84 
   1   3   6  336.43    9.69 
   1  -3   6  333.01   10.50 
   1  -3   6  329.24   10.59 
  -1  -3  -6  353.86   10.84 
   1   3   6  320.97    9.39 
  -1   3  -6  324.04    9.29 
   1   3   6  302.97   10.08 
  -1  -3  -6  326.90   10.73 
  -3   0   0  314.90   10.26 
  -3   0   1   -0.32    1.80 
  -3   0  -1    1.22    1.11 
  -3   0  -1    3.15    1.87 
   2   2   8  445.70   12.63 
   2   2   8  435.25   14.16 
  -2   2  -8  570.15   16.84 
  -2  -2  -8  526.99   15.18 
  -2  -2  -8  475.98   16.96 
   2  -2   8  471.89   14.74 
  -2   2  -8  465.74   13.96 
   0   2 -14  706.98   21.42 
   0  -2  14  769.41   22.23 
   0   2  14  679.52   19.64 
   0  -2 -14  667.99   26.01 
   0   2 -14  667.42   19.18 
   0  -2 -14  679.51   19.76 
   0  -2 -14  691.15   18.39 
   0   2  14  673.66   17.97 
   2   1 -12   66.65    2.38 
  -3   0   2 1068.05   31.22 
  -2   1  12   72.43    4.01 
  -2   1  12   71.79    3.26 
   2  -1 -12   68.18    3.12 
  -2  -1  12   72.29    3.47 
   2  -1 -12   66.92    3.24 
   2   1 -12   73.23    3.68 
   2  -1 -12   72.61    3.98 
   2   0 -13    0.19    0.49 
  -2   0  13    0.51    0.63 
  -2   0  13    0.96    0.50 
   2   0 -13   -1.12    4.88 
   2   0 -13    0.31    1.01 
  -3   0  -2 3045.15  507.39 
  -3   0  -2 2860.70  477.51 
   1   2 -13  147.29    7.39 
   1  -2 -13  147.81    6.12 
  -1   2  13  127.17    5.30 
  -1   2  13  160.53    5.27 
   1   2 -13  153.80    6.39 
  -1  -2  13  130.46    5.10 
   1  -2 -13  149.81    5.16 
  -1  -2  13  119.14    9.40 
  -3   0   3    0.33    1.54 
  -2   1 -12  735.43   21.52 
  -2  -1 -12  704.20   20.88 
   2  -1  12  635.27   18.97 
  -2  -1 -12  697.19   19.34 
  -2   1 -12  703.60   22.48 
   2   1  12  680.97   18.95 
  -2   0 -13   -0.18    1.97 
   1  -2  13 1764.35   49.64 
  -2   0 -13   -0.12    1.61 
  -1   2 -13 1898.95   53.53 
  -1  -2 -13 1940.40   54.58 
  -1  -2 -13 1618.12   48.86 
  -1   2 -13 1878.58   56.92 
   2   0  13    0.41    0.57 
  -3   0  -3    0.47    1.06 
  -3   0  -3    0.39    1.76 
  -1  -3   7  554.99   15.87 
   1  -3  -7  538.97   15.74 
   1  -3  -7  569.43   16.79 
  -1   3   7  570.60   16.58 
  -1   3   7  528.21   15.09 
   1   3  -7  575.58   17.35 
   1   3  -7  486.65   15.20 
   1  -3  -7  506.43   19.41 
   0  -3  -9  308.77   10.30 
   0  -3   9  340.84   10.31 
   0   3  -9  288.75    9.37 
   0  -3  -9  295.80    8.63 
   0   3  -9  323.25   10.28 
   0   3   9  295.92    8.88 
   0   3   9  296.72   10.55 
   0  -3   9  311.29   10.10 
   0  -3  -9  304.35   10.63 
  -1   3  -7   62.07    6.46 
  -1   3  -7   58.28    5.74 
   1  -3   7   61.63    6.26 
  -1  -3  -7   64.81    6.59 
   1  -3   7   55.31   16.71 
   1   3   7   58.57    5.81 
  -1  -3  -7   64.06    6.48 
   1   3   7   60.25    5.79 
   1   3   7   65.13    6.25 
   1   3   7   58.52    5.95 
  -3   0   4   24.84    4.60 
   2  -2  -9  546.07   17.20 
   2  -2  -9  505.87   15.14 
  -2  -2   9  547.24   17.31 
  -2   2   9  565.74   16.77 
   2   2  -9  520.01   16.07 
   2  -2  -9  527.65   15.77 
  -3   0  -4 1085.17   31.89 
  -3   0  -4 1079.72   31.32 
  -1   1  16  276.99   83.46 
   1  -1 -16  307.11   12.78 
  -1   1  16  314.12    9.57 
   1  -1 -16  320.18   13.50 
   1   1 -16  279.74    9.80 
  -1  -1  16  283.00    9.61 
  -1  -1  16  326.57   11.23 
   1  -1 -16  301.05    9.84 
  -2   2  -9   49.49    8.75 
  -2  -2  -9   48.36    8.28 
   2   2   9   49.79    8.45 
  -2   2  -9   48.61    8.85 
   2  -2   9   46.59    8.99 
  -2  -2  -9   43.71    7.79 
   0   1 -17  239.98   23.56 
   0   1 -17  221.28   20.77 
   0  -1  17  199.62   18.72 
   0  -1 -17  204.32   20.44 
   0   1 -17  213.51   21.70 
   0  -1 -17  240.49   22.23 
   0  -1 -17  217.97   20.24 
   0  -1 -17  224.86   21.88 
  -1   1 -16   62.11   30.02 
  -1  -1 -16  101.92   69.05 
  -1  -1 -16   83.38    7.84 
   1   1  16   82.00    7.71 
  -1   1 -16   82.10   34.77 
   1  -1  16   81.75    7.97 
  -3   0   5    1.13    1.87 
  -3   1   0 2554.94  765.52 
  -3  -1   0 2796.43  837.84 
  -3   1   1   20.56    4.03 
  -3  -1   1   28.18    9.52 
  -1   3   8 2724.71  816.20 
  -1  -3   8 2553.53  764.87 
   1  -3  -8 2728.64  817.36 
   1  -3  -8 2887.98  865.16 
  -1   3   8 2571.76  770.37 
   1  -3  -8 2623.62  786.30 
   1   3  -8 2446.94  733.03 
   1   3  -8 2694.10  807.10 
  -3   1  -1  428.28   13.80 
  -3  -1  -1  448.28   15.26 
  -3  -1  -1  407.50   13.65 
  -3   0  -5    0.50    1.00 
  -3   0  -5    1.80    1.47 
   1   0 -17    0.53    0.49 
   1   0 -17    1.35    0.68 
  -1   0  17    0.28    0.43 
  -1   0  17    0.45    0.65 
   1   0 -17   -1.55    1.28 
  -1  -3  -8   39.36    6.96 
  -1  -3  -8   40.45    7.15 
  -1   3  -8   34.24    6.37 
   1  -3   8   34.57    5.92 
   1   3   8   36.81    6.26 
   1  -3   8   32.60    5.96 
   1   3   8   35.46    6.05 
  -1   3  -8   39.74    6.81 
   1   3   8   34.42    6.02 
  -3   1   2  225.77   21.31 
  -3  -1   2  195.02   18.54 
   2   1 -13    3.84    1.54 
  -2   1  13    1.77    0.76 
   2  -1 -13    1.14    1.05 
  -2   1  13    3.44    1.28 
   2   1 -13    1.10    0.76 
   2  -1 -13    1.51    0.78 
   2  -1 -13    2.15    1.16 
  -2  -1  13    1.63    1.04 
  -2  -1  13    1.63    0.78 
  -3  -1  -2  400.66   12.89 
  -3  -1  -2  417.34   16.50 
  -3   1  -2  443.66   14.57 
  -3   1  -2  465.97   15.10 
  -2   0  14 1088.02   31.25 
   0   3  10  614.38   18.04 
   0  -3 -10  628.64   18.44 
   0  -3  10  635.87   18.45 
   2   0 -14 1061.97   31.21 
   0  -3 -10  582.08   16.37 
   0   3 -10  574.88   21.33 
   0  -3 -10  608.88   18.40 
   0   3 -10  652.38   18.96 
   2   0 -14 1073.16   30.04 
   0  -3  10  591.83   17.19 
   0   3  10  583.45   16.67 
  -2   0  14 1027.50   28.92 
  -1   0 -17   22.61   16.17 
   1   0  17    0.18    0.58 
  -1   0 -17   -3.65   38.75 
   0   2 -15  240.18   26.73 
   0   2  15  233.43   21.46 
   0  -2 -15  216.44   19.88 
   0  -2  15  206.26   19.64 
   0  -2 -15  223.96   21.67 
   0  -2 -15  214.59   21.87 
   0   2 -15  224.30   21.51 
   0   0 -18  265.08   79.53 
   0   0  18  274.18   82.31 
   0   0 -18  283.72    9.33 
   0   0 -18  308.59   11.16 
  -3   1   3 1211.95   35.78 
   3  -1  -3 1144.18   32.78 
  -3  -1   3 1256.33   36.38 
  -1   2  14   59.33    7.25 
   1   2 -14   69.90    7.18 
   1   2 -14   84.82   33.49 
   1  -2 -14   69.81    8.64 
  -1   2  14   64.00    6.23 
   1  -2 -14   72.59    6.96 
  -1  -2  14   66.52   20.28 
  -3   0   6 1400.15   39.95 
   3   0  -6 1444.28   40.65 
  -2   2  10   16.52    3.30 
  -2  -2  10   26.68   10.43 
   2  -2 -10   10.95    2.18 
  -2   1 -13  585.32   27.93 
   2  -1  13  639.33   18.66 
  -2  -1 -13  665.77   19.25 
  -2  -1 -13  601.09   18.71 
   2   1  13  577.14   16.41 
  -2   1 -13  604.88   19.10 
  -3   1  -3  841.36   24.81 
  -3  -1  -3  761.69   25.36 
  -3   1  -3  808.58   27.21 
  -3  -1  -3  807.68   23.86 
  -1   2 -14  834.62   24.78 
   1  -2  14  751.80   22.21 
  -1   2 -14  739.97   22.67 
  -1  -2 -14  762.73   24.10 
  -1  -2 -14  768.96   25.94 
   2   0  14 1329.72   37.01 
  -2   0 -14 1424.48   39.89 
  -2   0 -14 1357.97   39.13 
  -3   0  -6   54.65   16.67 
  -2   2 -10   28.69    5.48 
  -2  -2 -10   31.80    5.92 
  -2  -2 -10   23.16    4.23 
   2  -2  10   24.94    4.62 
  -2   2 -10   25.34    4.81 
   2   2  10   22.23    3.87 
  -3   1   4  422.08   14.03 
  -3  -1   4  426.00   14.07 
  -3   1  -4    9.98    4.37 
  -3  -1  -4   12.86    5.12 
  -3  -1  -4    9.33    4.37 
  -3   1  -4    9.48    3.47 
   1  -3  -9 1001.39   28.20 
   1  -3  -9  980.04   27.62 
  -1   3   9  983.09   27.60 
  -1  -3   9  976.01   26.86 
   1   3  -9  935.60   26.89 
  -1   3   9 1068.77   30.02 
   1   3  -9 1013.62   70.50 
  -1   3  -9   19.41    3.72 
   1  -3   9   20.49    3.75 
  -1  -3  -9   24.53    4.81 
  -1   3  -9   22.27    4.07 
   1   3   9   23.18    4.13 
  -1  -3  -9   21.82    4.19 
   1   3   9   24.11    4.15 
   1   3   9   19.59    6.66 
  -3   0   7    0.15    1.63 
  -3   1   5   66.39    7.88 
  -3  -1   5   58.15    6.14 
   0  -3  11   28.81    5.05 
   0  -3 -11   30.98    5.96 
   0  -3 -11   31.34   13.12 
   0   3 -11   34.84   14.11 
   0  -3 -11   30.72    5.77 
   0   3  11   30.82   10.50 
   0   3  11   24.81    4.27 
   0  -3  11   31.92    5.85 
   0   3 -11   24.56    4.94 
  -3   1  -5  349.42   11.71 
  -3   1  -5  387.22   12.57 
  -3  -1  -5  363.69   12.37 
  -3   0  -7    0.88    1.67 
  -3  -1  -5  377.79   12.01 
  -3   0  -7    1.20    1.19 
   1  -1 -17  508.05   15.97 
   1  -1 -17  513.29   16.68 
   1   1 -17  504.34   16.01 
  -1   1  17  497.00   14.53 
  -1  -1  17  510.27   17.04 
   1  -1 -17  511.91   16.04 
  -1  -1  17  471.51   13.87 
   2  -1 -14  322.81   10.28 
   2   1 -14  318.76    9.24 
   2  -1 -14  256.80   24.49 
   2   1 -14  321.20   10.72 
  -2   2  11   66.18    6.57 
  -2   1  14  288.62    9.25 
   2  -2 -11   67.02    7.79 
   2  -2 -11   62.33    6.24 
  -2  -2  11   74.43    7.69 
   2   2 -11   60.18    6.28 
   2  -1 -14  298.45    9.80 
  -2   1  14  325.05   10.32 
   2  -2 -11   62.55    6.38 
  -2  -1  14  311.82    9.14 
  -2  -1  14  303.47   10.98 
  -1  -1 -17 1253.69   34.43 
  -1  -1 -17 1247.76   36.81 
  -1   1 -17 1261.76   35.68 
   1  -1  17 1255.13   35.41 
  -1   1 -17 1333.14   38.75 
   0  -1 -18  571.18   17.65 
   0   1 -18  562.37   19.92 
   0   1 -18  613.91   18.99 
   0  -1 -18  594.89   19.34 
   0   1 -18  592.95   17.69 
   0  -1 -18  558.31   16.92 
   0  -1  18  545.71   15.89 
  -3   1   6   30.95    5.76 
  -3  -1   6   30.38    5.66 
   2   0 -15    0.28    0.48 
  -2   0  15    0.69    0.59 
  -2   0  15   -0.01    0.89 
   2   0 -15   -0.33    1.71 
  -2  -2 -11  108.67   10.80 
   2  -3   0  362.67   12.03 
   2  -2  11  108.50   12.55 
  -2  -2 -11  113.62   10.69 
  -2  -3   0  374.44   12.38 
  -2   2 -11  109.40   10.69 
   2   3   0  381.66   11.70 
   2  -3   0  372.97   11.02 
   2   3   0  351.66   11.31 
  -2   2 -11  116.25   11.51 
  -2   3   0  392.56   12.49 
   2   2  11  106.98   10.03 
   2   3   0  384.00   12.24 
   2  -3  -1  114.09   10.76 
   3   0  -8   11.40    2.42 
  -3   0   8   12.93    5.39 
   2   3  -1  115.52   10.92 
  -2  -3   1  113.62   15.76 
  -2   3   1  120.06   12.28 
   2   3  -1  115.02   11.17 
  -2  -3  -1  251.39   25.21 
   2  -3   1  245.01   23.52 
   2   3   1  277.04   83.17 
   2   3   1  240.03   22.49 
   2   3   1  259.02   24.15 
   2  -3   1  243.73   22.63 
  -2   3  -1  243.28   23.06 
   1  -3 -10   22.13    7.93 
  -1  -3  10   19.79    3.42 
  -2   1 -14  890.41   26.46 
  -2  -1 -14  842.15   25.37 
   1   3 -10   20.56    3.97 
   2   1  14  913.65   25.54 
   1  -3 -10   25.36   11.62 
  -1   3  10   21.79    3.89 
  -1   3  10   16.84    3.39 
   1   3 -10   22.13   11.51 
  -2   1 -14  908.77   26.35 
   1  -3 -10   21.09    3.82 
  -2  -1 -14  844.63   23.80 
  -1   0  18  371.48   11.89 
   1   0 -18  384.63   11.72 
   1   0 -18  351.38   10.87 
  -1   0  18  351.09   13.19 
   1   0 -18  344.18   11.68 
   1   2 -15 1770.91   49.73 
   1  -2 -15 1799.36   51.00 
  -1  -2  15 1645.79   45.00 
   1  -2 -15 1668.31   45.94 
   1  -2 -15 1799.50   50.66 
   1   2 -15 1870.60   53.11 
  -1   2  15 1754.11   48.29 
   0  -2 -16   18.39    7.54 
   0   2 -16   15.44    7.12 
   0  -2 -16   18.75   10.18 
   0   2 -16   14.57    5.69 
   0  -2 -16   14.17    2.41 
   0  -2 -16   13.41    2.27 
  -3  -1  -6  158.23   15.53 
   3   1   6  142.00   13.51 
  -3   1  -6  158.39   15.27 
  -3   1  -6  155.90   16.04 
  -3  -1  -6  142.89   13.64 
   2  -3  -2  844.72   24.86 
   2  -3  -2  850.80   23.83 
   2  -3  -2  851.27   24.00 
   2   3  -2  828.93   23.57 
   2   3  -2  855.26   25.11 
  -2  -3   2  880.09   26.62 
  -2   3   2  757.57   22.60 
   1   3  10  200.45   18.89 
  -1  -3 -10  211.00   19.94 
  -1  -3 -10  211.10   20.03 
  -1   3 -10  201.76   18.87 
   1   3  10  201.86   18.65 
   1  -3  10  176.38   16.61 
  -1   3 -10  193.51   18.34 
   1   3  10  197.12   18.29 
   2   3   2  254.24   23.84 
  -2   3  -2  287.39    9.60 
  -2  -3  -2  268.57   81.00 
   2  -3   2  283.13    9.67 
  -2  -3  -2  293.33    9.93 
   2   3   2  261.61   78.54 
   2   3   2  254.84   23.83 
   2  -3   2  262.83   78.83 
  -1   2 -15  310.67   15.76 
   1  -2  15  385.54   12.47 
  -1  -2 -15  332.87   14.36 
  -1  -2 -15  373.77   12.84 
  -1   2 -15  341.74   11.45 
   2   0  15    0.49    0.40 
  -2   0 -15    0.87    1.24 
  -2   0 -15    1.50    0.99 
  -1   0 -18 2745.96  822.75 
  -1   0 -18 2487.50  745.15 
   1   0  18 2557.55  766.11 
  -3   0  -8  224.54   21.73 
  -3   0  -8  218.50   20.65 
   2   3  -3  229.57   21.31 
   2  -3  -3  222.69   21.01 
   2  -3  -3  235.34   22.37 
   2   3  -3  225.86   21.35 
   2  -3  -3  226.33   21.07 
  -2   3   3  215.17   20.28 
  -2  -3   3  204.19   26.92 
   0   0 -19    0.24    0.76 
   0   0  19    0.46    0.97 
   0   0 -19    3.40    4.69 
  -2  -3  -3  166.48   16.31 
   2   3   3  140.53   13.30 
   2  -3   3  149.41   14.77 
   2   3   3  135.34   13.03 
   2  -3   3  143.56   13.47 
  -2   3  -3  167.27   17.07 
   2   3   3  144.15   13.66 
  -2  -3  -3  136.25   15.08 
   3  -1  -7 1592.74   44.75 
  -3  -1   7 1644.27   50.16 
  -3   1   7 1631.07   46.30 
   0   3 -12  955.60   27.39 
   0  -3  12  880.24   25.21 
   0  -3 -12  949.91   27.38 
   0   3  12  936.00   25.85 
   0   3  12  948.99   27.09 
   0  -3 -12  937.52   26.03 
   0  -3  12  985.88   28.14 
   0  -3 -12  997.48   28.90 
   0   3 -12  978.24   28.40 
   2  -3  -4  133.10   13.15 
   2  -3  -4  133.49   12.72 
   2   3  -4  135.49   13.09 
   2  -3  -4  138.78   13.77 
  -2   3   4  134.65   12.98 
  -2  -3   4  135.26   16.93 
   2   3  -4  132.24   12.41 
   3   1   7   25.88    5.85 
  -3   1  -7   23.89    4.70 
  -3  -1  -7   29.92    5.73 
  -3   1  -7   25.05    4.67 
  -3  -1  -7   32.73    6.81 
   2   3   4   39.17    6.81 
  -2  -3  -4   44.42    9.28 
  -2   3  -4   50.03    8.55 
   2  -3   4   38.33    6.65 
   2   3   4   39.03    6.87 
  -2  -3  -4   47.01    8.37 
   2   3   4   39.77    6.89 
  -2   3  -4   46.49    8.20 
   2  -3   4   36.76    6.56 
  -2   2  12  359.62   11.28 
  -2  -2  12  377.61   12.93 
   2  -2 -12  411.26   13.48 
  -2   2  12  391.63   12.11 
   3   0  -9    0.82    0.97 
   2   2 -12  458.75   15.23 
   3   0  -9    0.92    1.04 
  -3   0   9    0.78    1.32 
   2  -2 -12  391.59   13.64 
   2  -2 -12  372.99   11.58 
   1  -3 -11  917.16   26.95 
   1   3 -11 1268.66   37.04 
  -1   3  11 1203.34   34.00 
  -1  -3  11 1187.75   32.46 
   1   3 -11 1279.81   36.59 
   1  -3 -11 1179.15   32.92 
   1  -3 -11 1296.67   36.57 
  -1   3  11 1134.20   31.77 
   2  -2  12   55.34   16.77 
  -2   2 -12   60.17    6.37 
  -2   2 -12   58.23    6.59 
   2   2  12   54.18   16.30 
  -2  -2 -12   56.94   17.14 
  -2  -2 -12   58.39    6.30 
   2  -3  -5  207.06   19.83 
  -2  -1  15  780.10   22.03 
   2   1 -15  784.51   21.90 
   2  -1 -15  785.54   22.82 
   2  -1 -15  800.27   23.71 
   2   1 -15  793.67   24.22 
   2  -3  -5  200.48   18.71 
  -2  -3   5  189.35   19.01 
   2   3  -5  198.67   18.79 
  -2   3   5  212.41   20.04 
   2   3  -5  200.56   18.56 
   2  -1 -15  721.27   23.00 
  -2   1  15  792.52   23.14 
  -2  -1  15  752.53   22.70 
  -3   0  -9    0.70    0.85 
  -3   0  -9    0.61    1.28 
  -1   3 -11  243.40   22.93 
   1   3  11  231.95   21.41 
  -1  -3 -11  229.33   21.66 
  -1   3 -11  226.92   21.23 
   1   3  11  228.36   21.08 
   1   3  11  214.26   20.18 
   1  -3  11  210.86   19.68 
  -1  -3 -11  216.27   20.49 
   3  -1  -8   23.18    7.07 
  -3   1   8   14.20    5.48 
   3   1  -8   15.13    3.32 
  -3  -1   8   14.83    6.25 
   2   3   5   75.53    7.38 
   2  -3   5   85.17    8.55 
  -2  -3  -5   74.16    7.59 
   2  -3   5   78.89    7.86 
  -2   3  -5   75.71    8.40 
   2   3   5   71.04    7.21 
  -2  -3  -5   74.23    7.25 
  -2   3  -5   80.17    7.83 
   2   3   5   81.23    7.85 
  -1  -1  18   91.42   27.56 
  -1  -1  18   72.59   24.42 
   1  -1 -18   73.92    7.73 
   1   1 -18   69.34    7.56 
   1  -1 -18   76.26   26.45 
   1  -1 -18   78.67   11.63 
  -2   0  16   73.38    7.93 
  -2   0  16   76.06    7.57 
   2   0 -16   80.43    9.15 
   2   0 -16   76.62    7.49 
  -2   1 -15   23.80    4.60 
   1  -1  18   77.49    7.61 
  -2  -1 -15   26.56    5.32 
  -1   1 -18   83.03    8.93 
  -2  -1 -15   25.83    4.63 
   2   1  15   24.14    4.23 
  -1  -1 -18   74.53    9.07 
  -2   1 -15   25.62    5.92 
  -1   1 -18   87.68    8.51 
  -1  -1 -18   75.05    7.12 
  -1  -1 -18   80.19    7.81 
  -3   1  -8   24.11    6.53 
   3   1   8   16.93    4.92 
  -3   1  -8   22.02    4.45 
  -3  -1  -8   19.49    3.70 
  -3  -1  -8   22.90    5.03 
   1  -2 -16   91.75    8.73 
   1   2 -16  101.07   43.68 
  -1  -2  16   60.33    8.01 
   1   2 -16   81.20    8.40 
  -1   2  16   93.57    9.06 
   1  -2 -16   77.91    9.69 
   0  -1  19   43.56    7.98 
   0  -1 -19   49.23   18.92 
   0  -1 -19   38.19    7.24 
   0  -1 -19   67.40   26.76 
   0   1 -19   40.51   17.51 
   0   1 -19   57.30   24.72 
   0  -1 -19   47.90    9.59 
   2   3  -6  676.87   18.78 
  -2   3   6  719.62   21.24 
   2  -3  -6  684.33   19.59 
  -2  -3   6  660.70   23.85 
   0  -2 -17   51.76    8.66 
   0   2 -17   52.69   15.99 
   0  -2 -17   44.16    7.91 
   0   2 -17   47.28    8.38 
   0  -2 -17   49.79    8.71 
   0  -2 -17   48.97    8.21 
   3   0 -10  288.62    9.44 
   3   0 -10  289.63   10.14 
  -3   0  10  315.80   10.82 
  -1   2 -16  136.53   14.21 
  -1  -2 -16   99.09   12.16 
  -1  -2 -16  140.12   15.06 
  -1   2 -16  128.13   14.13 
   2   0  16  377.03   11.34 
  -2   0 -16  415.00   14.11 
  -2   0 -16  426.65   12.94 
   2   3   6  139.91   13.17 
   2  -3   6  139.55   13.51 
  -2  -3  -6  134.41   13.49 
  -2  -3  -6  130.60   12.42 
   2  -3   6  132.06   12.46 
  -2   3  -6  130.96   12.57 
  -2   3  -6  143.84   13.95 
  -1   0  19   -1.18    9.99 
  -3  -2   0  164.01   15.86 
   3  -2   0  168.65   16.09 
   1   0 -19    0.33    0.44 
   1   0 -19    0.26    0.51 
  -1   0  19    0.37    0.98 
   3  -2   0  181.34   17.49 
   1   0 -19   -5.54   24.06 
  -3   2   0  179.32   17.41 
   0  -3 -13   27.33    9.78 
   0  -3 -13   35.29   18.38 
   0   3  13   23.24    8.72 
   0   3  13   27.27    4.68 
   0  -3 -13   22.68    6.18 
   0   3 -13   29.84   12.03 
   0  -3  13   23.21    4.73 
   0   3 -13   26.81   11.43 
  -3  -2   1  426.49   13.92 
   3  -2  -1  380.37   12.14 
   3  -2  -1  415.01   13.94 
  -3   2   1  467.14   14.95 
  -3  -2  -1   46.62    8.30 
   3  -2   1   46.92    9.67 
  -3   2  -1   52.18    9.23 
   3  -2   1   47.50    8.54 
   3  -2  -2   52.83   16.10 
   2  -2 -13  765.39   22.55 
  -2   2  13  968.04   27.67 
   3   1  -9  133.89   12.63 
   3  -2  -2   64.24    6.78 
   3   1  -9  128.22   12.57 
  -3  -2   2   59.27    6.29 
   3  -1  -9  122.58   12.06 
  -2  -2  13  769.25   27.38 
   3  -1  -9  129.61   12.47 
  -3  -1   9  153.02   14.85 
  -3   2   2   63.86    6.64 
  -3   1   9  132.41   12.79 
   2  -2 -13  833.33   25.09 
   2  -2 -13  741.84   21.90 
   0   4   0    8.92    3.58 
   0   4   0    9.06    1.58 
   0  -4   0   10.25    4.10 
  -1   0 -19   13.29   10.36 
  -1   0 -19    6.01    5.50 
   1   0  19   -0.04    0.70 
  -3  -2  -2   47.08    8.32 
   3  -2   2   42.79    9.45 
  -3  -2  -2   49.09    8.75 
  -3   2  -2   43.31    7.67 
  -3   0 -10  132.60   12.85 
  -3   0 -10  134.86   13.50 
   0   4   1   52.21    8.75 
   0  -4  -1   52.97   16.08 
   0   4  -1   49.45    8.59 
   0   4  -1   43.82    7.67 
   0   4   1   55.47   16.80 
   0   4   1   53.00   15.90 
   0   4  -1   50.01    8.36 
   0  -4   1   55.51   16.85 
   1  -3 -12  453.77   14.59 
   1  -3 -12  469.34   16.36 
   1  -3 -12  462.55   13.57 
   1   3 -12  414.76   43.35 
   1   3 -12  446.43   14.52 
  -1   3  12  438.47   13.53 
  -1   3  12  469.43   13.84 
  -3   2   3    5.69    2.44 
  -3  -2   3    6.33    2.84 
   3  -2  -3    6.27    1.97 
   3  -2  -3    3.90    1.89 
   0  -4  -2  193.06   18.21 
   2   3  -7  177.16   16.36 
   0   4  -2  241.47   22.70 
   0   4   2  222.76   20.52 
   0   4  -2  136.50   12.59 
   0   4  -2  243.49   22.78 
   0  -4   2  244.49   22.99 
   2   3  -7  177.93   17.54 
   0   4   2  222.28   20.86 
  -2   3   7  178.33   16.97 
   0   4  -2  234.18   21.54 
  -2  -3   7  164.64   21.40 
   0  -4  -2  223.90   21.12 
   0   0 -20  449.83   14.46 
   0   0 -20  435.09   13.01 
   0   0 -20  471.42   15.46 
  -1  -3 -12   34.66    6.32 
  -1   3 -12   33.29    5.99 
   1   3  12   37.11    6.26 
  -1  -3 -12   45.56   19.09 
   1  -3  12   31.03    5.47 
   1   3  12   36.97    6.28 
  -1   3 -12   33.82    6.34 
   1   3  12   36.06    8.32 
  -2   2 -13   10.51    2.42 
  -2  -2 -13   10.02    1.88 
  -2   2 -13   13.52    5.57 
   2   2  13   13.08    2.49 
  -2  -2 -13   12.39    5.34 
  -3   1  -9  173.64   16.81 
  -3  -2  -3   49.53    8.79 
  -3   2  -3   51.49    9.01 
  -3  -1  -9  175.75   17.09 
   3  -2   3   44.88    7.89 
  -3  -1  -9  159.85   15.20 
  -3   2  -3   43.01    7.63 
   3   1   9  159.87   15.29 
  -3   1  -9  168.44   16.12 
  -3  -2  -3   47.95    8.38 
  -2   3  -7   77.51    8.59 
   2   3   7   87.65    8.39 
   2  -3   7   83.22    8.03 
  -2   3  -7   82.68    8.05 
  -2  -3  -7   77.38    9.90 
  -2  -3  -7   72.18    7.39 
   0   4  -3  383.63   12.33 
   0   4   3  390.68   12.22 
   0   4  -3  402.67   12.94 
   0  -4   3  362.18   13.20 
   0  -4  -3  355.04   12.94 
   0   4   3  377.73   10.72 
   0   4  -3  389.24   10.90 
   0   4  -3  376.63   10.59 
   0  -4  -3  319.49   15.25 
   3  -2  -4   54.09   16.49 
   3  -2  -4   56.35   17.11 
  -3  -2   4   59.37    6.19 
  -3   2   4   55.55   16.91 
   2   1 -16  479.11   15.99 
   2   1 -16  482.89   13.78 
   2  -1 -16  446.15   14.43 
   2  -1 -16  487.47   14.87 
  -2   1  16  475.10   14.48 
  -2  -1  16  477.56   13.74 
  -2  -1  16  481.03   15.46 
   3  -2   4   26.82    5.01 
  -3  -2  -4   32.68    6.21 
  -3   2  -4   33.94    6.11 
  -3   2  -4   36.65    6.71 
  -3  -2  -4   33.47    6.25 
  -3   0  11    2.56    1.72 
   3   0 -11    1.51    1.34 
   0   4   4  101.81    9.52 
   0   4  -4  106.70    9.97 
   0   4  -4   89.04    8.66 
   0   4   4  112.38   10.78 
   0  -4  -4   95.68    9.01 
   0  -4   4  107.99   10.54 
   0  -4  -4  110.01   10.92 
   0  -4  -4  101.94   32.29 
   0   4  -4   98.87    9.86 
   0   4  -4  101.00    9.46 
  -3   1  10  107.27   10.53 
  -3  -1  10  114.66   11.37 
   3  -1 -10  109.26   10.75 
   3  -1 -10  115.30   11.57 
   3   1 -10  108.44   10.42 
   3   1 -10  107.83   11.06 
   2  -3  -8  617.64   18.02 
  -2   3   8  638.36   19.06 
  -2  -1 -16   64.01    6.93 
  -3   2   5   73.61    7.52 
  -2   1 -16   65.77    7.04 
  -2  -3   8  602.75   22.72 
   2   1  16   72.17    7.28 
   2   3  -8  624.82   19.19 
   3  -2  -5   74.38    7.82 
   2   3  -8  607.80   16.63 
   2  -3  -8  633.48   20.63 
  -3  -2   5   74.12    7.63 
  -2  -1 -16   67.85    6.55 
  -2   1 -16   68.56    6.96 
   2   0 -17    0.95    0.65 
  -2   0  17    1.52    0.63 
  -2   0  17   -0.09    1.18 
   2   0 -17    0.51    0.93 
  -1   1  19  523.69   15.45 
  -1  -1  19  474.55   14.01 
  -1  -1  19  497.08   16.23 
   1  -1 -19  458.38   14.42 
   1  -1 -19  504.96   16.29 
   1  -1 -19  447.52   14.22 
   1   1 -19  538.10   17.25 
  -3   0 -11    0.90    2.00 
  -3  -2  -5   97.43   10.00 
  -3  -2  -5  107.46   10.52 
  -3   2  -5  105.43   12.02 
  -3   2  -5  103.14   10.26 
   1  -2 -17  458.21   14.59 
  -2   3  -8  206.18   19.64 
  -2  -3  -8  188.86   17.86 
  -1  -2  17  426.11   12.67 
   2   3   8  198.93   18.55 
   2  -3   8  187.26   17.57 
   1   2 -17  454.86   14.65 
   1  -2 -17  443.35   14.21 
  -1   2  17  466.74   13.61 
   1   2 -17  456.78   15.52 
  -2  -3  -8  188.14   18.01 
  -2   3  -8  188.79   18.43 
   1  -2 -17  433.96   12.62 
   0  -3 -14  525.03   14.58 
   0   3 -14  543.78   16.71 
   0   3  14  418.89   11.69 
   0  -3 -14  534.23   16.71 
   0   3 -14  496.92   15.27 
   0  -3 -14  517.33   16.07 
   0  -3  14  482.92   14.75 
   0   3  14  510.70   15.46 
  -1  -1 -19  502.17   14.37 
  -1   1 -19  551.39   16.45 
  -1  -1 -19  516.88   14.69 
  -1   1 -19  538.81   17.38 
  -1  -1 -19  489.41   16.30 
   0  -4  -5   -1.77    8.28 
   0   4  -5   26.68    5.28 
   0  -4  -5   31.28    6.68 
   0   4   5   28.06    5.01 
   0  -4   5   27.33    5.03 
   0   4   5   33.51    5.91 
   0   4  -5   28.51    8.35 
  -3  -1 -10  217.10   20.89 
  -3   1 -10  240.21   22.75 
   3   1  10  188.10   17.67 
   0   4  -5   26.64    4.61 
  -3   1 -10  221.55   21.31 
  -3  -1 -10  215.32   20.29 
   0  -4  -5   30.70    5.31 
   2  -2 -14  457.34   14.59 
   2  -2 -14  456.87   14.04 
  -2  -2  14  465.86   17.94 
  -2   2  14  464.23   14.49 
   1  -3 -13  255.79   24.30 
  -1   3  13  240.25   22.73 
   1  -3 -13  252.86   23.73 
  -1   3  13  281.46    8.65 
  -1  -3  13  263.20   78.87 
   1   3 -13  269.46   80.95 
   1   3 -13  242.55   23.30 
  -1   2 -17   62.62    6.33 
   1  -3 -13  245.41   22.78 
  -1  -2 -17   71.99    8.67 
  -1   2 -17   54.35   16.83 
  -1  -2 -17   66.11    7.62 
   0  -2 -18   12.31    2.96 
   0  -2 -18   12.13    2.13 
   0   2 -18    4.96    2.88 
   0  -2 -18   14.80    4.31 
   0  -2 -18   10.59    1.83 
   0   2 -18   11.12    6.45 
  -2   0 -17    0.63    0.90 
   2   0  17    0.28    0.52 
  -2   0 -17    0.51    1.20 
   3  -2  -6   24.06    4.68 
   3  -2  -6   23.87    4.52 
  -3  -2   6   27.93   11.84 
   0  -1 -20  826.39   23.26 
   0   1 -20  974.84   29.29 
  -3   2   6   24.26    4.53 
   0  -1 -20  808.45   26.99 
   0  -1  20  822.99   24.70 
   0  -1 -20  862.48   25.44 
   0  -1 -20  881.28   24.70 
   0   1 -20  875.12   25.54 
   1  -3  13  159.15   15.07 
  -1  -3 -13  155.41   14.97 
   1   3  13  166.07   15.26 
  -1   3 -13  147.45   14.19 
  -1   3 -13  164.30   15.59 
   1   3  13  164.15   15.08 
  -1  -3 -13  170.54   16.38 
   1   4   0   29.78    5.57 
  -1   4   0   34.49    6.22 
   1   4   0   35.02    6.16 
   1  -4   0   38.20    7.07 
   1   4   0   34.40    5.97 
  -1  -4   0   30.57    9.75 
  -2  -2 -14   17.28    5.73 
  -2   2 -14   17.43    3.45 
  -2  -2 -14   16.34    2.89 
   2   2  14   18.10    3.16 
  -2   2 -14   19.84    7.26 
   1   4  -1  349.94   10.64 
   1   4  -1  318.17    9.95 
   1  -4  -1  321.91   11.03 
   1   4  -1  337.74   11.00 
  -1  -4   1  342.55   10.78 
  -1   4   1  325.04   11.55 
  -3  -2  -6   65.27    7.52 
  -1  -4  -1  255.03   23.91 
  -3   2  -6   69.14    7.17 
   1   4   1  211.93   19.90 
   1   4   1  232.44   21.70 
  -3  -2  -6   70.81    7.41 
   1   4   1  261.15   78.38 
  -1   4  -1  232.21   21.86 
   1  -4   1  229.15   21.76 
  -3   2  -6   67.25    8.54 
   3   2   6   59.90    5.95 
  -1   0  20 1167.58   33.49 
  -1   0  20 1087.83   33.68 
   1   0 -20 1072.20   31.03 
   1   0 -20 1133.69   31.92 
   1   0 -20 1100.87   32.89 
   2  -3  -9  555.86   17.43 
   2   3  -9  583.18   18.17 
   2  -3  -9  587.32   18.90 
  -2  -3   9  561.35   17.57 
  -2   3   9  557.76   17.01 
   3   0 -12  308.93    9.77 
   0  -4   6 2305.27  690.63 
   0  -4  -6 2112.44   59.30 
   0   4   6 2161.94   59.37 
   1   4  -2  326.38   10.16 
   0   4  -6 2251.55  674.48 
   0  -4  -6 2040.20   56.16 
   3   0 -12  282.16   10.31 
  -1   4   2  284.94   10.16 
   0  -4  -6 2193.85  657.25 
  -3   0  12  322.72   14.92 
   1   4  -2  323.93   14.69 
  -1  -4   2  337.99   15.98 
   0   4  -6 2256.92  676.31 
   1  -4  -2  335.29   13.29 
   0   4   6 2182.43  653.83 
   1   4  -2  350.18   10.67 
   1   4   2   76.04    8.58 
  -1   4  -2   75.86    7.76 
   1   4   2   70.11    6.94 
  -1  -4  -2   88.28   11.07 
   1   4   2   82.62    8.07 
   1   4   2   84.69    9.05 
   1  -4   2   83.07    8.41 
   3   1 -11  113.13   10.81 
   3   1 -11  114.34   12.23 
   3  -1 -11  108.96   11.04 
  -3   1  11  113.35   11.18 
  -3  -1  11  122.06   12.10 
   3  -1 -11  108.38   10.96 
  -1   0 -20   20.38    8.05 
   1   0  20   15.90    3.04 
  -1   0 -20   15.97    3.29 
  -2  -3  -9   86.37    8.55 
   2  -3   9   87.84    8.53 
  -2  -3  -9   74.92    7.78 
  -2   3  -9   89.44    8.79 
   2   3   9   74.59    7.15 
  -2   3  -9   92.08    9.22 
   1   4  -3  335.05   14.81 
   1   4  -3  305.37    9.81 
   1   4  -3  297.41    9.22 
   1   4  -3  288.28    9.19 
  -1   4   3  313.12   12.36 
  -1  -4   3  337.10   13.07 
  -1  -4  -3  181.80   17.70 
   1   4   3  182.18   17.21 
   1  -4   3  171.61   16.41 
   1   4   3  198.31   18.69 
  -1  -4  -3  182.68   17.20 
  -1   4  -3  185.66   17.81 
   1   4   3  158.88   15.22 
  -3   2   7  432.86   13.92 
   3  -2  -7  389.54   12.70 
   3  -2  -7  410.67   13.67 
  -3  -2   7  443.23   14.59 
   2   1 -17  205.62   19.08 
   2  -1 -17  200.67   18.94 
   2   1 -17  216.80   21.06 
   2  -1 -17  202.95   19.52 
  -2   1  17  207.71   19.61 
  -2  -1  17  206.68   19.24 
  -2  -1  17  201.85   19.33 
  -3   0 -12  688.83   21.63 
  -3   0 -12  767.00   22.79 
   0   0 -21    0.42    0.53 
   0   0 -21    5.61    4.57 
  -3  -1 -11  182.08   17.71 
  -3   1 -11  195.07   19.04 
  -3  -1 -11  180.06   17.03 
   3   1  11  133.04   12.66 
  -3   1 -11  170.12   16.48 
  -3   2  -7  126.74   12.96 
  -3   2  -7  132.08   13.88 
  -3  -2  -7  145.97   16.08 
  -3  -2  -7  151.57   14.52 
   3   2   7  124.99   11.91 
  -1  -4   4  858.89   38.47 
   1  -4  -4  812.10   28.29 
  -1   4   4  861.88   38.92 
   1   4  -4  794.83   37.25 
   1   4  -4  779.06   34.89 
   1   4  -4  770.22   34.83 
   1   4  -4  809.37   23.31 
   0  -4  -7   65.55   22.05 
   0   4   7   66.22    8.28 
  -1  -4  -4  207.51   10.10 
   0  -4  -7   66.47    8.05 
   0   4  -7   95.99   35.42 
   1   4   4  193.00    9.35 
   1   4   4  170.66   10.63 
   1   4   4  180.68    8.71 
   0  -4   7   66.00    8.45 
   0  -4  -7   62.91    7.99 
  -1  -4  -4  189.93   12.63 
   0   4   7   73.42   21.94 
  -1   4  -4  188.10   11.23 
   0   4  -7   61.12    7.71 
   1  -4   4  190.10   11.53 
   0  -3 -15   88.75   10.44 
   0   3  15   92.21   10.81 
  -2   1 -17  771.17   34.79 
   0  -3  15   92.49   11.27 
   0   3 -15   86.83   10.69 
   0  -3 -15   97.09   12.34 
  -2   1 -17  748.31   34.42 
   0   3 -15   81.09   11.33 
   2   1  17  748.27   33.31 
  -2  -1 -17  779.47   35.91 
   0  -3 -15   85.84   10.56 
  -2  -1 -17  752.73   33.56 
  -1   3  14   35.31    9.81 
   1  -3 -14   35.05    9.53 
   1   3 -14   34.65    9.53 
  -1   3  14   38.58    4.77 
   2   0 -18    5.56    2.67 
   1  -3 -14   38.25    5.17 
   1   3 -14   44.24   15.30 
  -2   0  18    4.54    1.84 
  -1  -3  14   39.51    4.83 
  -2   0  18    4.84    2.25 
   2   0 -18    4.91    2.94 
   1  -3 -14   35.77    4.45 
   2  -2 -15   22.93    9.72 
  -2   2  15   25.23    7.74 
   2  -2 -15   25.85    8.15 
  -2  -2  15   28.47    9.09 
  -2  -3  10   81.26   31.85 
  -2   3  10   66.21    8.19 
   2   2 -15   29.29    9.16 
  -3  -2   8  160.21   10.81 
   3  -2  -8  162.36    8.56 
  -3   2   8  159.98    8.92 
   1  -3  14   23.81    9.11 
  -1   3 -14   22.17    6.94 
   1   4  -5   74.64    9.02 
  -1  -3 -14   22.84    7.29 
   1  -4  -5   81.40   10.56 
  -1   4   5   75.06    9.22 
   1   4  -5   74.16    9.03 
  -1  -3 -14   23.09    7.25 
  -1   3 -14   26.19    9.98 
   1  -4  -5   69.23    8.18 
   1   4  -5   77.12    9.33 
  -1  -4   5   90.31   36.57 
   1   4  -5   66.88    8.96 
   1   2 -18    3.08    1.45 
  -1  -2  18   -0.41    5.92 
   1  -2 -18    2.39    1.33 
   1  -2 -18    1.64    1.12 
  -1   2  18    3.14    1.42 
   1   2 -18    2.81    1.38 
   1  -2 -18    3.27    1.56 
  -1  -4  -5  408.94   21.60 
  -1  -4  -5  407.59   18.79 
  -1   4  -5  408.38   19.94 
   1   4   5  403.77   18.46 
   1   4   5  399.58   18.27 
   1   4   5  380.04   18.07 
   1  -4   5  373.86   18.63 
  -1   1  20  206.19   10.62 
   2   3  10   44.38    5.44 
  -1  -1  20  132.31   49.72 
  -1  -1  20  162.96    9.46 
   1  -1 -20  203.11   12.27 
   2  -3  10   51.47    6.47 
   1  -1 -20  170.38    8.14 
  -2  -3 -10   48.75   11.13 
  -2   3 -10   51.35    8.85 
  -2   3 -10   50.35    6.45 
  -2  -3 -10   53.34    6.92 
   1  -1 -20  209.06   10.47 
   1   1 -20  211.63   13.53 
   3   1 -12   73.58    9.18 
   3  -1 -12   64.35    8.93 
  -3   1  12   69.83    9.21 
  -3  -1  12   74.93    9.43 
   3   0 -13    0.80    1.10 
   3   0 -13    0.55    1.05 
  -3   0  13    0.17    1.11 
  -2   2 -15   99.81   12.23 
   2   2  15  102.43   12.14 
  -2  -2 -15   98.18   11.61 
  -2   2 -15  101.87   14.17 
  -2  -2 -15   93.83   11.71 
  -1   2 -18  281.62   13.74 
  -1   2 -18  313.39   16.32 
  -1  -2 -18  281.31   14.71 
  -1  -2 -18  326.24   16.18 
  -3   2  -8   47.02    7.19 
  -3  -2  -8   47.73    6.61 
  -3  -2  -8   47.61    6.79 
  -3   2  -8   43.74    6.37 
   3   2   8   43.29    5.42 
   2   0  18  246.20   12.65 
  -2   0 -18  289.53   13.56 
  -2   0 -18  244.01   12.49 
   0   4   8    4.15    2.08 
  -1   1 -20   41.25    8.33 
   0   2 -19  890.38   40.33 
   0   4  -8    4.40    2.19 
   0  -4  -8    6.21    2.98 
   0   4  -8    8.34    5.16 
   0  -2 -19  864.99   40.37 
   0   4   8    6.14    3.21 
   0  -2 -19  881.07   40.37 
  -1  -1 -20   35.77    5.19 
   0  -4   8    6.59    2.62 
  -1  -1 -20   38.71    4.75 
   0  -4  -8    4.18    2.23 
   0  -2 -19  874.01   38.27 
  -1  -1 -20   42.18   10.53 
   0   2 -19  841.44   37.88 
   0  -2 -19  832.52   36.46 
   0  -4  -8    6.95    3.67 
  -1   1 -20   50.23   22.70 
   1   4  -6 1537.40  404.07 
  -1   4   6 1417.31  372.56 
  -1  -4   6 1349.08  354.55 
   1   4  -6 1305.59  343.14 
   1  -4  -6 1370.91  360.22 
   1  -4  -6 1450.52  381.53 
   1   4  -6 1342.11  353.30 
   1   4  -6 1555.71  408.94 
   1  -4   6  579.07   25.49 
   1   4   6  576.94   26.72 
  -1  -4  -6  571.68   26.77 
  -1  -4  -6  559.77   25.54 
   1   4   6  550.16   25.40 
  -1   4  -6  556.26   25.93 
   1   4   6  537.36   24.31 
  -1   4  -6  553.08   24.38 
  -3   1 -12    8.62    4.69 
  -3  -1 -12    7.51    3.31 
  -3  -1 -12    5.56    3.33 
  -3   1 -12   12.51    5.68 
   3   1  12    4.72    2.69 
   0  -1 -21  964.52   42.66 
   0  -1 -21  989.49  260.04 
   0   1 -21  987.50  259.64 
   0  -1 -21 1052.74  276.87 
   0   1 -21  958.82   43.83 
  -3   0 -13    1.54    2.55 
   0  -1 -21  966.48   44.07 
  -3   0 -13    0.19    1.87 
   3   2  -9  170.20    9.47 
  -3  -2   9  166.66    9.66 
  -3   2   9  166.81    8.69 
   3  -2  -9  147.57    7.82 
   3  -2  -9  177.20    9.33 
   3   2  -9  175.40    8.13 
  -1   0  21   -0.62    5.67 
   2   3 -11   91.31   11.29 
  -2  -3  11   77.77   10.26 
   2  -3 -11   73.01    8.95 
   1   0 -21    1.98    2.20 
   1   0 -21    1.50    1.13 
  -1   0  21    0.39    0.53 
  -2   3  11   80.99    9.93 
   1   0 -21   -4.39    1.03 
   2   1 -18    5.22    1.85 
   2  -1 -18    8.17    3.87 
   2   1 -18    8.92    4.17 
   2  -1 -18    8.78    4.36 
  -2  -1  18    9.24    3.75 
  -2   1  18    7.58    3.79 
  -2  -1  18    9.10    4.84 
   3   2   9  151.22    7.46 
  -3   2  -9  152.62    8.28 
  -3  -2  -9  188.74    9.36 
  -3  -2  -9  178.51    9.90 
  -3   2  -9  185.47    9.69 
  -1   0 -21    0.24    0.44 
  -2  -3 -11  308.59   15.21 
  -1   0 -21    3.82    4.23 
  -2  -3 -11  293.07   13.65 
   2  -3  11  284.18   13.42 
  -2   3 -11  287.63   13.67 
  -1   0 -21   -1.96    0.99 
   2   3  11  289.67   13.18 
  -2   3 -11  271.43   13.96 
   1   4  -7   62.29    7.70 
  -1  -4   7   57.82    7.04 
   1   4  -7   64.97    8.37 
   1   4  -7   59.16    8.72 
  -1   4   7   30.32    9.18 
   1  -4  -7   52.40    6.86 
   1  -4  -7   65.83    7.91 
  -1   4   7   61.03    7.66 
   0  -4  -9  387.52   18.03 
   0   4  -9  446.83   21.11 
   0  -4   9  370.30   17.28 
   0  -4  -9  403.92   18.77 
   0  -4  -9  391.66   18.57 
   0   4   9  401.46   18.50 
   0   4   9  412.16   18.69 
   0   4  -9  403.53   18.48 
  -1  -4  -7  101.45   12.61 
  -1  -4  -7  101.95   12.32 
   1  -4   7   93.02   11.58 
   1  -4   7  101.02   11.99 
   1   4   7  107.90   12.87 
  -1   4  -7  105.97   13.05 
   1   4   7   97.17   11.67 
   1   4   7  102.39   12.30 
  -1   4  -7  102.91   12.19 
   1  -3 -15   72.82    9.39 
   1   3 -15   54.56    7.58 
  -1  -3  15   40.08    4.76 
   1  -3 -15   68.00    8.32 
  -1  -3  15   63.60    7.57 
   1  -3 -15   70.38    8.84 
   1   3 -15   62.71   11.01 
  -1   3  15   61.31    7.90 
   0   3  16  208.00    9.18 
   0   3 -16  189.92    9.74 
   0   3 -16  197.09   10.17 
   0  -3 -16  178.09    9.46 
   0  -3 -16  207.81   10.68 
   2  -2 -16   19.44    6.14 
   2   2 -16   19.13    6.15 
   2  -2 -16   17.18    5.45 
   2  -2 -16   18.16    6.21 
  -2  -2  16   26.66   11.44 
  -2   2  16   20.88    6.66 
   3  -1 -13  143.47    7.68 
  -3  -1  13  156.19    8.65 
  -3   1  13  146.21    7.85 
   3   1 -13  150.40    7.16 
   3   1 -13  152.40    8.66 
   3  -1 -13  142.69    7.88 
  -1  -3 -15   56.09    7.19 
  -1   3 -15   54.75    7.80 
  -1   3 -15   57.48    7.90 
  -1  -3 -15   63.78    8.22 
   1  -3  15   52.70    8.12 
   2   1  18    6.75    2.50 
  -2  -1 -18    7.47    3.78 
  -2   1 -18    9.06    4.64 
  -2   1 -18    8.12    5.01 
  -2  -1 -18    8.92    4.19 
  -3   0  14  305.80   15.35 
   3   0 -14  295.28   13.79 
   3   0 -14  299.89   15.10 
   0   0 -22  690.24   30.93 
   0   0 -22  595.82   26.84 
  -2   0  19    0.52    0.70 
   2   0 -19    0.64    0.59 
   2   0 -19   -0.58    1.51 
  -2   0  19    0.37    0.56 
  -3   2  10  113.08   13.77 
   3  -2 -10  105.77   13.45 
   3  -2 -10  110.55   14.46 
   3   2 -10  106.22   12.58 
  -3  -2  10  113.07   16.34 
  -2   2 -16  151.45    8.61 
  -2   2 -16  132.44   16.08 
  -2  -2 -16  140.10    8.12 
  -2  -2 -16  135.48   35.71 
   2   2  16  152.86    7.07 
   1  -2 -19  160.61    8.59 
   1  -2 -19  116.49   13.89 
  -1  -2  19  152.82    7.19 
   1   2 -19  166.37    9.04 
   1   2 -19  160.46    8.40 
  -1   2  19  159.78    7.91 
   1  -2 -19  152.39    8.19 
  -3   1 -13  802.01   37.46 
   3   1  13  770.43   34.40 
  -3  -1 -13  761.66   35.44 
  -3   1 -13  761.11   35.06 
  -3  -1 -13  778.81   36.15 
  -1  -4   8   46.36    5.69 
   1  -4  -8   43.64    5.56 
   1   4  -8   65.28   24.55 
  -1   4   8   56.76    7.12 
   1  -4  -8   50.81    7.11 
  -1   4   8   50.52    6.25 
   1   4  -8   55.26    6.86 
   1  -4  -8   48.97    6.11 
  -1   4  -8   66.69    8.68 
   1   4   8   62.33    7.55 
   1  -4   8   53.30    7.96 
   1   4   8   55.31    7.17 
  -1  -4  -8   61.31    8.44 
   1  -4   8   67.92    8.13 
  -1  -4  -8   63.63    7.91 
  -1   4  -8   61.62    7.44 
   1   4   8   57.35    7.11 
  -3   0 -14  135.72   36.09 
  -3   0 -14  139.90    8.57 
  -2  -3  12  243.31   12.49 
   2  -3 -12  223.51   10.92 
  -2   3  12  228.75   11.68 
   2   3 -12  254.49   17.15 
  -3  -2 -10  108.23   13.62 
  -3   2 -10   91.45   11.56 
  -3   2 -10   95.93   11.98 
  -1   2 -19  730.33   36.87 
  -3  -2 -10   98.00   12.27 
  -1  -2 -19  784.06   35.91 
   3   2  10   88.01   10.58 
  -1   2 -19  710.15   40.01 
  -1  -1  21  331.24   16.45 
   2   0  19    0.61    0.61 
   0  -4 -10  516.45   23.56 
   1  -1 -21  338.44   15.82 
  -2   0 -19    1.07    1.04 
   1   1 -21  370.17   17.38 
   0   4 -10  497.97   30.23 
   1  -1 -21  411.61   19.27 
   0  -4 -10  448.88   21.45 
  -1   1  21  370.52   17.39 
   0   4  10  522.07   23.53 
   1  -1 -21  370.35   18.44 
   0   4 -10  483.78   22.71 
   1   1 -21  359.29   17.66 
   0  -4 -10  485.47   22.72 
   0  -4  10  503.50   23.02 
   0   4  10  474.88   22.61 
   0  -2 -20  315.39   15.49 
   0   2 -20  290.85   15.33 
   0  -2  20  380.71   17.81 
   0  -2 -20  286.25   21.50 
   0   2 -20  327.89   18.63 
   0  -2 -20  300.39   13.30 
   0  -2 -20  302.64   13.53 
  -2  -3 -12    6.17    3.09 
   2   3  12    6.54    3.12 
   2  -3  12    3.73    1.78 
  -2  -3 -12    5.54    3.03 
  -2   3 -12    7.48    4.17 
  -2   3 -12    6.43    3.01 
  -1  -1 -21  128.31   15.14 
  -1  -1 -21  128.41   16.10 
  -1  -1 -21  140.88    8.00 
  -1   1 -21  129.87   15.78 
  -1   1 -21  139.27    7.95 
   1   4  -9  383.83   18.14 
   3   1 -14  620.67   29.28 
  -3   1  14  602.10   28.03 
   1  -4  -9  323.85   15.23 
  -3  -1  14  620.00   29.59 
   1  -4  -9  347.61   15.88 
  -1   4   9  359.86   16.70 
   3  -1 -14  601.72   27.46 
   1  -4  -9  359.00   17.37 
   3   1 -14  586.89   26.18 
  -1  -4   9  324.71   14.83 
  -1   4   9  330.37   15.01 
   1   4  -9  348.03   16.27 
   3  -2 -11  626.13   29.54 
   3   2 -11  649.14   30.96 
   3   2 -11  609.27   26.86 
  -3   2  11  640.16   29.46 
   3  -2 -11  619.01   29.14 
  -3  -2  11  604.86   28.47 
   0  -1 -22   39.96   18.04 
   0  -1 -22   25.17   13.22 
   0  -1 -22   27.48   13.45 
   0   1 -22   29.21   14.94 
   0   1 -22   21.79   12.61 
  -1  -3  16  652.84   28.83 
   1  -3 -16  717.46   33.03 
   1   3 -16  695.45   31.83 
   1  -3 -16  713.80   32.67 
  -1  -3  16  646.71   28.52 
  -1   3  16  697.52   31.23 
   1   3 -16  724.25   33.10 
   1  -3 -16  650.15   28.95 
  -1   4  -9  124.14   14.71 
  -1  -4  -9  127.40   15.31 
  -1   4  -9  113.95   13.91 
   1  -4   9  117.62   14.28 
   1   4   9  119.26   14.14 
   1   4   9  113.95   13.71 
  -1  -4  -9  125.02   15.23 
   1  -4   9  115.78   13.83 
   1   4   9  116.98   13.89 
  -2   1  19  246.41   11.99 
  -2  -1  19  244.63   12.34 
   2   1 -19  236.99   13.42 
   2   1 -19  235.28   10.87 
  -2  -1  19  234.95   10.99 
   2  -1 -19  244.97   12.35 
   2  -1 -19  226.70   11.81 
   0  -3 -17  212.19   11.51 
   0   3 -17  170.22    8.79 
   3   0 -15    0.78    0.71 
   0   3 -17  193.60   14.81 
   0  -3 -17  203.47   10.95 
  -1   3 -16   29.36    9.14 
  -1   3 -16   30.87    9.67 
  -1  -3 -16   25.94    8.17 
  -1  -3 -16   28.80    8.94 
   2  -2 -17  125.60   15.53 
  -2   2  17  124.49   14.95 
  -2  -2  17  125.95   15.52 
   2   2 -17  129.34   17.58 
   2  -2 -17  120.85   15.23 
  -1   0  22    0.81    0.84 
   1   0 -22    0.42    0.65 
   1   0 -22    1.98    1.15 
   3  -3   0  632.48   30.23 
  -3   3   0  847.01   38.65 
  -3  -3   0  660.78   32.93 
   3   3   0  664.24   29.74 
   3  -3   0  760.87   35.06 
  -3   3   1  645.97   30.01 
  -3  -3   1  629.54   28.81 
   3  -3  -1  590.73   26.84 
   3   3  -1  571.87   26.60 
   3  -3  -1  536.61   25.23 
  -3   2 -11   95.28   11.97 
   3   2  11  101.64   12.18 
  -3  -2 -11  118.50   14.25 
   3  -3   1  140.56    8.42 
   3  -3   1  117.22   14.15 
  -3  -3  -1  142.90   55.70 
  -3   2 -11  112.91   14.78 
  -3   3  -1  124.39   15.42 
   3   3   1   91.85   13.36 
  -3  -2 -11  115.56   14.57 
   0  -4  11   10.53    5.53 
   0  -4 -11   19.93    9.43 
   0  -4 -11   14.15    4.93 
   0  -4 -11   10.41    4.91 
   0   4  11   15.92    5.63 
   0   4 -11   14.21    6.62 
   0   4  11   11.35    5.59 
   0   4 -11   15.78    8.48 
   0  -4  11   16.39    5.17 
  -3   1 -14   84.20   12.88 
  -2   3  13    4.26    2.37 
   3   1  14   74.20    9.01 
  -2  -3  13   10.48    5.24 
   2  -3 -13   11.72    5.37 
  -3  -3   2   71.21   10.08 
  -3   1 -14   82.98   10.72 
  -3   3   2   72.46    9.20 
  -3  -1 -14   78.89   11.92 
   3  -3  -2   88.24   13.58 
   2   3 -13    7.84    3.92 
  -3  -1 -14   83.86   10.88 
   3  -3  -2   72.13    8.88 
   3   3  -2   69.17    9.45 
   2  -3 -13    6.90    3.63 
  -2   3  13    9.51    5.45 
  -1   0 -22  723.93   33.87 
  -1   0 -22  675.17   31.44 
  -1   0 -22  631.35   34.25 
   3   3   2  777.00   34.78 
   3  -3   2  846.19   38.60 
  -3   3  -2  897.16   40.76 
   3  -3   2  827.97   37.14 
  -3  -3  -2  872.12   39.62 
  -4   0   0 1738.24  457.04 
  -2   1 -19   13.00    4.20 
  -4   0   1    2.00    1.85 
  -2  -1 -19   17.89    8.25 
   2   1  19   12.46    3.89 
  -2   1 -19   16.82    8.10 
  -2  -1 -19   13.72    4.49 
  -4   0  -1    2.01    3.01 
  -2   2 -17   82.47   10.43 
  -2  -2 -17   85.91   10.99 
  -2  -2 -17   92.78   11.07 
   2   2  17   96.43   11.38 
  -2   2 -17   94.74   12.69 
   3  -3  -3  144.97    8.81 
  -3   0 -15    0.38    1.09 
   3  -3  -3  122.03   14.66 
  -3   3   3  148.24    8.63 
  -3   0 -15   -0.20    1.49 
  -4   0   2  481.23   24.41 
   3   3  -3  143.68    6.93 
  -3  -3   3  141.17    7.99 
  -2   3 -13  141.80    7.52 
  -2   3 -13  131.46   16.77 
  -2  -3 -13  142.06    7.99 
   2   3  13  123.80   14.59 
   2  -3  13  141.55    7.34 
  -4   0  -2  135.23   36.62 
  -2  -3 -13  141.90    6.93 
  -3  -3  -3    8.18    3.00 
   2   0 -20    0.81    1.14 
  -3   3  -3   10.88    6.22 
   2   0 -20    0.79    1.06 
   3  -3   3    7.40    3.40 
  -2   0  20    0.75    0.82 
   3  -3   3   11.44    5.89 
  -3  -3  -3    9.46    5.15 
  -2   0  20    1.98    0.93 
   2   4   0   30.61   11.26 
  -2  -4   0   24.31    7.42 
   2  -4   0   29.98    9.10 
   2  -4   0   30.49    9.51 
   2   4   0   27.88    8.52 
   2  -4   0   31.31    9.47 
  -2   4   0   30.09    9.35 
  -2   4   1   79.70   10.04 
   2  -4  -1   71.96    9.18 
   2  -4  -1   72.22    8.57 
   2   4  -1   71.37   12.17 
  -2  -4   1   75.08    9.08 
   2  -4  -1   73.92    8.81 
   2   4  -1   78.03    9.44 
  -2   4  -1  116.82   14.40 
   1  -4 -10   49.26    6.13 
  -1   4  10   51.30    6.36 
   2  -4   1  114.54   13.53 
   2   4   1  126.32   15.20 
   2  -4   1  109.50   12.97 
  -1  -4  10   52.21    6.33 
   1   4 -10   47.47    6.50 
   2  -4   1  122.84   15.31 
   1  -4 -10   50.46    7.69 
   2   4   1  105.70   12.65 
   1   4 -10   43.65    5.55 
  -1   4  10   52.49    6.67 
   1  -4 -10   45.73    5.96 
  -2  -4  -1  127.40   15.19 
  -4   0   3    0.88    1.30 
   0   0 -23    0.58    0.75 
   1  -2 -20  137.84   36.58 
  -1  -2  20  123.02   14.56 
   1   2 -20  133.10   16.16 
   1  -2 -20  147.43    7.13 
   1   2 -20  130.44   16.04 
   1  -2 -20  129.66   17.59 
   0   0 -23    2.57    3.19 
  -1   2  20  139.19   36.75 
   2  -4  -2  108.76   12.87 
   1   4  10   56.57    6.85 
   1  -4  10   54.86    6.93 
   1   4  10   53.01    6.63 
   2   4  -2  112.09   16.31 
   1   4  10   56.96    6.91 
  -1   4 -10   47.26    6.58 
  -2  -4   2  105.71   12.60 
  -1  -4 -10   53.02    6.71 
  -1   4 -10   56.59    7.59 
   3   3  -4  131.94   15.62 
   3  -3  -4  115.22   14.09 
  -1  -4 -10   51.43    6.95 
   2  -4  -2  114.70   13.69 
  -2   4   2  112.07   14.03 
   2   4  -2  118.87   14.14 
   2  -4  -2  111.46   13.97 
   1  -4  10   63.01    8.09 
  -3   3   4  158.76    8.78 
   3  -3  -4  129.15   15.52 
   3  -3  -4  135.02   36.03 
  -3  -3   4  138.43   36.65 
  -4   0  -3    3.28    2.57 
  -4   0  -3    0.47    1.58 
   2  -4   2   22.53    9.63 
   2  -4   2   20.85    6.32 
  -2  -4  -2   16.01    5.00 
   2   4   2   18.10    5.61 
  -2   4  -2   18.73    8.35 
  -3  -2  12  179.19   12.53 
  -3   2  12  243.42   12.05 
   3   2 -12  232.42   10.41 
   3   2 -12  276.86   14.24 
  -3  -3  -4  250.33   13.06 
  -3   3  -4  258.69   13.08 
   3  -3   4  217.63   10.60 
  -3  -3  -4  238.08   11.62 
   3  -3   4  243.32   12.66 
  -4   0   4   61.29    8.30 
   2  -4  -3   18.22    5.67 
  -1   2 -20 1102.94  290.21 
  -1   2 -20 1091.84  287.36 
   2  -4  -3   17.83    5.45 
  -2   4   3   28.98   12.65 
   2   4  -3   18.31    5.70 
   2   4  -3   23.81   12.13 
  -2  -4   3   16.75    5.21 
   2  -4  -3   24.33    9.88 
  -1  -2 -20  986.29  259.66 
  -2   0 -20   83.41   10.89 
   2   0  20   70.88    8.67 
  -2   0 -20   76.10    9.32 
   2   4   3   68.94    8.46 
   2  -4   3   61.75    7.55 
   2  -4   3   64.15    8.19 
  -2  -4  -3   67.99    8.58 
  -2   4  -3   65.13    9.16 
  -3  -1  15  256.46   15.58 
  -3   1  15  256.70   13.34 
   3  -1 -15  249.51   12.37 
   3   1 -15  233.69   10.83 
  -4   0  -4  550.60   26.46 
  -4   0  -4  574.85   27.52 
  -3  -3   5   39.24    5.83 
   3   3  -5   35.95    4.60 
  -3   3   5   35.28   10.90 
   3  -3  -5   30.54    9.42 
  -1  -1  22   51.28    7.47 
   1   1 -22   75.74   10.13 
   1  -1 -22   69.24    9.67 
   1  -1 -22   74.31   10.20 
   1  -1 -22   57.13    6.97 
   1   1 -22   69.00    9.63 
  -1   1  22   70.51    8.85 
   0  -4  12  749.56   33.57 
   0  -4 -12  809.11   36.40 
  -3   2 -12  107.40   13.42 
   0   4  12  728.42   32.89 
  -3  -2 -12  129.37   16.09 
   3   2  12  101.87   12.23 
   0   4 -12  799.83   36.68 
  -3  -2 -12  128.67   15.57 
   0  -4 -12  730.21   32.53 
   0   4  12  758.06   33.70 
  -3   2 -12  139.52    7.98 
   0  -4  12  754.99   34.10 
   0  -4 -12  744.49   34.23 
   0   4 -12  845.52   39.19 
   0  -2 -21   44.47    6.60 
   0  -2 -21   50.55    6.06 
   0  -2 -21   49.85    5.90 
   0   2 -21   53.21    7.11 
   0   2 -21   52.10   20.10 
   0  -2 -21   50.65    6.68 
   0  -2  21   44.42    5.61 
   2   4  -4  588.59   26.38 
  -2   4   4  648.56   30.33 
   2  -4  -4  555.50   24.72 
   2   4  -4  601.96   28.74 
   2  -4  -4  642.60   30.23 
   2  -4  -4  572.72   25.65 
  -3   3  -5   72.65    9.60 
  -3  -3  -5   78.52    9.99 
  -3   3  -5   67.20    8.65 
  -3  -3  -5   67.02    9.45 
   3  -3   5   69.89    8.64 
   3  -3   5   64.32    8.31 
  -1  -3  17   16.13    5.35 
  -1  -3  17   17.64    5.43 
   1  -3 -17   18.85    9.62 
  -1   3  17   16.87    5.33 
   1   3 -17   28.32   12.59 
   1  -3 -17   13.29    4.39 
   1   3 -17   16.22    9.17 
   1  -3 -17   23.30   10.80 
   2   4   4   45.36    7.28 
   2  -4   4   50.64    6.09 
  -2  -4  -4   58.81    7.53 
  -4   0   5    0.38    1.34 
   3   0 -16   16.85    8.23 
  -3   0  16   16.71    5.38 
  -2   4  -4   58.11    7.65 
  -3   0  16   15.68    6.06 
  -2  -4  -4   43.79    5.57 
   3   0 -16   15.03    5.50 
  -1   1 -22    4.98    3.83 
  -1  -1 -22    6.14    3.02 
  -1  -1 -22    7.63    4.95 
  -1  -1 -22    6.06    3.32 
  -1   1 -22    8.58    4.75 
  -4  -1   0  397.41   20.64 
  -4   1   0  417.86   20.15 
  -4   1   1  114.43   14.08 
  -4  -1   1  121.79   14.93 
   2  -3 -14  636.37   29.09 
   2   3 -14  666.16   30.52 
   2  -3 -14  654.71   30.24 
  -2  -3  14  592.03   27.94 
  -2   3  14  652.00   29.54 
  -4  -1  -1   26.28   11.94 
  -4   1  -1   25.33   12.09 
  -1  -3 -17    4.42    2.28 
  -1   3 -17    3.51    2.67 
  -1  -3 -17    3.33    1.72 
  -1   3 -17    4.82    2.82 
   0   3 -18  147.18    7.85 
   0   3 -18  134.55   36.97 
   0  -3 -18  130.44   16.51 
   0  -3 -18  145.73    8.27 
  -4   0  -5    0.94    1.00 
  -4   0  -5    1.50    1.66 
   3   1  15   80.76    9.77 
  -4   1   2   13.28    5.45 
  -3  -1 -15   85.23   10.40 
  -3  -1 -15   86.68   11.16 
  -4  -1   2    6.66    3.15 
  -3   1 -15   81.39   10.12 
  -3   1 -15   86.74   11.11 
  -1  -4  11   69.81    8.35 
  -1   4  11   68.88    8.50 
   1  -4 -11   52.38    7.08 
   1  -4 -11   65.85    8.49 
  -1   4  11   65.61    8.07 
   1  -4 -11   65.39    8.00 
   1   4 -11   73.42    9.51 
   1   4 -11   68.00    8.89 
   3  -3  -6  383.72   18.24 
   2   2 -18   10.15    4.98 
  -3   3   6  464.45   21.99 
   2  -2 -18    9.37    4.32 
  -2   2  18    7.64    2.99 
  -3  -3   6  439.87   20.95 
   3  -3  -6  451.44   21.47 
   3  -3  -6  425.30   19.68 
  -2  -2  18    7.76    3.32 
   3   3  -6  430.59   19.25 
   2   4  -5  239.09   11.11 
   2  -4  -5  233.92   11.07 
   2  -4  -5  241.26   11.25 
  -4  -1  -2  434.18   23.08 
  -4   1  -2  410.98   19.84 
  -2   4   5  254.14   12.54 
   2   4  -5  246.70   14.56 
  -2  -1  20   82.56   11.01 
   2   1 -20   76.27    9.80 
   2   1 -20   78.88    9.47 
   2  -1 -20   80.45   10.35 
  -2   1  20   73.40    9.12 
  -2  -1  20   72.78    9.58 
  -1   4 -11  924.27   42.27 
   1   4  11  879.25   38.89 
   1  -4  11  863.44   38.98 
   1   4  11  963.91   42.67 
   1  -4  11  817.66   36.93 
  -1  -4 -11  839.69   38.67 
  -1   4 -11  874.63   38.94 
  -1  -4 -11  851.56   40.40 
   2   4   5  319.71   14.98 
  -2  -4  -5  288.62   14.05 
  -2  -3 -14    3.06    1.55 
  -2   4  -5  324.28   15.87 
  -4  -1   3  359.13   17.49 
  -2   3 -14    2.07    2.12 
   2   3  14    2.06    0.92 
   2   4   5  252.18   12.67 
   2  -4   5  299.19   13.85 
  -2   3 -14    2.35    1.82 
   4  -1  -3  350.54   19.28 
  -2  -4  -5  317.00   14.94 
  -4   1   3  346.72   17.18 
   2  -4   5  301.03   14.89 
  -2  -3 -14    3.23    2.28 
   4   0  -6  106.96   13.02 
  -4   0   6  112.85   13.96 
   3  -3   6   19.60    8.58 
  -3  -3  -6   31.63   13.03 
  -3   3  -6   20.22    6.49 
  -3   3  -6   25.23    7.96 
  -3  -3  -6   24.81    7.71 
   0  -1 -23  758.91   33.67 
   0  -1 -23  795.31   35.36 
   0   1 -23  748.19   33.97 
   0  -1 -23 1237.44  325.33 
  -3   0 -16   83.64   10.32 
  -3   0 -16  104.22   13.23 
  -4   1  -3  398.77   21.64 
  -4  -1  -3  423.30   20.52 
  -3  -2  13  230.54   11.97 
   3   2 -13  217.85    9.73 
   3  -2 -13  215.96   11.33 
   3  -2 -13  222.59   12.36 
  -3   2  13  223.63   12.23 
  -2   2 -18  264.70   14.12 
  -2  -2 -18  250.31   11.42 
  -2   2 -18  238.83   12.46 
  -2  -2 -18  253.05   13.73 
   2   2  18  264.41   11.83 
  -4   0  -6   94.63   11.82 
   4  -1  -4    7.30    4.32 
  -4   0  -6   94.93   12.20 
  -4   1   4    6.27    3.17 
  -4  -1   4    6.97    4.10 
  -1   0  23    0.76    0.94 
   1   0 -23   -0.16    1.83 
   1   0 -23    0.43    0.68 
  -2   1 -20   84.37   10.81 
  -2   1 -20   84.50   10.32 
  -2  -1 -20   66.50    8.78 
   2   1  20   75.29    9.00 
  -2  -1 -20   79.99    9.59 
   2  -4  -6   44.68   10.34 
   2   4  -6   34.76   10.83 
   2   4  -6   33.55   10.18 
   2  -4  -6   35.97    4.50 
  -2   4   6   32.55   10.10 
   2   4  -6   34.51    9.48 
   2  -4  -6   33.65   10.19 
  -3  -3   7    1.33    1.51 
   3  -3  -7    0.98    0.73 
   3   3  -7    1.96    0.97 
   3  -3  -7    2.30    2.00 
   3  -3  -7    7.50    4.43 
  -3   3   7    1.70    1.60 
  -4   1  -4   99.19   12.47 
  -4  -1  -4  103.23   12.78 
  -4   1  -4  107.51   15.86 
  -2   4  -6   63.73   25.91 
   2   4   6   46.24    7.03 
   2   4   6   42.60    5.37 
  -2   4  -6   52.74    6.43 
  -2  -4  -6   54.97    7.38 
   2  -4   6   46.93    5.78 
   2  -4   6   49.67    6.84 
  -2  -4  -6   45.52    6.22 
  -1   0 -23    0.65    0.59 
  -1   0 -23   -0.90   14.72 
  -1   0 -23   -0.38   17.46 
   0  -4 -13   32.42    9.87 
   0   4  13   40.53    5.13 
   0   4 -13   31.86    9.97 
   0   4  13   29.45   10.23 
  -3   2 -13  182.80    9.96 
  -3   2 -13  195.41   10.22 
   0  -4 -13   43.56    5.71 
   3   2  13  184.24    8.83 
   0  -4  13   37.52    4.94 
  -3  -2 -13  177.89    8.82 
   0   4 -13   34.68    9.66 
  -3  -2 -13  185.00   10.24 
   0  -4 -13   41.12    7.83 
   0  -4  13   29.73    9.11 
  -4   0   7    1.59    2.60 
   4   0  -7    1.67    2.20 
   2   0 -21    0.55    1.24 
  -2   0  21    1.32    1.28 
   2   0 -21    0.91    0.50 
  -3   3  -7    9.74    4.29 
  -3   3  -7   12.54    5.81 
   3  -3   7    5.84    2.76 
  -3  -3  -7    9.42    4.71 
  -3  -3  -7   12.65    5.07 
  -3   1  16   46.95    6.82 
   3  -1 -16   48.56    6.86 
   4  -1  -5  100.53   13.26 
  -4   1   5   92.48   11.55 
  -4  -1   5   98.58   12.39 
  -3  -1  16   47.23    6.36 
   3   1 -16   54.87    7.79 
   3   1 -16   48.58    6.16 
   3  -1 -16   48.66    6.82 
  -1  -2  21    6.74    3.11 
  -1   2  21    8.60    3.33 
   1  -2 -21   11.07    5.60 
   1   2 -21    9.07    4.52 
   1  -2 -21    7.38    3.24 
   1  -2 -21    8.86    4.80 
   1   2 -21    9.75    4.77 
  -1  -4  12  289.00   13.10 
  -1   4  12  270.23   12.70 
   1  -4 -12  248.43   11.70 
   1   4 -12  286.49   14.72 
   1   4 -12  274.27   13.24 
   1  -4 -12  262.55   13.27 
  -1   4  12  283.95   13.35 
   1  -4 -12  280.87   13.26 
  -4   1  -5   17.26    7.88 
  -4   0  -7    1.38    1.65 
  -4  -1  -5   13.25    6.34 
  -4   0  -7    0.35    1.05 
   2  -4  -7   28.64    9.48 
   2   4  -7   28.30    8.95 
   2  -4  -7   29.38    8.95 
   2   4  -7   25.80    7.99 
  -2   4   7   32.60   10.05 
   2   4  -7   39.54   16.32 
  -1  -4 -12  750.85   34.30 
   1  -4  12  724.17   32.98 
   1   4  12  750.29   33.27 
   1  -4  12  775.37   34.73 
   1   4  12  753.51   33.39 
  -1   4 -12  722.83   32.48 
  -1  -4 -12  781.27   35.66 
  -1   4 -12  701.73   32.26 
   2   3 -15  132.83   16.32 
   2  -3 -15  125.43   15.29 
  -2   3  15  131.16   15.78 
   2  -3 -15  148.83    8.51 
  -2  -3  15  132.69   16.64 
  -3   0  17    2.26    1.88 
   3   0 -17   -0.20    1.90 
  -1  -2 -21    6.21    4.50 
   3   0 -17    0.48    0.63 
  -1   2 -21    5.26    3.48 
  -3   0  17    0.24    0.41 
  -1   2 -21    5.45    6.12 
   0   0 -24  144.60   15.33 
   0   0 -24  140.64   13.79 
   3  -3  -8  202.08   10.63 
  -2   0 -21    0.60    1.08 
   3  -3  -8  199.34   10.51 
   3   3  -8  207.72    9.38 
   0   0 -24  132.62   16.36 
  -3   3   8  199.04   13.89 
  -3  -3   8  198.31   10.60 
   2   0  21   -0.04    0.77 
  -2   0 -21   -1.20    3.10 
  -2  -4  -7  344.69   18.31 
   2  -4   7  372.58   19.23 
   2   4   7  305.97   16.00 
  -2   4  -7  341.77   17.66 
   2   4   7  362.31   18.81 
  -2  -4  -7  342.96   18.52 
   2  -4   7  354.66   19.16 
  -2   4  -7  319.10   18.09 
  -1   3  18  250.19   13.12 
   1  -3 -18  242.56   13.65 
   1   3 -18  259.87   14.54 
  -1  -3  18  251.11   12.79 
   1   3 -18  244.18   13.96 
   1  -3 -18  243.39   12.80 
   1  -3 -18  264.68   15.29 
  -4  -1   6   70.89    7.97 
   4  -1  -6   66.68    7.50 
  -4   1   6   67.66    7.31 
  -3  -1 -16   32.41   12.55 
  -3   1 -16   20.47    5.93 
  -3  -1 -16   21.80    6.15 
   3   1  16   20.87    5.87 
  -3   1 -16   19.66    5.76 
  -4   0   8 1382.72  266.66 
   4   0  -8 1344.76   68.36 
   2   3  15    7.22    2.20 
  -2   3 -15   10.65    4.65 
  -1   3 -18  115.14   11.60 
  -2  -3 -15   10.67    5.00 
  -1  -3 -18  106.87   10.97 
  -2  -3 -15    7.68    2.16 
  -2   3 -15   11.24    5.04 
  -1  -3 -18  103.03   10.56 
  -1   3 -18  114.02   11.58 
  -3   3  -8    4.62    2.38 
  -3   3  -8    7.51    3.14 
  -3  -3  -8    6.66    2.93 
   3   3   8    3.42    1.59 
  -3  -3  -8    5.38    2.78 
   3   2 -14   35.21    9.29 
  -3  -2  14   44.08   18.95 
   3  -2 -14   37.35   10.23 
  -3   2  14   47.36   15.54 
   0  -2  22   41.62   11.13 
  -4   1  -6  612.14   32.70 
  -4  -1  -6  436.04   24.18 
   0  -2 -22   49.86   10.22 
  -4   1  -6  589.18   31.01 
   0   2 -22   44.27   13.24 
   0   2 -22   46.13   12.39 
   0  -2 -22   44.55   11.76 
   0  -2 -22   47.07   12.45 
   1   1 -23  230.71   12.76 
   0   3 -19   27.99    7.91 
   1  -1 -23  237.51   15.12 
   0  -3 -19   26.28    7.33 
   0   3 -19   26.38    7.38 
  -1   1  23  240.85   13.01 
   0  -3 -19   32.36   10.94 
   1  -1 -23  217.75   11.80 
   1   1 -23  217.32   12.88 
  -1  -1  23  199.68   13.21 
   1  -1 -23  235.66   12.91 
   2   2 -19   12.09    4.51 
   2  -2 -19    7.79    3.51 
  -2  -2  19    6.78    2.09 
  -2   2  19    7.57    3.32 
  -2  -2  19    8.55    5.36 
  -4   0  -8  824.78   43.17 
  -4   0  -8  860.66   44.80 
   2   4  -8  191.48    9.90 
   2   4  -8  192.14   11.36 
   2  -4  -8  195.68   14.74 
  -2   4   8  204.49   11.44 
  -3   0 -17   -0.18    1.03 
   2  -4  -8  199.39   10.61 
   2   4  -8  215.74   13.42 
  -1  -1 -23  211.68   12.52 
  -1   1 -23  223.74   12.18 
  -1   1 -23  219.91   12.94 
  -1  -1 -23  186.43    9.78 
  -1  -1 -23  195.53   10.20 
  -4  -1   7   48.92   10.05 
  -4   1   7   53.51    6.17 
   4  -1  -7   49.18    9.97 
   2  -1 -21  138.51   14.30 
  -2  -1  21  128.63   12.54 
   2   1 -21  139.34   13.41 
  -2  -1  21  132.94   13.45 
  -2   1  21  136.71   13.98 
   2   1 -21  134.32   15.40 
   2   4   8   65.38    6.53 
  -2  -4  -8   72.63   31.07 
  -2   4  -8   69.46    7.49 
   2   4   8   59.95    6.06 
  -2   4  -8   63.11    6.54 
   0   4  14   96.66    9.93 
   2  -4   8   63.28    6.29 
   0  -4  14  101.75   10.24 
   0  -4 -14  118.25   11.77 
   0  -4 -14  113.18   11.71 
  -2  -4  -8   64.50    7.91 
   0  -4 -14  109.23   10.57 
   0   4 -14  112.91   12.09 
   0   4 -14  125.77   12.72 
   0   4  14  121.67   11.85 
  -3   2 -14   50.28   11.42 
   3   2  14   41.26   11.02 
  -3   2 -14   53.89   21.54 
  -3  -2 -14   37.96   10.52 
  -3  -2 -14   40.94   11.25 
   3   3  -9  281.69   14.20 
   3   3  -9  287.54   16.52 
   3  -3  -9  293.88   16.44 
  -3  -3   9  289.13   18.16 
  -3   3   9  287.13   15.83 
   2   2  19  188.31    9.63 
  -2   2 -19  191.61   12.87 
  -2   2 -19  162.15   31.70 
  -2  -2 -19  178.69   13.93 
  -2  -2 -19  187.39   10.01 
   1  -4 -13  142.57   14.19 
  -1   4  13  136.12   13.81 
   1   4 -13  143.46   14.19 
   1  -4 -13  124.04   13.47 
   1  -4 -13  160.30   16.06 
   1   4 -13  140.28   13.78 
  -1   4  13  166.47   32.41 
  -1  -4  13  148.15   14.08 
  -4   0   9    1.68    1.41 
  -4   1  -7   62.65    8.69 
  -4  -1  -7   69.55    7.84 
  -1   4 -13   72.15    8.83 
  -1  -4 -13   70.28    7.72 
  -1   4 -13   63.04    6.69 
   1  -4  13   58.48    5.91 
   1   4  13   80.14    7.74 
   1   4  13   82.66    7.93 
  -1  -4 -13   77.65    8.53 
   1  -4  13   72.94    7.71 
  -3   3  -9   25.07   11.35 
  -3  -3  -9   22.93    9.98 
  -3  -3  -9   18.95    5.22 
  -3   3  -9   18.65    5.22 
   3   3   9   14.55    4.02 
   3  -1 -17  256.58   14.54 
  -3  -1  17  264.44   14.81 
  -3   1  17  275.17   15.09 
   3   1 -17  254.92   13.25 
   3   1 -17  286.39   15.99 
   3  -1 -17  270.03   14.73 
  -2   1 -21   59.23   10.11 
   2   1  21   49.93    9.77 
   0  -1 -24  654.77   37.52 
   0   1 -24  620.39   34.38 
  -2   1 -21   46.64   12.52 
   0  -1 -24  666.12   35.58 
   0   1 -24  620.02   35.92 
  -2  -1 -21   48.37   12.86 
   0  -1 -24  554.13   29.51 
  -2  -1 -21   48.51   13.26 
   4  -1  -8   23.90    9.12 
   2  -4  -9    9.41    4.44 
  -2   4   9    8.49    4.95 
  -2   3  16  157.87   15.33 
  -4   1   8   23.92   10.11 
   4   1  -8   18.54    5.77 
   2  -3 -16  162.06   31.71 
   2   4  -9   10.20    4.63 
  -2  -3  16  180.91   21.86 
  -4  -1   8   23.47   11.02 
   2  -4  -9    9.39    4.10 
   2  -3 -16  155.07   15.39 
   2   3 -16  161.01   31.77 
   2   4  -9   11.58    5.31 
  -4   0  -9    0.52    1.60 
  -1   0  24    9.31    5.06 
   1   0 -24   10.75    4.58 
   1   0 -24   10.01    4.75 
   2  -4   9   23.00   10.28 
  -2   4  -9   20.72   10.02 
  -2  -4  -9   20.65    9.94 
   2   0 -22   48.31   13.36 
  -2   0  22   51.98    5.87 
  -2  -4  -9   21.68    9.27 
   2   4   9   17.77    4.82 
   2   4   9   21.35    6.46 
   2  -4   9   16.36    5.54 
  -2   4  -9   20.17    6.73 
   2   0 -22   50.65    5.35 
  -3   0  18    1.78    0.72 
   3   0 -18    1.24    0.84 
   3   0 -18    1.86    1.57 
  -3   0  18   -0.36    1.35 
   3   2 -15  203.15   10.25 
   3  -2 -15  216.64   13.65 
   3   2 -15  229.98   13.64 
   3  -2 -15  204.94   11.61 
  -3  -2  15  227.77   13.15 
  -3   2  15  217.21   12.17 
  -3   3  10  103.88   10.67 
  -3  -3  10   85.26    9.14 
   3   3 -10   97.82   10.29 
   3  -3 -10   89.86    9.31 
  -1   0 -24   61.02    6.76 
  -1   0 -24   64.88    7.39 
  -1   0 -24   57.57    6.58 
  -3   1 -17  421.35   22.26 
  -4  -1  -8  232.91   13.67 
  -2   3 -16   84.02    8.83 
  -4  -1  -8  271.10   14.89 
  -4   1  -8  267.32   15.54 
  -2  -3 -16   85.30    9.18 
  -3  -1 -17  390.17   20.39 
  -3   1 -17  465.18   25.09 
   3   1  17  343.08   17.99 
  -2   3 -16   81.00    8.76 
   2   3  16   79.48    7.58 
  -4   1  -8  270.60   15.23 
  -3  -1 -17  392.15   21.69 
   2   3  16   84.53    8.02 
   1  -2 -22   21.65    9.32 
  -1   2  22   13.56    4.29 
  -1  -2  22   10.88    5.14 
   1   2 -22   16.64    7.51 
   1  -2 -22   13.42    3.77 
   1  -2 -22   19.86    9.67 
   1   2 -22   20.64    9.02 
   1  -3 -19  109.45   11.66 
   1   3 -19  106.89   11.33 
  -1   3  19  116.82   11.23 
  -1  -3  19  109.01   10.38 
   1  -3 -19  103.75   10.12 
   1   3 -19  113.85   12.61 
   1  -3 -19  116.10   11.82 
   4   0 -10  816.80   41.84 
   4   0 -10  739.02   38.56 
  -4   0  10  867.57   44.82 
  -1  -2 -22  194.36   11.65 
   0   5   0   41.67   16.59 
  -1   2 -22  234.26   12.90 
   0  -5   0   32.48    9.19 
  -1   2 -22  211.36   12.61 
  -3   3 -10   36.24    9.99 
  -4   2   0   66.65    7.49 
  -3  -3 -10   40.20   11.16 
  -1   3 -19    6.05    3.77 
  -3   3 -10   38.06   10.42 
  -1   3 -19    5.74    2.93 
  -3  -3 -10   35.01    9.63 
  -1  -3 -19    6.23    3.71 
   3   3  10   36.99   10.09 
   4  -2   0   81.93    9.77 
  -4  -2   0   64.12    8.56 
  -1  -3 -19    6.72    2.94 
  -4  -2   1  234.02   13.65 
   4  -2  -1  228.98   13.27 
  -4   2   1  244.88   13.92 
   0   5   1  664.24   34.33 
   0   5  -1  689.19   35.55 
  -2   0 -22  323.79   17.02 
   0  -5  -1  751.12   38.71 
  -2   0 -22  340.99   19.24 
   2   0  22  291.21   15.33 
   0  -5   1  654.44   34.61 
  -4  -2  -1  279.21   15.69 
  -4   2  -1  206.54   12.07 
   0  -4  15  143.55   14.46 
   0   4  15  149.78   14.21 
   0  -4 -15  124.10   13.46 
   0  -4 -15  149.90   14.79 
   0   4 -15  144.07   14.30 
   0   4 -15  134.86   18.32 
   0  -4  15  128.19   12.59 
   4   1  -9  151.87   15.57 
  -4  -1   9  160.29   16.07 
   4  -1  -9  155.39   15.85 
  -4   1   9  150.57   15.04 
  -4  -2   2   82.80    9.19 
  -4   2   2   85.30    9.21 
   4  -2  -2   82.28    9.09 
   3   2  15  317.62   16.49 
  -3  -2 -15  336.36   17.83 
  -3   2 -15  310.93   17.46 
  -3  -2 -15  338.23   19.22 
  -3   2 -15  352.50   19.40 
   0   5  -2   97.58   19.65 
   0   5   2   92.39    9.35 
   0  -5   2   78.89    8.14 
   0  -5  -2   88.86    9.57 
   1   4 -14  599.30   35.27 
   0   3 -20  177.75   10.19 
   0  -3 -20  184.06   10.78 
  -3   0 -18  689.87   38.84 
  -1   4  14  595.01   30.44 
   0   3 -20  165.54   33.60 
   1  -4 -14  690.48   35.46 
   1  -4 -14  602.88   30.63 
  -1  -4  14  664.14   33.47 
  -1   4  14  644.24   32.83 
  -3   0 -18  766.88   43.03 
   1   4 -14  719.58   37.51 
   0  -3 -20  184.04   11.54 
   1  -4 -14  636.57   33.62 
   2  -4 -10   45.70   12.53 
   2   4 -10   32.32    9.03 
   2   4 -10   52.68   12.10 
  -2   4  10   42.92   11.60 
   2  -4 -10   36.47   10.09 
  -4  -2  -2  114.32   11.60 
  -4   2  -2  111.39   12.02 
  -2  -2  20  113.41   11.60 
   2  -2 -20  108.87   11.12 
  -2  -2  20  104.77    9.96 
   2   2 -20  111.91   11.72 
   2  -2 -20  105.44   10.85 
  -2   2  20  103.23   10.43 
  -4   0 -10  270.71   17.65 
  -4   0 -10  258.32   15.16 
   0   0 -25    3.59    2.52 
  -4  -2   3   74.81    8.42 
   1   4  14   85.92    8.19 
   1  -4  14   84.30    8.61 
  -4   2   3   71.27    7.74 
   1   4  14   86.46    8.24 
   1  -4  14   85.90    8.69 
  -1  -4 -14   79.48    8.27 
  -1  -4 -14   78.74   12.57 
  -1   4 -14   88.66    8.93 
  -1   4 -14   67.63    7.16 
   4  -2  -3   79.55    9.19 
   0  -5  -3    9.02    4.23 
   0   5   3    7.94    2.17 
   0   5  -3    9.85    4.45 
   0   5   3   11.43    4.40 
   0  -5   3   12.67    5.05 
   0   2 -23  215.05   12.58 
   0  -2 -23  158.28   14.92 
   2  -4  10   69.43    7.17 
  -2  -4 -10   82.88    8.80 
   2  -4  10   76.28    8.13 
  -2   4 -10   76.14    8.06 
  -2  -4 -10   69.37    7.16 
   2   4  10   73.10    7.22 
   0  -2 -23  207.41   12.50 
   0   2 -23  192.18   10.93 
   2   4  10   74.06    7.42 
   0  -2 -23  202.40   10.34 
  -2   4 -10   71.03    7.86 
  -4   2  -3   13.93    6.65 
  -4  -2  -3   18.06    8.46 
  -4  -1  -9   50.01   20.27 
  -4   1  -9   45.04   12.45 
  -4  -1  -9   37.60   10.60 
  -4   1  -9   50.94   21.76 
   1   1 -24  212.42   13.04 
   1   1 -24  212.97   12.05 
   1  -1 -24  215.19   14.20 
  -1  -1  24  174.81   10.36 
   1  -1 -24  191.22   10.53 
   1  -1 -24  230.84   12.94 
  -1   1  24  231.47   12.55 
   3  -3 -11   31.58   11.89 
  -3  -3  11   37.92   17.59 
  -3   3  11   26.78    7.70 
  -4  -2   4   39.50   11.33 
  -4   2   4   48.84   12.73 
   2   2  20  299.27   15.14 
  -2   2 -20  305.00   17.16 
  -2   2 -20  289.18   16.21 
  -2  -1  22  113.14   10.99 
  -2  -1  22  121.49   13.01 
   2   1 -22  126.01   15.70 
  -2   1  22  126.64   12.52 
  -2  -2 -20  288.27   14.81 
  -2  -2 -20  292.91   16.64 
   2  -1 -22  118.65   12.29 
   2   1 -22  124.87   12.34 
   0   5   4  432.55   21.72 
   0  -5   4  446.49   24.03 
   0  -5  -4  418.91   22.27 
   0   5   4  451.75   23.53 
   0   5  -4  451.48   23.89 
   3   1 -18   86.54    9.44 
  -3  -1  18   79.41    8.38 
   3   1 -18   80.36    7.84 
  -3   1  18   82.73    8.71 
   3  -1 -18   82.84    9.11 
   3  -1 -18   82.94    8.63 
  -4   0  11    0.93    1.45 
  -1   1 -24    8.75    4.41 
  -1  -1 -24   12.81    6.02 
  -1   1 -24   11.29    5.20 
  -1  -1 -24    9.93    4.69 
  -1  -1 -24    6.45    2.73 
  -4   2  -4   38.79   10.68 
  -4  -2  -4   37.24   11.00 
  -4  -2  -4   37.49   10.22 
  -2   3  17  101.63   10.02 
  -2  -3  17   97.92   11.09 
   2  -3 -17  110.51   11.40 
   2  -3 -17   94.77   10.16 
   2   3 -17  101.75   10.42 
   4  -1 -10  163.49   32.75 
   4   1 -10  122.16   12.66 
   4  -1 -10  158.44   18.83 
  -4   1  10  169.92   10.27 
   4   1 -10  171.62    9.85 
  -4  -1  10  116.37   12.11 
  -3  -3 -11   56.79    6.75 
  -3  -3 -11   58.57    5.94 
  -3   3 -11   62.60    7.89 
  -3   3 -11   51.99    6.00 
   3   3  11   55.34    5.74 
   4  -2  -5 1351.45   68.85 
  -4   2   5 1359.64   70.81 
  -4  -2   5 1355.19   69.42 
  -3  -2  16  136.95   16.20 
   3   2 -16  129.09   13.74 
   3  -2 -16  131.16   14.61 
  -3   2  16  131.76   14.26 
   0   5  -5  318.67   17.29 
   0   5  -5  299.00   15.06 
   0  -5   5  320.41   17.21 
   0   5   5  305.39   15.52 
   0   5   5  337.85   17.83 
   0  -5  -5  299.71   16.40 
   0   5  -5  286.25   14.43 
   2  -4 -11   64.90    7.20 
   2   4 -11   66.35    7.29 
   2  -4 -11   67.37    6.86 
  -2   1 -22   14.55    5.35 
  -2  -1 -22   11.63    3.48 
  -2  -1 -22    8.34    7.43 
  -2   1 -22   12.31    5.56 
   2   1  22   10.89    3.27 
  -2   4  11   67.67    7.49 
   2   4 -11   75.62    9.11 
  -2   3 -17   47.89   13.42 
  -2   3 -17   38.76   10.81 
  -2  -3 -17   42.95   11.91 
   2   3  17   41.48   10.92 
   2   3  17   45.87   12.07 
  -4  -2  -5  605.04   32.47 
  -4   2  -5  591.99   31.38 
  -4   0 -11   -0.84    6.45 
  -4   0 -11    2.38    2.03 
  -4   2  -5  535.21   28.51 
  -4  -2  -5  575.32   30.65 
  -3   0  19   -0.13    0.83 
   3   0 -19    0.39    0.52 
  -3   1 -18   65.76    8.12 
  -3  -1 -18   76.45    8.94 
  -3  -1 -18   75.87    8.43 
  -3   1 -18   86.02   10.61 
   3   1  18   72.68    7.25 
  -4   1 -10  252.89   15.26 
  -4  -1 -10  246.57   13.81 
  -4   1 -10  255.65   14.75 
  -2  -4 -11   37.07   17.83 
  -2  -4 -11   25.48    7.12 
  -2   4 -11   31.63    8.69 
   2  -4  11   27.33    9.27 
   2   4  11   31.75    8.50 
  -2   4 -11   31.49    9.73 
   2   4  11   29.88    7.99 
   0   1 -25  652.11   50.02 
   0  -1 -25  626.09   33.02 
   0  -1 -25  622.32   32.84 
   0   1 -25  596.75   31.47 
   0  -1 -25  544.71   27.75 
   1  -5   0  216.94   13.73 
   1   5   0  196.66   10.47 
  -1   5   0  194.41   11.30 
  -1  -5   0  174.10   10.12 
   1   5   0  211.45   11.77 
   1  -4 -15   51.04    6.15 
   0  -4 -16  969.83   50.08 
   1   4 -15   43.83   11.91 
  -1  -5   1   59.43    6.53 
  -4   2   6   63.05    7.41 
   4  -2  -6   68.48   13.57 
   1   5  -1   61.33    6.14 
   1  -4 -15   41.83   20.96 
  -4  -2   6   62.97   24.37 
   0   4 -16 1020.00   52.09 
   0  -4 -16  852.20   43.73 
   0   4  16  935.74   46.85 
  -1   4  15   51.54    5.28 
  -1  -4  15   51.56    5.22 
   0   4  16  882.13   44.39 
   0   4 -16 1049.56   53.75 
   1   4 -15   66.40   22.61 
   1  -4 -15   51.54    5.53 
   1   5  -1   62.22    6.82 
   1  -5  -1   67.13    7.43 
   1   5  -1   59.89    6.13 
  -1   5   1   62.12    6.86 
   1  -5   1  660.62   36.21 
   1   5   1  644.35   32.90 
  -1   5  -1  740.54   38.67 
  -1  -5  -1  714.25   36.86 
   1   5   1  696.18   35.99 
  -3  -2 -16  419.26   23.47 
   1   3 -20  209.41   12.21 
  -3  -2 -16  439.62   23.15 
   1  -3 -20  213.97   11.31 
  -3   2 -16  422.01   23.32 
   3   2  16  468.67   24.26 
   1  -3 -20  227.01   13.03 
   1   3 -20  234.46   13.59 
  -1  -3  20  209.07   10.83 
  -1   3  20  236.05   12.62 
   1  -3 -20  247.20   15.36 
  -3   2 -16  468.66   25.16 
  -2   0  23    1.57    1.41 
   2   0 -23    1.15    1.14 
   2   0 -23    0.51    0.48 
   0   5  -6   34.42   14.41 
   0   5   6   16.34    4.57 
   0   5  -6   19.49    5.21 
   0  -5   6   19.95    5.77 
   0   5   6   16.42    4.65 
   0  -5  -6   27.28   12.80 
   0   5  -6   21.24    5.65 
   0  -5  -6   19.77    5.42 
   1   5  -2  121.16   11.99 
   3  -3 -12  544.06   28.35 
  -3  -3  12  543.83   29.39 
  -1   5   2  111.30   11.25 
   3   3 -12  554.95   29.49 
   1  -5  -2  115.47   11.82 
  -3   3  12  559.92   29.30 
   1   0 -25    0.49    0.52 
  -1  -5   2  109.93   11.02 
   1   5  -2  112.56   10.99 
   1   5  -2  106.21   10.63 
   1   0 -25   -0.41    1.97 
   1   0 -25   -0.07    1.19 
   1   5   2    1.64    1.35 
  -1  -4 -15  105.02   10.89 
  -1  -5  -2    1.72    1.53 
   1  -4  15   87.81    8.79 
  -1   4 -15  102.14   10.31 
   1   5   2    0.58    0.56 
  -1   4 -15   94.88    9.78 
   1   4  15  103.57    9.76 
  -1   5  -2    2.64    1.38 
   1   4  15   98.98    9.34 
   1  -4  15   90.03    9.78 
  -1  -4 -15   99.39   10.59 
  -4   2  -6    2.61    1.34 
  -4  -2  -6    3.53    1.83 
  -1  -2  23  680.89   34.62 
  -1   3 -20  437.05   24.11 
   1   2 -23  653.48   34.17 
   1  -2 -23  739.98   38.80 
   1   2 -23  714.23   39.45 
  -1  -3 -20  422.35   22.63 
  -1   2  23  716.29   36.31 
   1  -2 -23  649.77   33.05 
  -1   3 -20  460.88   24.38 
  -1  -3 -20  424.99   22.95 
   1  -2 -23  768.72   40.25 
  -4   2  -6    5.52    2.75 
   4   0 -12  382.94   20.25 
   4   0 -12  358.00   19.67 
  -4   0  12  400.73   21.75 
  -1   5   3  394.00   20.93 
  -1  -5   3  381.79   20.13 
   1   5  -3  407.10   21.57 
   1   5  -3  387.02   20.35 
   1   5  -3  351.35   18.55 
   1  -5  -3  393.58   21.38 
   4  -1 -11   57.57    6.85 
   1  -5   3  432.19   24.66 
  -1  -5  -3  449.29   24.10 
  -4   1  11   52.46    6.01 
   4   1 -11   34.76   11.60 
  -4  -1  11   57.78   19.15 
   1   5   3  420.66   21.75 
  -1   5  -3  462.59   24.60 
  -3   0 -19   -0.23   13.39 
   4   1 -11   53.27    5.83 
   1   5   3  470.96   24.70 
  -1   0 -25    0.64    0.60 
  -1   0 -25    0.14    0.46 
  -1   0 -25   -0.72    1.86 
  -3  -3 -12   92.83   10.12 
   3   3  12   79.94    8.47 
  -1   2 -23   17.27    4.95 
  -1  -2 -23   20.82   10.02 
  -3  -3 -12   86.49    8.99 
  -3   3 -12   92.42    9.94 
  -1   2 -23   19.92    8.18 
  -3   3 -12   86.56    9.31 
   0  -3 -21  660.84   34.62 
   0  -3 -21  701.34   36.56 
   0   3 -21  604.56   36.25 
   0   3 -21  720.05   37.58 
  -2   0 -23   -0.62    7.69 
   2   0  23    0.20    0.69 
  -4   2   7  467.12   25.09 
  -2   0 -23    0.38    2.60 
  -4  -2   7  490.33   26.35 
   4  -2  -7  468.44   25.77 
  -2   2  21    3.09    2.30 
  -2  -2  21    4.02    1.62 
   2  -2 -21    3.36    1.73 
   2  -2 -21    4.28    2.52 
  -2  -2  21    4.02    1.93 
   2   2 -21    3.48    2.05 
   1   5  -4  116.91   11.34 
   1   5  -4  120.70   11.66 
  -1  -5   4  119.38   12.14 
   1   5  -4  123.96   14.15 
  -1   5   4  127.91   12.73 
   1  -5  -4  120.50   12.96 
   2   4 -12  128.09   12.98 
   2  -4 -12  119.59   12.25 
   2   4 -12  116.64   12.25 
   2  -4 -12  120.19   12.00 
  -2   4  12  118.80   11.78 
   0   5   7  190.61   11.41 
  -1   5  -4   39.63   14.60 
   0   5  -7  197.63   11.47 
   1  -5   4   37.39   14.44 
  -1  -5  -4   36.62   17.10 
   0  -5  -7  199.75   11.75 
   0  -5   7  148.47   14.78 
   0   5  -7  202.04   10.45 
   1   5   4   27.05    7.33 
   1   5   4   27.86    8.34 
   0  -5  -7  180.11    9.53 
   0   5   7  192.08   10.85 
  -4   0 -12  742.19   39.95 
  -4   0 -12  741.30   39.11 
  -4   2  -7   52.87    9.29 
  -4   2  -7   48.89   10.21 
  -4  -2  -7   43.85   11.89 
  -4  -1 -11  207.01   13.48 
  -4   1 -11  251.06   14.26 
  -4   1 -11  225.54   13.37 
   3   1 -19   63.64   14.14 
   3   1 -19   56.56    5.65 
  -3   1  19   62.62    6.89 
   3  -1 -19   56.39   11.15 
  -3  -1  19   65.13   12.57 
   2  -3 -18  766.49   39.95 
  -2  -3  18  800.16   42.24 
   2  -3 -18  794.03   41.06 
  -2   3  18  789.53   40.24 
   2   3 -18  671.68   37.23 
  -2   4 -12   25.30    7.10 
   2   4  12   26.84    7.17 
  -2  -4 -12   27.06    7.77 
  -2   4 -12   27.96    7.60 
   2  -4  12   26.83    8.13 
   2  -4  12   33.55    9.25 
   2   4  12   34.66    9.23 
  -2  -4 -12   31.22    8.64 
   3  -2 -17  344.52   21.81 
   3   2 -17  325.62   16.33 
   3  -2 -17  359.11   19.43 
  -3   2  17  375.23   20.01 
   3   2 -17  368.46   20.63 
  -3  -2  17  373.63   20.89 
   1   5  -5   58.44    5.89 
   0   2 -24   26.94   10.98 
   0  -2 -24   29.15   16.55 
   1   5  -5   53.01    5.67 
   1   5  -5   60.71    6.80 
  -1   5   5   72.07    7.62 
   0   2 -24   22.56   10.62 
   2   2  21   93.22    8.85 
   0  -2 -24   19.88    5.30 
  -1  -5   5   64.83    6.65 
  -2   2 -21   74.52    7.72 
   1  -5  -5   65.93    7.43 
   0  -2 -24   17.82    7.48 
  -2  -2 -21   89.67    8.77 
  -2  -2 -21   95.85   10.37 
  -2   2 -21   82.73    8.89 
   0  -2 -24   25.75   12.91 
   1   5  -5   52.23    5.40 
   0   0 -26  493.55   26.54 
   0   0 -26  467.81   24.15 
  -1   5  -5  239.67   13.51 
   1  -5   5  242.56   13.64 
   1   5   5  220.53   12.29 
  -1  -5  -5  231.60   13.00 
   1   5   5  224.63   11.97 
   2   1 -23    1.09    1.11 
   2  -1 -23    1.65    0.96 
   2  -1 -23    1.81    1.42 
  -2   1  23    1.09    0.79 
  -2  -1  23    0.51    0.46 
  -2  -1  23    1.16    1.36 
   2   1 -23    1.21    0.82 
  -4   2   8   54.19    6.23 
  -4  -2   8   59.88   21.64 
  -3  -3  13  117.58   12.38 
   1  -1 -25  131.40   13.00 
  -1   1  25  131.08   12.81 
   1   1 -25  130.16   14.63 
   1  -1 -25  111.60   10.92 
   1   1 -25  123.74   12.25 
   3  -3 -13  120.94   12.20 
  -3   3  13  127.72   12.71 
   1  -1 -25  129.62   13.69 
  -2   3 -18   70.18    7.60 
  -2  -3 -18   69.65    7.85 
  -2   3 -18   65.52    7.01 
   0   5  -8   11.78    3.89 
   0  -5  -8   15.88    6.97 
   0  -5   8   11.60    5.27 
   1  -4 -16  213.33   11.91 
   0   5   8    7.85    2.61 
   1   4 -16  168.70   10.18 
   1   4 -16  204.35   11.58 
   0  -5  -8   10.41    3.02 
   1  -4 -16  176.61    9.35 
  -1   4  16  203.25   11.60 
   0   5  -8   12.72    6.30 
   0   5   8   11.57    4.94 
   0   5  -8   10.03    5.08 
  -1  -4  16  208.36   10.76 
   1  -4 -16  199.15   11.89 
  -4   0  13   -0.04    1.22 
   4   1 -12  729.06   37.08 
  -4   1  12  708.45   37.18 
  -4  -1  12  791.15   41.56 
   0  -4 -17   77.48    9.06 
   0  -4  17   78.17    8.09 
   0   4  17   75.83    7.26 
   0   4 -17   79.25   28.96 
   0   4 -17   76.88    9.05 
   0   4  17   86.76    8.25 
   0  -4 -17   72.18    9.22 
   3   1  19   92.80    9.12 
  -3  -1 -19  109.83   11.91 
  -3   1 -19  103.07   10.98 
   3   0 -20  183.99   10.96 
   3   0 -20  193.12   13.72 
  -3  -1 -19  109.11   10.81 
  -3   0  20  195.97   11.50 
  -3   1 -19  108.28   11.04 
  -1   1 -25  110.87   12.41 
  -1  -1 -25  142.65   13.62 
  -1   1 -25  130.61   14.10 
  -1  -1 -25  136.21   13.82 
  -1  -1 -25  130.32   12.64 
   1   5  -6   28.88   10.09 
  -4  -2  -8   24.21    6.85 
  -1   4 -16 1194.41   61.02 
  -1  -4 -16 1087.91   57.39 
  -1   5   6   30.89    9.66 
  -3  -2 -17  182.26   11.44 
  -1  -5   6   25.10    8.48 
  -4   2  -8   32.48   13.91 
   1  -5  -6   26.22    8.03 
  -3  -2 -17  169.34    9.34 
   3   2  17  162.33   31.42 
   1   5  -6   21.97    5.97 
  -3   2 -17  172.56   10.67 
  -3   2 -17  135.17   14.05 
   1   5  -6   22.90    6.31 
  -4   2  -8   37.26   14.30 
  -1   4 -16 1122.54   57.04 
  -4  -2  -8   31.17   14.84 
   1   5  -6   31.02    8.36 
  -1  -4 -16 1151.48   60.53 
  -1   5  -6  226.16   13.78 
   1   5   6  213.65   11.48 
  -1  -5  -6  227.11   17.12 
   1   5   6  231.85   12.54 
  -1  -5  -6  236.19   12.70 
   3   4   0    4.79    3.03 
  -3   4   0    9.01    4.93 
   3  -4   0    5.46    3.02 
  -3  -4   0    4.68    2.48 
   3  -4   0    8.48    4.05 
  -3   4   1   36.45   12.10 
   3   4  -1   25.38    6.84 
   3   3  13   48.39    9.54 
   3  -4  -1   24.10    6.80 
  -3   3 -13   45.69   12.57 
  -3  -4   1   26.74    7.49 
  -3  -3 -13   45.13    9.07 
   3  -4  -1   34.15   10.86 
   3  -4  -1   26.98    7.36 
  -3   3 -13   59.13   13.40 
  -3  -3 -13   60.14   14.54 
  -2   1 -23  328.46   22.88 
  -3  -4  -1   22.72    4.88 
  -2   1 -23  308.27   20.67 
   3  -4   1   17.73    4.41 
   2   1  23  298.25   19.46 
   3  -4   1   20.68    5.07 
  -3   4  -1   21.09    4.82 
  -2  -1 -23  345.56   22.54 
  -2   4  13  334.13   22.82 
   3  -4  -2  163.78   12.37 
   3  -4  -2  160.01   13.65 
   2   4 -13  323.11   21.97 
   2  -4 -13  325.97   22.35 
   3  -4  -2  148.93   10.19 
  -3   4   2  177.36   12.74 
  -3  -4   2  173.05   12.42 
   3   4  -2  151.82   10.51 
   2   4 -13  341.31   23.85 
   2  -4 -13  322.10   21.55 
   3  -4   2   17.96    3.96 
  -3  -4  -2   15.04    3.40 
  -3   4  -2   23.39    9.26 
   3  -4   2   26.79   11.80 
   1   3 -21   78.10    6.99 
   1  -3 -21   79.49    6.44 
   1   3 -21   79.29    6.74 
   1  -3 -21   71.97    5.10 
  -1  -3  21   68.70    4.77 
   1  -3 -21   80.23    6.76 
  -1   3  21   79.67    5.77 
  -4   1 -12   38.39   15.73 
  -4   1 -12   34.21    7.50 
  -4  -1 -12   23.80   11.63 
  -4  -1 -12   40.46   15.24 
  -4   0 -13   -0.06    0.93 
  -4   0 -13   -0.01    2.63 
  -4  -2   9  165.51   12.29 
   4  -2  -9  161.62   13.19 
  -4   2   9  165.54   11.97 
   4   2  -9  179.80   12.54 
   4  -2  -9  169.50   12.20 
   3  -4  -3  158.01   10.76 
  -3  -4   3  162.15   14.73 
  -3   4   3  188.01   13.77 
   3  -4  -3  173.57   12.01 
   3   4  -3  166.16   11.15 
   2   4  13   47.49    9.28 
  -2   4 -13   44.09    9.00 
  -2   4 -13   51.05   10.17 
  -2  -4 -13   61.32   25.78 
   2  -4  13   43.81    8.96 
  -2  -4 -13   42.76    8.90 
   2   4  13   47.33    9.25 
   3  -4   3    8.69    3.92 
   3  -4   3   13.14    5.83 
  -3   4  -3   11.93    4.84 
  -3  -4  -3   10.56    4.79 
  -1  -3 -21   54.45   11.43 
  -1  -3 -21   62.14   13.14 
  -1   3 -21   65.04    5.55 
  -1   3 -21   59.06   11.83 
  -1  -5   7   60.84   11.99 
   1   5  -7   50.49    9.98 
  -1   5   7   61.88   12.30 
   1   5  -7   53.29   10.85 
   1  -5  -7   55.93   10.85 
   1  -5  -7   56.81   11.52 
   1   5  -7   57.94   11.41 
   0  -5  -9  216.85   14.44 
   0  -5   9  215.33   14.84 
   0   5  -9  226.77   15.33 
   0   5   9  219.04   14.47 
   0  -5  -9  221.61   15.70 
   0   5  -9  239.66   16.80 
   0  -5  -9  192.48   12.87 
   0   5   9  228.46   15.41 
  -3   0 -20 1519.33   98.33 
  -3   0 -20 1540.46  309.87 
   2   0 -24   34.39   11.78 
   2   0 -24   31.20    6.36 
  -2   0  24   27.61    7.00 
   0   1 -26  430.23   29.99 
  -1  -5  -7  411.18   27.68 
   0  -1 -26  487.21   34.12 
   1   5   7  380.24   24.96 
   0   1 -26  475.48   31.20 
   0  -1 -26  399.47   26.54 
   0  -1 -26  460.11   31.16 
  -1  -5  -7  379.31   25.34 
   1  -5   7  400.22   27.47 
  -1   5  -7  393.72   26.58 
   1   5   7  410.43   26.87 
   3   4  -4  385.40   25.31 
   3  -4  -4  345.57   22.73 
   3  -4  -4  391.57   25.64 
  -3  -4   4  411.95   27.65 
   3  -4  -4  371.13   26.31 
  -3   4   4  412.73   27.73 
  -4   2  -9  269.94   18.71 
  -4   2  -9  248.32   17.39 
  -4  -2  -9  261.46   17.97 
  -4  -2  -9  268.59   19.08 
   1  -2 -24   31.98   11.54 
  -1   2  24   45.30    9.27 
   1   2 -24   46.80   18.86 
   1  -2 -24   46.91   22.50 
  -1  -2  24   29.88   12.57 
   1  -2 -24   43.35    9.08 
   1   2 -24   47.81   21.60 
  -3  -4  -4   26.14    5.43 
  -3   4  -4   34.87    7.54 
   3  -4   4   27.14    5.49 
   1   0 -26 1091.87   70.81 
   1   0 -26 1132.54   77.44 
  -3   3  14   35.11    8.69 
   3  -3 -14   41.19   15.04 
   3  -3 -14   32.12    6.98 
   3   3 -14   38.71   13.17 
  -3  -3  14   32.02    8.13 
   0   3 -22   44.04   10.02 
   0   3 -22   49.50   10.61 
   0  -3 -22   37.22    7.80 
   0  -3 -22   48.51   10.07 
   4   1 -13  540.57   35.31 
  -4   1  13  576.40   38.28 
  -4  -1  13  581.25   38.59 
   4  -1 -13  538.17   36.35 
   2   2 -22  157.08   11.70 
   2  -2 -22  152.81   12.05 
   2  -2 -22  153.47   11.09 
  -2   2  22  157.73   11.29 
  -2  -2  22  150.06    9.96 
  -2  -2  22  155.95   11.60 
   3  -2 -18  159.36   12.44 
   3  -2 -18  168.36   13.87 
  -3   2  18  181.92   12.99 
   3   2 -18  178.58   13.46 
  -3  -2  18  172.28   13.29 
  -4   0  14   10.59    5.31 
   2   3 -19    3.03    1.67 
   2  -3 -19   -0.19    2.01 
  -2   3  19    1.34    0.99 
   4   0 -14   10.86    3.98 
   2   3 -19    1.29    1.16 
   2  -3 -19    2.08    1.38 
   4   0 -14   13.12    3.92 
  -3  -1  20   44.04    9.12 
   3   1 -20   45.35   12.96 
   3   1 -20   44.20    9.08 
  -3   1  20   45.81    9.29 
   3  -1 -20   43.53    9.24 
  -1   2 -24  220.25   16.45 
  -1   2 -24  234.68   17.78 
  -1  -2 -24  243.78   19.89 
   3  -4  -5    3.51    1.67 
   3   4  -5    2.90    1.67 
   3  -4  -5    8.60    6.81 
  -3  -4   5    4.05    3.31 
  -3   4   5    4.98    2.26 
  -2   0 -24   12.25    5.05 
  -2   0 -24    8.24    4.35 
  -1   0 -26   46.09   10.52 
  -1   0 -26   45.06    9.04 
  -1   0 -26   40.84    8.20 
   1  -5  -8   47.01    9.23 
  -1   5   8   44.93   10.50 
   1   5  -8   46.02    9.16 
   1   5  -8   41.06    8.63 
   1  -5  -8   53.89   14.26 
   4   2 -10  302.26   21.29 
   4  -2 -10  271.34   18.74 
   4  -2 -10  265.69   18.52 
  -1  -5   8   40.85    9.29 
   4   2 -10  288.99   19.13 
   1   5  -8   45.18    9.19 
  -4  -2  10  266.40   19.67 
  -4   2  10  283.83   21.03 
  -3  -4  -5   79.21    6.91 
   3  -4   5   93.29    7.77 
  -3  -4  -5   80.67    6.92 
  -3   4  -5   85.82    7.14 
   3  -4   5   81.70    5.92 
   1  -4 -17   35.91    8.02 
   1  -4 -17   40.03    9.78 
   1  -4 -17   30.01    8.63 
   1   4 -17   34.01    7.08 
   1   4 -17   37.55    7.72 
  -1   4  17   39.22    7.75 
   1   5   8    5.49    2.98 
   1   5   8    8.26    4.82 
  -1  -5  -8    9.60    4.12 
   1   5   8    6.01    3.99 
  -1   5  -8   11.37    5.22 
  -1  -5  -8   10.37    4.64 
   1  -5   8   11.22    4.56 
   3   3  14  252.03   16.60 
  -3  -3 -14  253.29   19.00 
  -3   3 -14  248.47   17.36 
  -3   3 -14  266.13   18.33 
  -3  -3 -14  236.34   16.88 
   0  -5 -10   85.57    6.18 
   0   5 -10   68.16    5.95 
  -2   3 -19  107.23   16.12 
   0   5  10   64.47    4.71 
   0  -5 -10   78.21    7.60 
   0   5 -10    7.15    3.22 
   2   4 -14   68.79   26.29 
   0   5  10   85.32    6.63 
  -2   3 -19   90.55    8.12 
  -2  -3 -19   89.69    7.72 
   2  -4 -14   59.81   12.29 
  -2   2 -22 1107.67   76.23 
   0  -5 -10   54.24   11.25 
  -2   2 -22 1175.32   76.67 
  -2   4  14   59.44   12.09 
   2  -4 -14   56.68   11.33 
   2   4 -14   67.12   12.05 
  -2  -2 -22 1131.12   72.43 
  -2  -2 -22 1115.79   73.15 
  -2  -2 -22 1009.44   64.97 
   0  -5  10   77.18    6.39 
  -1  -4 -17   34.33    7.44 
  -1   4 -17   50.60   21.57 
  -1  -4 -17   37.41    7.97 
  -1   4 -17   31.58    7.29 
   0  -4 -18  107.21    8.12 
   0  -4  18  116.60    8.23 
  -4   1 -13  857.42   58.68 
  -4  -1 -13  812.01   53.77 
   0   4 -18   97.88    7.56 
   0   4 -18  105.40    8.13 
   0  -4 -18  100.74    8.50 
   0   4  18  100.29    6.52 
   0   4  18  104.12    6.76 
  -4   1 -13  817.70   54.17 
  -4  -1 -13  716.19   47.10 
  -3   2 -18   23.76    5.13 
  -3  -2 -18   23.48    7.12 
  -3   2 -18   29.98   13.03 
   3  -4  -6  148.30   10.43 
  -3  -2 -18   28.42   10.39 
   3   2  18   20.90    4.82 
  -3   4   6  185.00   13.14 
  -3  -4   6  180.23   13.18 
   3   4  -6  166.08   11.09 
   3  -4  -6  183.74   12.50 
  -4   0 -14   57.83   11.68 
  -4   0 -14   66.53   11.28 
  -4  -2 -10   56.43   11.83 
  -4   2 -10   61.22   12.55 
  -4  -2 -10   53.91   11.68 
  -4   2 -10   59.38   12.66 
   0  -2 -25  656.76   43.22 
   0  -2 -25  644.31   41.38 
   0  -2 -25  631.15   41.87 
   0   2 -25  652.67   42.84 
   0   2 -25  664.41   45.33 
   0  -2 -25  598.91   38.54 
  -3   1 -20   88.48    7.61 
  -3  -1 -20  102.93    7.66 
  -3   1 -20   73.79    6.05 
  -3  -1 -20   98.57    8.55 
   3   1  20   96.04    6.79 
   2   1 -24   51.53   14.19 
  -2   1  24   42.37    8.79 
  -2   4 -14  294.58   19.76 
  -2  -1  24   45.89    9.43 
  -2  -1  24   35.01   13.00 
  -2  -4 -14  227.14   15.97 
  -2  -4 -14  262.44   19.52 
   2   4  14  298.19   19.45 
  -2   4 -14  300.17   20.60 
   2   4  14  277.32   18.22 
   2  -1 -24   30.90    6.81 
   2  -4  14  265.76   17.68 
   3   0 -21    0.44    0.99 
  -3   0  21    0.53    0.93 
   3   0 -21    1.16    1.19 
   3  -4   6   42.22    9.20 
  -3  -4  -6   44.87    9.27 
   3  -4   6   45.42    9.42 
  -3   4  -6   46.13   10.56 
  -3  -4  -6   39.29    8.21 
   0   0 -27   12.28    9.07 
   0   0 -27    4.50    2.90 
   1   1 -26    2.68    2.37 
   1  -1 -26    1.84    1.21 
  -1   1  26    2.58    1.06 
   1   1 -26    2.43    2.06 
   1  -1 -26    1.42    0.91 
   1  -1 -26    2.22    1.03 
  -1  -5   9  713.68   46.36 
  -1   5   9  759.51   49.82 
   1  -5  -9  764.52   49.20 
   1   5  -9  667.52   43.63 
   1   5  -9  763.66   51.18 
   1   5  -9  760.31   49.30 
   1  -5  -9  738.54   48.56 
  -1   5  -9    9.68    2.35 
   1   5   9    6.39    3.59 
  -1  -5  -9   11.35    4.98 
  -1  -5  -9   13.69    6.73 
   1   5   9    8.41    2.29 
   1   5   9    7.16    2.34 
  -1   5  -9   11.47    4.75 
  -4   1  14   19.89    9.59 
  -4  -1  14   20.95    9.92 
   4  -1 -14   21.24    5.98 
   4   1 -14   13.99    8.27 
   4  -1 -14   19.26    9.08 
   4   1 -14   22.69    5.31 
   4   2 -11  882.08   57.92 
   4   2 -11  968.78   62.33 
   4  -2 -11  852.80   55.75 
  -4   2  11  983.56   64.35 
  -4  -2  11  966.05   70.75 
   3   4  -7  339.23   21.96 
   3   3 -15  152.69   18.22 
   3  -4  -7  337.12   22.33 
   3  -4  -7  293.77   20.19 
   3  -3 -15  122.36    9.59 
  -3   3  15  135.21   10.00 
  -3  -4   7  340.17   24.38 
  -3   4   7  376.55   25.66 
  -3  -3  15  116.71    9.26 
   1   3 -22   91.95    8.14 
   1  -3 -22   81.91    7.43 
  -1  -1 -26  278.70   18.28 
  -1   1 -26  274.29   26.80 
   1   3 -22   85.44    6.72 
  -2  -1 -24   22.70    7.25 
  -2  -1 -24   15.27    6.62 
   1  -3 -22   75.38    5.23 
   1  -3 -22   83.80    7.28 
   2   1  24   12.80    3.16 
  -1  -1 -26  272.76   19.00 
  -1  -1 -26  259.94   17.55 
  -1   3  22   90.90    6.33 
  -1  -3  22   79.61    5.48 
  -1   1 -26  272.78   18.95 
  -2   1 -24   17.53    6.94 
  -2   1 -24   16.22    7.93 
  -4   0  15   -0.79    1.89 
   4   0 -15   -0.67    2.32 
   4   0 -15    0.25    1.06 
   0   5 -11 1239.59   80.40 
   0  -5 -11 1107.15   71.40 
   0   5 -11 1175.43   78.36 
   0   5  11 1073.32   69.33 
   0  -5 -11 1122.99   73.26 
   0   5  11 1234.22   79.60 
  -3   4  -7   10.02    3.79 
  -3   4  -7   10.04    4.50 
  -3  -4  -7   10.31    4.72 
   3  -4   7   15.58    6.27 
  -3  -4  -7   10.83    5.45 
   3  -4   7    6.46    2.92 
  -3   0 -21    0.63    1.32 
  -3   0 -21    1.25    1.85 
  -1  -3 -22  101.23    8.22 
  -1  -3 -22  115.06    8.96 
  -1   3 -22  104.41    8.06 
  -1   3 -22  108.41    8.07 
  -4   3   0  322.99   22.50 
   4  -3   0  367.40   26.40 
  -4  -3   0  345.55   24.17 
   4  -3  -1  248.59   17.79 
  -4  -3   1  232.08   16.12 
  -4   3   1  231.71   16.74 
  -4  -3  -1   86.95    7.10 
  -4   3  -1   84.12    7.15 
  -4  -2 -11  224.90   16.32 
  -4   2 -11  233.79   16.66 
  -4  -2 -11  208.90   17.66 
  -4   2 -11  222.19   16.41 
   3   2 -19   16.26    5.89 
  -3  -2  19   16.51    6.15 
  -3   3 -15   54.57   11.15 
   3   3  15   52.81   10.36 
   3  -2 -19   15.94    5.34 
  -4  -3   2  105.98    8.38 
  -3  -3 -15   54.94   10.83 
   3  -2 -19   13.57    4.81 
   4  -3  -2  113.81   11.14 
  -4   3   2  112.18    8.84 
  -3   2  19   12.66    3.51 
  -3   3 -15   61.65   13.80 
  -3  -3 -15   59.81   16.48 
   2  -4 -15  230.46   16.35 
   2   4 -15  230.77   16.77 
   2  -4 -15  222.08   15.25 
   2   4 -15  221.63   15.80 
  -2   4  15  248.54   16.84 
  -4  -1 -14  331.66   28.18 
  -4  -3  -2   20.73    9.02 
   4  -3   2   28.12   10.57 
  -4  -1 -14  388.92   27.33 
  -4   1 -14  381.50   30.25 
  -4   3  -2   26.17   10.68 
  -2   3  20   38.69    7.84 
   2   3 -20   43.90    9.18 
   2  -3 -20   39.51    8.18 
   2   3 -20   46.70   13.02 
   2  -3 -20   41.74    8.66 
   2  -5   0   12.37    4.87 
  -2   5   0    8.36    4.01 
   2   5   0    5.21    2.72 
  -2  -5   0    2.40    1.37 
   2   0 -25    0.75    0.94 
   2   5  -1   94.82    7.46 
  -2  -5   1   89.66    6.44 
  -2   5   1   94.60    7.63 
   3  -4  -8   67.37    5.42 
   2   0 -25    0.24    0.47 
   3   4  -8   70.40    6.21 
   3   4  -8   69.35    4.74 
   3  -4  -8   53.41   11.75 
  -3  -4   8   77.30   29.36 
  -2   0  25    0.49    0.84 
  -3   4   8   67.86    5.72 
   1  -5 -10  127.37   10.06 
   2  -5   1  350.33   23.93 
  -2  -5  -1  362.75   24.16 
  -2   5  -1  356.59   24.14 
   1   5 -10  123.16    8.66 
  -1  -5  10  118.29   12.50 
   2   5   1  339.82   22.73 
   1  -5 -10  130.48    8.84 
  -1   5  10  106.74    7.25 
   1   5 -10  124.29   10.55 
  -1   5  10  128.35    9.53 
  -1  -4  18   21.12    4.26 
   1   4 -18   23.89    8.62 
  -4  -3   3   45.43    9.61 
  -4   3   3   47.28    9.79 
   4   3  -3   28.23    6.61 
   1  -4 -18   24.30    9.98 
   1  -4 -18   26.43   10.57 
   1   4 -18   22.77    9.25 
  -1   4  18   20.59    4.19 
   1  -4 -18   11.97    5.84 
   3  -1 -21   19.98    7.71 
   3   1 -21   16.40    3.39 
  -3  -1  21   21.20    7.89 
  -3   1  21   24.34    7.96 
   3   1 -21   20.62    7.66 
   1   5  10   21.17    4.42 
  -2   5   2   52.63   10.66 
  -1   5 -10   21.92    6.59 
  -1  -5 -10   21.47    4.83 
  -4   0 -15    0.77    1.68 
   1  -5  10   24.15    9.97 
   2   5  -2   44.29    8.89 
  -2  -5   2   49.55    9.97 
   2  -5  -2   49.33   10.21 
   0  -3 -23   31.50    6.82 
  -1  -5 -10   24.37    6.64 
   0  -3 -23   30.36    6.76 
  -4   0 -15    0.86    1.08 
   1   5  10   17.73    5.12 
   0   3 -23   32.05   10.94 
   1   5  10   19.60    4.03 
   0   3 -23   24.10    5.16 
  -1   5 -10   19.73    4.14 
   2   2 -23   58.91   12.36 
   2  -2 -23   58.77   12.02 
  -2   2  23   53.19   10.60 
   2  -2 -23   57.57   11.63 
  -2  -2  23   55.12   10.76 
  -2  -2  23   55.61   11.38 
   2   5   2   34.12    7.15 
  -2  -5  -2   34.11    9.13 
  -4   3  -3  185.51   13.85 
  -2   5  -2   37.76   10.76 
  -4  -3  -3  139.45   10.73 
   1  -2 -25  739.54   48.45 
   1   2 -25  728.21   48.58 
   1  -2 -25  774.76   51.17 
   0   1 -27  347.51   24.16 
   0  -1 -27  298.90   25.82 
   1   2 -25  736.62   48.25 
   0  -1 -27  271.46   20.64 
  -1  -2  25  640.56   41.87 
   0   1 -27  315.13   21.10 
   1  -2 -25  683.07   44.08 
  -1   2  25  749.21   48.48 
   2   4  15   56.75   11.14 
  -2   4 -15   56.99   12.35 
  -2   4 -15   62.67    6.12 
   2   4  15   57.44   11.16 
  -2  -4 -15   58.81   12.00 
  -1   4 -18    9.64    4.72 
  -1  -4 -18   15.39    6.31 
  -1  -4 -18   14.45    5.78 
  -1   4 -18   14.60    6.76 
   3  -4   8   47.76    9.52 
  -3  -4  -8   51.33   12.08 
  -3   4  -8   50.51   10.51 
  -3  -4  -8   46.91    9.42 
  -3   4  -8   51.12   10.40 
  -4  -3   4  391.49   27.81 
   4   3  -4  327.45   22.24 
   2   5  -3   51.53   10.49 
  -4   3   4  426.28   28.97 
   2  -5  -3   54.94   11.70 
   2   5  -3   48.72    9.62 
  -2  -5   3   53.46   10.72 
  -2   5   3   62.62    5.28 
   4   2 -12  518.20   33.72 
   4  -2 -12  488.94   35.88 
   0  -4  19  100.68    7.29 
  -4  -2  12  509.11   34.81 
  -4   2  12  499.96   33.29 
   0   4 -19   94.19    7.23 
   0  -4 -19   89.26    8.26 
   0  -4 -19   77.39    6.40 
   0   4 -19  122.06   44.31 
  -2  -3 -20  375.08   27.21 
  -2   3 -20  374.99   25.10 
  -2   3 -20  390.02   26.38 
   2  -5   3   84.12    8.81 
   2   5   3   81.63    7.01 
  -2  -5  -3   77.41    6.05 
   1   0 -27    9.83   12.91 
  -2   5  -3   81.31    6.88 
  -3  -2 -19   20.14    8.48 
  -3   2 -19   13.04    5.84 
  -3   2 -19   18.07    7.36 
   3   2  19   13.22    2.97 
  -3  -2 -19   14.57    3.07 
  -1   2 -25  176.54   12.31 
  -1  -2 -25  218.21   15.60 
  -1   2 -25  196.21   14.03 
  -4  -3  -4  900.87   59.19 
  -4   3  -4  974.66   63.86 
   4  -3   4  692.40   45.78 
  -2   0 -25    0.12    0.83 
  -2   0 -25    3.55    2.31 
   4   1 -15   68.79    6.95 
   4   1 -15   62.66    8.63 
   4  -1 -15   72.31    5.88 
   0  -5 -12  106.05    7.81 
  -4  -1  15   82.47   12.27 
  -4   1  15   81.49    6.80 
   4  -1 -15   74.67   12.70 
   0  -5 -12  108.78   11.62 
   0   5  12  112.01    7.79 
   0   5 -12  102.66    7.58 
   0   5  12   87.07    6.39 
   0   5 -12  151.42   55.44 
   0   5  12   79.67    5.99 
   2   5  -4  129.64    9.42 
  -2   5   4  143.64   10.46 
   2   5  -4  122.62    8.93 
   2  -5  -4  123.42   10.35 
  -2  -5   4  130.98    9.00 
   2   5  -4  104.94    7.37 
  -2  -2 -23  500.55   32.31 
  -2   2 -23  492.43   33.14 
  -2  -2 -23  487.00   31.40 
  -2   2 -23  466.65   44.04 
  -2  -2 -23  457.23   31.28 
   4  -3  -5   44.79   12.80 
  -1   0 -27   -1.45   17.59 
   3   3 -16 1078.40   70.30 
   2   5   4   24.26    5.17 
  -4  -3   5   47.95   18.68 
  -1   0 -27   -0.93    2.36 
  -3  -3  16  973.21   64.95 
   3  -3 -16  926.34   61.05 
  -3   3  16 1087.93   70.52 
  -2  -5  -4   22.51    4.78 
  -2   5  -4   31.41   12.94 
  -4   3   5   42.43    9.04 
   4   3  -5   22.02    8.19 
   4  -3  -5   56.43   15.26 
   2  -5   4   30.86   12.59 
  -3  -1 -21   43.96    8.83 
   3   4  -9   43.51    8.95 
   3  -4  -9   51.15   10.78 
  -3   1 -21   45.43   11.99 
   3   1  21   42.88    8.49 
  -3   4   9   60.65   12.20 
   3  -4  -9   52.75   10.91 
  -3   1 -21   50.80   10.32 
  -3  -4   9   48.81   10.49 
  -3  -1 -21   43.23    9.18 
   3   4  -9   48.22    9.33 
  -4   0  16  111.77    9.41 
  -4   2 -12   21.30    8.51 
  -4  -2 -12   19.62    7.52 
  -4   2 -12   23.15    7.24 
  -4  -2 -12    7.75    3.93 
   4   0 -16  103.37    7.73 
   3   0 -22  133.23    9.60 
   3   0 -22  139.92   10.65 
  -3   0  22  155.12   11.28 
  -4  -3  -5   -0.91   11.90 
  -4   3  -5    1.76    1.75 
  -1  -5  11  294.24   19.38 
   1  -5 -11  314.79   20.87 
   1  -5 -11  287.40   19.81 
  -1   5  11  276.69   18.89 
   1   5 -11  338.58   22.90 
  -1   5  11  280.89   18.66 
   1   5 -11  271.59   18.14 
   2   5  -5   64.91    7.34 
  -2  -5   5   72.56    6.25 
   2  -5  -5   77.76   10.50 
   2   5  -5   72.47    9.75 
  -2   5   5   83.47    6.65 
   2   5  -5   70.34    5.15 
  -3   4  -9   96.55    7.11 
   3  -4   9   91.38    6.65 
   3  -4   9   91.14    7.45 
  -3  -4  -9   88.42    7.81 
  -3   4  -9   93.69    7.56 
  -3  -4  -9   95.28    7.69 
  -1   5 -11  501.59   32.46 
   1   5  11  465.75   30.46 
   1   5  11  514.98   33.48 
  -1  -5 -11  519.03   34.18 
   1  -5  11  533.28   35.27 
  -1  -5 -11  469.97   31.38 
  -1   5 -11  489.45   32.76 
   1  -5  11  494.04   31.91 
  -2  -1  25  253.22   19.38 
   2   1 -25  302.86   21.54 
   2  -1 -25  291.53   22.69 
  -2  -1  25  332.72   22.84 
  -2   1  25  326.66   21.90 
  -2  -5  -5  211.10   16.03 
   2  -5   5  224.75   15.91 
  -2   5  -5  206.49   14.56 
   2   5   5  237.51   16.05 
   0  -2 -26   97.51    7.75 
   0   2 -26   93.21    7.81 
   0  -2 -26   84.30    5.67 
   0  -2 -26   82.98    9.13 
   0  -2 -26   82.82    5.79 
   0   2 -26   80.28    6.58 
   4   3  -6 1095.84   70.42 
  -4   3   6 1449.29   94.03 
   4  -3  -6 1348.78   87.57 
  -4  -3   6 1378.23   92.31 
   4  -3  -6 1241.34   80.44 
  -4   1 -15  920.08   61.28 
  -3  -3 -16   38.26   13.45 
  -4   1 -15  815.85   53.43 
   3   3  16   27.24    5.48 
  -4  -1 -15  853.07   56.58 
  -3   3 -16   32.94    8.73 
  -3   3 -16   38.20   11.82 
  -3  -3 -16   30.82    6.40 
  -4  -1 -15  800.00   53.87 
   2  -4 -16  110.37   16.63 
   2  -4 -16  131.57   17.32 
   2   4 -16  111.60   14.69 
  -2   4  16  118.95   15.20 
   2   4 -16  109.30   15.49 
  -4  -3  -6  241.82   19.38 
  -4   3  -6  259.84   21.06 
  -4  -3  -6  240.61   18.65 
  -4   3  -6  175.06   13.77 
   4  -2 -13  305.19   23.86 
   1   3 -23   15.42    6.52 
   4   2 -13  294.19   21.72 
   4  -2 -13  282.33   21.83 
   1  -3 -23    8.17    5.20 
  -1  -3  23    9.41    3.10 
   1  -3 -23   16.30    7.37 
   1  -3 -23   14.33    5.56 
  -1   3  23   12.80    2.82 
   1   3 -23   15.51    5.67 
  -4  -2  13  305.08   23.81 
  -4   2  13  300.63   22.92 
   1   1 -27   50.13    6.88 
  -2  -5   6   96.35   12.19 
   2   5  -6  104.54   14.20 
   1  -1 -27   58.13    7.95 
   1  -1 -27   52.76    6.96 
   1   1 -27   50.78   13.68 
   2  -5  -6  100.98   12.67 
   2  -5  -6   86.78   10.80 
   2   5  -6   91.92   14.06 
   1  -1 -27   46.56    6.97 
   2   5  -6   95.46   12.09 
   2  -5  -6   94.82   12.71 
  -2   5   6   94.43   12.95 
  -4   0 -16   23.36    8.10 
  -4   0 -16   23.36    9.49 
   3  -2 -20   95.75   12.80 
   3  -4 -10  149.90   12.43 
  -3   2  20   98.54   12.89 
   3  -4 -10  143.40   25.12 
  -3   4  10  152.12   12.16 
   3   4 -10  151.64   12.78 
  -3  -2  20  103.40   13.85 
   0   0 -28 1305.33  225.60 
  -3  -4  10  152.61   12.79 
   3   2 -20  100.89   13.40 
  -3   0 -22   15.68    6.80 
  -3   0 -22   11.43    5.56 
   0   0 -28 1515.34  262.20 
  -2   1 -25   15.79    5.68 
  -2  -5  -6   28.78   15.64 
   2   4  16  134.84   16.70 
  -2  -1 -25   16.99    7.46 
  -2   1 -25   14.01    6.46 
  -2   4 -16  121.02   15.52 
   2   1  25   11.90    2.80 
  -2  -4 -16  151.78   12.52 
  -2  -1 -25   15.30    3.35 
   2   4  16  125.14   15.51 
  -2  -5  -6   39.84    5.70 
  -2   5  -6   48.12   18.00 
  -2   4 -16  129.24   16.76 
   2   5   6   44.59   16.39 
  -1   3 -23   61.78   17.50 
   1   4 -19  522.67   39.00 
  -1  -4  19  474.46   34.46 
   1  -4 -19  413.24   30.14 
   1  -4 -19  509.92   38.09 
   1  -4 -19  494.53   36.70 
  -1   4  19  498.71   36.38 
  -1  -3 -23   55.78    7.80 
  -1  -4  19  585.34   42.88 
  -1  -3 -23   63.32   16.85 
   1   4 -19  486.58   36.75 
  -1   3 -23   53.16    7.19 
   0   5 -13   27.80    5.88 
   0   5  13   24.77    5.64 
   0   5  13   33.93    4.56 
   0  -5 -13   42.83   15.78 
   0  -5 -13   32.56    6.92 
   0   5 -13   40.06   14.68 
   0   5  13   27.49    5.86 
   4  -3  -7  141.67   25.16 
  -4   3   7  121.82   15.93 
   4   3  -7   96.81   13.20 
  -4  -3   7  112.59   14.90 
   4  -3  -7  141.48   25.55 
   2  -3 -21   20.12    8.94 
  -2   3  21   19.60    5.59 
   2  -3 -21   22.09    9.35 
   2   3 -21   17.57    5.84 
   2   3 -21   28.68   10.43 
  -1  -1 -27  803.68   61.76 
  -1   1 -27  819.93   64.61 
  -1   1 -27  777.29   57.99 
  -1  -1 -27  719.63   52.51 
  -1  -1 -27  786.59   57.10 
  -3  -4 -10  108.29   13.81 
  -1  -4 -19   15.98    6.64 
  -3   4 -10   99.68   13.26 
  -1   4 -19   15.89    3.77 
  -1  -4 -19   18.21    8.64 
  -3   4 -10  104.13   13.40 
  -1   4 -19   13.84    6.15 
  -4   1  16  289.75   22.14 
   4  -1 -16  286.30   21.67 
   4   1 -16  251.89   19.84 
   4   1 -16  286.79   21.66 
   4  -1 -16  291.57   22.56 
  -4  -1  16  287.04   22.17 
   3  -1 -22  200.87   17.14 
  -3   1  22  221.74   17.46 
   3   1 -22  216.95   16.39 
   3   1 -22  220.51   17.96 
  -3  -1  22  230.12   17.86 
  -3  -1  22  197.82   14.77 
   1  -5 -12    5.68    2.59 
  -1   5  12    3.21    1.76 
  -1   5  12    2.59    1.46 
   1   5 -12    5.27    2.96 
   1  -5 -12    3.46    1.34 
   1   5 -12    5.22    2.32 
  -1  -5  12    4.88    2.40 
  -4  -2 -13  107.55   14.47 
  -4   2 -13  110.18   14.49 
  -4   2 -13  122.95   16.09 
  -4  -2 -13  113.22   14.88 
  -4   3  -7    9.40    4.03 
  -4   3  -7   10.40    4.84 
  -4  -3  -7    9.21    4.83 
   0   4 -20  320.71   26.17 
   2  -5  -7  169.09   12.63 
   0   4 -20  324.37   25.75 
   0  -4  20  355.31   26.35 
   2   5  -7  161.51   12.15 
   0  -4 -20  342.26   26.16 
   2   5  -7  164.04   14.61 
  -2  -5   7  161.97   12.11 
   2  -5  -7  176.75   14.39 
   2  -5  -7  143.77   24.92 
   0  -4 -20  312.38   23.75 
  -2   5   7  164.97   14.40 
   2   5  -7  167.72   13.26 
  -1  -5 -12  114.97   41.91 
   1   5  12  110.65   13.90 
   1  -5  12  102.65   13.25 
  -1   5 -12  121.61   15.80 
  -1  -5 -12  124.18   15.97 
   1  -5  12  115.81   15.31 
  -1   5 -12  109.34   13.76 
   1   5  12   94.31   11.91 
  -3  -3  17   79.81   11.07 
   3  -3 -17   81.15   10.87 
  -3   3  17   86.54   11.33 
   3   3 -17  104.18   14.07 
  -3  -2 -20   23.24    4.89 
   0  -3 -24  105.44   13.94 
  -3   2 -20   23.34    5.32 
  -2   3 -21   90.89   12.06 
  -2  -3 -21   97.27   13.09 
  -2   3 -21  101.27   14.51 
   0   3 -24  103.03   13.41 
   3   2  20   24.01    5.23 
   0  -3 -24  101.43   13.59 
  -3  -2 -20   29.08    9.73 
   0   3 -24  107.02   14.06 
  -2  -2  24    0.64    0.44 
  -2   5  -7  583.62   43.30 
  -2  -2  24    2.13    1.39 
   2   5   7  564.50   41.43 
   2  -5   7  493.16   35.69 
  -2  -5  -7  530.50   40.83 
   2  -2 -24    0.68    1.03 
   2  -2 -24    0.20    1.00 
  -2   2  24    1.52    1.18 
   2   2 -24    0.34    1.42 
  -2  -5  -7  552.10   41.04 
  -2   0  26  270.74   21.22 
   2   0 -26  288.69   22.12 
   2   0 -26  302.58   24.85 
   4   0 -17    0.32    1.52 
  -4   0  17    0.92    1.02 
   4  -3  -8   14.72    6.40 
  -4  -3   8   13.46    5.11 
  -4   3   8   14.88    4.92 
   4  -3  -8   12.15    5.63 
   4   3  -8    9.38    2.17 
   1   2 -26  163.43   14.02 
   1  -2 -26  159.49   15.03 
   1  -2 -26  171.34   13.72 
  -1   2  26  166.70   13.32 
   1   2 -26  140.25   24.80 
   1  -2 -26  136.48   17.08 
  -1  -2  26  131.18   16.64 
  -3  -4  11   88.92   12.58 
   3  -4 -11   93.54   12.19 
   3  -4 -11   94.16   13.91 
  -3   4  11  109.17   14.20 
   4  -2 -14  163.24   13.50 
  -4   2  14  168.98   13.74 
  -4  -2  14  165.92   15.03 
  -4   1 -16  981.66   72.76 
  -4   1 -16  948.00   71.35 
  -4  -1 -16 1065.68  184.77 
  -4  -1 -16 1031.15   75.59 
   0  -1 -28   39.75    5.21 
   0  -1 -28   54.46    8.73 
   0   1 -28   66.66   15.85 
   0  -1 -28   56.56   10.90 
   0   1 -28   48.52    7.87 
  -3  -1 -22   27.29    5.81 
  -3   1 -22   28.00    6.60 
   3   1  22   27.69    5.91 
  -3   1 -22   25.75    5.77 
  -3  -1 -22   37.90   16.07 
  -3   3 -17   81.41   10.83 
  -4   3  -8   72.56   10.13 
  -2   5   8   78.28   10.39 
   3   3  17   78.73   10.02 
  -3  -3 -17   81.69   10.50 
  -4  -3  -8   87.12   11.33 
  -2  -5   8   70.88    8.95 
  -4  -3  -8   90.46   12.41 
  -4   3  -8   93.81   12.91 
   2   5  -8   70.75    9.12 
   2  -5  -8   79.02   10.78 
   2  -5  -8   79.03    9.98 
  -3  -3 -17   82.06   11.37 
   2   5  -8   85.51   30.98 
  -3   3 -17   78.42   10.71 
   2  -5  -8   68.88    8.75 
   2   5  -8   85.57   11.20 
   2   4 -17 1321.40  229.81 
   2  -4 -17 1233.74  213.40 
  -2   4  17 1173.15  203.47 
  -2  -2 -24   81.23   31.10 
   2  -4 -17 1268.43  219.43 
  -1   2 -26   93.12   17.43 
  -1   2 -26   80.63   11.19 
  -2   2 -24   61.12    8.45 
   2   4 -17 1047.39  183.09 
  -2   2 -24   83.99   24.77 
  -2  -2 -24   61.90    9.11 
  -1  -2 -26   87.53   11.83 
  -2  -2 -24   65.44    8.15 
  -2   0 -26   39.42    5.56 
  -2   0 -26   47.12    8.31 
  -5   0   0  269.56   21.64 
  -5   0   1    1.19    1.58 
  -3   0  23    1.14    1.17 
  -3  -4 -11   59.01    7.81 
   1   0 -28 1887.78  326.61 
   1   0 -28 2001.32  345.56 
  -3   4 -11   61.22    8.14 
   3   0 -23    0.71    2.14 
   3   4  11   50.25    6.56 
   3  -4  11   65.77   10.32 
  -3   4 -11   61.99    8.64 
   3   0 -23    0.49    0.79 
  -5   0  -1   -0.21    2.75 
  -2  -5  -8   19.48    4.57 
   2   5   8   21.35    6.68 
   2  -5   8   33.79    7.24 
  -2  -5  -8   21.79   10.99 
   2  -5   8   18.07    3.76 
  -2   5  -8   22.99    9.83 
   0   5 -14  594.58   44.56 
   0  -5 -14  607.23   44.67 
   0  -5 -14  615.04   45.65 
   0   5  14  459.32   39.14 
   0   5 -14  641.81   47.68 
   0   5  14  500.73   36.68 
   0   5  14  585.85   42.83 
  -5   0   2  216.66   17.19 
  -4   0 -17    1.10    2.18 
  -4   0 -17    1.94    1.47 
  -5   0  -2   56.17    7.94 
  -1   5  13   18.91    4.03 
   1   5 -13   20.00    5.54 
   1  -5 -13   24.12    9.18 
  -1   5  13   25.46    5.47 
   1   5 -13   24.47    9.83 
   1  -5 -13   21.36    4.65 
  -1  -5  13   18.94    4.03 
  -2   4 -17  142.74   25.14 
  -2  -4 -17  136.50   18.03 
  -2   4 -17  134.01   17.27 
   4  -3  -9  189.99   16.22 
  -4   3   9  210.02   16.71 
   4   3  -9  205.18   15.13 
   4  -3  -9  211.41   16.76 
  -5   0   3    0.64    1.33 
  -4  -3   9  192.27   25.17 
  -1   0 -28 1030.76   75.04 
  -1   0 -28 1053.25  182.40 
  -4  -2 -14   29.65   10.88 
   1  -5  13  231.86   17.19 
  -1   5 -13  247.55   18.55 
  -4   2 -14   24.73   11.90 
  -4  -2 -14   21.88   10.60 
  -1  -5 -13  242.74   18.50 
  -1   5 -13  261.21   21.21 
   1   5  13  231.88   17.20 
  -4   2 -14   28.82   10.96 
  -1  -5 -13  238.89   18.83 
   1   5  13  251.81   18.59 
   1  -5  13  259.29   19.93 
  -5   0  -3    0.98    1.39 
  -2  -1  26   18.35    4.85 
   2  -1 -26   31.04    9.76 
  -2   1  26   32.51    9.77 
  -2  -1  26   32.96    9.33 
   2   1 -26   33.63   11.58 
   2  -1 -26   29.91   11.86 
  -3  -2  21  121.30   16.02 
   3  -2 -21  114.69   16.48 
  -3   2  21  120.33   15.43 
   4   1 -17  253.21   20.00 
   4   1 -17  244.59   18.19 
  -4   1  17  272.26   21.15 
   4  -1 -17  238.89   18.82 
  -4  -1  17  265.73   20.65 
   1   4 -20  139.70   24.69 
   1  -4 -20  154.79   12.64 
  -1   4  20  149.64   26.17 
  -1  -4  20  143.93   24.97 
   1  -4 -20  108.47   13.59 
   1  -4 -20  139.54   24.61 
  -1  -4  20  123.78   15.39 
   1   4 -20  135.89   21.04 
  -5   0   4  115.61   15.24 
   2  -5  -9   89.26   12.08 
   2  -5  -9   90.31   11.72 
  -2   5   9   94.39   12.30 
  -2  -5   9   64.98    8.37 
   2   5  -9  100.90   13.05 
   2   5  -9   76.22   16.54 
  -3   4  12  219.31   17.09 
  -3  -4  12  197.80   16.37 
   3  -4 -12  197.25   15.28 
  -4   3  -9  168.54   13.71 
  -4  -3  -9  175.62   13.63 
  -4   3  -9  194.16   15.47 
   3  -4 -12  196.94   16.52 
   3   4 -12  230.00   18.64 
  -4  -3  -9  213.59   17.56 
   0   2 -27   57.02    8.80 
   0  -2 -27   59.41    7.49 
   0  -2 -27   54.25    6.87 
  -1   3  24  795.33   57.77 
   1   3 -24  818.98   60.21 
   1  -3 -24  829.10   63.56 
   1   3 -24  914.86   67.45 
   1  -3 -24  819.78   60.70 
   1  -3 -24  669.12   48.94 
   0  -2 -27   57.65    8.66 
   0   2 -27   46.31    6.49 
  -1  -3  24  697.61   50.76 
   0  -2 -27   58.09    8.08 
  -3   0 -23    0.73    2.93 
  -3   0 -23    0.52    0.82 
  -5   0  -4  259.82   22.60 
  -1   4 -20  139.43   24.60 
  -1  -4 -20  129.39   16.84 
  -1  -4 -20  133.58   17.28 
  -1   4 -20  117.65   15.40 
   2   3 -22  106.97   14.15 
  -2   5  -9   73.45    9.27 
   2  -3 -22  109.64   14.60 
   2   5   9   82.40   10.57 
  -2   5  -9   75.24   10.16 
  -2   3  22  119.53   15.64 
   2  -5   9   73.98   10.12 
  -2  -5  -9   73.40    9.92 
   2  -3 -22  115.15   15.07 
   2  -5   9   69.08    8.83 
   2   3 -22  114.52   15.37 
  -2  -5  -9   67.80    9.13 
  -3  -3  18   21.04    8.00 
  -3   3  18   19.21    7.65 
   3  -3 -18   23.40    8.25 
   3   3 -18   20.43    7.38 
   3  -3 -18   22.25    7.91 
   5   0  -5    1.56    1.55 
  -5   0   5    0.49    2.65 
  -1   3 -24  112.73   43.14 
  -1  -3 -24  136.39   17.71 
  -1  -3 -24  113.90   15.15 
  -1   3 -24  131.33   36.45 
   4   0 -18  112.30   14.33 
   4   0 -18  107.80   14.60 
  -4   0  18  118.39   15.42 
   0   4 -21   13.05    5.04 
  -5  -1   0   31.46    7.05 
   3   4  12   75.48    9.67 
  -3  -4 -12   88.87   12.23 
   4   2 -15  576.46   44.61 
  -4  -2  15  587.25   45.12 
   4  -2 -15  550.31   41.05 
   0   4 -21   12.20    5.75 
  -3  -4 -12   90.57   11.68 
  -3   4 -12   90.60   12.07 
  -5   1   0   30.26    6.87 
  -4   2  15  579.50   43.78 
   4   2 -15  565.53   41.10 
   0  -4 -21   14.26    6.59 
  -3   4 -12   86.66   11.29 
   0  -4 -21   13.43    7.43 
  -5   1   1   39.64    6.09 
  -2  -1 -26    1.79    1.05 
  -5  -1   1   44.69    6.67 
   2   1  26    0.92    0.88 
  -2   1 -26    2.54    1.76 
  -2  -1 -26    2.07    3.57 
  -2   1 -26    1.62    2.80 
  -4  -3  10  457.01   34.29 
   4  -3 -10  451.49   33.74 
  -4   3  10  491.65   36.99 
   4   3 -10  470.92   34.26 
   4   3 -10  450.58   34.12 
   4   3 -10  504.52   36.67 
   4  -3 -10  473.87   35.59 
   1  -1 -28  348.29   26.85 
  -3  -1  23   57.30    7.95 
  -3   1  23   58.99    7.99 
   3   1 -23   58.23    8.33 
   1   1 -28  314.86   24.43 
  -3  -1  23   48.94    6.38 
   1   1 -28  312.87   23.69 
   1  -1 -28  333.08   26.12 
   3  -1 -23   56.12   10.49 
   1  -1 -28  341.25   25.34 
  -5  -1  -1    1.41    2.35 
  -5   1  -1    1.55    2.47 
   5  -1  -2   67.31   10.58 
  -5  -1   2   68.07    9.65 
  -5   1   2   69.12    9.56 
  -3   2 -21  239.04   18.56 
  -3  -2 -21  237.67   17.63 
  -5   0  -5    1.72    1.75 
  -3   2 -21  222.96   18.01 
   3   2  21  203.20   15.51 
  -3  -2 -21  207.67   16.79 
   0   0 -29    7.50    7.89 
   0   0 -29    6.16    3.40 
  -4  -1 -17  145.66   31.58 
  -4  -1 -17  156.60   12.74 
  -5   1  -2   29.23   12.24 
  -2  -3 -22    9.75    4.93 
  -4   1 -17  127.64   18.89 
  -5  -1  -2   23.39    5.43 
  -2   3 -22    9.42    5.42 
  -2   3 -22   11.02    4.86 
   0   5  15  448.78   32.82 
   0  -5 -15  406.88   31.25 
   0  -5 -15  408.91   31.21 
   0  -5  15  386.73   28.80 
   0   5  15  367.09   27.67 
   0   5 -15  447.23   34.04 
   0   5 -15  409.58   30.62 
  -5  -1   3  175.78   14.41 
   5  -1  -3  187.60   18.22 
  -5   1   3  197.30   15.98 
   5   0  -6   19.47    7.90 
  -5   0   6   22.89   11.74 
  -1  -1 -28  259.67   19.67 
  -1   1 -28  248.09   19.43 
  -1   1 -28  268.13   20.74 
  -1  -1 -28  274.39   26.13 
  -1  -1 -28  262.08   20.04 
   2   4 -18  138.16   18.58 
  -2   4  18  179.67   13.73 
   2   4 -18  146.71   26.76 
  -1   5  14  252.80   18.97 
  -1   5  14  302.79   22.48 
   2  -4 -18  153.59   12.79 
   1  -5 -14  307.90   22.96 
  -1  -5  14  282.08   20.91 
   1  -5 -14  294.18   22.59 
   2  -4 -18  140.67   24.76 
   1   5 -14  296.74   23.63 
   1   5 -14  276.54   20.94 
  -3  -3 -18    0.66    0.61 
   2   5 -10  251.78   21.03 
   3   3  18    0.60    0.59 
   2   5 -10  252.28   19.35 
  -3   3 -18    0.51    1.61 
  -3   3 -18    0.93    1.09 
  -3  -3 -18    2.19    1.68 
   2  -5 -10  260.58   19.34 
   2  -5 -10  236.31   19.77 
  -2   5  10  267.27   20.32 
  -4  -3 -10  210.48   17.44 
  -4   3 -10  206.36   16.28 
  -4  -3 -10  183.39   16.46 
  -4   3 -10  205.37   16.30 
   0  -3 -25  112.85   14.99 
  -5  -1  -3   18.19    8.36 
   0   3 -25   95.80   13.06 
   0  -3 -25  109.24   14.57 
  -5   1  -3   20.62    8.14 
   0   3 -25  100.35   13.06 
  -2  -2  25   28.66    9.97 
   2  -2 -25   34.42   12.31 
   2  -2 -25   29.94    6.55 
   2   2 -25   32.73    7.80 
  -2   2  25   32.03    7.55 
  -2  -2  25   30.53    6.33 
   1  -5  14  105.59   13.36 
  -1  -5 -14  107.96   14.47 
   1   5  14  110.66   13.86 
  -1   5 -14   97.53   13.05 
  -1   5 -14  118.43   14.99 
  -1  -5 -14  120.00   15.50 
   1   5  14  109.01   13.71 
  -5   1   4   18.77    7.96 
   5  -1  -4   21.51    8.15 
  -5  -1   4   17.48    6.27 
  -4   2 -15  680.01   50.68 
  -4   2 -15  800.28   59.36 
  -2   5 -10   97.79   12.47 
  -2  -5 -10  102.13   13.24 
   2  -5  10  102.68   12.87 
   2   5  10   99.35   12.60 
  -4  -2 -15  739.22   54.67 
  -2  -5 -10   95.46   13.00 
   2   5  10  111.14   14.04 
  -2   5 -10  115.86   15.21 
  -4  -2 -15  757.26   56.47 
  -5   0  -6   10.00    4.45 
  -5   0  -6    8.46    5.16 
   2   0 -27    3.90    1.75 
   3  -4 -13  244.28   19.37 
   2   0 -27    0.47    0.63 
  -2   0  27    2.17    1.49 
  -3  -4  13  248.85   20.22 
  -4   0 -18  198.10   16.18 
   3   4 -13  237.05   18.65 
  -3   4  13  263.21   20.23 
  -4   0 -18  199.95   16.19 
   3  -4 -13  229.44   17.71 
  -2   4 -18  186.46   14.62 
  -3  -1 -23  189.59   15.48 
   3   1  23  186.94   14.23 
  -2  -4 -18  187.30   15.35 
  -2   4 -18  184.20   18.56 
  -3  -1 -23  180.09   13.62 
  -3   1 -23  194.83   16.21 
  -5  -1  -4   56.95    8.02 
  -5   1  -4   53.58    7.79 
   5   0  -7    1.31    0.85 
  -5   0   7    0.26    1.10 
  -1   2  27   70.95    9.26 
   1   2 -27   63.52    9.01 
   1  -2 -27   63.07    8.96 
   1   2 -27   60.41    8.22 
  -1  -2  27   55.94    7.32 
   1  -2 -27   65.64    8.86 
   1  -2 -27   54.04    7.04 
  -4  -3  11  183.97   15.20 
   4   3 -11  211.78   17.01 
   4  -3 -11  217.13   17.35 
   4   3 -11  211.45   15.54 
   4  -3 -11  212.05   16.88 
   4   3 -11  208.59   15.27 
  -4   3  11  219.45   17.21 
  -5  -1   5   22.41    9.86 
   5  -1  -5   22.70    9.12 
  -5   1   5   18.68    6.56 
   3   0 -24  337.63   27.52 
   3   0 -24  351.13   26.04 
  -3   0  24  358.70   27.35 
  -4  -1  18   48.26   10.55 
  -2   2 -25    0.76    1.11 
  -2  -2 -25    1.05    1.57 
  -2  -2 -25    0.72    0.42 
   4   1 -18   47.45   16.67 
  -2  -2 -25    0.55    0.67 
   4   1 -18   40.96    6.64 
  -2   2 -25    1.48    1.76 
   4  -1 -18   45.31   10.70 
  -4   1  18   46.24    7.00 
  -3   4 -13   12.50    4.27 
  -3   4 -13   10.38    4.73 
  -3  -4 -13   14.08    6.05 
   3   4  13    7.85    2.69 
  -3  -4 -13   10.29    5.78 
  -1  -2 -27  100.43   13.48 
  -1   2 -27   76.59   10.01 
  -1   2 -27   90.53   12.33 
  -5  -1  -5  345.53   26.34 
  -5   1  -5  381.25   29.12 
  -5   0  -7    1.02    1.42 
  -2   0 -27    0.49    1.04 
  -2   0 -27    2.78    3.83 
   0   1 -29  265.15   20.16 
   0  -1 -29  274.79   20.33 
   0  -1 -29  299.81   23.28 
   0   1 -29  275.00   21.62 
   0  -1 -29  267.44   20.06 
   2   5 -11  170.98   14.36 
   2  -5 -11  167.59   15.41 
  -2   5  11  173.59   13.65 
   2  -5 -11  162.86   12.28 
   1   4 -21   41.24    7.64 
   2   5 -11  164.72   13.15 
  -1  -4  21   52.47    6.69 
   1  -4 -21   48.86    7.57 
   1  -4 -21   58.16   12.11 
   4  -2 -16   47.79   11.79 
  -4   2  16   56.70    8.40 
   1  -4 -21   34.80    4.54 
  -4  -2  16   47.95    7.13 
   1   4 -21   51.61   11.93 
  -1  -4  21   46.32    5.87 
   4   2 -16   45.32    5.78 
  -1   4  21   48.16    6.39 
   4   2 -16   45.56    7.69 
   3   2 -22   53.17   12.28 
  -3   2  22   52.45    7.25 
   3  -2 -22   38.25    5.68 
  -3  -2  22   47.02    6.92 
  -4   3 -11  502.57   37.92 
  -4   3 -11  502.40   38.46 
  -4  -3 -11  494.18   38.15 
   3  -3 -19    4.69    2.38 
   3  -3 -19    3.08    1.47 
   5  -1  -6   12.26    4.65 
  -3  -3  19    3.80    2.11 
  -5  -1   6   11.07    6.13 
  -3   3  19    4.43    1.59 
   3   3 -19    2.19    0.97 
   1   0 -29    6.90    6.23 
   5   0  -8  144.55   25.67 
  -5   0   8  122.75   16.34 
  -1   4 -21   23.45    9.82 
  -1  -4 -21   28.97   12.21 
  -1   4 -21   21.48   10.72 
   4   0 -19    1.20    3.09 
  -4   0  19   -0.16    2.04 
  -1  -4 -21   19.11    9.45 
  -2  -5 -11  187.56   14.81 
   2  -5  11  122.85   15.38 
  -2   5 -11  161.98   12.95 
  -2   5 -11  165.19   12.37 
   2   5  11  118.66   14.92 
  -2  -5 -11  162.45   13.43 
   2   5  11  186.18   13.97 
   1   5 -15  167.36   13.36 
   1   5 -15  153.04   12.10 
   1  -5 -15  176.88   14.71 
   1  -5 -15  169.41   13.02 
  -1   5  15  175.65   13.94 
  -1  -5  15  168.41   12.98 
   0   5  16  107.48   13.53 
   0   5 -16   81.88   10.61 
   0  -5 -16   91.22   11.96 
   0   5  16   90.27   11.49 
   0  -5 -16  106.45   40.04 
   0   5 -16   96.67   13.45 
   0  -5  16  115.59   39.74 
   2  -3 -23   27.73    6.89 
   2   3 -23   30.16    9.54 
   2   3 -23   30.82   10.63 
   2  -3 -23   26.84   11.84 
  -2   3  23   27.41    6.13 
  -5  -1  -6  136.23   18.16 
  -5   1  -6  120.15   17.71 
  -5  -1  -6  132.86   17.67 
  -4   1 -18  482.35   36.19 
  -3   0 -24    2.40    1.45 
  -4   1 -18  487.02   37.06 
  -4  -1 -18  446.28   33.20 
  -3   0 -24    2.70    2.14 
  -4  -1 -18  466.68   35.67 
  -1   0 -29    6.86    5.70 
  -1   0 -29    4.39    3.43 
  -2   1  27    4.43    2.04 
   1  -3 -25    9.88    4.20 
  -2  -1  27    3.55    1.41 
   1   3 -25    9.60    3.86 
   2   1 -27    5.40    2.36 
   1   3 -25    8.17    4.26 
  -1  -3  25    5.21    2.39 
   2  -1 -27    6.11    2.19 
   2  -1 -27    2.41    1.48 
   1  -3 -25    5.15    2.06 
   1  -3 -25   12.08    4.52 
  -1   3  25    7.26    2.43 
  -1   5 -15  255.53   19.17 
   1  -5  15  206.28   15.40 
   1   5  15  256.81   18.81 
  -1  -5 -15  260.10   19.98 
  -1  -5 -15  258.73   19.88 
  -1   5 -15  248.79   19.28 
   3  -4 -14  418.44   31.84 
   3   4 -14  440.81   33.21 
  -3   4  14  399.99   30.37 
  -3  -4  14  388.20   32.08 
   3  -4 -14  388.83   29.20 
   0   4 -22  446.26   33.41 
   0  -4 -22  442.40   33.28 
   0   4 -22  434.09   32.55 
   0  -4 -22  457.61   34.38 
   4  -3 -12   34.66    6.40 
   4   3 -12   29.69    6.02 
  -4   3  12   37.55   11.52 
   4   3 -12   29.31   12.57 
  -4  -3  12   38.43   14.29 
  -5   0  -8 1040.27   77.60 
  -5   0  -8  953.41   71.41 
   5  -1  -7  163.24   13.55 
  -5  -1   7  144.22   26.07 
   5   1  -7  133.82   17.37 
  -5   1   7  159.72   13.33 
   2   4 -19   43.36    6.71 
   2  -4 -19   50.40    7.47 
  -4   2 -16   43.68   12.23 
  -2   4  19   45.38    6.06 
   2  -4 -19   46.73    7.10 
  -4  -2 -16   32.56    7.52 
   2   4 -19   54.69   11.21 
  -4   2 -16   42.44   17.26 
  -3  -3 -19  164.55   13.95 
  -3   3 -19  182.04   14.50 
  -3  -3 -19  173.41   12.87 
  -3   3 -19  170.50   14.91 
  -1  -3 -25  248.52   19.73 
  -3   2 -22  192.22   15.53 
  -3  -2 -22  181.39   15.03 
  -3  -2 -22  199.87   15.26 
   0  -2 -28   27.01    5.51 
  -1   3 -25  222.45   17.22 
  -1   3 -25  247.48   21.61 
  -3   2 -22  209.40   16.52 
   0   2 -28   34.13   13.73 
   0   2 -28   26.98    7.04 
   0  -2 -28   33.79   11.15 
   0  -2 -28   31.55   13.03 
  -1  -3 -25  259.38   21.54 
   0  -2 -28   27.46    5.66 
   3   1 -24   56.60    8.16 
   3  -1 -24   57.83    8.48 
   3  -1 -24   47.61    7.11 
  -3   1  24   56.08    7.69 
  -3  -1  24   66.51   16.10 
  -3  -1  24   47.89    6.65 
  -2  -3 -23   24.03    7.45 
  -2   3 -23   25.74    5.68 
  -2   3 -23   29.95   12.79 
  -5   0   9    1.05    1.26 
  -3  -4 -14  382.68   28.21 
  -3  -4 -14  376.20   28.80 
  -3   4 -14  382.11   28.60 
  -3   4 -14  377.55   32.10 
   2   5 -12  347.29   21.24 
   2  -5 -12  332.68   25.01 
  -2   5  12  336.30   20.83 
   2  -5 -12  327.12   19.79 
   2   5 -12  303.22   18.34 
  -4   0 -19    2.41    2.88 
  -2  -1 -27  145.73    8.06 
  -2  -1 -27  129.56   16.42 
  -2   1 -27  141.57   18.54 
  -4   0 -19   -0.28    6.86 
  -2  -1 -27  110.90   14.17 
  -5  -1  -7  531.93   40.15 
  -2   1 -27  116.88   15.51 
  -5  -1  -7  594.07   49.81 
  -5   1  -7  577.30   43.30 
   0  -6   0  229.78   14.78 
   0   6   0  250.71   15.52 
   0   6  -1   82.14   14.29 
  -2   4 -19  302.31   18.48 
  -2  -4 -19  310.18   19.53 
   0  -6  -1   81.21   10.90 
   0   6   1  100.45   18.59 
  -2   4 -19  282.70   17.26 
   0  -6   1   85.63   11.43 
  -4  -3 -12  143.01   19.36 
  -4   3 -12  133.69   17.70 
  -4   3 -12  145.17    7.99 
  -4  -3 -12  126.34   21.79 
   0  -6  -2   30.27   12.76 
   0   6  -2   30.76   11.55 
   0  -6   2   29.65   12.64 
   0   6   2   28.75    8.74 
   1   1 -29    4.41    5.56 
   1   1 -29    1.11    1.33 
   1  -1 -29    2.99    1.49 
   2  -5  12  125.30   16.37 
  -2  -5 -12  119.47   16.26 
  -2   5 -12  121.03   15.35 
  -2  -5 -12  117.32   15.25 
   2   5  12  125.87   16.03 
  -2   5 -12  113.06   15.07 
   5   1  -8  365.81   21.87 
  -5  -1   8  369.21   23.54 
  -5   1   8  386.73   23.75 
  -4   1  19   65.20    8.94 
   4   1 -19   60.07    9.10 
   4   1 -19   62.61    8.13 
  -4  -1  19   69.71   17.39 
   4  -1 -19   55.31    8.61 
  -5   0  -9    4.67    2.83 
  -5   0  -9    1.76    1.63 
   0  -3 -26  237.60   15.60 
   0   3 -26  221.12   14.47 
   2  -2 -26    5.07    2.15 
  -2   2  26    4.82    2.51 
  -2  -2  26    2.92    1.35 
   2   2 -26    4.24    2.31 
   0   3 -26  243.85   15.00 
   2  -2 -26    5.16    2.00 
   0  -3 -26  249.10   15.81 
   2   2 -26    5.66    3.06 
   0   6  -3  167.22   10.90 
   4  -2 -17  217.23   14.01 
   4   2 -17  205.88   11.97 
   0  -6  -3  171.98   11.46 
  -4   2  17  232.83   14.84 
  -4  -2  17  240.44   15.44 
   0  -6   3  159.59   10.54 
   0   6   3  185.50   11.82 
   0   0 -30  311.13   18.28 
  -3  -1 -24   35.76   14.04 
  -1  -1 -29   41.00   16.37 
  -1   1 -29   42.55   12.88 
  -3   1 -24   29.59    7.12 
  -1  -1 -29   30.09   17.12 
  -3   1 -24   37.09    5.60 
  -1   1 -29   24.97    7.20 
  -3  -1 -24   33.48    6.45 
   1   5 -16  174.38   13.71 
   1   5 -16  177.46   11.20 
  -1  -5  16  178.58   10.64 
  -1   5  16  185.41   11.12 
   1  -5 -16  180.08   11.16 
   1  -5 -16  183.48   12.70 
   4  -3 -13   55.79    7.81 
  -4   3  13   68.12    9.61 
   4   3 -13   72.20   17.48 
  -4  -3  13   62.64    9.11 
   4  -3 -13   71.58   11.90 
  -5  -1  -8  185.69   13.09 
  -5   1  -8  173.75   17.57 
  -5  -1  -8  162.25   10.82 
   0  -6   4  549.24   32.46 
   0   6  -4  578.46   34.06 
   0  -6  -4  490.84   29.80 
   5   0 -10   36.39    4.16 
   5   0 -10   39.06    7.39 
   0   6   4  535.99   32.46 
  -5   0  10   45.27    6.80 
   0   5 -17  258.01   16.36 
   0   5  17  292.94   16.75 
   2   0 -28  255.63   17.30 
   0   5 -17  309.78   19.19 
   0  -5 -17  291.84   17.69 
  -2   0  28  301.54   18.49 
   0  -5 -17  302.54   19.41 
   2   0 -28  289.13   17.21 
   0  -5  17  301.01   19.33 
  -3  -4  15  633.84   38.58 
   3  -3 -20   12.61    4.83 
  -3   3  20   15.83    5.82 
  -3   4  15  683.26   39.54 
   3   4 -15  726.32   42.35 
  -3  -3  20   14.03    5.66 
   3   3 -20   10.33    3.90 
   3  -4 -15  624.39   36.44 
   3  -4 -15  632.68   37.54 
   3  -3 -20   13.26    4.75 
   3   0 -25    0.37    0.54 
  -3   0  25    0.63    1.94 
   3   0 -25    1.69    2.49 
   1   5  16   12.01    2.21 
  -1   5 -16   11.00    6.87 
  -1  -5 -16   13.35    6.01 
  -1  -5 -16   10.44    5.74 
  -1   5 -16   10.04    5.60 
  -1  -4  22  403.43   22.88 
  -1   4  22  395.47   22.53 
   1  -4 -22  386.15   23.34 
   1   4 -22  420.23   25.84 
   1   4 -22  374.52   25.05 
   1  -4 -22  413.42   24.75 
  -4   0  20  339.99   20.74 
   4   0 -20  315.62   19.12 
   4   0 -20  309.80   19.60 
   3  -5   0   84.66   11.70 
  -3   5   0   95.19   12.76 
   3  -5   0   81.85   10.55 
   3   5   0   79.26   11.52 
   3   5  -1   31.18    6.23 
   3  -5  -1   30.48    5.46 
   5  -2  -1  152.10    7.82 
  -5  -2   1  155.78   11.00 
  -2   2 -26   46.38    6.41 
  -3   5   1   35.49    6.93 
  -5   2   0    3.63    1.68 
  -5  -2   0    4.11    1.78 
   5  -2   0    7.40    5.99 
  -5   2   1  153.83    7.95 
  -2   2 -26   57.37   14.17 
  -2  -2 -26   42.96    6.53 
   5   1  -9  226.86   15.94 
   5  -1  -9  232.61   15.51 
   1   2 -28   24.84   11.06 
   5  -1  -9  247.06   15.71 
   1  -2 -28   26.59    7.91 
  -3   5  -1  137.20   19.60 
   3  -2 -23  714.28   41.31 
  -3   2  23  781.97   45.47 
   1  -2 -28   21.88    4.55 
   1  -2 -28   24.99   11.12 
   3   2 -23  830.93   48.25 
  -3  -2  23  735.40   43.02 
  -5   1   9  224.55   16.11 
   3   5   1  128.93   17.20 
   1   2 -28   26.96   10.36 
   3  -2 -23  707.48   41.40 
  -5  -1   9  216.85   18.65 
   3  -5   1  130.51   16.39 
  -5  -2  -1  219.69   14.21 
  -5   2  -1  247.94   15.76 
   5  -2   1  225.24   14.41 
   5  -2  -2  115.25   15.52 
  -5   2   2  135.73   17.87 
  -5  -2   2  113.73   15.02 
   2  -5 -13  229.60   18.01 
   2   5 -13  241.44   20.64 
   3  -5  -2    4.04    1.84 
   2   5 -13  245.54   15.08 
  -3   5   2    6.31    2.45 
   3   5  -2    6.41    3.34 
  -2   5  13  240.55   15.62 
   2  -5 -13  240.03   16.72 
  -4  -1 -19   92.65   13.38 
  -4  -1 -19   81.15   11.07 
  -4   1 -19   75.53   10.94 
  -4   1 -19   80.59   11.65 
  -1  -4 -22  470.27   28.34 
  -1  -4 -22  412.20   25.15 
  -1   4 -22  455.83   27.27 
  -1   4 -22  367.05   23.01 
  -4  -4   0   30.09   13.50 
  -4   4   0   29.91    9.48 
   0  -6  -5   45.26   16.10 
   3  -5   2  169.12   13.96 
   0  -6   5   42.17   15.70 
  -3   5  -2  181.23   12.35 
   3  -5   2  169.28   10.37 
   3   5   2  170.84   13.64 
   0   6  -5   40.71    7.04 
   0   6   5   46.39    6.53 
  -4  -2 -17  194.60   13.87 
  -4  -2 -17  187.65   11.41 
  -4   2 -17  213.35   14.48 
  -4  -4   1  113.84   14.88 
  -4   2 -17  205.69   13.06 
  -5   2  -2   95.23   12.97 
   4  -4  -1   96.29   12.96 
  -4   4   1  131.02   17.27 
  -5  -2  -2   79.58   13.75 
  -4  -4  -1   47.27    6.60 
   4  -4   1   59.87   16.00 
  -4   4  -1   49.20    7.21 
  -4  -3 -13  158.04    9.88 
  -4   3 -13  161.59   11.32 
  -4  -3 -13  160.51   13.42 
  -4   3 -13  151.28    7.53 
  -5   0 -10  283.79   17.68 
  -5   2   3   15.39    5.99 
  -5   0 -10  283.53   18.31 
  -5  -2   3   17.11    7.39 
  -3   4 -15   21.56    7.11 
   3  -5  -3   87.09   11.88 
   3  -5  -3   79.97   10.72 
   4  -4  -2  306.12   18.20 
  -3  -4 -15   21.76    4.12 
   3   5  -3   86.40   11.47 
  -3   5   3   84.54   11.59 
  -4   4   2  338.70   20.87 
   4  -4  -2  341.55   21.32 
  -3   4 -15   20.47   10.30 
  -3  -4 -15   22.00    8.70 
  -4  -4   2  325.21   21.11 
  -1   2 -28  138.44   19.63 
  -1  -2 -28  133.06   18.06 
  -1   2 -28  149.56    6.55 
  -2   5 -13   17.01    3.28 
  -2   5 -13   18.37    6.39 
  -2  -5 -13   20.52    8.87 
   3  -5   3  280.35   16.14 
   2   5  13   19.47    3.59 
  -2  -5 -13   24.57    9.96 
   4  -4   2  132.92   17.96 
  -3   5  -3  305.31   19.17 
  -4   4  -2  130.65   17.14 
  -4  -4  -2  136.96   17.83 
   3   5   3  310.96   18.91 
   2   4 -20   83.50   13.84 
   2  -4 -20   74.73   10.02 
  -2   0 -28  272.17   21.34 
   2  -4 -20   76.80   10.46 
  -2   0 -28  272.43   16.19 
  -2   4  20   76.52    9.94 
   2   4 -20   76.35   10.28 
  -5   2  -3   42.74   14.87 
  -5  -2  -3   39.95    7.74 
  -3  -3 -20   20.62    3.74 
  -3   3 -20   17.47    7.59 
  -3   3 -20   30.31   11.24 
  -3  -3 -20   26.35   11.90 
  -5  -1  -9   13.26    5.87 
  -2   3  24  105.92   13.51 
   1   6   0  169.46   10.81 
  -5   1  -9   14.16    6.80 
   2   3 -24   97.56   13.30 
  -1   6   0  165.82   12.17 
   2  -3 -24  105.04   13.99 
  -4   4   3  329.33   20.88 
  -4  -4   3  289.46   19.19 
   2   3 -24   98.82   13.14 
   4  -4  -3  281.74   18.07 
   2  -3 -24   95.84   12.71 
   1   6   0  158.10    9.31 
  -1  -6   0  166.73   10.58 
   1  -6   0  163.41   10.69 
  -1   6   1   31.87    7.84 
   1  -6   1   27.34    8.67 
   1   6   1   23.56    4.74 
   1   6  -1   32.17    5.83 
  -1  -6   1   30.65   13.61 
  -1  -6  -1   21.39    8.20 
   1   6   1   27.07    9.40 
   1  -6  -1   32.38    9.68 
   1   6  -1   26.45    9.12 
  -1   6  -1   25.20    8.08 
  -5  -2   4    4.52    2.71 
   5  -2  -4    4.91    2.07 
  -5   2   4    3.06    2.22 
   0   1 -30  130.32   17.33 
   0  -4 -23   37.88    5.74 
   3  -5  -4   39.35   14.78 
  -3   5   4   41.54   12.95 
   0  -1 -30  124.63   16.90 
   0   4 -23   37.03   13.08 
   3   5  -4   32.40    6.55 
   0   1 -30  129.68   16.70 
   0  -1 -30  115.97   14.67 
   3  -5  -4   34.91    6.38 
   0   4 -23   32.00    6.40 
   0  -4 -23   36.37    3.99 
  -4   4  -3   41.48   14.05 
  -4  -4  -3   30.06    5.86 
   0  -6   6  164.16   10.73 
   5   0 -11    0.49    1.53 
   1   6  -2   78.61   10.51 
  -1   6   2   82.33   10.96 
   1  -6  -2   80.69   10.82 
  -1  -6   2   71.02   11.30 
  -3   0 -25    0.05    0.73 
  -5   0  11    0.32    1.55 
   5   0 -11    1.02    1.26 
   1   6  -2   69.32    9.08 
   0  -6  -6  162.72   11.19 
  -3   0 -25    1.32    2.38 
   0   6  -6  172.94   11.14 
   0   6   6  179.83   11.37 
   1   6   2  457.49   26.78 
  -1  -6  -2  421.47   25.21 
  -1   6  -2  434.90   25.80 
   1  -6   2  478.71   28.43 
  -3   5  -4  121.83   15.97 
   1   3 -26  105.82   13.96 
   1  -3 -26  115.29   15.18 
  -1   3  26  107.43   13.50 
   1   3 -26  110.15   14.60 
   1  -3 -26  113.90   14.90 
   3   5   4  114.43   14.66 
  -3  -2 -23   92.92   13.75 
  -3   2 -23   83.51   11.03 
  -3  -2 -23   85.15   10.78 
  -3   2 -23   84.60   18.85 
   1   0 -30   56.27    7.51 
   1   0 -30   61.32    8.76 
  -4  -4   4  338.55   20.79 
  -4   0 -20  861.96   50.87 
   4  -4  -4  339.70   21.36 
  -5   2  -4   23.13    9.52 
  -4   4   4  377.85   23.46 
  -5  -2  -4   23.02    9.74 
  -4   0 -20  893.53   51.47 
  -2  -4 -20   88.15   11.94 
  -2   4 -20   80.10   10.87 
  -2   4 -20   93.73   12.34 
   5   1 -10 1097.41   36.44 
  -5   1  10 1041.92   60.23 
   5  -1 -10 1110.31   37.19 
   5  -1 -10  991.18   57.30 
  -5  -1  10 1051.01   36.48 
   1   6  -3  506.19   28.71 
   1  -6  -3  551.58   33.24 
  -4  -3  14  364.07   22.84 
  -4   3  14  393.52   23.76 
   1   6  -3  550.70   32.26 
  -1  -6   3  600.84   35.33 
   4  -3 -14  337.67   22.37 
  -1   6   3  562.33   32.81 
   2  -1 -28  882.61   51.53 
  -2   1  28  836.61   47.89 
  -2  -1  28  934.73   54.20 
   2   1 -28  855.96   52.70 
   2  -1 -28  893.48   51.29 
   1  -6   3   36.51   11.10 
  -1  -6  -3   28.13    5.73 
   1   6   3   31.32    8.41 
  -1   6  -3   39.38   11.08 
  -5   2   5  514.08   30.99 
   3  -1 -25  111.80   15.18 
   3   1 -25  111.36   14.93 
   3  -1 -25  118.66   15.58 
  -3   1  25  116.08   15.81 
   5  -2  -5  514.86   30.64 
   3   1 -25  113.08   14.41 
  -5  -2   5  448.23   27.18 
  -3  -1  25  111.59   14.88 
   4  -4   4  136.69   18.04 
  -4   4  -4  147.01    7.76 
  -4  -4  -4  132.13   17.47 
   3  -5  -5   16.86    6.15 
  -3   5   5   17.40    6.74 
   3  -5  -5   11.27    4.05 
   4  -2 -18  249.83   15.82 
   4   2 -18  244.96   13.98 
  -4   2  18  284.53   17.70 
   3   5  -5   11.83    4.96 
  -4  -2  18  268.04   17.00 
  -1   3 -26   57.69    8.24 
  -2  -3 -24   91.89   12.50 
  -2   3 -24   96.33   12.78 
  -2   3 -24   81.12   11.04 
  -1   3 -26   59.82    8.36 
  -1  -3 -26   56.80    9.17 
   4   1 -20  110.27   14.06 
   4   1 -20  108.10   14.54 
   4  -1 -20  116.37   15.46 
  -4   1  20  113.70   14.95 
  -4  -1  20  107.59   14.25 
  -1   0 -30   29.23   11.21 
  -1   0 -30   20.91    5.29 
   3   5   5   28.54    5.35 
  -3   5  -5   32.22   10.85 
  -4  -4   5  127.32   16.90 
   1   5 -17   29.63   11.25 
  -1   5  17   29.26    5.34 
   4  -4  -5  122.69   17.48 
   1  -5 -17   26.41    5.02 
   1  -5 -17   29.48   13.28 
  -4   4   5  142.63   18.67 
   1   5 -17   25.72    8.13 
  -1  -5  17   26.89    4.85 
  -3   4  16   89.56   11.88 
   3   4 -16  101.01   18.60 
  -1  -6   4   58.92   27.29 
   1   6  -4   48.69    7.41 
  -1   6   4   58.78    8.01 
   1  -6  -4   55.72   10.87 
   3  -4 -16   79.53   10.98 
  -3  -4  16   68.94   10.59 
   1   6  -4   50.30    6.67 
  -5  -2  -5  363.49   22.28 
  -5   2  -5  357.45   22.74 
   0  -6   7  199.12   12.76 
  -5   0 -11    2.10    2.47 
   0   6  -7  179.64   14.08 
  -1   6  -4   61.70    8.55 
   1   6   4   54.78    8.03 
  -5   0 -11   -0.46    2.20 
   1  -6   4   55.32    7.80 
   0  -6  -7  189.77   14.07 
   0   6   7  201.17   12.47 
  -1  -6  -4   52.42    7.61 
   0  -2 -29  187.81   10.78 
   0  -2 -29  260.08   16.17 
   0  -2 -29  192.63   12.87 
   0   2 -29  202.01   13.43 
   0   2 -29  202.53   12.87 
   2   5 -14  190.07   12.12 
   2  -5 -14  173.65   13.12 
  -2   5  14  193.47   12.10 
   2   5 -14  192.83   26.59 
   2  -5 -14  175.49   11.08 
  -1   5 -17  464.63   28.18 
   1   5  17  443.42   24.92 
  -1   5 -17  420.99   25.69 
  -1  -5 -17  423.64   25.20 
  -1  -5 -17  406.59   24.57 
   1  -5  17  458.78   27.12 
   0  -5  18  116.38   14.90 
   0   5  18  115.84   14.45 
   0   5 -18  108.77   14.07 
   0  -5 -18  110.24   14.74 
   0  -5 -18  117.60   15.24 
   0   5 -18   83.40   12.33 
  -5  -1 -10  419.53   25.48 
  -5   1 -10  402.11   24.79 
  -5   1 -10  406.23   26.90 
  -5  -1 -10  417.84   26.28 
  -4  -4  -5   38.55   17.92 
  -4   4  -5   39.26   13.44 
   5  -2  -6  253.98   16.24 
  -5  -2   6  228.66   15.34 
  -5   2   6  244.42   18.86 
   3  -5  -6  144.52   18.49 
   3  -5  -6  137.44   18.48 
   3   5  -6  147.05    7.29 
  -3   5   6  151.34    7.38 
   3   5  -6  143.05   18.67 
  -4   3 -14   68.75    9.47 
  -4  -3 -14   57.62    7.75 
  -4  -3 -14   63.95    9.81 
  -4   3 -14   54.81    8.26 
  -2   1 -28  312.57   23.39 
  -2   1 -28  269.63   17.74 
  -2  -1 -28  280.34   20.04 
  -2  -1 -28  293.42   17.13 
  -2  -5 -14   22.23    5.77 
  -1  -6   5   73.25    9.82 
  -2   5 -14   20.89    4.22 
   2   5  14   21.54    4.17 
  -1   6   5   80.91   11.49 
   1  -6  -5   83.90   11.35 
   1   6  -5   67.98    8.68 
   1   6  -5   75.47   10.14 
  -2  -5 -14   24.82    5.03 
  -2   5 -14   26.50    9.09 
  -4  -4   6  113.86   15.25 
   4  -4  -6  120.85   17.58 
   1  -6   5   64.05    9.32 
   3   3 -21   41.81   13.79 
   3  -3 -21   42.36   12.58 
   3  -3 -21   34.82   13.06 
  -1  -6  -5   54.89    7.91 
   4  -4  -6  116.23   15.27 
  -1   6  -5   63.61    8.99 
  -4   4   6  128.29   16.90 
  -3  -3  21   44.23   12.51 
   1   6   5   71.27    9.57 
  -3   3  21   36.75    2.90 
   3   5   6   63.90    8.39 
   5   0 -12  108.16   14.59 
  -3   5  -6   66.73    9.43 
  -5   0  12  118.43   15.79 
   5   0 -12  106.85   14.50 
  -3   4 -16    8.16    4.00 
  -3  -4 -16    4.09    2.53 
  -3   4 -16    6.33    2.54 
  -3  -4 -16    6.94    2.76 
  -5   2  -6   12.64    5.59 
  -5  -2  -6   12.66    6.09 
  -4   0  21    2.56    2.85 
  -3   1 -25  204.36   12.79 
   5  -1 -11   31.75   11.21 
  -5   1  11   10.65    4.89 
  -5  -1  11   11.33    4.49 
   5   1 -11   16.80   11.23 
  -3  -1 -25  212.07   14.23 
  -3  -1 -25  213.71   12.85 
   5  -1 -11   15.80    7.70 
   2  -2 -27  263.53   16.32 
   2   2 -27  238.62   16.48 
  -4   2 -18  177.36   12.01 
  -4  -2 -18  154.35    9.58 
  -4  -2 -18  183.78   12.85 
  -4   2 -18  164.35   10.80 
   2  -2 -27  242.33   16.01 
   2   2 -27  247.07   15.37 
  -2   2  27  244.42   14.94 
   0   3 -27   92.58   12.30 
   0  -3 -27  117.88   34.82 
   0  -3 -27   87.51   11.69 
   0   3 -27   81.05   11.53 
   1   1 -30  754.92   43.42 
   1   1 -30  786.18   45.94 
  -4   1 -20  182.99   13.44 
  -4  -1 -20  170.98   10.76 
   1  -1 -30  703.43   40.31 
   1  -1 -30  686.02   40.46 
   1  -1 -30  720.96   41.55 
  -4   1 -20  156.91   12.95 
  -4  -1 -20  185.83   12.88 
  -1   4  23   28.99    5.18 
   4  -4   6   46.55   11.62 
   0  -6   8  104.56   14.02 
   0   6  -8  106.96   14.61 
  -4   4  -6   44.73    6.69 
   1  -4 -23   32.60   12.51 
   1  -4 -23   32.24   12.74 
  -4  -4  -6   40.29    5.67 
  -1  -4  23   32.62    5.80 
   0  -6  -8  109.52   17.43 
   1   4 -23   24.37   11.86 
   1   4 -23   23.55    7.56 
   0   6   8  118.27   15.18 
   5  -2  -7   59.36    8.49 
  -5   2   7   58.33    8.37 
  -5  -2   7   57.72    8.52 
  -3   5   7   31.32    6.36 
   3   5  -7   30.78    9.32 
   3   5  -7   26.30    5.60 
   3  -5  -7   28.05    5.18 
  -1   6   6   76.09   10.18 
   1   6  -6   66.09    8.49 
   1   6  -6   71.66    9.90 
   1  -6  -6   65.96    9.18 
  -1  -6   6   59.79    8.20 
   3   2 -24  129.52   17.24 
   3  -2 -24  145.41    9.83 
  -3   2  24  149.30    7.95 
  -3  -2  24  150.10    9.68 
   3  -2 -24  151.48    7.55 
  -3   0  26  286.88   17.75 
   3   0 -26  276.57   17.38 
   3   0 -26  270.04   17.31 
   1  -6   6  576.45   34.14 
   1   6   6  582.00   33.54 
  -1   6  -6  565.79   33.20 
  -1  -6  -6  481.17   29.02 
  -1  -4 -23   -0.13    2.80 
  -1   4 -23   -0.55    2.88 
   4  -3 -15  136.53   18.31 
  -4   3  15  174.29   11.68 
  -1  -4 -23   -0.01    3.29 
  -1   4 -23   -0.71   10.05 
  -4  -3  15  147.94    8.41 
   4  -4  -7   41.44    5.93 
  -4   4   7   52.40   14.25 
  -4  -4   7   44.54   13.03 
   4  -4  -7   43.83    8.03 
   0   0 -31    1.50    3.58 
  -1   1 -30  180.53   17.47 
  -1  -1 -30  178.44   10.53 
   0   0 -31    1.44    1.18 
  -1  -1 -30  208.87   14.74 
  -1   1 -30  191.95   15.84 
   2  -4 -21   29.60   11.59 
  -2   4  21   21.50    4.06 
   2   4 -21   24.24   10.28 
   2   4 -21   33.18    9.91 
   2  -4 -21   36.78   11.57 
  -3   5  -7   57.40    8.32 
  -3  -5  -7   60.61    9.25 
   3  -5   7   65.34    9.41 
   3   5   7   62.39    8.22 
  -5   0 -12  246.92   15.75 
  -3  -3 -21   30.16   12.49 
  -3   3 -21   26.75    5.45 
  -3   3 -21   24.22   10.37 
  -3  -3 -21   23.13    4.13 
  -5   2  -7  285.99   18.18 
  -5  -2  -7  249.97   15.80 
  -2   0  29    0.86    1.01 
  -5   2  -7  223.91   14.95 
   2   0 -29    2.04    1.72 
   2   0 -29    0.03    0.60 
  -2   2 -27   33.74    6.31 
  -5   1 -11    1.52    1.93 
  -5  -1 -11   -0.88    2.71 
  -2   2 -27   34.05    7.85 
  -2  -2 -27   32.92    8.39 
  -4   4  -7   37.16   11.70 
  -4  -4  -7   31.29    6.36 
   4  -4   7   30.60    7.24 
  -4  -4  -7   35.24   15.21 
   1   2 -29   63.83    8.83 
   1   2 -29   70.59   10.28 
   1  -2 -29   64.27    8.25 
   1  -2 -29   61.33    9.04 
   2   5 -15   42.93    8.69 
   2  -5 -15   48.37   15.74 
  -2   5  15   45.62    6.28 
   2  -5 -15   37.10    5.45 
   2   5 -15   47.02   16.85 
   5  -2  -8    4.62    3.21 
  -5   2   8    4.73    3.52 
  -5  -2   8    2.62    1.96 
   5  -2  -8    3.32    2.50 
   5   2  -8    2.79    1.31 
  -4   0 -21   -0.14    3.33 
   4  -2 -19   26.24    7.25 
   4   2 -19   16.20    4.16 
  -4   2  19   20.16    4.66 
   4   2 -19   20.22    3.62 
  -4  -2  19   25.39   10.12 
  -4   0 -21   -0.25    1.32 
   4  -2 -19   20.66    8.16 
  -1   6   7  177.73   11.33 
  -1  -6   7  164.93   10.24 
   1   6  -7  158.32   14.34 
  -3   4  17   53.10    8.11 
   3   4 -17   54.34   10.41 
   3  -4 -17   46.72    6.58 
  -3  -4  17   49.96    7.50 
   1   6  -7  155.90   12.00 
   3  -4 -17   57.52    8.61 
   1  -6  -7  167.18   11.71 
   0   6  -9  216.25   12.33 
   0  -6  -9  209.16   12.15 
   2   3 -25   97.88   13.02 
   0   6   9  230.37   13.97 
   2  -3 -25   95.30   13.14 
   0   6  -9  214.74   14.95 
   0  -4 -24   21.15    9.82 
   0  -6  -9  227.08   16.23 
  -2   3  25   99.19   13.17 
   3  -5  -8   26.84    4.99 
  -2   4 -21   34.14   12.28 
  -2   4 -21   23.63    8.43 
  -2  -4 -21   25.03   10.45 
   3  -5  -8   29.05   12.06 
   2  -3 -25  108.90   14.39 
   0  -4 -24   21.01    8.40 
   3   5  -8   21.71    4.41 
  -3   5   8   31.55    8.89 
   2   3 -25  128.34   22.18 
   0   4 -24   22.73    6.25 
   0   4 -24   21.51    8.55 
   0  -6   9  228.79   14.41 
   3   5  -8   30.62    6.28 
  -1  -6  -7  225.72   15.03 
  -1   5  18   13.51    2.64 
  -1  -5  18   14.58    4.13 
   1   6   7  251.90   15.14 
  -1   6  -7  266.52   21.55 
   1   5 -18   19.28    7.18 
   1  -6   7  273.57   17.42 
   1   5 -18   13.43    6.15 
   1  -5 -18   16.15    7.74 
   1  -5 -18   16.68    7.07 
   5   0 -13    1.19    2.03 
  -5   0  13    1.25    1.87 
   5   0 -13    0.81    3.29 
  -5   1  12  828.74   48.56 
   5   1 -12  792.12   45.70 
   5   1 -12  798.25   46.92 
   5  -1 -12  804.26   46.50 
   5  -1 -12  801.06   46.98 
  -5  -1  12  805.36   46.98 
  -4   3 -15   95.53   12.85 
  -4   3 -15  106.23   14.32 
  -4  -3 -15  105.24   13.43 
  -4  -3 -15  107.79   14.91 
  -4  -1  21    2.39    1.54 
  -4   1  21    1.97    1.71 
   4  -1 -21    2.60    1.95 
   4   1 -21    2.03    2.94 
   4  -4  -8  465.28   27.19 
  -4   4   8  512.75   31.73 
  -4  -4   8  489.85   29.31 
  -3   2 -24  182.67   12.45 
  -1   2 -29  219.34   14.31 
  -3   2 -24  203.98   13.49 
  -3  -2 -24  195.24   11.50 
  -1   2 -29  203.95   12.69 
  -1  -2 -29  233.39   15.59 
  -3  -2 -24  178.09   12.33 
  -2  -5 -15  149.01    7.54 
  -2   5 -15  163.02   10.09 
  -2  -5 -15  160.25   10.77 
  -2   5 -15  119.71   15.66 
   2   5  15  158.34    9.25 
   2  -5  15  170.38   11.22 
  -1  -5 -18  627.86   38.03 
   1  -5  18  729.91   42.31 
  -1   5 -18  543.02   31.79 
  -1  -5 -18  603.61   35.60 
  -1   5 -18  682.07   40.88 
  -3   5  -8    8.60    5.09 
  -3  -5  -8    6.79    3.02 
   3   5   8    6.82    3.39 
  -3   0 -26   28.71   14.01 
  -3   0 -26   27.39    5.22 
  -2   0 -29    6.35    4.77 
  -2   0 -29   -0.89    1.99 
   0   5 -19   29.89    7.80 
   0   5  19   34.83    1.06 
   0  -5  19   36.11    2.72 
   0  -5 -19   35.24   14.12 
   0   5 -19   32.04    8.22 
   0  -5 -19   29.01    5.73 
  -5  -2  -8   17.68   13.90 
  -5  -2  -8   14.95    7.15 
  -5   2  -8   20.27    8.91 
   1   3 -27  183.27   12.50 
   1   3 -27  169.29   13.96 
   1  -3 -27  184.61   12.62 
  -1   3  27  191.59   11.71 
   1  -3 -27  208.45   14.10 
   4  -4   8   49.96    8.46 
  -4  -4  -8   54.45    9.24 
  -3   4 -17  454.21   29.53 
  -4  -4  -8   52.69    9.23 
  -3  -4 -17  403.70   26.67 
  -4   4  -8   46.07    7.71 
  -3   4 -17  417.46   25.85 
  -3  -1  26  529.69   32.94 
   3   1 -26  519.38   31.22 
   3   1 -26  474.39   29.67 
   3  -1 -26  527.64   33.52 
  -2   3 -25  125.17   19.61 
   3  -1 -26  529.38   32.15 
  -2  -3 -25  126.56   19.82 
  -3   1  26  534.66   33.39 
  -2   3 -25  134.73   21.06 
   0  -1 -31   66.54   14.75 
  -1   6   8  447.76   27.34 
   1  -6  -8  444.76   27.79 
   1   6  -8  437.39   27.76 
   0   1 -31   64.84   10.18 
   1   6  -8  438.53   26.27 
  -1  -6   8  377.97   25.74 
   0   1 -31   76.41   12.58 
   0  -1 -31   61.15    9.68 
   5   2  -9  246.81   15.62 
   5  -2  -9  264.20   17.30 
  -5   2   9  246.65   16.62 
  -5  -2   9  265.88   17.53 
  -1  -3 -27   15.55    6.02 
  -1   3 -27   17.93    6.17 
  -1   3 -27   14.93    5.63 
  -5   1 -12   59.73   13.63 
   1   6   8   19.13    5.39 
  -1  -6  -8   18.12    6.86 
  -1   6  -8   19.58    7.92 
  -5   1 -12   61.55   10.11 
  -1  -6  -8   17.54    1.65 
   1  -6   8   15.14    5.16 
  -5  -1 -12   54.41    8.87 
   3   5  -9  224.77   14.63 
   3   5  -9  195.41   16.40 
   3  -5  -9  193.71   12.11 
  -3   5   9  223.42   14.73 
   3  -5  -9  205.42   14.30 
  -2   1  29   27.91    2.88 
  -5   0 -13   -1.01    3.89 
  -4  -2 -19   43.04   16.67 
  -4   2 -19   39.91   11.74 
  -4  -2 -19   29.47    2.27 
   2  -1 -29   25.55    9.15 
  -2  -1  29   29.46    9.12 
  -4   2 -19   31.82    3.44 
   2   1 -29   34.28   13.41 
   1   0 -31    1.07    0.86 
   1   0 -31    2.16    1.33 
   4   3 -16  153.25   11.82 
   0   6 -10   27.54    9.58 
   0  -6  10   20.50    6.32 
   4  -3 -16  132.83   20.89 
  -4  -3  16  139.50   21.68 
   0  -6 -10   19.75    1.47 
   0  -6 -10   22.08    9.06 
  -4   3  16  139.51   21.53 
   0   6 -10   19.63    1.23 
   0   6  10   22.44    2.07 
   3  -3 -22   73.61   11.79 
   3   3 -22   73.48   11.77 
  -3   3  22   78.29   12.21 
   3  -3 -22   71.79   11.56 
  -3  -3  22   80.71   13.19 
  -4  -4   9   27.60    8.53 
   4  -4  -9   23.69   10.19 
   4   4  -9   26.76    7.45 
  -4   4   9   33.96    4.43 
   4   0 -22   13.50    5.64 
  -4   0  22   13.54    5.47 
   4   0 -22   14.24    3.62 
  -3  -5  -9  828.45   50.12 
  -3   5  -9  680.10   41.23 
   3  -5   9  924.09   57.91 
   3   5   9  892.83   53.79 
  -4   1 -21   52.85   16.32 
  -4  -1 -21   32.50    2.65 
  -4  -1 -21   48.68   14.32 
  -4   1 -21   36.01    6.39 
  -5  -2  -9  214.10   13.93 
  -5   2  -9  218.18   14.88 
  -5   2  -9  134.38   20.90 
  -1   0 -31    2.23    1.83 
  -5  -2  -9  205.23   14.65 
  -5   1  13  444.63   27.95 
   5  -1 -13  421.74   26.13 
   5  -1 -13  442.23   28.20 
  -5  -1  13  430.30   28.85 
   5   1 -13  432.01   26.18 
   5   1 -13  441.89   28.17 
   0   2 -30  101.83   19.45 
   0  -2 -30   44.02   20.72 
   0  -2 -30   94.93   14.28 
   0  -2 -30   88.63   15.09 
   0   2 -30  100.18   15.58 
   5   0 -14  432.43   26.34 
   5   0 -14  424.70   26.97 
  -5   0  14  463.84   30.05 
   2  -5 -16   82.42   13.38 
  -2   5  16   81.93   12.73 
   2   5 -16   87.11   13.68 
   2   5 -16   83.06   13.59 
   2  -5 -16   74.03   11.94 
  -4   4  -9    5.50    2.36 
  -4  -4  -9    4.31    3.04 
  -4   4  -9    7.62    2.84 
  -4  -4  -9   -0.07    1.26 
   4  -4   9    7.08    2.18 
  -1  -4  24   87.95   13.25 
   1   4 -24   80.47   12.80 
   1  -4 -24   83.03   13.13 
  -1   4  24   82.99   12.50 
   1  -4 -24   83.55   13.56 
   1   4 -24   72.00   11.58 
  -3  -1 -26    9.23    6.67 
  -3   1 -26    5.78    4.01 
  -3   1 -26    5.34    2.02 
  -3  -1 -26    7.79    3.99 
   1   6  -9    7.00    4.69 
   1  -6  -9   10.40    3.70 
  -2  -1 -29    0.48    0.50 
  -2   1 -29   -0.04   14.13 
   1   6  -9   11.72    5.78 
  -2  -1 -29    1.24    2.03 
  -1   6   9   10.43    4.79 
  -1  -6   9   10.05    5.39 
   2  -4 -22  198.38   13.72 
   2   4 -22  182.63   12.52 
   2   4 -22  189.35   13.15 
   2  -4 -22  193.29   12.89 
  -2   4  22  170.22   10.83 
  -1  -6  -9  263.51   16.41 
   5  -2 -10   50.73   12.34 
   1  -6   9  305.49   20.98 
  -1   6  -9  278.27   17.93 
  -5   2  10   56.64   16.93 
  -5  -2  10   52.51   20.10 
   5   2 -10   49.92    7.91 
  -1  -6  -9  276.76   18.04 
   1   6   9  302.57   18.57 
  -3  -4  18  172.88   12.34 
   3  -4 -18  157.98   10.84 
   3   4 -18  166.86   11.60 
   3  -4 -18  174.15   12.32 
  -3   4  18  179.58   11.90 
  -4   3 -16  166.43   11.46 
  -4  -3 -16  181.41   13.49 
  -4   3 -16  182.65   12.67 
  -4  -3 -16  165.74   10.51 
   2  -2 -28   32.49   13.18 
   2   2 -28   17.31    3.12 
   2   2 -28   32.59   12.84 
   2  -2 -28   36.51    7.24 
  -2   2  28   32.56    3.83 
  -1   4 -24   14.72    6.26 
   3  -5 -10  244.15   16.25 
  -3  -3 -22  290.24   20.19 
  -3   5  10  256.48   16.61 
   3  -5 -10  254.36   16.00 
   3   5 -10  254.29   29.93 
  -3   3 -22  290.28   19.56 
   0  -3 -28  177.43   13.04 
   0  -3 -28  170.21   13.30 
  -1  -4 -24   11.64    3.97 
   0   3 -28  179.10   12.91 
   0   3 -28  159.51   11.31 
  -1  -4 -24   12.60    7.15 
  -1   4 -24   10.13    5.48 
  -3   3 -22  335.91   21.65 
   3  -2 -25  265.55   17.19 
  -3   2  25  268.64   17.12 
  -3  -2  25  256.28   19.97 
   3   2 -25  245.48   16.65 
   3  -2 -25  242.89   21.26 
  -2  -5 -16  178.56   12.31 
  -2  -5 -16  178.32   13.12 
   2  -5  16  180.90   12.35 
   2   5  16  182.28   10.94 
  -2   5 -16  167.13   14.09 
  -2   5 -16  178.14   11.39 
  -4   2  20  174.97   12.07 
   4  -2 -20  170.51   13.01 
   4   2 -20  183.59   13.27 
  -4  -2  20  172.96   12.37 
   4  -2 -20  149.48   23.06 
   1   5 -19   26.19    6.55 
  -1  -5  19   21.04    2.00 
   1  -5 -19   31.78   10.23 
   1  -5 -19   23.99    2.72 
   1   5 -19   31.31    9.27 
  -1   5  19   21.88    1.59 
   4  -4 -10   18.47    6.83 
   4  -4 -10   13.06    3.65 
   4   4 -10   11.99    7.00 
  -4   4  10   21.79    5.38 
  -4  -4  10   18.09    7.17 
   0   6 -11   41.99    6.45 
  -3   0  27    1.49    0.97 
   0  -6 -11   43.41    6.74 
   0  -6 -11   46.25   10.24 
   0   6 -11   43.04    7.56 
   0   6  11   47.84    7.56 
   0  -6  11   38.21    6.24 
   3   0 -27    0.42    0.86 
  -5   1 -13    7.59    2.57 
  -5  -1 -13   11.17    4.72 
  -3   5 -10   38.62    6.15 
   3   5  10   37.88    6.61 
  -3   5 -10   37.35   12.45 
  -1   5 -19    0.93    1.07 
  -3  -5 -10   36.88    7.01 
  -4   0 -22   20.96    3.98 
  -1  -5 -19    0.94    1.72 
  -1   5 -19   -2.26    2.49 
  -1  -5 -19    0.52    1.30 
   3  -5  10   51.34   14.20 
  -4   0 -22   24.17    8.56 
   1  -1 -31    4.04    3.39 
   1  -1 -31    4.34    2.70 
   1   1 -31    3.94    4.19 
   1  -1 -31    5.08    2.32 
   1   1 -31    1.48    1.29 
  -2   4 -22  146.61   22.60 
  -2   4 -22  156.56    5.75 
  -2  -4 -22  154.44    6.33 
  -5   0 -14  613.42   37.78 
  -5   2 -10   52.83   12.96 
  -5  -2 -10   55.19   16.34 
  -5   2 -10   51.90   21.26 
  -5  -2 -10   50.34    8.89 
  -4   1  22  309.37   19.73 
   4   1 -22  286.85   17.39 
  -4  -1  22  295.58   19.53 
   4  -1 -22  280.95   18.51 
   4   1 -22  292.86   19.18 
   4  -1 -22  290.05   19.19 
   0   5 -20    2.56    1.34 
   0  -5 -20    4.11    2.89 
   0   5 -20    3.34    4.06 
   0  -5 -20    3.89    1.63 
   0  -5  20    4.87    1.98 
   3   4  18   73.67   11.21 
  -3  -4 -18   77.17   12.46 
  -3   4 -18   84.36   13.33 
  -3   4 -18   76.57   15.20 
  -2   2 -28   28.45    2.49 
  -2   2 -28   34.10   12.05 
  -2  -2 -28   30.63    3.72 
   2  -6   0   22.57    7.79 
  -4   4 -10   15.87    5.54 
  -2   6   0   18.37    7.75 
  -4   4 -10    9.34    6.08 
  -4  -4 -10   11.52    1.60 
   4  -4  10   13.94    4.31 
  -4  -4 -10   13.38    6.11 
  -2  -6   0   13.88    6.95 
   2   6   0   21.03    7.10 
  -2   6   1  244.24   15.98 
   0   4 -25  121.73   18.94 
   0  -4 -25  117.03   18.45 
  -2  -6   1  211.71   14.22 
   0   4 -25  128.23   19.88 
   2   6  -1  234.28   15.12 
   2  -6  -1  234.63   15.64 
   0  -4 -25  123.36   19.16 
   2   6   1  172.13   11.28 
  -2  -6  -1  138.85   21.73 
  -2   6  -1  150.46   23.11 
  -1   6  10  245.18   15.39 
  -1  -1 -31  511.37   30.66 
  -1  -6  10  224.55   14.13 
  -1   1 -31  491.39   29.81 
  -1  -1 -31  563.83   35.41 
   1   6 -10  218.24   13.56 
  -1   1 -31  520.04   35.79 
   1  -6 -10  224.15   15.06 
   1   6 -10  244.00   15.87 
   2  -3 -26   54.13    9.99 
   2   3 -26   46.83    7.92 
  -2   3  26   47.51    7.57 
   2   3 -26   64.33   16.86 
   2  -3 -26   48.50    8.32 
  -2   0  30  585.05   36.27 
   2   0 -30  539.39   32.37 
  -4   3  17   23.37    5.82 
   4  -3 -17   14.49    5.38 
   4   3 -17   24.82    8.22 
  -4  -3  17   25.00    8.61 
   2   0 -30  535.29   39.45 
   1  -6  10  418.16   26.33 
   0   0 -32  339.12   22.15 
  -1  -6 -10  304.72   19.71 
   2  -6  -2   35.71   11.92 
  -2  -6   2   26.44   13.13 
  -1   6 -10  321.71   22.50 
  -1  -6 -10  293.82   18.17 
   0   0 -32  305.08   18.76 
  -2   6   2   31.79    4.85 
   2   6  -2   25.98    2.84 
   1   6  10  333.71   20.31 
   2   6  -2   39.72   14.32 
   5  -1 -14   33.71    8.02 
  -5  -1  14   27.57    7.12 
   5  -1 -14   32.90    9.16 
  -5   1  14   34.15    9.28 
   5   1 -14   28.70   11.87 
   5   1 -14   31.80    3.98 
   2   6   2   64.34   11.53 
  -2  -6  -2   62.86   29.53 
  -2   6  -2   78.46   20.89 
   5  -2 -11  525.57   32.42 
  -3   2 -25   41.85    7.45 
  -5  -2  11  524.73   32.82 
   5   2 -11  543.61   32.71 
   5   2 -11  527.38   33.24 
  -3   2 -25   36.67    6.89 
  -5   2  11  508.08   35.19 
  -3  -2 -25   38.06    9.20 
  -3  -2 -25   39.35    6.16 
   3  -5 -11  141.42   21.42 
   3  -5 -11  161.77   11.78 
   3   5 -11  145.91   22.87 
  -3   5  11  149.89   22.98 
   3   5 -11  136.67   21.85 
   1  -2 -30  533.80   33.82 
  -5   0  15    1.13    1.70 
   1   2 -30  568.30   34.74 
   1  -2 -30  523.35   32.05 
   1  -2 -30  526.99   31.31 
  -4   2 -20   78.89   14.88 
  -4   2 -20   72.14   11.57 
  -4  -2 -20   77.89   12.01 
   1   2 -30  498.95   31.39 
  -4  -2 -20   73.06   12.09 
   2   6  -3   12.56    4.97 
  -2   6   3   18.79    4.59 
   2  -6  -3   14.40    6.80 
   2   6  -3   11.91    1.96 
  -2  -6   3   12.17    5.93 
   2  -6   3  138.21   21.42 
  -2  -6  -3  111.26   17.35 
   2   6   3  124.76   19.08 
  -2   6  -3  140.06   21.66 
  -3   0 -27   -0.33    1.86 
   4   4 -11   34.81   12.73 
  -3   0 -27   -0.10    0.94 
   4  -4 -11   36.19    6.02 
  -4   4  11   38.13    6.52 
  -4  -4  11   34.50    3.91 
   2   5 -17   28.76    3.89 
   2  -5 -17   37.94   12.94 
   2   5 -17   34.69   11.90 
  -2   5  17   37.59   10.30 
   2  -5 -17   30.06    2.70 
  -5   3   0  699.29   42.76 
   0  -6  12   56.76   10.23 
   0   6 -12   51.29    8.52 
   0   6 -12   54.92    8.41 
   0  -6 -12   58.64    9.09 
   0  -6 -12   44.32    7.77 
   5  -3   0  721.73   44.21 
   0   6  12   61.74    9.57 
  -5  -3   0  622.35   40.28 
  -1   2 -30    0.96    1.47 
  -2  -3 -26   55.17   10.17 
  -1   2 -30    1.23    1.27 
  -2   3 -26   52.61    8.67 
  -1  -2 -30    3.72    3.02 
  -5  -3   1    5.88    2.82 
  -2   3 -26   62.58   10.20 
  -5   3   1    6.45    6.30 
   2   6  -4  512.87   30.84 
   3   3 -23  196.51   13.76 
  -2  -6   4  481.75   29.17 
  -3  -3  23  228.79   16.01 
   3  -3 -23  221.37   14.68 
   2   6  -4  525.88   35.41 
   2  -6  -4  514.36   32.09 
  -3   5 -11  172.03   11.98 
  -3   5 -11  167.06   10.64 
  -3  -5 -11  181.18   14.33 
   3  -5  11  195.92   13.77 
  -3   3  23  214.42   13.86 
  -2   6   4  542.95   33.38 
   3  -3 -23  205.99   13.93 
   3   5  11  190.09   11.90 
  -1   3  28    8.78    1.42 
   1   3 -28    8.21    4.40 
   1  -3 -28    8.96    4.25 
   1   3 -28    6.70    2.65 
  -5   3  -1   73.83   12.31 
   1  -3 -28    8.33    2.65 
  -5  -3  -1   65.54   10.94 
   3  -1 -27  103.04   15.95 
  -3   1  27  105.78   16.34 
   3   1 -27  104.06   17.22 
   3   1 -27  102.26   15.92 
  -3  -1  27   93.91   14.99 
   3  -1 -27   96.82   18.97 
  -2  -6  -4   48.35   12.16 
  -2   0 -30  590.59   35.54 
  -2   6  -4   50.29    8.61 
   2  -6   4   61.73   17.30 
   2   6   4   53.16    8.53 
  -5   3   2    3.38    2.90 
   4   0 -23    0.32    0.98 
   5  -3  -2    2.81    3.00 
  -4   0  23    1.36    0.79 
  -5  -3   2    0.73    2.07 
   4   0 -23    2.23    2.72 
  -5   2 -11  670.56   41.60 
  -5   2 -11  746.25   45.62 
  -5  -2 -11  697.78   42.94 
  -5  -2 -11  683.89   42.63 
  -4  -1 -22    6.13    3.41 
  -4  -1 -22    7.51    3.98 
  -4   1 -22    9.40    3.51 
  -4   1 -22    7.02    2.63 
  -4   3 -17  182.05   12.70 
   5  -3   2  123.50   19.46 
  -4  -3 -17  176.63   13.08 
  -4   3 -17  173.79   11.98 
  -4  -3 -17  162.68   10.44 
  -5   3  -2  117.43   18.52 
  -5  -3  -2  112.13   17.54 
  -2   5 -17  171.20   11.04 
  -2  -5 -17  170.65   12.94 
  -2  -5 -17  171.16   12.52 
   2  -5  17  193.57   13.13 
  -2   5 -17  171.03   14.24 
  -5  -1 -14   95.13   14.83 
  -5   1 -14  111.81   17.58 
  -5  -3   3   13.30    5.24 
   4  -4  11   37.69    6.77 
  -5   3   3   18.44    6.73 
  -4  -4 -11   37.87    6.12 
  -4   4 -11   43.29    7.32 
  -4  -4 -11   51.67   12.71 
   5  -3  -3   19.52    5.63 
  -4   4 -11   43.43    9.51 
   3  -4 -19  157.94   10.95 
   3   4 -19  161.47   12.80 
  -3   4  19  173.84   11.39 
  -3  -4  19  168.02   15.17 
   1   6 -11   39.01    6.21 
  -1   3 -28   25.71    7.80 
  -1  -6  11   35.84    6.25 
   1  -6 -11   43.57   16.52 
  -1  -3 -28   23.35    8.80 
   1   6 -11   49.08   17.06 
  -1   3 -28   23.99    9.14 
  -1   6  11   42.89    6.87 
   2   6  -5   49.26   22.71 
   2  -6  -5   53.05    9.17 
   2   6  -5   48.49    8.18 
  -2   6   5   58.10   16.04 
  -2  -6   5   43.44    6.81 
  -1  -6 -11   38.83   15.34 
   5  -3   3   51.53   17.31 
  -1   6 -11   36.05   10.98 
  -1  -6 -11   32.56    2.60 
  -5   3  -3   31.11   12.50 
   1   6  11   31.90    2.10 
  -5  -3  -3   38.01    6.46 
  -5   0 -15   -0.59   13.53 
  -2   6  -5   56.96    9.41 
  -2  -6  -5   62.00    9.76 
   2   6   5   65.44   10.53 
  -2   1  30  208.70   14.67 
   2  -1 -30  218.51   14.05 
   2   1 -30  194.53   12.90 
   5  -2 -12  166.17   11.91 
   2   1 -30  221.22   15.47 
   5   2 -12  161.21   10.64 
  -5   2  12  159.60   11.36 
   2  -1 -30  193.63   13.43 
   5   2 -12  164.15   15.18 
  -5  -2  12  159.90   11.88 
  -5  -3   4  898.22   56.10 
  -5   3   4 1049.89   63.32 
   1  -5 -20  162.48   10.82 
   1  -5 -20  169.63   11.95 
   1   5 -20  152.48   23.35 
  -1   5  20  176.16   10.86 
   1   5 -20  179.52   12.38 
   0  -1 -32   39.95   15.33 
   2   4 -23  135.69   21.56 
   0   1 -32   35.86   14.61 
   0  -1 -32   34.43    2.09 
  -2   4  23  121.63   18.48 
   2  -4 -23  138.64   21.45 
   0   1 -32   32.08    3.95 
   2  -4 -23  120.76   18.65 
   2   4 -23  143.51   22.09 
  -4   2  21  841.14   52.54 
   4  -2 -21  816.22   49.61 
  -4  -2  21  864.57   53.09 
   4   2 -21  856.24   52.21 
   3   5 -12   30.18   15.23 
   3   5 -12   32.14    4.33 
   1   4 -25   13.64    7.79 
   1  -4 -25   20.77    8.17 
   3  -5 -12   28.14   11.39 
  -3   5  12   35.30   13.47 
   3  -5 -12   34.68   12.13 
  -1  -4  25   16.31    3.40 
   1  -4 -25   23.82    7.59 
   1   4 -25   17.27    7.55 
  -3  -3 -23   95.89   15.57 
  -3   3 -23   97.15   15.40 
  -3   3 -23  109.89   16.98 
   5  -1 -15   87.94   14.02 
   5  -3   4  264.24   18.00 
  -5   3  -4  280.80   18.78 
   5   1 -15   90.70   13.92 
  -5  -3  -4  262.43   17.58 
   5  -1 -15   84.46   18.74 
  -5   1  15   89.78   14.46 
   1   0 -32    9.94    3.95 
  -5  -1  15   99.41   18.33 
   1   0 -32   10.38    5.12 
  -1  -5 -20   16.29    6.56 
  -1   5 -20   16.69    7.07 
   1  -5  20   17.68    8.07 
  -1   5 -20   14.10    3.61 
  -1  -5 -20   16.75    7.47 
  -4  -4  12  133.06   20.79 
  -4   4  12  147.34   22.70 
   4  -4 -12  125.14   20.27 
   4  -4 -12  120.82   18.53 
   4   4 -12  140.91   27.41 
   2   6  -6   98.75   15.19 
   2   6  -6   99.00   15.67 
   2  -6  -6   92.26   15.61 
  -2   6   6   92.34   14.35 
  -2  -6   6   83.01   12.71 
  -3  -1 -27  121.61   19.10 
  -3   4 -19   20.22    2.48 
  -3   1 -27  126.31   19.67 
  -3  -1 -27  134.79   20.38 
  -3  -4 -19   20.93    8.54 
  -3   1 -27  130.07   20.35 
  -3   4 -19   23.23    8.11 
  -5   3   5   56.78   17.06 
  -5  -3   5   44.84    8.15 
   5  -3  -5   74.67   19.77 
  -1   4 -25   14.20    6.28 
  -1  -4 -25   22.62    8.16 
  -1   4 -25   19.87   10.16 
  -1  -4 -25   17.06    6.85 
   4  -3 -18   85.45   13.50 
  -4   3  18   98.00   15.98 
   4  -3 -18   87.33   13.87 
  -4  -3  18   89.93   14.38 
   4   3 -18  108.84   20.84 
   2  -6   6  483.90   30.12 
  -2  -6  -6  466.67   30.53 
   2   6   6  505.62   30.50 
  -2   6  -6  502.01   31.79 
   3  -2 -26   28.49    7.72 
  -3  -2  26   27.33    8.43 
   3   2 -26   25.81    6.32 
  -3   2  26   29.99    5.68 
   3  -2 -26   26.68    9.42 
  -5   0  16  294.19   19.44 
   5   0 -16  285.46   17.78 
   5   0 -16  273.48   19.31 
   3   5  12   46.40    7.32 
  -3   5 -12   49.38    7.80 
  -3   5 -12   44.67   11.21 
   0   6 -13  182.12   12.29 
  -4   0 -23   -0.28    1.45 
   0  -5 -21  209.07   13.72 
   0  -6 -13  170.83   10.78 
   0   6 -13  158.53    9.98 
   0   5 -21  227.75   14.80 
  -4   0 -23   -0.50    3.89 
   0  -6 -13  173.29   12.20 
   0   5 -21  224.05   14.98 
   0   6  13  191.27   12.29 
   0  -6  13  188.47   12.53 
  -2   4 -23  136.35   20.94 
   0   2 -31  183.00   12.56 
  -2   4 -23  122.13   18.93 
   0  -2 -31  209.48   14.82 
   0   2 -31  210.76   15.00 
  -2  -4 -23  132.36   20.56 
  -1   0 -32 1557.63   21.63 
  -1   0 -32 1525.22   89.91 
   4   1 -23  147.00   24.79 
  -5   2 -12    4.97    2.35 
  -4   1  23  171.72   11.94 
   4  -1 -23  159.27   13.85 
  -2   1 -30   61.22    9.74 
   4   1 -23  154.42    4.26 
  -4  -1  23  155.74    7.88 
  -2  -1 -30   65.08   10.87 
  -5   2 -12    5.87    4.01 
  -5  -2 -12    3.94    2.28 
  -2  -1 -30   54.69    8.44 
  -2   1 -30   62.57   10.49 
   2   2 -29  397.92   25.30 
   2   2 -29  409.82   25.50 
   2  -2 -29  421.65   26.63 
  -5   3  -5   14.76    4.62 
   2  -2 -29  444.87   27.44 
  -2   2  29  435.79   26.42 
  -5  -3  -5   13.87    6.21 
   0  -3 -29  141.66   21.95 
   0  -3 -29  185.93   45.94 
   0   3 -29  149.28   22.91 
   0   3 -29  145.61   22.79 
   1   6 -12   50.25   14.76 
   1  -6 -12   42.06   11.31 
  -1   6  12   33.71    2.33 
   1   6 -12   39.21    6.22 
  -4   4 -12   11.62    4.07 
  -1  -6  12   41.61    6.50 
  -4  -4 -12   10.71    4.79 
   3   0 -28  253.64   15.86 
   3   0 -28  210.39   17.74 
  -3   0  28  245.97   16.10 
  -5   3   6  320.49   20.71 
   5  -3  -6  304.66   19.42 
  -5  -3   6  320.88   20.94 
   2   6  -7   11.58    4.15 
   2  -6  -7   11.43    3.63 
  -2  -6   7    7.98    3.42 
  -2   6   7   10.69    5.31 
   2  -5 -18  187.31   12.20 
   2  -5 -18  188.53   12.91 
   2   5 -18  208.38   13.99 
  -2   5  18  185.19   11.83 
   2   5 -18  168.74   11.48 
  -1  -6 -12   85.66   13.56 
  -1   6 -12   88.75   14.02 
   1   6  12   76.79   11.76 
   1  -6  12   86.65   13.57 
  -1  -6 -12   87.43   13.47 
  -4   2 -21  130.59   20.51 
  -4  -2 -21  127.42   20.06 
  -4   2 -21  118.51   18.37 
  -4  -2 -21  137.15   20.78 
  -5  -1 -15  434.68   27.17 
  -5   1 -15  446.28   29.40 
  -2   6  -7   11.71    4.40 
   2   6   7   10.19    4.17 
  -2  -6  -7    7.47    4.15 
   0   4 -26  206.62   13.69 
   0  -4 -26  212.91   14.37 
   0  -4 -26  187.09   13.39 
   0   4 -26  188.72   13.00 
  -5  -2  13    1.20    1.82 
   5   2 -13    1.35    1.07 
   5   2 -13    3.10    1.94 
  -5   2  13    3.63    1.63 
   5  -2 -13    2.17    1.40 
   5  -3   6  204.07   14.16 
  -5   3  -6  202.20   14.08 
  -5  -3  -6  190.73   12.83 
   2   3 -27  200.76   13.65 
   2  -3 -27  191.65   13.26 
  -2   3  27  184.72   11.65 
  -4  -3 -18   60.94   11.23 
  -3   5  13  539.46   34.24 
   3  -5 -13  536.17   33.55 
  -4   3 -18   69.50   16.56 
   3   5 -13  606.11   36.88 
  -4   3 -18   50.67   10.09 
   3   5 -13  557.20   34.70 
   2   3 -27  206.90   14.61 
   3  -5 -13  544.40   32.71 
   2  -3 -27  200.56   13.46 
  -4  -3 -18   59.06    9.17 
  -2   5 -18   30.67   12.50 
  -2   5 -18   29.78    2.55 
  -3   2 -26    9.09    4.12 
  -3  -2 -26    9.30    3.77 
  -2  -5 -18   33.33   11.84 
  -2  -5 -18   30.65   14.54 
  -3  -2 -26    8.26    2.70 
  -3   2 -26   11.35    4.23 
  -2  -2 -29   10.42    3.96 
  -2   2 -29   10.13    4.24 
  -2   2 -29    9.35    3.80 
  -5   0 -16   36.26    6.20 
   1  -1 -32   50.90    7.97 
   1   1 -32   51.96    8.29 
   1   1 -32   56.40   15.66 
   1  -1 -32   53.34   12.85 
   1  -1 -32    3.05    1.27 
   4   4 -13   42.81    8.03 
   4  -4 -13   50.54   10.60 
   4  -4 -13   42.76    8.38 
  -4  -4  13   49.40    9.05 
  -4   4  13   51.48    8.60 
  -5  -3   7  112.93   17.92 
  -5   3   7  115.97   18.25 
   5  -3  -7  115.78   18.01 
   3   4 -20    1.08    1.26 
  -3  -4  20   -0.72    4.50 
   3  -4 -20    1.05    0.79 
  -3  -3  24   76.27   12.81 
  -3   3  24   75.70   11.82 
   2  -6  -8  234.21   17.50 
   3  -3 -24   67.58   10.90 
   2   6  -8  239.45   16.93 
   2   6  -8  275.75   19.83 
  -2  -6   8  224.60   15.47 
   3   3 -24   76.14   12.88 
   3  -3 -24   76.95   13.28 
  -2   6   8  219.50   15.94 
   5   1 -16   36.20   16.15 
   5  -1 -16   44.56    7.60 
  -5   1  16   51.19   14.57 
   5  -1 -16   34.52   14.71 
   5   1 -16   35.42    6.11 
  -5  -1  16   38.53    7.14 
   2   0 -31    3.45    1.74 
  -2   0  31    0.47    0.85 
   2   0 -31    5.77    3.62 
  -4   0  24  782.54  227.60 
   4   0 -24  762.31   51.76 
   4   0 -24  711.21   49.25 
  -4   1 -23    6.42    2.75 
   3   5  13   98.70    7.28 
  -3  -5 -13   94.41    8.98 
  -4   1 -23    5.78    3.18 
  -4  -1 -23    4.31    2.11 
  -3   5 -13  101.00    8.95 
  -3   5 -13   91.37    7.25 
  -1  -1 -32   33.21    5.99 
  -1   1 -32   26.30    2.85 
  -1   1 -32   36.81   19.62 
  -1  -1 -32   39.81   15.92 
  -2   6  -8  445.31   31.38 
   2   6   8  453.40   31.10 
  -2  -6  -8  410.98   28.87 
   0  -6 -14  209.16   15.77 
   0  -6  14  191.80   14.67 
   0  -6 -14  201.42   14.52 
  -3   0 -28   51.66    8.95 
   0   6  14  238.60   16.77 
   0   6 -14  199.69   18.97 
  -3   0 -28   48.10    7.65 
   0   6 -14  195.25   14.00 
  -5   2 -13   70.80   11.53 
  -5  -3  -7    8.24    2.60 
  -5   3  -7   15.46    7.66 
  -5  -2 -13   57.97   10.43 
  -5  -3  -7   10.76    5.08 
  -5  -2 -13   71.57   12.19 
  -2   3 -27   35.95    6.05 
  -2   3 -27   37.81    9.90 
  -2  -3 -27   42.68   16.91 
   1   2 -31  274.48   20.44 
   1  -2 -31  310.13   22.33 
   1  -2 -31  285.10   21.21 
   1  -2 -31  244.85   16.82 
   1   2 -31  294.85   21.29 
   1  -5 -21  489.82   34.64 
   1   5 -21  493.46   34.54 
   0   0 -33    3.96    3.07 
   1  -5 -21  500.89   35.39 
   1   5 -21  514.36   39.37 
   0   0 -33   -0.11    2.94 
  -1  -6  13    6.39    3.33 
   1  -6 -13    7.37    2.75 
  -1   6  13    7.59    4.62 
   1  -6 -13    7.77    3.82 
   1   6 -13    6.73    2.88 
   1   6 -13    8.51    2.63 
  -4   4 -13   66.93   11.12 
   5   0 -17    1.73    1.46 
  -4  -4 -13   63.78   10.75 
  -4   4 -13   68.68   11.71 
   3  -1 -28   61.01   10.93 
  -3  -1  28   58.26    9.56 
  -4  -4 -13   57.76    9.04 
  -3   1  28   53.83    8.77 
  -5   0  17    0.77    1.12 
   3   1 -28   56.23    9.78 
   3  -1 -28   63.16   10.52 
   3   1 -28   64.22    9.86 
   4   2 -22   31.21   12.82 
  -4   2  22   35.56    6.28 
  -4  -2  22   37.00   10.61 
   4  -2 -22   37.37   11.81 
   1   3 -29   79.02   14.49 
   1  -3 -29   72.27   12.15 
   1   3 -29   72.75   12.21 
   1  -3 -29   74.17   11.92 
   1  -6  13   54.57    8.87 
  -1  -6 -13   52.57    8.95 
   5  -3  -8   31.78    9.99 
  -5  -3   8   34.55   14.06 
  -5   3   8   43.26   12.36 
   1   6  13   53.26    8.19 
  -1   6 -13   54.71    9.07 
  -1  -6 -13   50.77    8.08 
   4  -3 -19  130.67   10.44 
   4  -3 -19  127.65   10.24 
  -4   3  19  134.03   11.99 
   4   3 -19  146.41   18.36 
  -4  -3  19  127.43   10.76 
  -1   5 -21  352.91   24.79 
  -1  -5 -21  354.60   25.16 
  -1   5 -21  345.47   24.73 
  -1  -5 -21  337.08   23.97 
  -3   4 -20   22.67   10.37 
  -3   4 -20   22.06    5.87 
  -3  -4 -20   24.69    9.19 
   2   4 -24   68.77   13.77 
  -2   4  24   55.23    8.60 
   2  -4 -24   61.27   10.12 
   2   4 -24   53.56    8.86 
   2  -4 -24   53.08    8.68 
  -1   2 -31   27.83    5.60 
  -1  -2 -31   25.85    9.46 
  -1   2 -31   27.42    8.51 
  -2   0 -31    0.58    4.58 
  -5   2  14   63.80   10.41 
   5   2 -14   61.19    9.48 
   5  -2 -14   70.46   15.90 
  -5  -2  14   69.81   11.40 
   2   6  -9    6.43    2.20 
  -2   6   9    9.54    3.13 
   2  -6  -9    8.02    3.37 
   2   6  -9    8.35    3.05 
  -2  -6   9    4.63    3.04 
  -3   3 -24   47.19    7.96 
  -1   3 -29  170.19   12.80 
  -1  -3 -29  177.39   14.05 
  -3   3 -24   54.76   12.33 
  -3  -3 -24   56.21   14.26 
  -1   3 -29  177.89   14.35 
   1  -4 -26   51.95    8.72 
   1   4 -26   56.40   14.03 
   1   4 -26   55.15    9.17 
   1  -4 -26   52.88    8.84 
   3   5 -14   54.94   13.70 
   3  -5 -14   61.62   19.53 
   3  -5 -14   50.33    7.96 
  -3   5  14   54.17   10.81 
   3   5 -14   53.44    9.01 
  -5   1 -16  302.71   31.93 
  -5  -1 -16  321.42   24.10 
   0   5 -22   60.08    9.72 
  -5  -1 -16  297.00   21.20 
   0  -5 -22   58.55    9.56 
   0  -5 -22   59.83    9.87 
   0   5 -22   56.27    9.29 
  -5  -3  -8   38.27    6.48 
  -5  -3  -8   36.35    7.62 
  -5   3  -8   39.51   15.30 
   2  -6   9   72.78   12.50 
  -2  -6  -9   33.25   16.25 
  -2  -6  -9   41.30    6.84 
  -2   6  -9   46.82   13.68 
   2   6   9   40.56    6.49 
  -4   4  14  148.24   14.01 
   2  -5 -19  251.72   18.67 
   2   5 -19  234.35   18.79 
   4  -4 -14  143.36   10.88 
   2   5 -19  228.39   16.71 
   2  -5 -19  228.86   16.40 
   4   4 -14  167.55   13.32 
  -4  -4  14  152.74   15.59 
  -2   5  19  242.07   16.98 
  -1   4 -26  501.11   34.90 
  -1   4 -26  514.76   35.94 
  -4   0 -24  276.94   20.08 
  -4   0 -24  308.64   23.14 
  -2  -4 -24  399.23   28.59 
  -1  -4 -26  585.20   41.00 
  -2   4 -24  384.30   27.59 
  -2   4 -24  366.69   25.96 
  -1  -4 -26  501.53   36.21 
   2  -1 -31    8.34    3.03 
  -2   1  31    6.71    3.60 
   2   1 -31    7.34    4.59 
   2   1 -31    7.37    3.81 
   2  -1 -31    6.94    4.03 
   4   1 -24  246.75   17.00 
  -4   1  24  275.08   19.83 
   4   1 -24  249.08   18.53 
  -4  -1  24  286.78   21.05 
   4  -1 -24  258.32   19.10 
  -5  -3   9  179.57   13.77 
   5   3  -9  162.59   11.74 
   5  -3  -9  175.91   13.81 
   5  -3  -9  156.42   11.92 
  -5   3   9  181.69   17.55 
   3   2 -27  423.34   30.51 
   3  -2 -27  431.81   30.15 
   3  -2 -27  417.88   30.73 
  -3   2  27  429.07   31.04 
  -3  -2  27  440.59   31.16 
  -3   1 -28   37.44    6.93 
  -5   0 -17    0.28    1.19 
  -3   1 -28   46.73    9.81 
  -3  -1 -28   40.80    6.42 
  -3  -1 -28   47.48    9.17 
   3   5  14  277.83   19.07 
  -3  -5 -14  292.17   21.32 
  -3   5 -14  310.28   25.23 
  -3   5 -14  262.07   18.53 
  -4   3 -19  145.35   11.63 
  -4   3 -19  141.38   11.33 
  -4  -3 -19  145.03   10.83 
  -4  -3 -19  152.12   13.05 
  -4   2 -22   20.34    5.98 
  -4  -2 -22   14.15    1.60 
  -4  -2 -22   18.56    6.43 
  -4   2 -22   21.17    8.51 
  -2  -5 -19   79.15   12.52 
  -2   5 -19   83.22   12.91 
   0  -1 -33   54.61    9.40 
  -2  -5 -19   82.80   13.12 
   0  -1 -33   50.38    7.82 
   2  -5  19   81.19   12.87 
   0   1 -33   52.49    8.33 
   0   1 -33   55.04    9.32 
  -2   5 -19   80.22   13.10 
   0  -6 -15    3.26    1.41 
   0  -6 -15    2.82    2.33 
   0   6 -15    2.17    1.19 
   5  -1 -17   71.73   11.97 
   5   1 -17   68.49   10.83 
   0   6  15    4.13    2.52 
   5  -1 -17   73.48   11.88 
   5   1 -17   79.71   13.01 
   0   6 -15    5.26    2.22 
   0  -6  15    2.90    1.80 
  -5  -1  17   78.26   12.80 
  -5   2 -14  111.52    9.46 
  -5   1  17   76.47   12.41 
  -5  -2 -14  129.97   10.86 
   1  -6 -14   22.75    8.91 
   1   6 -14   18.94    5.87 
   1   6 -14   24.32    6.23 
   1  -6 -14   22.58    1.51 
  -1   6  14   26.82    2.03 
  -1  -6  14   23.93    1.44 
   2   6 -10  148.96   16.82 
   1   0 -33    0.42    0.51 
   1   0 -33    2.11    2.15 
  -2   6  10  152.00   13.26 
   2  -6 -10  153.52   12.08 
   2   6 -10  156.57   11.52 
  -4   4 -14  354.89   25.44 
  -4   4 -14  336.82   24.10 
  -4  -4 -14  332.75   23.92 
  -1  -6 -14   66.10   10.37 
  -1  -6 -14   67.10   10.95 
  -1   6 -14   61.35   10.75 
   1   6  14   62.48    9.73 
  -5  -3  -9   62.16    9.87 
  -5   3  -9   65.91   11.10 
  -5  -3  -9   81.95   13.59 
   3  -4 -21   17.21    5.21 
   3  -4 -21   17.62    5.72 
   2  -2 -30   47.41   12.10 
  -2   2  30   40.23    6.54 
  -3   4  21   16.79    5.91 
   3   4 -21   13.77    5.53 
   2   2 -30   39.02    6.74 
   2  -2 -30   40.50    8.03 
   2   2 -30   45.98   18.20 
   3   4 -21   15.76    8.66 
   2   6  10   57.30    8.92 
  -2  -6 -10   54.50    8.70 
  -2   6 -10   51.72    8.78 
   0  -3 -30  287.15   20.92 
   0  -3 -30  275.48   20.27 
  -2  -6 -10   62.91   10.82 
   0   3 -30  300.41   22.00 
   2  -6  10   70.97   16.63 
   0   3 -30  298.33   21.72 
  -2   1 -31   15.39    7.14 
   0   2 -32  160.71   17.94 
  -3   0  29   -0.05    1.98 
  -2  -1 -31   14.77    5.65 
   3   0 -29    2.78    2.80 
   3   0 -29    1.72    1.31 
   0   2 -32  189.95   14.86 
  -2   1 -31   14.70    6.69 
   0  -2 -32  182.55   15.28 
  -2  -1 -31   10.71    1.07 
   0  -4 -27   39.85    7.37 
   0  -4 -27   45.62    7.76 
   0   4 -27   44.39    9.66 
   0   4 -27   45.25    7.78 
  -5   0  18  248.70   18.63 
   5   0 -18  197.30   15.17 
   5   0 -18  229.34   17.75 
  -1   0 -33    8.45    5.40 
  -1   0 -33    5.63    5.41 
   5   2 -15  314.83   21.52 
   5  -2 -15  328.14   24.65 
  -5  -2  15  282.20   20.93 
   5  -2 -15  295.65   22.42 
  -5   2  15  354.33   25.52 
   5   3 -10   11.56    3.15 
  -5  -3  10   10.30    3.59 
   5  -3 -10   11.06    4.10 
   5   3 -10    6.01    3.42 
  -5   3  10    8.68    3.47 
   2   3 -28    2.16    1.74 
   2  -3 -28    2.59    1.46 
   2  -3 -28    2.85    1.40 
   2   3 -28    4.01    2.20 
  -2   3  28    2.57    1.65 
   3  -5 -15    9.79    5.45 
  -3   2 -27   22.21    7.89 
  -3  -2 -27   20.46    7.37 
   3   5 -15   10.34    3.04 
   3  -5 -15    7.95    4.17 
  -3   2 -27   19.06    9.12 
   3   5 -15    7.64    3.09 
  -3   5  15   12.79    4.25 
  -3   3  25    6.98    3.16 
  -3  -3  25    6.83    2.51 
   3  -3 -25    4.14    2.79 
   3  -3 -25    5.48    2.59 
   3   3 -25    8.89    2.66 
  -4   1 -24   81.97   13.05 
  -4   1 -24   99.55    8.96 
  -4  -1 -24   88.05   25.86 
   1   5 -22   39.65   11.88 
   1  -5 -22   35.89   11.33 
   1  -5 -22   36.93   15.39 
   1   5 -22   33.08    5.71 
  -4  -3  20   64.24   21.37 
   4  -3 -20   48.00    8.09 
   4   3 -20   59.41   10.18 
   4  -3 -20   67.04   18.80 
   4   0 -25   -0.18    2.84 
  -4   0  25    1.71    1.80 
   4   0 -25   -0.21    1.29 
   4  -4 -15  146.33   11.14 
  -4  -4  15  148.71   13.56 
   4   4 -15  166.72   13.30 
  -4   4  15  152.46   11.85 
  -5   1 -17   23.96   10.05 
  -5  -1 -17   34.04   15.55 
  -5   1 -17   38.66   12.18 
  -2   2 -30   17.18    4.55 
  -2  -2 -30   20.07   11.38 
  -2   2 -30   16.98    8.14 
   4  -2 -23    3.77    1.67 
  -4   2  23    4.16    1.78 
  -4  -2  23    3.91    2.44 
   4  -2 -23    3.63    2.66 
   4   2 -23    2.56    2.46 
  -3   4 -21  264.05   19.55 
  -3  -4 -21  284.96   21.29 
  -3   4 -21  259.70   18.98 
   1  -5  22  130.19    9.89 
  -1  -5 -22  122.91    9.88 
  -1   5 -22  116.42   11.43 
  -1   5 -22  115.95    9.00 
  -1  -5 -22  106.53   34.32 
  -4   5   0   39.30   16.35 
  -4  -5   0   32.20   16.97 
   4  -5  -1  127.78    9.56 
   4  -5  -1  149.93   12.28 
  -4   5   1  151.48   12.07 
  -4  -5   1  130.73   10.22 
   2  -6 -11  148.91   11.77 
   2   6 -11  158.30   17.41 
  -2   6  11  160.89   11.96 
   2   6 -11  145.96   10.77 
  -4   5  -1   37.57   12.99 
  -4  -5  -1   29.00    3.09 
  -5  -3 -10  371.23   30.97 
  -5  -3 -10  367.29   26.06 
  -5   3 -10  363.58   26.07 
  -4  -5   2   15.20    8.96 
  -3   5 -15   30.78   13.36 
   3   5  15   26.97    1.60 
  -3  -5 -15   30.18   14.18 
  -4   5   2   18.87    5.63 
  -3   5 -15   28.14    4.39 
   1   1 -33  153.59   11.52 
   1  -1 -33  155.70   14.03 
   1  -1 -33  159.09   11.42 
   1   1 -33  166.58   13.59 
  -2  -3 -28    3.06    1.80 
   2  -5 -20    9.16    3.56 
  -2   3 -28    2.07    1.69 
   2   5 -20    5.57    3.20 
  -2   5  20    6.41    3.57 
   2   5 -20    3.18    1.82 
   4  -5   2  168.73   11.95 
  -4   5  -2  197.42   14.99 
  -2   3 -28    1.95    1.74 
  -4  -5  -2  189.61   15.98 
   2  -5 -20    4.30    2.71 
  -2   6 -11   78.59   15.53 
   2  -6  11   88.61   26.18 
   2   6  11   83.61   12.74 
  -3   0 -29    0.35    2.68 
  -2  -6 -11   83.46   36.78 
  -2  -6 -11   81.90   12.81 
  -3   0 -29    1.42    1.81 
   2  -4 -25  102.77    8.67 
  -5   2 -15   20.42    6.23 
   2  -4 -25   85.31   25.13 
  -2   4  25   98.89    7.70 
  -5  -2 -15   16.96    8.87 
   2   4 -25   93.35    9.05 
   2   4 -25   91.38    7.75 
  -5   2 -15   21.00    8.56 
   4  -5  -3  170.13   12.11 
  -4   5   3  185.74   14.20 
  -4  -5   3  184.20   14.60 
   1  -6 -15   10.77    2.13 
   1  -6 -15   10.66    5.27 
   1   6 -15    7.46    4.31 
  -1  -6  15   10.90    2.26 
   1   6 -15   10.40    3.38 
  -1   6  15    9.46    3.97 
   0  -6 -16  299.11   21.79 
   0   6 -16  295.26   22.42 
   0   6 -16  299.04   20.75 
   2   0 -32   82.90   13.48 
   0  -6 -16  303.47   21.25 
  -2   0  32   82.90   13.13 
   0  -6  16  275.97   20.84 
  -5   0 -18   36.97    7.15 
  -5   0 -18   36.78    6.19 
   0  -5 -23    9.30    3.63 
  -4  -4 -15  123.03   10.98 
  -4   4 -15  124.77   11.62 
  -4  -4 -15  115.59    9.03 
  -3   1  29   46.43    8.12 
   0  -5 -23    6.90    4.00 
   0   5 -23    9.95    4.36 
   3   1 -29   48.76   16.81 
  -4   4 -15  131.11   10.48 
  -3  -1  29   41.86    7.33 
   0   5 -23    8.49    3.41 
   0  -5  23    7.14    4.21 
   3  -1 -29   40.85    7.02 
   3  -1 -29   46.26    8.16 
  -4  -5  -3   70.01   11.44 
  -4   5  -3   81.27   13.05 
   5   3 -11   38.76    7.78 
  -5  -3  11   32.53   13.60 
  -3  -3 -25   33.20   12.33 
   5  -3 -11   35.23    6.61 
   5  -3 -11   32.77    6.06 
  -5   3  11   35.45    6.31 
  -3   3 -25   30.80    5.66 
  -3   3 -25   34.78   15.39 
  -1  -6 -15   50.28    8.49 
   5  -1 -18   16.11    7.17 
  -1  -6 -15   51.58    8.23 
  -5  -1  18   18.93    6.60 
   5   1 -18   13.50    3.86 
  -1   6 -15   55.02    8.97 
   5   1 -18   15.13    7.05 
  -5   1  18   16.24    7.68 
  -1   1 -33    7.38    4.05 
  -1   1 -33    3.17    1.34 
  -1  -1 -33    2.51    1.91 
  -1  -1 -33    4.18    2.52 
   1  -3 -30   36.09    9.13 
   1   3 -30   36.31    8.28 
   1  -3 -30   35.58    6.43 
   1   3 -30   37.17    6.51 
  -4   3 -20  180.23   13.79 
   1  -2 -32    7.88    4.38 
  -4  -5   4  140.84   14.30 
  -4  -3 -20  171.79   12.56 
   1  -2 -32    5.49    3.60 
  -4   5   4  156.70   12.45 
  -4   3 -20  183.05   14.79 
  -4  -3 -20  173.92   14.06 
   1  -2 -32    8.55    3.44 
   1   2 -32   10.45    4.62 
   4  -5  -4  139.67   10.24 
   1   2 -32    6.04    3.28 
  -2   5 -20   30.77    5.26 
  -2   5 -20   38.90   14.55 
  -2  -5 -20   39.35   16.30 
   2  -5  20   43.60   12.26 
   1  -4 -27  152.25   12.19 
   1   4 -27  155.19   11.95 
   1   4 -27  132.80   10.71 
   1  -4 -27  138.67   10.96 
  -4   5  -4   50.64    8.65 
  -4  -5  -4   52.44    8.44 
   0   0 -34   61.11    9.53 
   0   0 -34   58.96    9.93 
  -4   0 -25   -0.00    4.86 
  -2   4 -25   54.05    9.97 
  -2   4 -25   52.25   15.91 
  -4   0 -25    0.15    2.88 
  -2  -4 -25   65.08   11.06 
   5  -2 -16   44.24   19.55 
  -4   1  25  117.31    9.66 
   4   1 -25  118.70   10.70 
  -5   2  16   47.28   13.21 
   4  -1 -25  121.64   10.68 
  -4  -1  25  115.19   10.13 
   4   1 -25  103.63    7.59 
  -5  -2  16   57.72   16.96 
   5   2 -16   53.96   15.23 
   4  -1 -25  114.32    9.81 
  -4  -2 -23   76.72   13.78 
  -4  -2 -23   67.16   10.66 
  -4   2 -23   71.88   11.82 
  -4   2 -23   66.96   10.88 
  -1   3 -30   83.57   13.10 
  -1  -3 -30  106.49    9.34 
  -1   3 -30  111.06    9.53 
  -1  -2 -32  151.30   12.48 
  -1   2 -32  156.30   15.37 
  -1   2 -32  154.56   11.68 
   3   5 -16   29.04   10.66 
  -1  -4 -27   42.52   15.32 
   3  -5 -16   30.76    5.20 
   3  -5 -16   29.27    9.31 
  -1  -4 -27   31.00   13.89 
  -4   5   5   34.78    6.54 
  -1   4 -27   33.91   16.18 
  -3   5  16   31.40   11.01 
  -4  -5   5   27.72    9.53 
   3   5 -16   31.37    5.83 
  -1   4 -27   32.46   14.36 
   4  -5  -5   27.82    2.11 
   2  -6 -12   23.59    9.30 
   2   6 -12   22.40    4.95 
  -2   6  12   24.87    2.87 
   2   6 -12   29.81   13.34 
   5   0 -19    0.98    0.77 
  -2   0 -32  300.97   20.90 
  -2   0 -32  302.41   22.53 
  -5   0  19   -0.74    3.31 
  -5   3 -11    1.25    0.87 
  -5   3 -11   -1.20    6.03 
  -5  -3 -11    1.51    1.00 
  -5  -3 -11   -0.59    9.78 
   4   4 -16   19.81   10.65 
  -4   4  16   23.43    6.84 
   4  -4 -16   19.30    8.87 
   4  -4 -16   15.18    4.66 
  -4  -4  16   22.60   10.38 
   3  -4 -22    5.56    2.43 
   3   4 -22    6.39    3.42 
  -3   4  22    6.37    2.88 
   3   4 -22    5.82    3.96 
   3  -4 -22    6.99    1.89 
  -3  -2  28    7.08    2.84 
   3  -2 -28    5.90    2.15 
   3  -2 -28    5.67    2.34 
   3   2 -28    8.92    2.64 
  -3   2  28    4.85    3.76 
   4  -5   5   20.03    7.20 
  -4   5  -5   30.24   12.61 
  -4  -5  -5   17.15    9.32 
  -2   6 -12  148.02   11.63 
   2  -6  12  163.77   12.78 
   2   6  12  169.16   11.97 
  -2  -6 -12  162.99   12.34 
  -2  -6 -12  157.37   12.77 
  -3   1 -29   38.24    7.06 
  -3  -1 -29   38.28    7.06 
  -3   1 -29   43.41    7.12 
  -3  -1 -29   42.22    6.69 
  -6   0   0   63.97   10.74 
  -6   0   1    1.50    1.57 
   5  -3 -12   20.99    5.03 
   4  -5  -6   55.62    9.62 
  -5   3  12   13.08    3.17 
   4  -5  -6   52.53    8.31 
  -5  -3  12   16.50    7.95 
   2  -1 -32   15.58    4.75 
  -6   0  -1    0.98    1.16 
   2   1 -32   14.38    6.01 
  -2   1  32   16.13    7.03 
   2  -1 -32   16.98    7.01 
  -4   5   6   56.44    9.44 
  -4  -5   6   53.41    8.81 
   2   1 -32   13.36    4.45 
  -5   1 -18   17.44    7.56 
  -5  -1 -18   19.99    8.49 
  -5  -1 -18   15.58    7.34 
  -6   0   2   81.05   13.05 
  -3   5 -16   91.94    7.26 
  -3  -5 -16   95.98    8.62 
  -3   5 -16   81.63   15.75 
   3  -5  16   93.06    9.69 
   4  -3 -21  102.21    8.88 
   4   3 -21  114.69    9.70 
  -4  -3  21  108.01    9.63 
   4  -3 -21  105.81    9.15 
  -6   0  -2  581.52   42.65 
  -6   0   3    0.60    1.12 
  -5   2 -16   19.18    6.60 
  -5  -2 -16   11.86    7.18 
   4  -5   6    9.17    3.64 
  -4   5  -6    6.22    2.74 
  -4  -5  -6    6.12    4.43 
  -5   2 -16   17.36    7.51 
   1   5 -23   14.16    6.77 
   1   5 -23   11.08    6.90 
   1  -5 -23   13.35    6.06 
   1  -6 -16   14.48    5.23 
   1  -5 -23   15.62    5.66 
  -1   6  16   13.98    4.32 
   1   6 -16   14.28    5.10 
   1  -6 -16   14.43    1.49 
   1   6 -16   12.10    3.57 
  -4  -4 -16   87.27   26.95 
  -4  -4 -16   83.10   12.70 
  -4   4 -16   94.70    8.40 
  -4   4 -16   92.92    8.43 
   0   6 -17   26.49   12.86 
   0  -6 -17   31.14    5.21 
   0  -6  17   29.06    8.96 
   0  -6 -17   34.83   11.13 
   0   6 -17   34.30   13.20 
   0  -4 -28    3.93    1.82 
  -3   4 -22    8.33    4.42 
  -3   4 -22    4.45    2.41 
   0  -4 -28    3.69    2.01 
  -3  -4 -22    2.30    1.63 
   0   4 -28    3.20    2.18 
   0   4 -28    4.08    2.34 
  -6   0  -3   -0.41    2.94 
   0  -1 -34  124.32   10.97 
  -1  -6 -16  115.17    8.87 
  -1  -6 -16  122.11    9.84 
   0  -1 -34  115.71    8.32 
   0   1 -34  105.36    8.19 
  -1   6 -16  140.63   11.17 
   0   1 -34  132.92   11.25 
  -3   3  26   19.38    5.71 
  -4   1 -25  347.26   24.71 
  -3   0  30  224.65   17.94 
  -3  -3  26   19.49    7.62 
  -4   1 -25  361.49   26.47 
   3   0 -30  243.89   17.24 
  -4  -1 -25  342.42   23.84 
   3   3 -26   20.62    8.67 
   3   0 -30  239.05   19.01 
   3  -3 -26   24.97    8.57 
   3  -3 -26   21.64    9.06 
   6   0  -4    1.32    1.74 
  -6   0   4    0.48    1.25 
   2  -2 -31   93.29   13.50 
  -2   2  31   94.38    7.87 
   1  -5  23   40.33    9.82 
   2   2 -31  103.28   12.35 
  -3   6   0   23.37   11.55 
   3   6   0   17.80    6.38 
   2  -2 -31  104.68    8.76 
   2   2 -31   93.97    7.78 
  -1  -5 -23   47.71    7.60 
  -1  -5 -23   34.17    8.38 
  -1   5 -23   49.23   20.61 
  -1   5 -23   39.65    9.23 
  -4  -2  24   93.38    9.11 
   4   0 -26   36.59    5.96 
  -3   6   1  165.77   14.22 
  -4   2  24   89.28   26.30 
   4   0 -26   41.54   14.48 
   4  -2 -24   90.07    7.71 
   4  -2 -24   75.64   12.46 
  -4   0  26   41.78    7.26 
   4   2 -24   74.93   17.27 
   3   6  -1  170.19   13.84 
   4   5  -7  125.88   10.29 
   0  -3 -31  125.93   10.01 
  -4  -5   7  105.67    6.19 
   4  -5  -7  117.88    8.80 
  -4   5   7  136.08   12.90 
   0  -3 -31  127.52   11.40 
   0   3 -31  113.97    9.25 
  -3   6  -1   50.07   15.66 
   3   6   1   36.46   15.72 
   0   3 -31  136.86   11.12 
   2  -5 -21   91.47   13.88 
   1   0 -34  191.52   15.46 
  -5   0 -19    0.76    1.07 
   2  -5 -21   85.32   12.39 
   2   5 -21   68.19   10.25 
   2   5 -21   92.55   14.42 
  -5   0 -19    1.11    1.37 
  -2   5  21   92.86   13.17 
   1   0 -34  212.60   15.16 
  -3   2 -28   24.03   11.46 
  -3   2 -28   21.21    5.45 
  -3  -2 -28   26.25   12.33 
   3   6  -2  113.51   10.30 
   2   6 -13   30.67   10.12 
  -5  -1  19   12.32    6.17 
  -5   3 -12   64.54   13.12 
  -5   1  19   15.12    6.57 
   5  -1 -19   11.03    7.22 
   2   6 -13   37.64    9.03 
  -5  -3 -12   58.75    9.38 
   3  -6  -2  131.69   10.80 
  -5   3 -12   56.04    8.87 
  -3   6   2  124.99   10.11 
   5   1 -19    8.59    3.17 
   5   1 -19    8.66    5.39 
  -2   6  13   42.15   11.09 
   5  -1 -19    8.57    4.37 
  -5  -3 -12   61.39    9.79 
   2  -6 -13   39.58   12.56 
   2  -3 -29   12.68    7.12 
  -2   1 -32    5.79    3.58 
   2  -3 -29   15.81    5.49 
  -2  -1 -32    8.19    5.64 
   2   3 -29   15.21    6.23 
   2   3 -29   11.61    7.88 
  -2   1 -32    4.98    2.97 
  -2   3  29    7.91    5.06 
   3   6   2  389.17   26.98 
  -3   6  -2  376.21   26.83 
   0   2 -33   25.21   11.14 
   0  -2 -33   29.47   13.28 
   0   2 -33   28.16    8.78 
  -6   0  -4   41.65    9.93 
   5  -2 -17  140.21   11.49 
  -5  -2  17  158.11   12.68 
   5   2 -17  144.74   17.73 
  -5   2  17  150.66   12.76 
   6   0  -5    0.71    1.48 
  -4   5  -7   51.94    8.25 
  -6   0   5   -0.03    1.53 
   3  -6  -3   31.95   12.87 
  -3   6   3   34.73   11.24 
   4  -5   7   59.20    9.38 
  -4  -5  -7   60.39    9.10 
   3   6  -3   26.44    6.33 
   2   6  13   99.05   13.85 
   3  -6   3   40.52   13.21 
  -2  -6 -13   94.66   13.70 
   2  -6  13   97.86   14.45 
  -2  -6 -13   95.89   14.09 
  -1   0 -34  225.56   17.41 
   3   6   3   39.32    9.36 
  -2   6 -13   94.13   17.49 
  -3   6  -3   48.08    8.06 
  -4   3 -21    0.33    1.44 
  -4  -3 -21    0.50    0.67 
   3  -5 -17   10.52    5.34 
  -4   3 -21    1.82    4.42 
   3   5 -17   11.33    5.76 
  -4  -3 -21    1.54    1.47 
   3   5 -17    9.64    4.79 
   3  -5 -17    8.70    4.67 
  -3   5  17   10.25    6.98 
  -6   1   0   50.31   17.32 
  -6  -1   0   50.09    8.19 
  -2   5 -21  237.17   17.73 
  -6  -1   1   40.09    9.76 
   2  -5  21  252.81   18.23 
   0   5 -24  110.39    9.36 
   0  -5 -24  117.40   13.87 
  -2   5 -21  239.08   17.08 
   0  -5  24  119.09    8.73 
   0   5 -24  109.21    9.67 
   0  -5 -24  115.15    9.16 
   6  -1  -1   50.33    8.05 
  -6   1   1   45.58    7.53 
  -2  -5 -21  257.04   18.93 
  -6   1  -1  113.71    9.93 
   2  -4 -26   30.20    9.52 
   2   4 -26   38.50   13.02 
  -6  -1  -1  122.55   10.09 
   2  -4 -26   46.81   14.24 
  -2   4  26   30.26    7.01 
   2   4 -26   35.15    9.97 
   4   4 -17  120.96   12.25 
   5  -3 -13   33.29    9.81 
   5   3 -13   37.08    9.30 
  -5   3  13   44.29    7.30 
   4  -4 -17  118.30   11.69 
   5  -3 -13   31.45    7.90 
   4  -4 -17  100.28   14.40 
  -4   4  17  127.32   10.64 
  -5  -3  13   34.62    8.73 
  -4  -4  17  120.81   11.18 
  -6   1   2   15.40    7.20 
   6  -1  -2   18.73    8.82 
  -6  -1   2   16.90    8.31 
   3   6  -4   39.42   13.89 
  -3   6   4   26.62    7.16 
  -2   2 -31   73.88   12.86 
  -6   0  -5    0.28    1.09 
  -2   2 -31   80.45   11.71 
  -2  -2 -31  104.26    6.83 
   4  -5  -8    8.61    4.03 
  -4   5   8   10.07    5.83 
  -4  -5   8    1.67    1.56 
   4   5  -8    6.66    5.19 
  -6  -1  -2    1.57    1.42 
  -6   1  -2    1.75    2.48 
  -5   0  20  157.40   12.27 
   5   0 -20  148.73   11.77 
   3   6   4   49.01    7.34 
  -3   6  -4   63.17   17.98 
   5   0 -20  136.71   12.25 
  -2  -3 -29    6.13    2.86 
  -3   3 -26   50.89    8.14 
  -2   3 -29    3.77    3.74 
  -3   3 -26   42.34   10.17 
  -3  -3 -26   42.32    4.78 
  -2   3 -29    4.85    3.49 
  -6  -1   3   23.23   11.60 
   6  -1  -3   27.83   12.52 
  -6   0   6   43.85    7.81 
   6   0  -6   50.20    7.66 
  -6   1   3   26.57   15.18 
  -3   0 -30  413.78   28.25 
  -3   0 -30  500.61   35.65 
  -6   1  -3    8.54    5.42 
  -6  -1  -3    6.68    3.72 
  -4  -2 -24  111.12   10.00 
   3   1 -30   90.54   13.73 
  -4  -5  -8   45.64    6.89 
  -3  -1  30   85.41   12.62 
  -3   5 -17   18.86   10.52 
  -4  -2 -24   86.57   13.04 
   3  -6  -5   12.69    8.20 
  -3   5 -17   17.43    8.31 
   3   6  -5    6.98    4.17 
  -3   1  30   85.42   12.47 
  -3  -5 -17   22.01    8.71 
  -4   2 -24  112.62    9.91 
  -4   5  -8   45.51    7.36 
   3  -1 -30   73.89   15.14 
  -3   6   5   11.30    4.65 
   3  -1 -30   79.71   11.80 
  -4   2 -24  109.98    9.37 
  -6  -1   4   79.70   13.30 
   6  -1  -4   76.62   11.62 
  -6   1   4   78.75   12.67 
  -2   4 -26  144.96   11.46 
  -4   1  26  183.26   18.19 
   5  -4   0   33.47   13.89 
  -5  -4   0   27.26    6.87 
  -2   4 -26  146.17   12.88 
  -4  -1  26  197.38   14.92 
   4   1 -26  211.32   16.94 
  -5   4   0   22.96   12.23 
   4  -1 -26  184.03   14.68 
  -2  -4 -26  169.70   13.54 
   5  -4  -1  100.08   16.01 
  -4   0 -26   10.32    5.99 
  -5   4   1  108.37    9.24 
  -4   0 -26   11.72    5.79 
  -5  -4   1   95.65   15.22 
   1  -4 -28   19.99    7.58 
   3  -4 -23  273.03   20.02 
  -3   4  23  276.36   19.69 
   3   4 -23  264.17   19.23 
   1  -4 -28   17.86    7.53 
   1   4 -28   11.62    7.06 
   1   4 -28   17.80    8.18 
   3   4 -23  239.01   19.52 
  -3   6  -5   37.81   14.25 
   3   6   5   29.74    7.03 
   1  -1 -34   49.80    7.27 
  -5  -1 -19  327.69   23.96 
   1   1 -34   51.55    7.79 
  -5   1 -19  381.10   26.96 
  -5   4  -1   28.61   12.53 
   1   1 -34   56.74   11.17 
  -5  -4  -1   23.37   13.91 
   1  -1 -34   52.77    8.66 
  -6   0  -6   53.15    8.51 
   3  -6   5   32.43   15.59 
  -5   1 -19  341.63   24.89 
  -5  -2 -17  338.07   25.18 
  -1   6  17    8.43    3.39 
   1  -6 -17    5.71    3.42 
   1  -6 -17    7.17    3.28 
   1   6 -17    7.61    3.97 
  -5   2 -17  337.97   24.61 
   1   6 -17    5.89    4.04 
  -5  -2 -17  347.37   24.54 
  -5  -4   2  178.07   13.39 
  -5   4   2  196.55   15.04 
   2   0 -33    0.65    0.85 
   2   0 -33    1.63    3.06 
  -5   3 -13  374.70   26.77 
  -5   3 -13  385.14   27.54 
   0   7   0    1.25    1.09 
  -5  -3 -13  373.72   26.13 
   0  -7   0    0.94    0.95 
  -5  -3 -13  435.33   31.32 
   1  -3 -31   81.44   12.37 
   1  -3 -31   87.24   12.92 
   1   3 -31   71.40   14.42 
   1   3 -31   75.54   11.24 
  -4   4 -17   61.61    9.99 
   0  -7   1    7.20    3.80 
  -4   4 -17   57.53    9.49 
   2  -6 -14  182.89   14.61 
  -4  -4 -17   53.49    7.75 
   0   7   1    7.19    4.30 
   0   7  -1   11.78    4.78 
   5  -4   2  329.97   23.99 
  -6   1  -4   42.95    4.04 
  -6  -1  -4   39.05    9.45 
  -5  -4  -2  302.83   21.47 
  -2   6  14  175.28   14.08 
   0  -7  -1    7.27    3.76 
  -5   4  -2  320.40   24.72 
   2   6 -14  185.05   14.04 
   2   6 -14  157.10   11.69 
   6   0  -7    1.88    1.83 
  -6   0   7    0.73    2.07 
  -1  -6 -17    2.15    1.49 
  -1  -6 -17    3.32    1.96 
  -1   6 -17    1.06    3.27 
  -4  -5   9  234.57   17.62 
   0   6 -18   15.37    4.40 
   4  -5  -9  232.06   17.77 
   0  -6  18   18.63    6.95 
   4  -5  -9  221.48   16.31 
   0  -6 -18   17.37    6.48 
   0   6 -18   20.68    7.55 
   0  -6 -18   19.88   10.66 
  -4   5   9  239.95   18.15 
   4   5  -9  225.34   16.60 
  -5   4   3   35.54   15.82 
  -5  -4   3   28.74   13.24 
  -1   4 -28    6.49    3.24 
  -4   3  22  616.43   11.06 
   4   3 -22  592.72   13.01 
  -4  -3  22  587.30   40.79 
  -1   4 -28    8.28    5.41 
  -6   1   5   16.07    7.11 
  -1  -4 -28    7.51    3.59 
  -6  -1   5   19.33    8.17 
   4  -3 -22  588.07   40.56 
  -1  -4 -28    7.90    5.90 
   6  -1  -5   14.10    4.13 
   4  -3 -22  542.65   37.52 
   0  -7   2  217.00   15.88 
   0   7  -2  234.30   16.95 
   0   7   2  253.35   18.13 
   0  -7  -2  219.28   16.17 
   3  -6  -6  174.49   13.54 
   1   2 -33   50.91    8.29 
   1  -2 -33   44.07    7.51 
   1  -2 -33   53.46   15.48 
   3   6  -6  183.06   13.92 
   1   2 -33   46.23    7.21 
  -3   6   6  178.58   13.50 
  -1   1 -34   47.25    8.17 
  -1  -1 -34   54.17   22.99 
  -1   1 -34   40.07    9.40 
  -5   4  -3   51.71   19.81 
  -5  -4  -3   44.14   19.82 
   5  -4   3   53.32   12.28 
  -2  -6 -14   46.93    7.21 
   2  -6  14   47.72   11.29 
  -2  -6 -14   46.81   12.75 
  -2   6 -14   53.89   18.65 
  -1   3 -31   28.28    7.04 
  -1  -3 -31   25.97   11.74 
  -1   3 -31   35.23   10.74 
   3   6   6    3.63    3.20 
   3  -6   6    4.62    2.27 
  -3   6  -6    3.83    2.07 
   5  -4  -4   15.76    7.32 
   0   7  -3  110.07    9.69 
   0  -7   3  103.43    8.36 
  -5   4   4   23.51    8.01 
   0  -7  -3  106.02    5.07 
   0   7   3  115.97    8.95 
  -5  -4   4   20.51    9.55 
  -3   2  29    5.13    3.60 
   3  -2 -29    5.12    3.94 
   3   2 -29    7.98    4.51 
  -3  -2  29    7.52    3.82 
   3  -2 -29    8.87    4.49 
  -5  -3  14  103.49    6.21 
  -5   3  14  114.41    9.58 
   5  -3 -14  114.96    9.68 
   5  -3 -14  103.16    5.16 
   5   3 -14  118.43   11.32 
  -6  -1  -5   24.15    8.29 
  -6   1  -5   25.77   12.54 
  -4  -5  -9  276.69   20.01 
  -4  -5  -9  277.86   20.57 
  -6   0  -7    0.42    1.79 
   4  -5   9  285.47   23.26 
  -4   5  -9  285.35   20.85 
  -5   0 -20    7.11    3.97 
   5  -2 -18   86.10   13.81 
   1   5 -24    2.45    2.17 
  -5   0 -20    4.19    2.34 
   1  -5 -24    0.25    1.22 
  -5   2  18   93.22   14.67 
   1  -5 -24    3.50    2.16 
   1   5 -24    3.06    2.75 
   5   2 -18   94.52   14.80 
  -5  -2  18   91.10   13.57 
  -1   2 -33    0.79    1.21 
   5   1 -20  100.10   14.08 
  -1  -2 -33    1.64    1.95 
  -1   2 -33    0.44    1.10 
  -5   1  20  113.47    9.26 
   5  -1 -20   97.75   14.55 
   5  -1 -20  113.59    9.12 
   5   1 -20  111.26   10.60 
  -5  -1  20  124.36   10.39 
   0   0 -35    1.69    2.13 
   6  -1  -6   11.16    5.14 
  -3  -4 -23    7.38    4.41 
   6   1  -6    9.91    5.14 
  -3   4 -23    6.51    3.26 
  -3   4 -23    6.85    4.11 
  -6   1   6   12.12    7.48 
  -6  -1   6   13.89    5.21 
  -5  -4  -4  112.30    9.84 
  -5   4  -4  129.68   10.68 
  -2   0 -33   -0.27   12.61 
   2   5 -22   54.21   10.88 
  -2   0 -33    1.60    1.63 
   2  -5 -22   58.21    8.64 
   2  -5 -22   64.24   18.47 
  -2   5  22   55.39    7.99 
   2   5 -22   62.06    9.45 
   6   0  -8    9.58    5.65 
  -6   0   8    9.43    5.63 
   0   7  -4   24.88    9.77 
   0  -7   4   23.56    8.46 
   0   7   4   26.59    6.81 
   0  -7  -4   24.31    6.02 
  -3  -1 -30   23.46    5.46 
  -3   1 -30   23.89    5.83 
  -3  -1 -30   24.38   12.59 
  -3   1 -30   25.73   13.83 
   3   5 -18   28.19   12.52 
   3  -5 -18   33.34   11.75 
  -3   5  18   28.91    6.88 
   3  -5 -18   27.75   10.74 
   3   5 -18   26.98    6.80 
  -3   6   7   32.15   10.35 
   3  -6  -7   22.82   11.47 
   3   6  -7   35.84   11.89 
   5  -4  -5  111.45    9.73 
  -5   4   5  114.24   11.79 
  -5  -4   5   99.14   14.68 
  -1   5 -24   71.89   10.72 
   1  -5  24   70.53   10.32 
  -1   5 -24   61.33    9.19 
  -1  -5 -24   59.24    9.11 
  -1  -5 -24   62.49    9.64 
  -4   4  18  189.69   14.37 
  -4  -4  18  173.75   25.78 
   4  -4 -18  182.19   13.71 
   4  -4 -18  178.63   14.09 
   4  -2 -25  174.99   13.66 
  -4  -2  25  181.67   14.50 
   4  -2 -25  185.58   13.94 
  -4   2  25  190.32   15.09 
   4   2 -25  193.12   15.22 
  -4  -1 -26   55.31    9.11 
   4   5 -10   13.01    7.11 
  -4  -1 -26   59.76    8.76 
  -4   1 -26   53.08   10.30 
  -4   1 -26   58.97    8.76 
  -4  -5  10    9.46    5.32 
  -4   5  10   12.78    7.32 
   4  -5 -10   15.11    9.79 
  -6  -1  -6  154.26   14.55 
   3  -3 -27   25.91    8.20 
   3  -3 -27   27.75    7.18 
  -3   6  -7   59.97   11.79 
  -6   1  -6  146.61   11.86 
   3   6   7   61.81    9.06 
   3  -6   7   61.73   10.29 
  -3   3  27   23.96    9.83 
  -3  -3  27   25.08   11.07 
   3   3 -27   22.87    8.78 
  -4   0  27    0.65    1.06 
   2  -1 -33   84.75   12.73 
   2   1 -33   80.68   12.86 
  -5   4  -5   82.22   12.91 
   4   0 -27    0.77    1.59 
  -5  -4  -5   60.62    9.70 
   4   0 -27    0.22    1.09 
   2   1 -33   93.52   13.54 
   2  -1 -33   83.50   12.14 
  -2   1  33   86.89   13.02 
   0  -7   5    3.64    1.92 
  -4   3 -22  295.74   21.27 
   0  -4 -29   35.30   15.24 
   0  -7  -5    2.40    2.01 
   0   4 -29   44.54   15.24 
   0   4 -29   30.59    7.49 
   0  -4 -29   38.74   14.97 
   0   7  -5    3.49    1.57 
  -4  -3 -22  264.96   20.49 
  -4   3 -22  297.46   21.69 
   0   7   5    4.72    2.58 
   2  -5  22   18.50    9.88 
  -2   5 -22   25.19   10.93 
  -2  -5 -22   18.38    8.72 
  -2   5 -22   16.86   11.23 
  -6   1   7   36.09   15.26 
  -6  -1   7   30.03    8.91 
   6   1  -7   29.16    7.03 
  -5  -3 -14    2.97    1.75 
  -6   0  -8   17.98    9.97 
  -5   3 -14    3.79    2.30 
  -5  -4   6  136.31   11.02 
   5   0 -21    1.02    2.25 
  -5   0  21    1.36    2.19 
  -5   4   6  146.26   11.91 
   5   0 -21    0.68    1.01 
  -3  -5 -18   27.71   11.21 
  -3   5 -18   16.68    8.05 
   3  -5  18   24.50   10.32 
  -3   5 -18   19.10    9.87 
   3   0 -31    0.39    0.89 
   2  -6 -15   42.62    4.55 
  -3   0  31    0.79    1.23 
   3   0 -31    0.87    2.27 
   2   6 -15   43.26    3.07 
   2   6 -15   40.45    9.67 
  -2   6  15   46.96    7.05 
  -4   5 -10    8.92    4.00 
  -4  -5 -10   10.25    6.51 
  -4  -5 -10    8.21    7.06 
  -3   2 -29   30.15    8.69 
  -3   2 -29   36.20   10.84 
  -3  -2 -29   40.62   18.46 
   6   0  -9    1.44    0.97 
   0   5 -25  132.06   10.48 
   0  -5 -25  120.43    9.61 
   3  -6  -8   18.34    9.74 
  -6   0   9    2.16    1.88 
   0  -5 -25  133.66   12.82 
   0  -5  25  130.90    9.70 
   3   6  -8   13.78    7.87 
  -3   6   8   16.18   10.60 
   3   6  -8   14.16    6.35 
   0   5 -25  129.46   10.85 
  -1   7   0    1.81    1.61 
   1  -7   0    3.48    2.25 
  -1  -7   0    1.42    1.32 
   1  -6 -18    1.65    1.20 
   1   6 -18    1.07    2.09 
   1   6 -18   -1.32    6.19 
   1  -6 -18    0.57    0.86 
   2   2 -32   19.31   10.12 
   2  -3 -30  130.02   10.74 
   2   3 -30  135.10   17.11 
  -1  -7  -1  207.50   15.79 
   2   2 -32   16.58   10.15 
  -2   3  30  125.82    9.29 
  -1   7   1   52.71   11.32 
   2  -2 -32   18.64   10.25 
   1  -7  -1   45.80    9.21 
   1   7  -1   45.45    7.20 
   1  -7   1  199.47   15.93 
  -2   2  32   16.33    6.04 
   1   7   1  201.81   14.73 
  -1   7  -1  200.20   14.87 
   2  -3 -30  145.50   11.41 
   2   3 -30  126.57   10.10 
  -1  -7   1   43.80    6.69 
   2  -2 -32   18.72    5.85 
  -5  -2 -18   19.12    9.39 
  -5   2 -18   21.80    7.96 
  -5   2 -18   27.90   11.79 
   0  -3 -32   23.33    9.52 
   0   3 -32   23.02   12.98 
   0  -3 -32   21.92   11.58 
   0   3 -32   22.66    9.30 
  -5  -4  -6   83.44   12.11 
  -5   4  -6   97.17   14.53 
  -4   4 -18  219.86   16.26 
   1   7  -2   38.29    9.10 
   0   7  -6   87.35   12.90 
   0   7   6   92.86   13.40 
   2   4 -27   67.02   20.03 
   2  -4 -27   61.81    9.67 
   2  -4 -27   64.34   10.01 
  -1   7   2   38.45    9.06 
   2   4 -27   60.73    9.58 
   0  -7   6   84.65   12.69 
  -6  -1  -7    6.10    3.80 
   1  -7  -2   40.63   12.96 
  -4   4 -18  229.83   17.00 
   0  -7  -6   97.77   14.37 
  -1  -7   2   37.38    8.65 
  -6   1  -7    1.29    1.87 
  -2   6 -15   21.48    8.39 
   1   7   2    3.98    1.94 
  -1   7  -2    5.18    2.09 
  -2  -6 -15   15.96    7.63 
   1  -7   2    6.49    3.51 
  -5   1 -20   58.93   25.16 
  -5  -1 -20   51.34    9.44 
  -5   1 -20   72.33   11.45 
  -1  -7  -2    5.71    3.53 
  -2  -6 -15   15.80    9.06 
   2  -6  15   16.79    5.30 
  -1  -6 -18   17.02    8.13 
  -3   6  -8   62.16    9.69 
   3  -6   8   66.35   19.21 
  -1  -6 -18   15.78    7.15 
   3   6   8   67.91   10.85 
  -1   6 -18   21.54    8.44 
   0   1 -35   98.07   14.94 
   0  -1 -35   97.82   14.89 
   0   1 -35   98.00   14.01 
   5  -3 -15   93.38   13.90 
   5   3 -15  109.35    9.87 
  -5  -3  15   77.33   12.05 
  -5   3  15   91.70   16.76 
   0  -6  19   48.09    7.14 
  -2   1 -33  152.82   11.13 
   0   6 -19   56.55    8.68 
   0  -6 -19   57.09    8.47 
   0   6 -19   54.91    8.22 
   0  -6 -19   57.91    9.06 
  -2  -1 -33  150.65   12.22 
  -2   1 -33  160.93   13.95 
   6   1  -8   14.09    6.13 
  -6  -1   8   16.26    8.10 
  -6   1   8   17.62    6.43 
   5  -4  -7    1.82    1.43 
  -5   4   7    2.39    1.37 
   5  -4  -7    4.90    3.48 
  -5  -4   7   -0.08    3.64 
   1   0 -35    0.59    1.93 
   1   0 -35    0.62    0.64 
   1   7  -3   11.81    5.42 
   1  -7  -3   15.09    6.94 
  -1   7   3   12.64    5.99 
  -1  -7   3    7.06    4.43 
  -1   7  -3   15.70    5.25 
   4  -5 -11   89.03   12.77 
   1  -7   3   12.70    5.29 
  -3  -3 -27   58.58    9.37 
   1   7   3   13.53    5.17 
  -4  -5  11   86.32   13.19 
  -1  -7  -3   16.40    7.67 
  -3   3 -27   64.42    9.83 
   4  -5 -11   95.24   14.44 
   4   5 -11  108.98    9.00 
  -4   5  11  102.32    5.60 
  -3   3 -27   63.04    9.82 
   0   2 -34   39.51    9.29 
   0   2 -34   55.05   16.46 
   0  -2 -34   50.32    8.40 
   3  -4 -24   16.36    7.74 
   3   4 -24   14.89    6.22 
   3  -4 -24   15.17    5.70 
  -4  -2 -25  131.38   11.35 
   3   4 -24   11.72    6.47 
  -4   2 -25  126.12   10.75 
  -3   4  24   15.18    3.90 
  -4   2 -25  123.35   12.57 
  -6   0  -9    1.56    2.57 
  -6   0  -9    0.34    1.11 
  -4  -3  23   17.71    7.66 
  -4   3  23   13.20    7.70 
   4  -3 -23   14.11    7.23 
   1   7  -4   19.27    6.24 
   1  -7  -4   19.29    9.95 
  -1  -7   4   18.09    4.42 
  -2   3 -30  116.91   10.36 
  -2  -3 -30  111.44   13.41 
   4   3 -23   17.53    6.44 
   4  -3 -23   16.28    6.84 
  -2   3 -30  105.27    5.05 
  -1   7   4   17.89    9.46 
  -5  -4  -7   62.81    9.29 
  -1   7  -4  383.07   27.20 
   0  -7   7   52.78    8.42 
  -4  -1  27   39.84   15.89 
  -4   1  27   33.77    8.24 
  -1  -7  -4  352.33   25.23 
   5  -2 -19   22.27   10.13 
   0  -7  -7   49.09   11.23 
   3   6  -9   84.11   18.42 
   0   7  -7   53.02    8.28 
  -5  -2  19   21.67   10.16 
   1  -7   4  358.76   25.60 
  -3   6   9   77.36   11.47 
  -5   2  19   21.25   12.41 
  -5   4  -7   76.44   11.81 
  -2  -2 -32  233.72   17.89 
   5  -4   7   91.25   23.11 
   1   7   4  387.49   26.91 
  -2   2 -32  218.17   17.55 
   0   7   7   55.99    8.39 
   3  -6  -9   72.40   11.56 
   3   6  -9   76.63   11.26 
  -2   2 -32  176.88   13.49 
   4   1 -27   38.67   15.39 
   4  -1 -27   34.19   12.09 
  -2  -4 -27   18.45    8.42 
  -2   4 -27   14.21    8.71 
  -2   4 -27   15.42    8.89 
  -1   0 -35    0.59    1.04 
  -1   0 -35    1.76    1.84 
   6   0 -10   80.49   11.89 
  -6   0  10   83.89   12.74 
  -4   0 -27   -0.08    1.36 
  -4   0 -27    2.00    4.61 
  -6  -1  -8   97.05   14.27 
  -6   1  -8   84.25   12.62 
  -4   5 -11  112.95   10.11 
  -4  -5 -11  107.36    8.37 
  -4  -5 -11  104.34    5.92 
   3  -5 -19  165.34   15.33 
  -3   0 -31   -1.50    6.97 
   3  -5 -19  169.39   12.35 
   3   5 -19  193.01   14.99 
  -3   5  19  186.80   13.70 
   3   5 -19  166.09   12.56 
   5   1 -21   12.14    5.16 
  -5   1  21   12.03    6.80 
   5  -1 -21   12.92    5.43 
   5   1 -21   11.44    6.53 
   5  -1 -21   10.98    7.53 
  -5  -1  21    9.83    5.50 
   1   4 -29   17.28    5.41 
   1   4 -29   18.39    9.78 
  -5   0 -21    0.09    0.78 
   1  -4 -29   14.22    8.16 
   1  -4 -29   17.21    8.15 
  -5   0 -21    0.92    2.00 
   3  -1 -31   10.95    5.83 
  -3   1  31   10.78    6.05 
   3  -6   9  123.80   10.62 
  -3  -1  31   10.77    4.29 
   3   6   9  121.09    9.11 
  -3   6  -9  114.81    9.60 
   3  -1 -31   15.77    7.09 
   3   1 -31   18.84    6.34 
  -5  -4   8  104.69    5.62 
   5  -4  -8  102.65    4.69 
  -5   4   8  125.28   10.56 
  -4   4  19   18.34    9.60 
   4  -4 -19   20.82   10.11 
  -4  -4  19   19.53    9.96 
   4  -4 -19   18.07    7.30 
  -6  -2   0   95.60   17.55 
  -6   2   0   91.28   13.71 
   6  -2   0  100.61   15.12 
  -6  -2   1  197.77   15.75 
   6  -1  -9   61.33    9.29 
   6   1  -9   58.31    8.97 
  -5  -3 -15   79.58   13.37 
  -6   1   9   55.72    8.86 
  -6   2   1  216.68   16.62 
  -1  -7   5    7.94    4.36 
   6  -2  -1  222.49   16.71 
  -6  -1   9   50.71    8.29 
   1  -7  -5   19.09    8.70 
  -5   3 -15   88.32   17.05 
  -5   3 -15   83.77   12.53 
   1   7  -5   13.50    5.76 
  -1   7   5   15.22    6.64 
   1   7   5    5.71    2.85 
  -1   7  -5    7.18    3.32 
  -6  -2  -1   25.68   11.76 
  -1  -7  -5    6.98    3.48 
   1  -7   5    6.22    3.74 
  -6   2  -1   23.54   11.80 
  -6   2   2   57.06    9.49 
   6  -2  -2   83.22   15.36 
  -6  -2   2   73.73   24.50 
   2   5 -23   19.32    7.48 
   2  -5 -23   20.39   10.41 
  -2   5  23   15.73    4.02 
   2   5 -23   18.50    8.82 
   2  -5 -23   14.61    6.47 
  -3  -4 -24  403.90   36.69 
  -1   4 -29   73.29    7.83 
  -3   4 -24  403.25   36.22 
   2  -6 -16   78.60   11.34 
   2   6 -16   70.82    7.19 
  -2   6  16   92.63    8.92 
   1  -5 -25   39.88    6.36 
   1   5 -25   45.88    7.64 
  -3   4 -24  405.45    9.50 
  -1  -4 -29   60.02    9.13 
  -1  -4 -29   71.16   10.91 
   2   6 -16   85.49    9.36 
   1   5 -25   37.00    8.93 
  -1   4 -29   86.42    8.94 
   1  -5 -25   38.47    6.85 
   6  -2   2   31.22   12.57 
  -6  -2  -2   33.27   12.73 
  -6   2  -2   33.27   15.74 
  -6  -2   3   67.27    5.46 
  -6   2   3   75.41    8.50 
   1  -3 -32    3.77    2.52 
   1   3 -32    0.65    1.68 
   1   3 -32    3.23    2.28 
   1  -3 -32    1.59    1.53 
   4   5 -12   15.56    7.22 
   0   7  -8   61.02   10.46 
   4  -5 -12   18.85    6.21 
   4  -5 -12   18.22    5.85 
   0   7   8   51.65    8.30 
  -4  -5  12   20.06   10.08 
   0  -7   8   58.98    8.82 
   0  -7  -8   60.31    9.40 
  -4   5  12   22.47    7.68 
  -5  -4  -8   84.21    8.61 
  -6   0 -10   81.56    9.44 
   5  -4   8   98.39   10.50 
  -6   0 -10   71.72    8.21 
  -5   4  -8   87.16    9.93 
   2   0 -34   43.42    7.50 
   2   0 -34   40.72    7.73 
   1  -1 -35   44.43    6.60 
  -3  -5 -19  352.22   32.06 
  -3   5 -19  321.87   30.74 
   3  -5  19  334.43   30.26 
   1  -1 -35   52.90    8.60 
   1   1 -35   53.99   18.14 
   1   1 -35   43.97    6.95 
  -3   5 -19  333.42   30.19 
   3  -6 -10    2.21    1.73 
  -3   6  10    1.80    0.90 
  -1   5 -25   28.84    5.25 
  -1  -5 -25   30.78   12.07 
   3   6 -10    1.38    1.48 
   3   6 -10    1.78    1.35 
  -1   5 -25   22.71    4.18 
  -1  -5 -25   24.99    6.46 
  -1   7   6  167.26   16.35 
   1   7  -6  163.74   15.71 
   1  -7  -6  156.10   14.86 
  -6   2  -3   18.88    7.87 
   6  -2   3   15.92    8.10 
  -1  -7   6  163.73   14.93 
  -6  -2  -3   21.00    7.87 
   2  -6  16  103.79   10.69 
  -2  -6 -16  105.30   10.55 
  -2   6 -16   93.07   10.04 
  -2  -6 -16   97.61    9.66 
   3   2 -30   25.90   11.14 
  -3  -2  30   31.27    7.89 
   3  -2 -30   36.50   11.51 
  -3   2  30   26.73    9.85 
   3  -2 -30   31.72   10.33 
  -6   1  -9   93.60    9.53 
   5   3 -16  215.41   23.36 
   5  -3 -16  209.55   19.52 
  -6  -1  -9   92.58   10.42 
  -6  -1  -9   85.94    8.89 
  -5   3  16  237.35   21.88 
  -6  -2   4  201.11   19.20 
   1  -7   6  152.52   14.35 
  -5  -3  16  237.88   22.40 
   1   7   6  154.72   14.29 
  -6   2   4  194.30   18.41 
  -1   7  -6  160.57   15.27 
  -1  -7  -6  148.82   15.87 
   1   6 -19  271.92   24.47 
   1   6 -19  271.11   27.71 
   1  -6 -19  223.35   20.02 
   1  -6 -19  280.88   26.11 
   6   0 -11    3.05    3.13 
   4  -2 -26    0.83    1.33 
  -6   0  11    0.65    2.31 
  -4   2  26    1.86    1.45 
  -4   3 -23   17.92    8.08 
  -4   3 -23   13.67    5.67 
  -4  -2  26    2.28    2.23 
  -4  -3 -23   15.64    5.95 
   4  -2 -26    1.97    1.35 
   6   0 -11    0.61    0.89 
   4   2 -26    1.33    2.25 
  -1  -3 -32   36.65    7.65 
  -1   3 -32   40.05    6.84 
  -2  -5 -23  198.12   18.64 
  -1   3 -32   31.47    7.13 
   5   0 -22  101.49   10.62 
  -2   5 -23  181.80   17.16 
   5   0 -22   97.69    9.29 
  -2   5 -23  183.22   17.02 
  -5   0  22  103.75   10.51 
   1  -2 -34    5.03    2.03 
   5   4  -9   19.95    4.41 
   1  -2 -34    4.65    3.37 
   5  -4  -9   21.14    8.31 
  -5  -2 -19   19.83    3.35 
   1   2 -34    6.67    4.00 
   1   2 -34    1.66    1.19 
   5  -4  -9   13.08    7.66 
  -5   2 -19   28.15   12.67 
  -5   2 -19   20.64   10.48 
  -5  -4   9   18.55    7.54 
  -5   4   9   22.26    7.78 
  -4   4 -19  174.83   16.54 
  -4   4 -19  176.07   17.39 
  -4  -4 -19  173.60   16.95 
  -1  -1 -35    3.97    2.93 
  -1   1 -35    2.25    2.21 
  -3  -6 -10   93.20    9.56 
   3   6  10   98.33    9.26 
  -1  -6 -19   72.74    7.54 
  -3   6 -10   98.15   10.14 
  -1  -6 -19   72.13    7.95 
  -1   1 -35    2.35    2.18 
   3  -6  10   94.09   10.51 
  -4  -1 -27   50.76   13.98 
  -1   6 -19   78.03    8.61 
  -4  -1 -27   45.64    6.83 
  -4   1 -27   49.87    7.97 
  -4   1 -27   40.42    7.13 
   1  -6  19   78.55    7.80 
  -6   2  -4    6.07    3.52 
  -6  -1  10   46.24   17.67 
   6  -1 -10   53.22    9.18 
  -6   1  10   54.11   18.87 
   6   1 -10   48.54    7.48 
   6  -1 -10   43.73    7.40 
  -6  -2  -4    7.01    2.71 
  -4  -5 -12   95.06   10.29 
  -4   5 -12   87.58    8.79 
  -4   5 -12   63.55   10.18 
  -4  -5 -12   83.54    8.41 
   3  -3 -28  312.70   28.54 
  -3   3  28  348.08   31.21 
   3   3 -28  323.63   29.47 
   3  -3 -28  321.44   29.01 
   3   3 -28  329.22   30.22 
  -3  -1 -31   14.77    8.46 
  -3   1 -31   21.21    6.73 
  -3   1 -31   16.28    2.15 
   6  -2  -5   35.84   14.84 
  -6   2   5   39.29   13.42 
  -6  -2   5   30.71    6.85 
  -5  -1 -21   25.45    8.74 
   4   0 -28  105.20   10.98 
  -5   1 -21   35.02   10.52 
   0  -6 -20   22.82    8.70 
   0   6 -20   34.33   11.70 
   0   6 -20   22.50    4.64 
   0  -6 -20   28.51   13.99 
   4   0 -28  112.16   10.53 
  -4   0  28  105.70   11.15 
  -5   1 -21   23.47   11.08 
  -5  -1 -21   19.91    3.69 
   0  -6  20   22.40    3.59 
  -1  -2 -34   12.58    4.90 
  -1   2 -34    9.46    3.94 
  -1   2 -34   11.53    5.85 
   0   7  -9   26.52    8.88 
   0  -7  -9   23.50    4.69 
  -1  -7   7    2.84    1.15 
  -1   7   7    3.24    2.47 
   1   7  -7    2.76    2.00 
   1  -7  -7    4.56    1.94 
   0  -7   9   22.80    9.66 
   0   7   9   26.08    5.58 
  -2   0 -34  144.92   15.09 
   0   5 -26   88.74    9.80 
   1   7   7   40.39    6.38 
  -2   0 -34  132.88   12.12 
   5  -4   9   14.10    4.34 
  -1  -7  -7   39.23   14.70 
   0   5 -26   89.08    9.16 
   0  -5 -26  100.49   11.22 
  -5   4  -9    9.69    4.25 
  -5  -4  -9   10.51    5.29 
   0  -5 -26   97.30   10.01 
  -1   7  -7   36.81    6.11 
  -5  -4  -9   12.02    2.95 
   1  -7   7   35.07   13.64 
   0   4 -30   93.72    9.63 
   0   0 -36  604.92   15.34 
   0  -4 -30   89.41   11.37 
   0   0 -36  533.57    8.28 
   0  -4 -30   87.21    9.24 
   0   4 -30  110.53   11.18 
  -6  -2  -5   16.85    8.24 
  -6   2  -5   18.94   12.26 
  -6   0 -11    0.36    1.21 
  -6   0 -11    0.59    1.19 
   5  -2 -20    6.10    3.66 
  -5   2  20    7.65    3.61 
  -5  -2  20    6.78    3.50 
   5   2 -20    6.09    3.23 
   3   6 -11   17.46    4.43 
   3  -6 -11   16.88    6.89 
   3   6 -11   15.47    7.40 
   6  -2  -6    7.81    3.09 
  -3   6  11   14.68    6.75 
  -6  -2   6    4.62    2.99 
  -6   2   6    4.99    4.11 
  -5  -3 -16   31.05    5.13 
  -5   3 -16   38.24    8.15 
   4  -5 -13   15.41    6.86 
  -4   5  13   22.09    8.06 
   4  -5 -13   17.80    7.95 
  -4  -5  13   19.72    7.98 
   4   5 -13   18.15    5.12 
  -6   1 -10   42.75   10.49 
  -6  -1 -10   45.70    9.24 
  -6  -1 -10   43.77    7.04 
  -6   1 -10   40.66    8.98 
  -5   4  10   24.02    6.50 
  -5  -4  10   24.91    9.64 
   5  -4 -10   20.57    9.64 
   2   1 -34   14.48    6.58 
   2  -1 -34   13.58    5.26 
  -3   2 -30  105.03   10.91 
   2   1 -34   12.35    6.04 
   2  -1 -34   14.12    6.92 
  -3  -2 -30  104.73   12.76 
  -2   1  34   11.48    7.67 
  -3   2 -30  107.40   10.44 
   2  -4 -28    1.02    1.57 
   2   4 -28    1.57    1.09 
   2  -4 -28    1.03    1.74 
   2   4 -28    1.38    1.50 
   3  -5 -20   86.68    8.49 
   3   5 -20   90.38    9.28 
   3   5 -20   96.24    9.82 
  -3   5  20   99.35    9.59 
   3  -5 -20   94.71   10.29 
   3   4 -25   27.52    4.92 
  -3   4  25   27.89    8.43 
   3   4 -25   35.43    7.33 
   3  -4 -25   28.82    6.30 
   3  -4 -25   40.32   11.45 
   3   0 -32   67.77    3.38 
  -6   0  12  328.25   33.28 
  -3   0  32   72.16    7.68 
   3   0 -32   64.87   14.00 
  -2   6  17    3.56    2.78 
   2  -6 -17    6.21    2.70 
   2   6 -17    3.15    2.88 
   2   6 -17    2.49    1.50 
   2   3 -31   62.70    9.70 
   4  -4 -20    4.40    2.61 
   2  -3 -31   53.46    8.68 
   4  -4 -20    8.47    3.30 
  -4  -4  20    3.82    2.06 
   2   3 -31   60.62   18.54 
   2  -3 -31   61.36    9.63 
   4   4 -20    6.58    3.36 
  -4   4  20    4.80    1.80 
  -4   2 -26   17.57    7.07 
   4   3 -24   62.81    9.79 
   6  -1 -11   32.61    7.32 
   4  -3 -24   67.53    4.95 
   6  -1 -11   38.08    6.69 
   6   1 -11   34.41    6.80 
  -4   2 -26   11.12    9.22 
  -6   1  11   40.24   11.57 
  -6  -1  11   30.51   12.08 
  -4   3  24   74.49    7.79 
  -4  -2 -26   15.60    9.53 
   6   1 -11   39.34   11.49 
  -4  -3  24   67.07   10.65 
   4  -3 -24   64.41   11.21 
  -5   1  22   12.69    4.22 
  -3   6 -11   25.79    4.97 
  -5  -1  22   14.77    6.97 
   3   6  11   24.68    4.30 
   5   1 -22   15.87    5.93 
   5  -1 -22   14.37    5.24 
  -1   7   8   20.09    5.82 
   5  -1 -22   10.85    3.89 
  -3  -6 -11   26.33    4.76 
   1   7  -8   17.80    8.16 
   3  -6  11   28.77   11.47 
   1  -7  -8   18.15    6.83 
  -1  -7   8   15.87    1.60 
  -6   2  -6    8.78    3.35 
  -6  -2  -6   10.91    5.24 
  -3  -3 -28   42.31    7.34 
  -5   0 -22   67.21    8.05 
  -1   7  -8  220.33   20.49 
  -3   3 -28   38.96    9.55 
  -5   0 -22   79.22    9.13 
   1  -7   8  204.47   19.03 
   1   7   8  196.06   18.26 
  -1  -7  -8  190.71   17.69 
  -3   3 -28   38.07    6.51 
   2   2 -33   64.32    9.63 
   2  -2 -33   63.31    9.41 
   2   2 -33   71.81   12.06 
  -2   2  33   68.84    8.30 
   2  -2 -33   65.21   11.00 
   0   7 -10   41.21    9.03 
   0   3 -33   40.52   11.79 
   0  -7 -10   34.69    8.07 
   0   3 -33   34.23    6.08 
   0  -3 -33   42.17    8.66 
   0   7  10   38.36    5.88 
   0  -3 -33   39.55    6.81 
   0  -7  10   35.23    6.60 
   6   2  -7   54.55    8.59 
   6  -2  -7   53.34    9.06 
  -6  -2   7   58.78    9.41 
  -6   2   7   64.42   10.52 
  -4  -5 -13  157.06   14.77 
  -2  -6 -17    4.27    1.93 
   5  -3 -17   36.39    6.84 
   5   3 -17   37.13    6.53 
  -4   5 -13  172.77   15.88 
  -4   5 -13  168.89   16.06 
  -2   6 -17    3.62    1.99 
  -4  -5 -13  172.01   16.68 
  -2  -6 -17    3.44    1.54 
   2  -6  17    3.64    3.16 
  -5   3  17   39.58   10.75 
  -5  -3  17   39.87   16.80 
  -5  -4 -10    4.49    4.32 
  -5  -4 -10    2.59    1.38 
   5  -4  10    2.00    2.24 
  -5   4 -10    2.12    1.74 
   4  -1 -28  297.39   27.92 
   4  -1 -28  325.45   29.27 
  -4  -1  28  351.30   31.83 
  -4   1  28  333.26   31.10 
   4   1 -28  329.31   33.75 
  -2   4 -28   89.39    9.43 
  -2  -4 -28   96.78   10.34 
  -2   4 -28   84.93    8.78 
  -4   0 -28  168.55   16.13 
  -4   0 -28  148.65   14.80 
  -3   5 -20   80.77   26.29 
  -3   5 -20   74.64    7.60 
  -3  -5 -20   81.81    9.01 
   3  -5  20   73.67   31.27 
   2   5 -24   22.41    8.10 
   2   5 -24   21.41    8.77 
   2  -5 -24   22.52    8.20 
   2  -5 -24   24.49   11.04 
  -2  -1 -34   53.61    8.60 
  -2   1 -34   53.53    8.00 
  -2   1 -34   56.39   11.14 
   1  -6 -20   12.67    7.14 
   1  -6 -20   13.66    5.47 
   1   6 -20   12.11    7.74 
   1   6 -20    8.80    5.09 
   0   1 -36   58.21   23.54 
  -2   3 -31   10.51    3.92 
   0  -1 -36   55.08   23.17 
   0   1 -36   42.93    6.57 
  -2   3 -31   12.61    4.71 
  -2  -3 -31   13.69    5.22 
  -6   0 -12   12.10    6.46 
   3   6 -12    2.89    2.32 
  -6  -2  -7   81.40   10.90 
  -5  -4  11  173.71   16.83 
   3   6 -12    1.42    1.36 
  -6   0 -12   12.54    5.59 
   3  -6 -12    4.67    2.80 
   5  -4 -11  168.42   16.26 
  -6   2  -7   84.61    9.11 
  -3  -4 -25  264.62   24.75 
   5  -4 -11  152.69   14.39 
  -3   6  12    1.65    1.24 
  -3   4 -25  279.87   26.85 
  -3   4 -25  259.18   24.12 
  -5   4  11  167.06   15.93 
  -6  -1 -11    3.48    3.92 
  -6   1 -11    2.87    1.98 
  -6   1 -11   -0.65    2.23 
  -6  -1 -11    1.82    1.86 
  -5   2 -20  154.14   14.68 
  -5  -2 -20  130.23   12.05 
   1   5 -26    0.72    0.67 
   1   5 -26    2.23    1.90 
   0   2 -35  152.58   14.19 
   0   2 -35  162.98   15.99 
   0  -2 -35  164.82   16.16 
   1  -5 -26    1.11    1.59 
   1  -5 -26    2.44    1.00 
   1   7  -9   27.92    8.44 
   1  -7  -9   24.30    8.49 
   1   0 -36   66.51   17.73 
   1   0 -36   62.28    9.06 
  -1   7   9   19.45    7.06 
  -1  -7   9   21.49    3.50 
  -4  -4 -20   32.11   12.46 
   1   4 -30    4.44    2.50 
   1  -4 -30    2.81    1.35 
   1   4 -30    3.34    1.85 
  -4   4 -20   31.86    9.37 
  -4   4 -20   32.77   14.43 
   1  -4 -30    4.20    2.98 
  -1   6 -20   10.91    4.37 
   1  -6  20   11.85    5.08 
  -1  -6 -20   12.61    5.09 
  -1  -6 -20   10.81    5.42 
  -6  -2   8   63.94   10.26 
   6  -2  -8   74.08   15.14 
  -6   2   8   67.40    5.41 
   6   2  -8   66.97   10.28 
  -2   2 -33    3.89    3.06 
  -2  -2 -33    3.31    1.88 
  -1   7  -9   33.26    5.82 
   1  -7   9   31.44   11.71 
   1   7   9   28.00    4.46 
  -1  -7  -9   30.99   11.53 
   4   5 -14   56.68   15.73 
  -4   5  14   67.86    4.56 
   5   0 -23   -0.44    2.15 
  -5   0  23    0.93    1.31 
   4  -5 -14   65.71   10.59 
  -4  -5  14   63.67   10.13 
   5   0 -23    0.90    1.24 
   4  -5 -14   57.51    9.61 
  -3   0 -32   15.80    6.68 
  -3   0 -32   14.06    3.30 
  -6   0  13    2.06    1.63 
  -6  -1  12   13.02    4.49 
   6  -1 -12   12.77    4.97 
  -6   1  12    9.34    4.71 
   6   1 -12    9.37    5.36 
   3   1 -32  110.58   12.87 
  -4   3 -24   30.56   12.63 
  -4   3 -24   21.42    8.55 
   3  -1 -32  108.85   10.63 
   3  -1 -32  109.48   11.23 
  -3  -1  32  113.85   11.46 
  -3   1  32  116.89   11.49 
  -4  -3 -24   29.84   13.05 
   1  -5  26    9.19    3.56 
  -2   5 -24   97.72    9.58 
  -2  -5 -24   94.80   10.15 
  -2   5 -24   89.27   13.46 
  -1  -5 -26   11.25    5.44 
  -1   5 -26   10.94    6.12 
  -1   5 -26    9.43    4.08 
  -1  -5 -26   15.25    6.67 
   3   6  12   50.84    7.38 
  -3  -6 -12   52.73    8.19 
   3  -6  12   49.65   11.64 
  -3   6 -12   51.40    9.68 
   0  -6 -21  114.70   10.97 
   0   6 -21  125.14   13.66 
   0  -6 -21  129.02   12.77 
   0   6 -21  120.99   11.49 
  -1   4 -30   29.82    5.26 
  -1  -4 -30   31.92    6.41 
  -1   4 -30   32.29   11.96 
   0  -7  11   13.72    3.69 
   0   7  11   17.76    2.29 
   0  -7 -11   12.76    4.96 
  -1   0 -36   67.05    9.63 
   0   7 -11   10.89    3.09 
  -1   0 -36   75.70    8.56 
  -5   3 -17   73.83   16.06 
  -5  -3 -17   62.50    9.67 
  -5   3 -17   58.87    9.24 
  -5  -3 -17   73.56   12.74 
  -5   1 -22    9.32    4.97 
  -5  -1 -22   14.45    5.00 
  -5   1 -22   13.45    4.13 
  -5  -1 -22    9.79    6.38 
  -4  -2  27  133.57   13.21 
  -4   2  27  132.34   12.72 
   4   2 -27  132.18   14.26 
   4  -2 -27  122.20   12.11 
   4  -2 -27  129.92   12.42 
  -5   4 -11    7.04    4.86 
  -5  -4 -11    6.06    2.81 
   5  -4  11    9.60    3.93 
  -5  -4 -11    4.74    2.53 
  -6  -2  -8   21.03    4.06 
  -6   2  -8   26.05   12.61 
   5   2 -21  149.25   16.18 
  -5   2  21  164.47   15.69 
   5  -2 -21  133.14   17.33 
  -5  -2  21  152.85   14.92 
   2  -6 -18   35.70   10.88 
   1   3 -33    0.38    1.38 
   2   6 -18   28.60   13.41 
  -2   6  18   25.57    7.85 
   1  -3 -33    0.37    1.18 
   2   6 -18   25.47    6.85 
   1  -3 -33    0.63    0.81 
   1   3 -33    0.70    1.09 
  -4  -5 -14   13.18    8.13 
  -4   5 -14   11.07    1.69 
  -4   5 -14   12.72    4.35 
   3  -2 -31   45.98    7.86 
   3   2 -31   48.47   17.08 
  -3  -2  31   42.96    7.40 
  -3   2  31   41.10    6.55 
   3  -2 -31   43.74    6.91 
  -4  -1 -28   25.11   10.74 
  -4   1 -28   22.23   11.69 
  -2   7   0    3.91    1.95 
  -2  -7   0    2.82    1.76 
   2   7   0    3.14    2.09 
   2  -7   0    3.78    1.83 
  -4  -1 -28   21.89    3.53 
  -4   1 -28   20.54    3.62 
   2  -7  -1   13.17    6.07 
   6   2  -9  110.83   10.76 
  -6   2   9  119.15   24.72 
   2   7  -1   10.53    4.40 
  -2   7   1   12.65    5.10 
   6  -2  -9  106.65   14.55 
  -2  -7   1    6.91    3.82 
  -6  -2   9  104.36   11.13 
   2   7   1    1.11    0.84 
  -2   7  -1    1.93    2.35 
  -2  -7  -1    1.23    0.84 
   1   7 -10  137.11   13.28 
  -1   7  10  141.21   13.18 
   1  -7 -10  132.87   12.99 
  -5  -4  12   33.42   13.34 
   3   5 -21   11.95    5.39 
  -5   4  12   29.19    6.34 
   5  -4 -12   25.61    6.65 
  -3   5  21   10.82    6.21 
   3  -5 -21    9.20    4.17 
   3   5 -21    9.33    4.76 
   3  -5 -21   14.29    6.73 
  -2  -7   2   59.69    8.84 
  -2   7   2   68.32    8.39 
   3  -3 -29  135.85   13.88 
   3  -3 -29  162.92   15.59 
   2   7  -2   60.73    9.13 
   1  -7  10    6.67    3.03 
   2  -7  -2   61.80    9.44 
   1   7  10    4.71    1.87 
  -3   3  29  146.42   13.56 
  -1   7 -10    3.41    3.84 
  -1  -7 -10    5.65    2.29 
   3   3 -29  148.63   14.71 
   3   3 -29  149.71   14.87 
  -4  -4  21  184.39   17.91 
  -4   4  21  208.70   19.22 
   2   0 -35    0.75    0.84 
   4  -4 -21  216.43   20.20 
  -2  -7  -2   23.25    3.94 
   2   0 -35    0.83    1.09 
  -6   1 -12   34.37   14.99 
   2  -7   2   40.40    7.28 
   4   4 -21  194.93   23.23 
   4   0 -29    0.52    0.85 
   4   0 -29   -0.38    2.68 
  -4   0  29    1.26    1.04 
  -2   7  -2   24.22    9.64 
  -6  -1 -12   36.01    6.44 
  -6   1 -12   33.20    7.15 
   2   7   2   27.75    4.52 
  -6  -1 -12   34.76    5.97 
   4  -4 -21  201.05   19.10 
   0   5 -27  105.32   11.57 
   0   5 -27  106.72   10.45 
   0  -5 -27  108.50   11.07 
   0  -5 -27  110.33   10.83 
   3   6 -13    0.91    1.86 
   3  -6 -13    1.10    2.01 
   3   6 -13    1.87    1.66 
  -3   6  13    0.96    1.03 
   5  -3 -18   65.23   11.72 
   5   3 -18   77.75    8.82 
  -5   3  18   67.83    4.49 
  -5  -3  18   70.04   20.54 
  -6   0 -13   -0.17    2.09 
  -1  -3 -33   30.46   14.34 
  -1   3 -33   32.04    5.42 
  -1   3 -33   34.21    7.65 
   1  -1 -36    2.07    2.02 
   2  -6  18    3.96    2.08 
  -2   6 -18    3.39    2.11 
  -2  -6 -18    3.33    1.76 
   1   1 -36    0.40    1.66 
   1  -1 -36    0.34    1.13 
  -2  -6 -18    4.84    2.77 
  -2  -7   3   13.81    1.50 
  -2   7   3   12.45    4.44 
   2  -7  -3   11.09    7.02 
   2   7  -3   16.91    4.69 
   5   1 -23   25.86    8.59 
  -2   7  -3   81.61    8.69 
   5  -1 -23   19.91    9.90 
   2  -7   3   85.90    9.20 
   5  -1 -23   26.84    4.52 
  -5   1  23   22.29    7.80 
  -2  -7  -3   74.78    7.59 
   2   7   3   78.23    7.79 
  -5  -1  23   22.31   10.43 
   1  -2 -35  188.99   18.45 
   1   2 -35  171.09   16.59 
   1  -2 -35  206.15   19.03 
   1   2 -35  183.07   16.90 
  -3  -1 -32   36.11   10.67 
  -3   1 -32   40.71   14.18 
  -3   1 -32   35.89    5.72 
   6  -1 -13  140.91   13.51 
  -6  -1  13  105.36   10.91 
   6   1 -13  143.18   13.27 
  -6   1  13  141.51   14.03 
  -5   0 -23   -0.33    2.97 
   3  -4 -26   44.04   14.15 
   3   4 -26   40.17   11.15 
   3   4 -26   31.75    5.39 
  -5   0 -23   -0.47    3.33 
   3  -4 -26   36.79   11.81 
  -3   4  26   31.79    6.26 
   4   3 -25  160.85   15.96 
  -4  -3  25  166.43   16.55 
  -6   0  14  404.03   36.55 
   6   0 -14  390.09   35.61 
   4  -3 -25  155.69   14.78 
  -4   3  25  174.39   16.33 
   4  -3 -25  162.87   15.89 
   4  -5 -15   17.27    5.67 
   0  -7  12    4.22    3.31 
   0  -7 -12    7.79    3.50 
  -6   2  -9   12.36    6.30 
   4  -5 -15   14.79    6.50 
  -6  -2  -9    7.73    4.47 
   0   7  12    5.78    3.35 
  -4   5  15   20.11    4.48 
   4   5 -15   16.20    7.67 
  -4  -5  15   19.08    9.82 
   0   7 -12   10.21    3.14 
   3  -6  13   21.62   10.46 
  -3  -6 -13   15.25    8.23 
  -3   6 -13   20.51    6.82 
   0   4 -31    6.52    3.30 
   2  -7  -4   19.22    9.97 
  -2   7   4   21.39    7.67 
   0  -4 -31    5.07    4.03 
   0  -4 -31    6.79    3.21 
   0   4 -31    6.98    2.65 
  -2  -7   4   17.32    1.60 
   2   7  -4   17.90    5.38 
  -1   1 -36   29.88    4.91 
  -1   1 -36   41.33   18.63 
  -1  -1 -36   39.09   17.57 
   5  -4  12   19.45    9.93 
  -5  -4 -12   13.90    8.53 
   2   7   4  104.03    9.96 
  -5   4 -12   14.28    2.17 
  -2   7  -4  108.19   10.86 
   2  -7   4  114.98   11.81 
  -5   4 -12   20.50    9.89 
  -5  -4 -12   14.86    7.14 
  -2  -7  -4  110.49   11.54 
  -3   5 -21    5.51    2.86 
  -3   5 -21    4.66    2.09 
  -3  -5 -21    6.78    2.96 
   2   4 -29   42.78    8.10 
   2   4 -29   42.91   11.36 
   2  -4 -29   47.80    7.56 
   2  -4 -29   49.56    8.26 
  -1  -2 -35  134.19   13.56 
  -4  -2 -27  181.15   18.02 
  -1   2 -35  136.40   23.54 
  -1   2 -35  119.43   11.48 
  -4   2 -27  156.31   16.67 
  -4   2 -27  163.97   15.43 
   6   2 -10  108.36   10.39 
   1  -6 -21   28.49    4.59 
   1  -6 -21   28.24    5.48 
  -6   2  10  113.79   11.90 
   1   6 -21   30.48   11.85 
   6  -2 -10  105.81   11.04 
   1   6 -21   25.70    5.06 
  -6  -2  10  100.18   10.61 
  -3   2 -31   24.29   11.65 
  -3   2 -31   19.80    3.54 
  -2   0 -35    1.38    2.12 
  -3  -2 -31   18.35    9.38 
  -2   0 -35    1.49    2.15 
   1  -7 -11   17.56    7.37 
  -1   7  11   16.93    3.03 
   1   7 -11   23.01    6.67 
  -5   2 -21  146.37   18.67 
  -5  -2 -21  149.89   17.94 
  -2   7   5   18.17    9.82 
   2   7  -5   19.33    5.86 
  -2  -7   5   15.28    3.99 
   2  -7  -5   20.46    7.93 
  -4   4 -21    6.32    3.98 
  -1   7 -11   86.91   11.39 
   1   7  11   79.22    9.68 
   1  -6  21   13.19    4.07 
  -3   3 -29   15.53    9.74 
  -3  -3 -29   21.34   10.59 
  -1  -6 -21   13.94    9.52 
  -4  -4 -21    6.18    2.95 
  -1   6 -21   14.81    6.41 
   1  -7  11   81.11   10.24 
  -1  -6 -21   13.39    6.17 
  -1  -7 -11   75.19    9.88 
  -3   3 -29   17.04   10.88 
  -4   4 -21    7.08    4.03 
   2   5 -25   64.20    8.69 
   2  -5 -25   68.67    9.14 
   2  -5 -25   61.22   10.47 
   2   5 -25   59.02   19.04 
  -2  -7  -5   21.75    3.70 
  -2   7  -5   24.04   12.09 
   2  -7   5   24.69   11.25 
   2   7   5   22.29    3.79 
   5  -4 -13   11.29    6.81 
   2  -3 -32  171.91   22.01 
   2   3 -32  147.73   18.14 
   2   3 -32  183.23   24.61 
   2  -3 -32  176.38   21.80 
  -5  -4  13   14.95    7.54 
   5  -4 -13   17.24    5.98 
   5   4 -13   13.20    5.33 
  -5   4  13   15.94    7.09 
   0   0 -37    1.97    3.97 
  -5  -3 -18   26.22   14.03 
  -3   0  33    1.89    1.94 
  -5   3 -18   22.97    8.77 
   3   0 -33    0.31    0.66 
   3   0 -33    0.54    1.90 
  -5  -3 -18   19.48    3.45 
  -4   5 -15    4.40    2.99 
   4  -5  15    4.43    2.43 
  -4   5 -15    4.73    2.38 
   2  -1 -35   39.38    6.86 
   2   1 -35   46.97   11.72 
   2   1 -35   41.48    6.53 
   2  -1 -35   49.72    7.68 
   2  -1 -35   51.36    8.43 
   4  -1 -29   13.15    6.29 
   4  -1 -29   16.43    7.03 
   4   1 -29   14.21    4.18 
  -4   1  29   14.41    9.15 
  -4  -1  29   15.38    5.14 
  -6  -1 -13    3.20    2.20 
  -6   1 -13    2.84    1.41 
  -6   1 -13    1.51    1.12 
  -5   0  24    7.08    5.34 
   5   0 -24    4.70    2.85 
   3   6 -14   40.95   11.94 
   3   6 -14   36.50    6.29 
  -2   4 -29   15.39    6.78 
  -2   4 -29   15.35    7.53 
  -3  -4 -26   17.09    6.76 
  -3   4 -26   15.22    9.15 
   5   0 -24    6.87    4.34 
  -3   4 -26   16.27    7.31 
   3  -6 -14   30.87    6.43 
  -2  -4 -29   18.00    6.38 
  -3   6  14   41.11    6.71 
   0  -6 -22   92.90   12.34 
   0   6 -22   86.12   13.09 
   0   6 -22   81.18   10.13 
   0  -6 -22   91.47   11.45 
  -4   0 -29   -0.67    1.48 
  -4   0 -29    1.80    2.53 
  -6   2 -10   36.30   16.56 
  -6  -2 -10   32.57    5.53 
  -6  -2 -10   53.14    9.88 
  -6   0 -14  140.95   17.39 
  -6   0 -14  146.38   23.34 
   2  -7  -6   26.63   10.65 
   1  -5 -27   56.24   14.71 
  -2   6  19   88.02   10.79 
   2   6 -19   86.23   11.30 
   2  -6 -19   83.59   11.05 
   1  -5 -27   59.69    8.21 
   1   5 -27   58.03   15.00 
   2   7  -6   25.06    7.15 
   2   6 -19   78.03   11.35 
   1   5 -27   58.93   15.08 
  -2   7   6   31.88    5.67 
   2   2 -34   22.44    4.13 
  -2   2  34   23.61    6.05 
   2   2 -34   20.23   13.06 
   2  -2 -34   26.70    8.29 
   2  -2 -34   29.02   10.44 
   0   3 -34  129.89   25.59 
   0  -3 -34  124.46   15.67 
   0  -3 -34   77.43   10.06 
   0   3 -34  120.50   14.99 
  -5  -1 -23   53.86   19.90 
   2  -7   6   26.89   12.87 
  -5   1 -23   46.96   10.30 
  -4   3 -25   -0.15    2.62 
  -2   5 -25  145.16   17.76 
  -2  -7  -6   19.66    3.86 
  -5   1 -23   58.07   14.86 
  -4  -3 -25   -0.81    3.01 
  -2  -5 -25  143.45   17.83 
  -5  -1 -23   59.36    7.65 
  -2   5 -25  133.86   16.69 
  -4   3 -25    0.44    1.96 
   2   7   6   20.89    4.23 
  -2   7  -6   25.11    8.21 
  -6  -1  14   70.51   10.57 
   6  -1 -14   65.25    9.12 
   6   1 -14   69.63   10.11 
  -6   1  14   69.54    9.68 
   6   1 -14   65.45    8.28 
   6  -1 -14   72.51   10.33 
   6   2 -11  121.07   15.80 
   0  -7  13    0.77    0.86 
   6  -2 -11  105.99   13.85 
  -6  -2  11  107.20   15.33 
   0  -7 -13    0.88    1.51 
  -6   2  11  103.93   13.47 
   0   7  13    0.60    0.45 
   0   7 -13    0.32    1.82 
  -5  -2  22   40.81   15.20 
  -5   2  22   50.16    9.16 
   5  -2 -22   43.33    7.18 
   5   2 -22   44.23    7.59 
  -1   5 -27  116.36   15.15 
  -1   5 -27  112.49   14.20 
  -1  -5 -27  121.76   15.25 
  -1  -5 -27  113.87   14.44 
   3  -6  14   21.53    8.68 
  -3   6 -14   21.29    6.61 
  -3  -6 -14   15.63    9.59 
  -6   0  15   -0.09    2.61 
   5  -3 -19   41.11    9.08 
  -2   3 -32   11.69    5.09 
   5  -3 -19   42.84    7.39 
  -5   3  19   42.59    7.00 
  -2   3 -32    9.85    3.01 
   5   3 -19   42.17    8.78 
  -2  -3 -32   11.38    6.17 
  -5  -3  19   37.64   15.29 
  -5   4 -13    3.65    1.96 
  -5  -4 -13    2.89    1.84 
   1  -4 -31  105.40   16.42 
   1   4 -31  103.90   13.35 
   1  -4 -31  100.74   12.93 
   1   4 -31   96.74   12.38 
  -2  -6 -19    2.32    1.23 
  -2  -6 -19    1.68    1.54 
   2  -6  19    3.00    1.79 
  -2   6 -19    3.02    2.12 
   4  -5 -16   13.25    4.84 
   3  -5 -22   76.30    9.68 
   4  -5 -16   10.08    4.10 
  -3   5  22   82.08   10.21 
   4   5 -16    8.42    6.93 
   3   5 -22   82.79   10.82 
   3   5 -22   74.32    9.73 
  -4  -5  16   11.59    4.92 
  -4   5  16   11.72    4.98 
   3  -5 -22   74.94   10.13 
   1   7 -12   97.76   24.14 
  -1   7  12   80.97   10.02 
   1  -7 -12   83.15   10.91 
  -2   1 -35    4.13    2.55 
  -2  -1 -35    4.73    2.79 
  -2   1 -35    4.54    1.89 
   4   4 -22   18.49    5.53 
   2  -7  -7   12.84    5.47 
   2   7  -7   10.71    3.84 
   4  -4 -22   21.61   13.06 
  -4   4  22   21.91    5.38 
  -4  -4  22   25.30   10.31 
   4  -4 -22   18.22    9.87 
  -2   7   7   15.06    5.66 
   4   2 -28   27.20    9.83 
  -4  -2  28   27.78    7.30 
   4  -2 -28   20.51    7.90 
  -4   2  28   20.37    7.06 
  -1   7 -12   10.30    4.97 
   1  -7  12    8.98    4.68 
  -1  -7 -12   12.44    4.69 
  -6   3   0  142.93   18.12 
  -6  -3   0  141.33   17.50 
  -6  -3   1    6.93    3.01 
  -6   3   1    6.73    2.63 
   2   7   7   30.41    9.03 
   2  -7   7   26.11    5.14 
  -2  -7  -7   28.77    9.21 
  -2   7  -7   32.72    9.59 
  -2   2 -34    1.86    2.18 
  -2  -2 -34   -0.26    2.49 
  -1   4 -31  131.16   16.48 
  -1  -4 -31  131.04   16.55 
  -1   4 -31  134.31   16.82 
  -2   2 -34    1.07    1.19 
  -3   0 -33   -2.51    3.20 
  -3   0 -33   -0.22    1.06 
  -6  -3  -1   32.41   12.28 
   0  -1 -37  576.09  142.10 
   6  -3   1   34.24   20.54 
   0   1 -37  633.21  155.83 
  -6   3  -1   29.99   14.03 
  -3   1  33   17.47    4.23 
  -6  -3   2   85.39   11.21 
   3   1 -33   19.03    8.88 
   6  -3  -2   87.41   17.33 
   3  -1 -33   17.89    5.20 
  -3  -1  33   23.35    9.37 
   3  -1 -33   21.97    7.96 
  -6   3   2   90.63   11.95 
   0   2 -36    8.09    2.84 
   0  -2 -36   11.09    4.73 
   0   2 -36    6.82    3.30 
  -5  -4  14   75.83   10.26 
   5   4 -14   88.48   16.88 
   5  -4 -14   72.15   10.18 
  -5   4  14   95.17   12.58 
   1   0 -37    0.28    1.40 
  -6   2 -11  145.05   18.25 
  -6  -2 -11  144.85   18.54 
   1   0 -37    0.69    0.68 
  -6  -2 -11  143.52   17.51 
  -6   3  -2  291.48   35.19 
  -6  -3  -2  301.32   36.51 
   5   1 -24    1.72    1.34 
  -5  -1  24    1.95    1.32 
  -5   1  24    1.71    1.67 
   5  -1 -24   -0.18    2.21 
   5  -1 -24    1.31    0.94 
  -6   3   3    4.40    2.06 
  -6  -3   3    3.16    2.42 
   6  -3  -3    5.42    3.96 
  -4  -1 -29  117.57   15.35 
  -4   1 -29   98.06   14.90 
  -4   1 -29  117.16   15.20 
  -6   1 -14    4.85    5.24 
  -6   1 -14    3.78    2.61 
  -6  -1 -14    7.18    4.90 
  -4   5 -16    2.00    1.06 
   4  -5  16    1.58    3.16 
  -4   5 -16    1.55    2.56 
   0   5 -28   27.50    7.58 
  -3   5 -22   15.16    9.43 
   3   6 -15   62.05   16.42 
   3  -6 -15   65.62    9.15 
   0  -5 -28   20.95    7.23 
  -5   0 -24   51.83    9.27 
  -5   0 -24   57.03   20.89 
   0  -5 -28   32.01   13.23 
  -3   5 -22   15.67    7.36 
   0   5 -28   27.34   11.61 
  -3  -5 -22   19.97   11.49 
   3   6 -15   56.57   14.88 
  -6  -3  -3   93.03   12.86 
  -6   3  -3   90.95   25.22 
   6  -3   3   98.62   13.48 
   2  -7  -8   96.67   12.46 
   3   2 -32    8.98    4.29 
  -3   2  32    4.56    3.75 
   2   7  -8  100.13   12.74 
  -6   2  12   24.07    8.60 
  -3  -2  32    6.16    3.42 
   3  -2 -32    5.87    2.56 
  -6  -2  12   20.40   10.96 
  -2   7   8   94.16   11.83 
   3  -2 -32   10.16    4.64 
   1   6 -22   68.05    8.88 
   1  -6 -22   75.35   10.07 
  -3   3  30    2.54    2.09 
   3  -3 -30    3.25    1.98 
   3   3 -30    3.42    1.77 
   1  -6 -22   69.90    9.09 
   3   3 -30    4.19    1.80 
   3  -3 -30    3.38    3.38 
   1   6 -22   81.51   10.55 
  -6   0 -15    1.64    1.73 
  -6   0 -15    0.55    1.18 
   6  -3  -4  133.22   20.21 
  -6   3   4  139.14   17.36 
  -6  -3   4  138.96   17.56 
   4   0 -30   42.06    6.35 
  -4   0  30   42.25    7.03 
   4   0 -30   50.04   15.10 
  -4   3  26  120.89   14.93 
  -1   0 -37    4.93    5.69 
   4   3 -26  110.44   14.41 
   4  -3 -26  112.05   14.29 
   4  -3 -26  100.04   12.82 
  -4  -3  26  122.18   16.16 
  -5  -3 -19   27.04    4.51 
   1  -3 -34  258.54   30.86 
   1  -3 -34  245.00   29.61 
   1   3 -34  266.20   32.77 
   1   3 -34  277.35   33.39 
  -3   4  27   24.45    3.97 
   3   4 -27   32.36    8.83 
   3  -4 -27   30.29    5.68 
   3   4 -27   27.42    9.10 
  -5   3 -19   29.76   12.38 
   3  -4 -27   28.23    5.06 
  -5  -3 -19   37.00   15.79 
   6  -1 -15   30.76    7.51 
  -6  -1  15   31.27   11.30 
   2  -7   8  254.94   30.65 
   0  -7 -14  251.72   30.41 
  -2   7  -8  269.69   32.82 
   2   7   8  252.83   29.76 
   0  -7  14  232.86   28.18 
  -2  -7  -8  258.71   31.23 
   6   1 -15   26.49    4.35 
   0   7 -14  268.10   32.88 
  -6   1  15   32.65    9.99 
  -5   2 -22   50.13    7.93 
  -5  -2 -22   44.43    6.74 
  -1  -6 -22   41.99   11.25 
   1  -6  22   35.64    5.80 
  -1   6 -22   37.73    6.35 
  -1  -6 -22   39.08    6.55 
  -4   4 -22   15.39    7.44 
  -4  -4 -22   19.08    8.01 
  -4   4 -22   16.08   10.82 
   4   6   0   58.67   37.71 
  -4   6   0   62.39    9.16 
  -4   6   1  163.65   20.15 
   4   6  -1  142.25   18.36 
   6  -3   4    8.91    4.79 
  -6  -3  -4    6.39    2.86 
  -6   3  -4    7.45    3.19 
   4   6   1  271.45   32.13 
  -4   6  -1  294.69   35.94 
  -1   7  13   80.57   10.57 
   1   7 -13   82.29   10.51 
   1  -7 -13   78.30   10.98 
  -5  -4 -14  113.84   13.89 
  -5   4 -14  123.56   15.52 
  -5   4 -14  123.52   15.68 
   4  -6  -2   35.88   16.64 
  -6   3   5   29.62   13.78 
  -6  -3   5   25.66   11.05 
   4   6  -2   26.05   13.75 
   3  -6  15    4.05    2.40 
  -3  -6 -15    5.58    2.47 
  -3   6 -15    6.04    2.08 
  -4   6   2   30.33    5.50 
   6  -3  -5   28.46    5.37 
   6   0 -16    1.59    1.42 
   6   0 -16    1.29    1.29 
  -6   0  16    3.42    3.58 
   4  -6   2    2.38    2.54 
  -1  -3 -34   21.51    7.89 
  -1   7 -13   32.62   10.89 
  -1   3 -34   19.63    9.86 
  -4   6  -2    2.13    2.26 
  -1   3 -34   17.20   11.97 
   1  -7  13   26.01   12.07 
   4   6   2    1.35    0.85 
  -1  -7 -13   29.42    5.36 
   2   6 -20  149.14   18.50 
   2  -6 -20  122.72   15.69 
   2   6 -20  115.92   14.47 
  -4   2 -28    1.07    1.63 
  -4  -2 -28    1.46    3.13 
  -4   2 -28   -1.19    3.29 
  -4   6   3   27.92    5.25 
   4  -6  -3   22.49   11.95 
   2   0 -36   11.48    4.99 
   2   0 -36   11.97    6.17 
   4   6  -3   22.48    4.14 
  -3  -1 -33   29.16    5.50 
  -3   1 -33   30.07    4.99 
   2  -5 -26    1.66    1.04 
  -3   1 -33   41.24   14.78 
   2   5 -26    1.53    1.35 
   2  -5 -26    1.00    1.36 
   2   5 -26    0.62    1.31 
   2  -4 -30    8.33    2.97 
   2   4 -30    5.88    5.04 
   2   4 -30    7.72    4.31 
   4  -5 -17   87.65   11.72 
   4  -5 -17   76.49    9.68 
  -4   5  17   83.83   10.67 
  -4  -5  17   83.55   11.66 
   4   5 -17   83.04   11.18 
   2  -4 -30    4.38    4.25 
   0   6 -23   78.73    9.97 
   0  -6 -23   85.17   11.28 
   0  -6 -23   80.47   10.24 
   0   6 -23   83.08   12.56 
   0  -4 -32  135.59   17.18 
   0   4 -32  147.70   18.16 
   0  -4 -32  147.81   18.46 
   0   4 -32  141.39   19.46 
  -6   3  -5    5.40    3.01 
  -6  -3  -5    2.52    2.03 
   4   6   3   52.03    9.11 
  -2   7   9   30.00    5.01 
   4  -6   3   59.00   15.33 
   2   7  -9   29.24    5.60 
  -4   6  -3   66.60    9.09 
   6  -3   5    7.38    4.90 
   2  -7  -9   32.64   14.58 
  -6  -2 -12   21.10   14.04 
  -6   2 -12   27.33   12.75 
  -6  -2 -12   23.98    4.76 
   5   0 -25    1.26    1.75 
   5   0 -25    0.64    0.85 
   1  -1 -37  106.70   13.99 
   1   1 -37   98.89   13.28 
  -5   0  25    0.62    1.89 
   1   1 -37   95.58   11.79 
   5  -3 -20  165.54   21.60 
  -5   3  20  194.44   23.65 
   5  -3 -20  186.26   22.74 
  -5  -3  20  207.00   25.37 
   1  -2 -36    8.66    3.83 
  -6  -3   6   19.70   10.70 
   6  -3  -6   22.34    8.17 
   1   2 -36   10.71    4.33 
   6  -3  -6   12.62   10.97 
  -6   3   6   25.05   10.88 
   1   2 -36    8.28    4.97 
   1  -2 -36   12.29    5.75 
  -4   6   4    8.04    3.21 
  -5  -4  15  100.75   13.18 
   4  -6  -4    7.63    4.26 
   4   6  -4    3.90    3.52 
  -5   4  15   99.40   12.71 
  -2  -6 -20    4.30    1.97 
  -2  -7  -9   35.25   17.73 
   2  -6  20    3.04    2.55 
   2  -7   9   44.35   16.02 
   2   7   9   45.64    6.85 
  -2   6 -20    2.98    1.46 
  -2  -6 -20    3.09    1.12 
  -2   7  -9   46.95    7.93 
  -3   3 -30  183.24   22.35 
  -3  -3 -30  187.01   23.36 
  -3   3 -30  180.69   22.24 
   5   2 -23    4.90    3.20 
   5  -2 -23    4.90    4.79 
   5  -2 -23    7.49    4.22 
  -5   2  23    4.90    3.16 
  -5  -2  23    5.92    3.28 
  -3  -2 -32   73.11   10.87 
  -3  -4 -27    9.74    4.60 
  -3   4 -27    8.47    3.25 
  -3   2 -32   86.03   11.58 
  -5  -1 -24   17.10    7.62 
  -5  -1 -24   17.80    3.45 
  -5   1 -24   17.67    8.52 
  -3   2 -32   67.66    8.72 
  -5   1 -24   14.45    9.23 
  -3   4 -27    7.42    3.88 
   6  -2 -13   75.41   11.47 
  -6  -2  13   87.04   11.70 
   6   2 -13   78.67   11.54 
  -6   2  13   85.19   11.53 
   4   6   4  391.42   96.60 
  -4   6  -4  382.87   45.68 
   4  -1 -30    9.89    5.73 
  -6   1 -15   53.86    8.61 
  -6  -1 -15   54.60   13.94 
   4  -1 -30   10.34    4.84 
  -4   1  30    7.55    4.94 
   4   1 -30   11.63    6.02 
  -4  -1  30   10.42    3.75 
  -5   5   0   11.56    4.21 
  -2   5 -26    7.91    4.63 
  -1   1 -37   39.32    6.73 
  -4   3 -26   56.38   14.57 
  -5  -5   1  199.42   24.69 
   5  -5   0   14.68    5.90 
  -5   5   1  230.87   27.88 
  -4  -3 -26   60.82    8.98 
  -5  -5   0    9.93    6.49 
  -2  -5 -26    9.66    5.40 
  -2   5 -26    5.92    4.12 
  -1  -1 -37   42.25   10.69 
  -4   3 -26   68.05    9.09 
  -1   1 -37   50.37   14.46 
   3  -5 -23   10.80    4.86 
   3   5 -23   12.02    3.97 
   3   5 -23    9.59    3.65 
   3  -5 -23    7.90    5.32 
  -3   5  23    7.45    4.51 
   5  -5   1    6.45    4.02 
   1  -5 -28    7.35    3.30 
   1   5 -28    4.12    1.93 
  -5   5  -1    5.61    4.56 
  -1   2 -36   10.22    5.20 
  -1  -2 -36    5.84    3.59 
  -5  -5  -1    5.15    3.52 
   1  -5 -28    7.60    4.23 
  -1   2 -36    9.77    3.55 
   1   5 -28   10.44    4.83 
  -4   6   5   64.55    8.68 
   4  -6  -5   65.30    8.93 
  -6  -3  -6  169.82   20.73 
   6  -3   6  162.10   23.31 
  -6   3  -6  159.87   19.82 
   4   6  -5   68.03    8.86 
   5  -5  -2   28.65   14.46 
  -2   4 -30   76.83    9.91 
  -5   5   2   33.30   11.61 
  -5  -5   2   12.96    6.62 
   3  -6 -16   10.98    5.36 
  -3   6  16   12.34    7.30 
   3   6 -16   14.13    4.58 
   3   6 -16   11.86    3.81 
  -2  -4 -30   83.51   12.71 
  -2   4 -30   86.42   13.17 
   2   3 -33   16.95   10.48 
   2  -3 -33   20.45   10.06 
   4  -4 -23   40.97   15.67 
   2   3 -33   17.27    7.48 
   4   4 -23   41.18   11.18 
   2  -3 -33   20.87    8.10 
   4  -4 -23   39.48    6.53 
  -4   4  23   40.72   13.33 
  -4  -4  23   45.54   18.20 
  -4   0 -30  186.25   22.21 
  -4   0 -30  165.99   20.82 
  -2   0 -36  205.42   25.37 
  -4   5 -17   45.72    7.36 
  -5  -5  -2   27.30    5.10 
  -4  -5 -17   43.33    7.59 
   4  -5  17   47.20   13.99 
  -4   5 -17   42.34    9.26 
  -5   5  -2   30.67   10.53 
   5  -5   2   24.08   15.02 
  -6  -3   7   42.28    7.72 
   6  -3  -7   46.88   15.22 
  -3   0  34    7.84    6.78 
  -6   3   7   49.11   14.64 
   3   0 -34    7.07    4.50 
   3   0 -34   11.03    4.94 
  -6   0 -16   12.09    6.58 
  -6   0 -16   11.02    7.13 
  -4   6  -5   10.28    4.39 
   0   7 -15   12.55    9.00 
   4  -6   5    7.83    4.91 
   4   6   5    3.93    3.99 
   0  -7  15   10.06    5.05 
   0  -7 -15   15.43    9.62 
  -5   5   3  104.84   13.43 
  -5  -5   3   93.62   13.26 
   5  -5  -3   94.63   12.47 
  -1  -5 -28   54.92   14.30 
  -1   5 -28   48.65    7.89 
  -1   5 -28   52.08    8.45 
  -6   1  16   60.55    8.72 
  -6  -1  16   53.16   10.88 
   6  -1 -16   48.54    8.31 
   6  -1 -16   54.94   14.11 
  -1  -5 -28   55.67   14.96 
   6   1 -16   50.17    7.51 
  -1   7  14  133.28   16.06 
   1   7 -14  140.53   18.32 
   1  -7 -14  127.84   16.51 
  -2   7  10   52.99    8.16 
   2  -7 -10   62.55    8.85 
   2   7 -10   78.74   15.17 
  -5   5  -3  116.74   14.96 
  -5  -5  -3  102.27   14.83 
   2  -1 -36   57.56   15.14 
   1  -7  14  191.35   23.47 
  -1  -7 -14  188.60   23.35 
  -5   4 -15   27.81   14.89 
   2   1 -36   54.16    9.08 
  -5   4 -15   26.73   10.11 
  -1   7 -14  200.63   24.53 
   2   1 -36   55.98   14.83 
   2  -1 -36   49.32    7.81 
   2  -1 -36   55.22   14.06 
  -5  -4 -15   30.93   13.49 
  -5  -4 -15   22.43    5.38 
  -4   6   6    1.92    1.32 
   4  -6  -6    1.77    7.75 
   4   6  -6    2.11    1.73 
   5  -5  -4    8.93    3.46 
  -5  -5   4    5.91    3.32 
  -5   5   4   10.07    3.99 
  -2   7 -10  125.51   15.69 
  -3   6 -16   20.10   10.67 
   2  -7  10  125.49   15.93 
  -3  -6 -16   18.43   10.58 
  -2  -7 -10  131.52   16.25 
   3  -6  16   16.38    7.27 
   0   0 -38  154.04   23.78 
   0   0 -38  151.07   17.97 
   2  -2 -35   16.09    7.51 
   4  -2 -29   62.10    8.32 
   2   2 -35   11.82    8.75 
   4   2 -29   60.47    9.21 
   2   2 -35   17.12   10.01 
   4  -2 -29   64.48   18.41 
  -4   2  29   62.70    8.45 
   2  -2 -35   15.01    9.96 
  -4  -2  29   62.55   13.72 
  -6   3  -7    1.88    2.30 
   6   0 -17    1.78    1.95 
   6   0 -17    1.25    1.16 
   6  -3   7    1.46    2.20 
  -6  -3  -7    0.62    1.11 
  -6   0  17    1.08    1.84 
  -5  -3 -20   77.81   11.10 
   5  -1 -25   39.76   11.07 
  -5  -1  25   48.84   15.13 
  -5   3 -20   80.69   10.76 
  -6  -2 -13   21.85   10.47 
  -5   3 -20   96.42   12.87 
  -6   2 -13   13.18   10.60 
  -6   2 -13   24.06    9.14 
   5   1 -25   41.20    7.15 
  -5   1  25   48.11    8.05 
   0   3 -35   26.32    7.72 
   0   3 -35   26.98    9.49 
   0  -3 -35   24.57   10.40 
  -3   5 -23  169.99   15.44 
  -3  -5 -23  175.68   20.51 
  -3   5 -23  192.04   23.65 
   1  -4 -32   25.82    7.24 
   1  -4 -32   21.67   11.29 
   1   4 -32   21.06    9.08 
   5  -5   4   27.81   23.20 
  -5   5  -4   31.40   12.92 
   1   4 -32   22.53   10.43 
  -5  -5  -4   26.65    6.94 
   1   6 -23   10.26    4.26 
   1   6 -23   11.86    4.27 
   4  -6   6   87.11   10.14 
   4   6   6   91.35    8.63 
   1  -6 -23    9.21    3.73 
   1  -6 -23    9.51    4.10 
  -4   6  -6   85.70    9.07 
   6  -3  -8   10.59    4.15 
  -2   3 -33   44.03    6.63 
  -6   3   8    7.78    2.86 
  -2  -3 -33   48.03    6.99 
  -6  -3   8    5.47    3.15 
  -2   3 -33   42.24    6.16 
  -5   0 -25   -0.38    2.03 
  -5  -5   5   42.05    5.90 
  -5   5   5   53.46    7.20 
  -5   0 -25    1.44    2.88 
   4  -5 -18    1.28    0.86 
  -4  -5  18    1.66    2.22 
  -4   5  18    1.83    1.95 
   4  -5 -18    3.19    1.92 
   4   5 -18    3.86    3.73 
   5  -4 -16    1.39    1.25 
  -6  -2  14   69.08   21.80 
  -5  -2 -23   46.27    5.29 
   6   2 -14   69.31    9.12 
  -5   2 -23   55.17   19.37 
   6  -2 -14   72.17   13.06 
   5  -4 -16    1.31    1.25 
   6  -2 -14   69.41    8.44 
  -5  -4  16    0.50    1.65 
  -5   4  16    2.41    3.01 
  -5  -2 -23   53.74   12.98 
  -6   2  14   68.26   16.63 
  -5   2 -23   49.39    6.10 
  -1   6 -23   33.37   15.94 
   1  -6  23   28.76    2.55 
  -1  -6 -23   30.01    9.89 
  -1  -6 -23   28.76    7.78 
  -4   4 -23   12.93    6.11 
  -4   4 -23   15.12    6.68 
  -4  -4 -23   16.88   10.99 
   4   6  -7   35.58    7.73 
  -4   6   7   26.33   11.13 
   4  -6  -7   32.38    9.58 
   2   6 -21   40.97    5.13 
  -1   4 -32   24.87    3.29 
   2  -6 -21   47.56   14.02 
  -1   4 -32   18.49    8.81 
   2   6 -21   46.66   15.62 
  -1  -4 -32   22.54   10.96 
   4  -3 -27    7.75    3.16 
  -4   3  27    5.00    2.29 
   4  -3 -27    6.29    5.52 
  -5   5  -5    5.62    3.72 
   4   3 -27    5.02    5.44 
  -4  -3  27    4.73    2.44 
  -5  -5  -5    2.26    2.45 
  -4   1 -30   12.23    6.50 
  -4   1 -30   13.82    2.80 
  -4  -1 -30   17.01    8.19 
   0   5 -29   13.61    4.73 
   0  -5 -29    9.95    5.72 
   0  -5 -29    9.83    4.53 
  -2   1 -36   34.04   12.85 
  -2   1 -36   35.56    4.28 
   0   5 -29   12.27    6.13 
  -2  -1 -36   41.49   16.75 
  -2   7  11    0.90    1.34 
   2  -7 -11    0.43    1.22 
   2   7 -11   -0.73    4.95 
   3  -1 -34   13.30    7.57 
   3  -1 -34   13.66    7.70 
  -3   0 -34  332.71   32.71 
  -3   1  34   12.07    7.58 
   3   1 -34   18.22    7.85 
  -3  -1  34   12.08   10.99 
  -6   1 -16   73.20   16.94 
  -6  -1 -16   65.13    7.64 
  -6   1 -16   62.93    7.55 
   3  -4 -28    7.81    5.36 
   6  -3   8    4.42    3.29 
  -6  -3  -8    4.51    2.65 
   3   4 -28    8.11    4.32 
  -6   3  -8    4.66    3.65 
  -3   4  28    4.88    4.00 
   3  -4 -28    7.74    3.21 
   3   4 -28    9.35    4.55 
   4  -6   7   52.66    8.49 
  -5   5   6   47.47   12.43 
  -2   2 -35   76.60    8.51 
   4   6   7   48.45    5.56 
   5  -5  -6   40.51   11.73 
  -5  -5   6   44.12    6.10 
  -2  -2 -35   83.12    9.59 
  -4   6  -7   49.93   11.61 
  -2   2 -35   67.30    7.38 
   5  -3 -21   25.32   13.47 
  -5   3  21   34.89   13.37 
   5  -3 -21   28.85    3.39 
  -5  -3  21   31.60    9.96 
   3  -3 -31   24.58    7.66 
   3   3 -31   20.50   12.35 
   3  -3 -31   17.17   11.21 
   3   3 -31   22.91    8.14 
  -3   3  31   17.53    3.66 
   3  -6 -17  142.10   16.62 
   3   6 -17  145.71   13.50 
   2  -7  11   13.63    6.51 
  -2   7 -11   18.44    5.68 
  -2  -7 -11   13.29    6.98 
   3   6 -17  160.80   15.29 
  -3   6  17  149.54   13.51 
  -2  -6 -21   20.02   10.23 
  -2  -6 -21   26.59    3.01 
   4   0 -31    1.10    2.33 
   4   0 -31    1.11    0.75 
   2  -6  21   24.52   10.45 
  -6   3   9  139.25   13.66 
  -2   6 -21   30.83   11.19 
  -4   0  31    1.04    1.22 
  -6  -3   9  122.21   12.12 
   0  -6 -24   29.50   12.28 
   0   6 -24   25.12    8.19 
   0   6 -24   23.68    2.30 
   0  -6 -24   27.52    2.91 
   1  -7 -15   10.14    7.03 
   1   7 -15   15.97    4.32 
   0  -7 -16   16.11   10.34 
   0   2 -37  145.51   13.30 
   0   7 -16   16.59    8.82 
   0  -2 -37  156.67   15.20 
   0   2 -37  144.71   14.35 
  -3   2  33  206.47   18.38 
   3   2 -33  199.03   18.02 
   3  -2 -33  204.93   18.64 
   3   2 -33  194.01   18.08 
   3  -2 -33  193.66   17.96 
   0   1 -38   15.26    5.64 
   0  -1 -38   19.65    6.67 
   0   1 -38   23.39    8.98 
  -5  -5  -6   53.79    8.81 
  -5   5  -6   63.93    7.94 
   4  -6  -8    7.94    5.16 
   4   6  -8    3.58    2.14 
  -6   0 -17    0.34    1.15 
  -4   6   8    4.13    2.73 
   6  -1 -17   15.79    8.10 
  -1  -7 -15    9.91    3.29 
  -4   5 -18   42.12   11.94 
   2  -5 -27   24.21   11.31 
  -6  -1  17   17.20    9.07 
   4  -5  18   53.47   15.64 
  -6   1  17   18.05    8.49 
  -4   5 -18   42.89    5.96 
   6  -1 -17   19.21    8.80 
  -4  -5 -18   50.28    7.10 
   2   5 -27   21.74    4.21 
   6   1 -17   15.32    7.09 
   2   5 -27   26.02   12.88 
  -1   7 -15    9.17    3.80 
   2  -5 -27   24.75    9.78 
   1  -7  15    5.83    5.02 
   1   0 -38    4.17    2.85 
   5   0 -26    5.95    5.06 
  -5   0  26    3.73    2.43 
   5   0 -26    3.87    2.95 
   1   0 -38    4.04    2.25 
   5  -2 -24    2.72    2.19 
   5   2 -24    4.29    2.37 
  -5  -2  24    4.65    2.98 
   5  -2 -24    4.12    1.94 
  -5   2  24    5.90    2.59 
  -4  -2 -29    1.70    2.67 
  -4   2 -29    1.92    1.66 
  -5  -4 -16   14.71    1.65 
  -5   4 -16   18.03   10.01 
  -4   2 -29    1.91    2.56 
  -5   4 -16   11.24    5.05 
  -6   2 -14    2.34    2.35 
  -6  -2 -14    1.61    1.57 
  -5   5   7   44.88    6.38 
  -5  -5   7   42.40    5.73 
   1   3 -35    4.09    2.03 
   1  -3 -35    8.79    4.51 
   1   3 -35    6.78    4.04 
   1  -3 -35    4.64    3.05 
  -5  -1 -25   52.46    5.95 
  -5  -1 -25   61.46    8.24 
  -5   1 -25   50.79    6.29 
  -5   1 -25   49.17    6.69 
   3  -6  17    1.33    1.84 
  -3   6 -17    2.05    1.72 
  -4   6  -8   48.64    8.64 
   4   6   8   37.85    4.36 
  -3  -6 -17    2.09    2.00 
   3   5 -24   54.67    7.23 
   3  -5 -24   57.18    7.03 
  -3   5  24   57.00    6.24 
   3  -5 -24   52.57    7.50 
   3   5 -24   54.98    7.39 
  -6   3  -9   29.54   15.13 
   2   4 -31   17.90   13.46 
   2  -4 -31   22.10   11.40 
  -6  -3  -9   32.46    4.56 
   2  -4 -31   26.01   10.53 
   2   4 -31   18.60    9.85 
   6   0 -18   75.01    8.45 
   4  -4 -24   94.48    9.47 
   6   0 -18   67.84    7.41 
   4   4 -24   92.77   11.07 
  -6   0  18   85.77    9.08 
  -4   4  24   94.12    9.44 
   4  -4 -24   91.05    9.33 
  -4  -4  24   96.43   10.15 
  -1   0 -38  490.01   42.74 
  -3   4 -28  124.91   12.72 
  -3  -4 -28  132.50   13.12 
  -3   4 -28  138.82   13.16 
   6  -2 -15  117.84   11.49 
  -6  -2  15  106.85   10.79 
  -6   2  15  113.96   11.39 
   2   7 -12  206.57   18.79 
  -2   7  12  205.42   20.21 
   2  -7 -12  203.99   18.82 
  -2   5 -27   37.68   11.80 
  -5   5  -7   15.41    6.35 
  -5  -5  -7   14.93    8.13 
  -2   5 -27   43.45   12.88 
  -2  -5 -27   35.70    5.40 
  -1  -3 -35   84.09    8.89 
  -1   3 -35   80.46    8.92 
  -1   3 -35   71.35    8.75 
  -4   3 -27    2.20    1.96 
  -4   3 -27    1.93    2.19 
  -4  -3 -27    4.57    3.02 
   0  -4 -33   24.98   13.77 
   0   4 -33   28.36    9.68 
   0  -4 -33   29.27   13.89 
  -6   3  10   77.01    8.54 
  -6  -3  10   65.91    8.28 
   0   4 -33   30.13   11.38 
   6  -3 -10   76.39   16.37 
  -3  -1 -34    5.21    3.94 
  -3   1 -34    6.79    3.88 
  -3   1 -34    6.99    3.57 
  -5   4  17    0.86    0.96 
  -5  -4  17    2.50    1.80 
   4  -6  -9    6.40    3.66 
   5  -4 -17    0.81    1.54 
   5  -4 -17    0.77    1.22 
   5   4 -17    1.55    2.06 
   4   6  -9    5.30    2.43 
  -4   6   9    5.56    4.43 
  -3  -3 -31    5.71    2.84 
  -3   3 -31    4.25    3.42 
  -3   3 -31    5.38    3.15 
  -5   3 -21   41.18    5.44 
  -5  -3 -21   40.13   12.70 
  -5   3 -21   37.17    9.99 
   1  -5 -29   -0.20    1.49 
   2  -7  12   27.68    6.84 
  -2  -7 -12   27.93    5.54 
   1   5 -29   -0.95    1.87 
  -2   7 -12   33.22    9.41 
   1  -5 -29    1.03    1.43 
   1   5 -29    1.13    1.43 
  -5  -5   8    6.67    4.04 
  -5   5   8    8.70    5.60 
   5   5  -8    4.46    3.42 
   5  -5  -8    7.32    4.19 
   4   5 -19  308.53   27.12 
   4  -5 -19  291.75   25.39 
   4  -5 -19  324.43   28.57 
  -4   5  19  307.85   28.21 
  -4  -1  31  328.87   29.07 
   2   0 -37   -0.09    1.70 
   4  -1 -31  306.14   28.59 
   4   1 -31  353.02   31.14 
  -4   1  31  319.80   27.76 
   2   0 -37    0.42    1.15 
  -3   2 -33   33.71    4.77 
  -3   2 -33   45.46    6.38 
  -3  -2 -33   40.95   12.03 
  -2   4 -31    7.80    6.22 
  -2   4 -31   14.03    5.22 
  -2  -4 -31   10.43    4.18 
  -3  -5 -24   40.36   15.45 
  -3   5 -24   32.96   10.97 
  -1  -5 -29   68.34    8.84 
  -4   6  -9   28.55    9.93 
  -3   5 -24   26.24    3.41 
   4   6   9   19.95    2.01 
  -1   5 -29   62.48    7.40 
  -6   1 -17    1.95    1.60 
  -6  -1 -17    2.37    2.23 
  -1  -5 -29   73.11    9.01 
   4  -6   9   21.82    8.27 
  -1   5 -29   58.14    8.89 
  -4   0 -31   -0.12    3.33 
   1  -2 -37   14.38    8.92 
   1  -6 -24   19.39    8.10 
   1   6 -24   21.97    5.36 
   1   2 -37   11.94    7.04 
   1   6 -24   14.01    8.79 
   1   2 -37   11.99    6.05 
   1  -6 -24   19.44    8.33 
  -4   0 -31   -0.22    1.44 
   5   1 -26  112.32   11.49 
   1  -1 -38  123.19   15.52 
   1   1 -38  130.86   13.10 
  -5  -1  26   96.04    9.94 
   5  -1 -26   99.98   10.58 
   5  -1 -26  110.07   10.51 
   1   1 -38  125.90   12.54 
  -5   1  26  113.76   11.12 
   1  -7 -16   10.09    5.82 
   1   7 -16   10.25    3.87 
  -5  -5  -8   45.05    5.24 
   2   6 -22   23.97   11.32 
  -5   5  -8   53.14    6.83 
   2   6 -22   16.91    6.87 
  -6  -3 -10  217.90   23.22 
  -6   3 -10  233.97   21.48 
   2  -6 -22   18.09   11.66 
   3  -6 -18  153.73   14.68 
   2  -3 -34  243.82   21.96 
   2   3 -34  235.23   22.96 
   2   3 -34  237.94   21.15 
   3   6 -18  135.98   14.00 
  -3   6  18  155.68   14.13 
   2  -3 -34  246.33   21.94 
   3   6 -18  147.04   14.14 
   0  -7 -17   12.67    5.01 
   0   7 -17   11.44    6.81 
  -5   2 -24   21.00    9.99 
  -5   2 -24   17.72    7.77 
  -5  -2 -24   21.94   10.23 
   1  -6  24   85.07    8.13 
  -1  -6 -24   87.69    8.81 
  -1  -6 -24   78.25    8.20 
  -1   6 -24   97.95   10.18 
   1  -7  16   78.00    7.63 
  -1   7 -16   80.66   11.19 
  -1  -7 -16   87.94    8.87 
  -4   4 -24   75.77    4.98 
  -4   4 -24   82.14    8.57 
  -4  -4 -24   72.89    8.87 
  -5   0 -26  115.05   10.82 
  -6   2 -15   72.65    8.52 
  -5   0 -26  107.62   11.45 
  -6  -2 -15   70.54    7.93 
   4  -2 -30   13.81    5.91 
  -4   2  30   11.05    6.47 
  -3   7   0   56.73    7.36 
   4   2 -30   14.51    6.10 
   4  -2 -30    9.38    4.44 
   3  -7   0   39.55   14.16 
   3   7   0   48.44    6.00 
  -4  -2  30    8.40    3.36 
   3  -7  -1   33.74   15.18 
   3   0 -35   -0.16    0.86 
   6   1 -18    7.17    5.21 
  -1  -2 -37    1.81    2.65 
  -1   2 -37    1.39    2.78 
   4  -6 -10   10.16    5.17 
  -1   2 -37   -0.21    1.28 
  -4   6  10   14.95    7.34 
  -6   1  18    3.88    2.72 
  -6  -1  18    3.88    2.69 
  -6   3  11   57.24   19.46 
   4   6 -10   11.39    7.03 
  -6  -3  11   51.02   16.92 
   3   7  -1   29.80    3.10 
   6  -1 -18    4.05    2.36 
   6  -3 -11   58.11    7.38 
  -3   7   1   41.31   10.43 
   3   0 -35    1.69    2.71 
  -3   0  35    1.24    1.37 
  -1  -1 -38   30.63   13.96 
  -1   1 -38   30.60   11.82 
  -5   3  22  108.22   10.51 
   5   3 -22  103.86   13.68 
   5  -3 -22  110.65   11.37 
  -5   5   9   39.22    5.55 
  -5  -5   9   41.63    6.17 
  -5  -3  22  113.71   11.85 
   5  -3 -22  102.01   14.77 
   3   7   1    3.81    2.06 
  -1   1 -38   34.73    4.31 
   3  -7   1    4.92    2.68 
  -3   7  -1    6.82    3.97 
  -6   0 -18   72.01   10.46 
  -5   4 -17  148.03   13.99 
  -5   4 -17  145.36   13.80 
   2  -7 -13   43.41   14.10 
   3   7  -2   49.03    5.99 
  -3   7   2   44.69    5.63 
   3  -7  -2   47.21    6.50 
  -2   7  13   45.97    5.47 
   2   7 -13   41.92   16.29 
   4  -5  19  330.35   28.93 
  -4   5 -19  310.45   27.07 
  -4   5 -19  361.36   31.76 
  -2   0 -37    0.35    2.10 
   3  -7   2   29.81   13.40 
  -3   7  -2   31.98    9.12 
   3   7   2   32.98    4.27 
  -2  -6 -22    5.64    4.54 
  -2   6 -22    6.43    4.29 
   2  -6  22    5.76    4.13 
   3   7  -3    1.19    1.04 
  -6   2  16    5.94    3.73 
  -3   7   3    3.86    2.08 
   6  -2 -16    8.24    5.02 
   3  -7  -3    2.73    2.74 
  -6  -2  16    9.10    3.99 
  -3   6 -18  121.82   12.11 
   4   3 -28  111.97   11.08 
  -4  -3  28  125.76   15.60 
   4  -3 -28  119.64   12.00 
  -4   3  28  124.97   11.60 
   3  -6  18  135.34   13.41 
   4  -3 -28  122.53   12.11 
  -3  -6 -18  111.52   11.07 
   1   4 -33   83.83   16.24 
   1  -4 -33   86.77    9.54 
   1  -4 -33   75.68    5.14 
   1   4 -33   87.06    8.71 
  -2   7 -13    8.54    5.31 
   2  -7  13    7.11    4.21 
  -2  -7 -13    5.68    3.15 
   3  -7   3   40.71   11.47 
   3   7   3   36.53    7.12 
  -3   7  -3   39.82   11.10 
   4  -6  10    8.47    7.53 
   2   1 -37    8.62    4.35 
   4   6  10    4.88    4.16 
   2  -1 -37    4.91    2.81 
   2  -1 -37    6.13    3.82 
   2  -1 -37   10.88    5.48 
   2   1 -37    5.62    4.55 
  -4   6 -10    8.58    4.37 
   0  -6 -25   35.51    5.06 
   0   6 -25   41.10    9.87 
   0  -6 -25   46.69    5.64 
   0   6 -25   37.15    4.79 
   2  -2 -36   46.22    6.19 
   2   2 -36   41.96    8.21 
   2   2 -36   38.15    5.58 
   2  -2 -36   37.33    7.33 
   6   0 -19    0.50    1.02 
  -2  -3 -34   17.05    8.97 
  -2   3 -34   17.44    9.78 
  -5   5  -9  145.49   15.86 
  -5  -5  -9  126.36   11.98 
  -2   3 -34   16.61    9.02 
   5  -5   9  163.62   16.02 
   0   3 -36  186.80   16.89 
   3  -4 -29   33.49    4.92 
   0   3 -36  183.99   17.34 
   3   4 -29   29.07   14.44 
   0  -5 -30    5.77    2.83 
   0  -3 -36  169.68   16.30 
   0   5 -30    4.06    2.82 
   0  -5 -30    5.48    4.19 
   3   7  -4    8.87    5.19 
   0   5 -30    5.69    3.26 
   3   4 -29   33.47   12.84 
   3  -4 -29   41.61    8.87 
   3  -7  -4    7.97    6.43 
  -3   7   4    9.82    3.50 
  -4   1 -31   29.84    6.19 
  -4   1 -31   24.48    3.51 
  -4  -1 -31   25.99   10.11 
  -6   3 -11   14.85    7.10 
  -5   2  25   95.61    9.60 
  -5  -4  18   32.67   15.99 
   5  -4 -18   31.58   12.85 
   5  -4 -18   25.58   10.61 
  -5   4  18   31.67   12.55 
  -5  -2  25   90.46   15.50 
  -6  -3 -11   13.77    3.62 
   5  -2 -25  102.00    9.99 
  -6  -3 -11    9.73    4.89 
   0   0 -39    1.96    2.85 
   5  -2 -25   82.74    8.66 
   5   2 -25   86.44   19.58 
   3  -7   4  132.18   13.12 
  -1   4 -33    1.86    1.85 
   3   7   4  144.42   12.95 
  -1  -4 -33    3.46    3.27 
  -3   7  -4  139.41   13.29 
  -1   4 -33    2.21    1.39 
   5  -5 -10    4.18    3.58 
   5  -5 -10    1.41    1.55 
  -5  -5  10    1.06    2.01 
  -5   5  10    1.01    1.37 
  -5   0  27    2.55    1.78 
   5   0 -27   -0.25    2.58 
   2   5 -28   63.90   15.02 
   2   5 -28   64.17    7.83 
   2  -5 -28   62.01    7.22 
   2  -5 -28   78.93    8.73 
   4  -6 -11   83.58    8.93 
  -4   6  11   78.23    8.21 
   4   6 -11   73.66    8.47 
   4   6 -11   78.31    8.50 
   3   5 -25  164.54   15.28 
   3  -5 -25  158.52   14.51 
   3  -5 -25  149.73   15.35 
   3   5 -25  142.90   13.49 
  -6  -3  12    1.17    1.67 
   3   7  -5    7.86    3.35 
   3  -7  -5    3.83    2.61 
  -6   3  12    2.44    1.79 
  -3   7   5    7.14    4.10 
   3  -3 -32  431.64   37.28 
   3  -3 -32  420.59   36.70 
   3   3 -32  418.04   36.08 
   3   3 -32  385.75   34.01 
  -5  -1 -26   55.98    6.22 
  -5  -1 -26   57.74    7.59 
   4   0 -32  139.62   16.56 
  -4   5  20    0.90    1.57 
   4  -5 -20   -0.04    2.42 
  -5   1 -26   60.58    7.14 
  -4   0  32  156.97   16.64 
   4   5 -20    0.06    1.68 
  -5   1 -26   62.61   21.99 
   4  -5 -20    3.42    1.92 
   4  -4 -25   60.10   17.68 
  -4  -4  25   62.07   11.62 
  -4   4  25   61.79    6.95 
   4   5 -20    0.87    1.27 
   4   4 -25   55.95    8.33 
   3   1 -35  138.79   13.91 
   3  -1 -35  132.08   13.38 
   3  -1 -35  128.31   13.12 
  -3  -1  35  147.96   13.96 
  -3   1  35  133.81   12.70 
  -3   0 -35   -1.49    3.55 
   3   7   5   11.75    5.39 
  -6   1 -18   82.36   10.89 
  -6  -1 -18   89.76   10.91 
  -6   1 -18   96.48   14.42 
  -6  -1 -18   83.18    8.38 
   3  -7   5   12.07    8.47 
  -3   7  -5   15.66    5.25 
   1   7 -17   11.16    3.31 
   1  -7 -17   14.95    7.95 
  -5   3 -22  264.07   23.98 
  -5   3 -22  275.43   24.39 
  -5  -3 -22  258.09   27.54 
  -2   1 -37   77.77    8.85 
  -2  -1 -37   75.88    7.71 
  -2   1 -37   69.70    7.49 
  -4   2 -30   47.18    8.08 
  -4  -2 -30   47.71    6.53 
  -4   2 -30   49.65    7.69 
  -2   2 -36   12.48    5.95 
  -2  -2 -36   17.61   11.51 
  -2   2 -36   13.14    4.76 
   2   7 -14   59.60    7.35 
   2  -7 -14   55.72   18.91 
  -2   7  14   57.54    7.04 
   3   2 -34   59.43   17.89 
   3  -2 -34   60.23    7.05 
   3  -2 -34   62.30   15.65 
   3   2 -34   60.09    7.10 
  -3   2  34   61.12    7.03 
  -1   7 -17   28.58   11.54 
  -1  -7 -17   26.25   13.05 
   1  -7  17   23.36    3.18 
   0  -7 -18  126.76   12.27 
  -6  -2 -16   37.61    7.48 
   0   7 -18  139.79   13.50 
  -6   2 -16   42.46   16.28 
  -6   2 -16   34.62    4.69 
   5  -5  10   22.26   10.18 
  -5  -5 -10   22.38    2.44 
  -4   6 -11  142.14   14.90 
  -5   5 -10   24.21    7.60 
   3  -6 -19    8.22    3.23 
   3   6 -19    9.93    2.88 
   3   6 -19    7.34    4.43 
  -3   6  19    5.58    5.08 
   3  -7  -6   75.86    6.05 
  -3   7   6   71.55    8.18 
   3   7  -6   67.49    7.96 
  -2   5 -28   69.71    7.98 
  -2   5 -28   66.74    7.52 
  -2  -5 -28   70.96    8.62 
  -3   4 -29    1.34    1.34 
  -3  -4 -29    0.03    2.45 
  -3   4 -29   -1.01    1.79 
  -4  -3 -28   97.12   17.56 
  -4   3 -28   93.19    9.69 
  -4   3 -28  109.97   10.53 
  -6  -1  19   45.16   14.58 
  -2  -7 -14   15.41    8.53 
  -2   7 -14   19.08   10.44 
  -6   1  19   44.37    5.86 
   2  -7  14   18.14    7.99 
   6  -1 -19   40.39   13.18 
   6  -1 -19   44.62    6.31 
   2   4 -32  116.47   11.18 
   2  -4 -32  117.52   11.67 
   2  -4 -32  111.87   11.14 
   2   4 -32  112.98   11.30 
  -3   7  -6  492.09   43.36 
  -5  -4 -18   62.72    8.30 
   3  -7   6  524.54   12.48 
  -5   4 -18   48.13    6.66 
  -5   4 -18   78.06    8.65 
   3   7   6  510.28    8.94 
   0   2 -38   14.25    4.49 
   0   2 -38    9.70    4.04 
   0  -2 -38   11.29    7.03 
   2   6 -23   82.28    8.53 
  -6   0 -19    0.00    1.27 
   2  -6 -23   79.57    8.53 
   2   6 -23   76.16    7.93 
  -6   3 -12   49.33    6.72 
  -5  -5  11   21.57    9.32 
  -5   5  11   24.56    9.47 
   5  -5 -11   24.95   10.55 
  -6  -3 -12   39.82    5.62 
   1  -6 -25    9.68    4.95 
   1  -6 -25    9.40    5.86 
   1   6 -25   14.01    5.99 
   1   6 -25   10.37    6.61 
  -3  -5 -25  123.55   12.50 
   6  -2 -17  104.86   10.33 
  -3   5 -25  108.21   10.88 
   6  -2 -17  111.02   11.05 
  -3   5 -25   95.96   10.80 
  -6  -2  17  102.50   11.35 
  -6   2  17  106.68   11.98 
   0  -1 -39   11.75    5.85 
   0   1 -39   15.01    4.78 
   0   1 -39   12.15    5.31 
   1   3 -36  142.53   13.22 
   1  -3 -36  146.14   13.44 
   1  -3 -36  157.28   15.14 
   1   3 -36  148.18   15.22 
   1   5 -30   13.79    6.85 
   1  -5 -30   18.32    7.89 
   1   5 -30   22.11    9.24 
  -4  -5 -20    3.05    2.63 
   1  -5 -30   15.46    7.50 
  -4   5 -20    0.64    2.25 
  -4   5 -20    1.44    1.39 
   4  -5  20    1.52    1.19 
  -4   6  12   13.65    4.70 
   4   6 -12   10.38    4.18 
   4   6 -12    9.60    6.16 
   1   0 -39    0.44    0.42 
   1   0 -39    0.76    1.76 
   5   1 -27   13.53    6.92 
   5  -1 -27    9.98    5.68 
  -5  -1  27   14.28    5.98 
   5  -1 -27   16.32    6.37 
  -5   1  27    9.80    6.41 
   5  -3 -23   29.07   11.97 
   5  -3 -23   31.77    4.51 
   5   3 -23   31.24   13.19 
  -5   3  23   32.23    7.80 
  -5  -3  23   35.54   10.66 
  -3   6 -19   49.07    6.53 
  -3  -3 -32   95.00   12.99 
   3  -7  -7   10.59    6.97 
  -3   3 -32   92.81    9.69 
  -3  -6 -19   56.74    9.03 
  -3   3 -32  101.97   11.22 
   3   7  -7   12.33    4.14 
  -3   7   7   14.54    5.05 
  -1  -6 -25   24.31    8.59 
  -6   3  13   42.94   15.93 
  -5  -2 -25   90.98   10.07 
  -1   6 -25   27.31   11.57 
  -5   2 -25  112.93   11.72 
  -1  -6 -25   24.51   12.41 
   6  -3 -13   48.55    6.43 
  -6  -3  13   33.51   17.15 
  -5   2 -25   93.57    9.20 
   0  -4 -34   90.57   13.33 
   0  -4 -34   90.39   12.34 
   0   4 -34   85.04   13.16 
   0   4 -34   85.15   11.98 
  -4  -4 -25   22.96   12.27 
  -4   4 -25   24.62   12.31 
  -4   4 -25   25.25   13.35 
   4   1 -32   31.13   14.31 
   4  -1 -32   29.73   15.16 
  -4  -1  32   29.93    8.08 
  -4   1  32   26.16   11.93 
  -1   5 -30   20.61    7.91 
  -1  -5 -30   19.39   10.57 
  -1   5 -30   13.49    5.35 
  -1  -5 -30    8.88    4.64 
  -3   1 -35   68.49   19.86 
   6   0 -20   97.16   10.28 
  -2   6 -23   16.02    6.98 
  -3   1 -35   76.98   10.31 
  -6   0  20   98.02   10.39 
  -3  -1 -35   64.53    9.41 
   6   0 -20   79.35    9.29 
  -2  -6 -23   12.93    8.30 
  -1  -3 -36  165.07   21.59 
   3   7   7    0.90    0.95 
  -1   3 -36  127.07   16.50 
   3  -7   7    3.15    2.42 
  -3   7  -7   -0.30    3.94 
  -1   3 -36  157.96   20.57 
  -2  -4 -32   31.74    5.80 
   5  -4 -19   36.50    5.99 
   5  -4 -19   33.36    6.91 
  -2   4 -32   27.97    5.69 
  -2   4 -32   23.74   11.14 
  -5   0 -27    0.58    2.38 
  -5   0 -27   -0.18    1.09 
  -5  -4  19   35.12    7.20 
  -5   4  19   40.05   10.96 
  -5   5 -11    9.56    6.14 
  -5  -5 -11    6.40    4.41 
   5  -5  11    9.36    5.95 
  -1   0 -39    3.06    1.77 
  -4   0 -32   41.61   15.97 
  -3  -2 -34   28.17    5.55 
  -4  -6 -12    3.30    1.98 
  -4   6 -12    4.72    2.38 
   4  -6  12    5.66    2.78 
  -3   2 -34   30.55   10.48 
  -3   2 -34   27.27   11.88 
  -2   7  15    1.29    1.52 
   2   7 -15    1.82    1.66 
   2  -7 -15    1.78    1.34 
   4  -2 -31  189.60   25.50 
   4  -2 -31  213.37   26.79 
   4   2 -31  192.63   25.00 
   2   0 -38    8.62    6.74 
   6  -4   0   20.83   10.05 
  -4  -2  31  216.64   27.74 
   2   0 -38   10.41    4.67 
  -4   2  31  227.17   28.46 
  -6   4   0   22.27    8.36 
  -6  -4   0   17.47    5.70 
  -6   4   1    6.80    5.82 
   3  -7  -8    8.26    4.74 
  -6  -4   1    5.53    3.82 
   3   7  -8    8.94    3.44 
  -3   7   8    7.96    4.15 
   1   7 -18   93.74   12.52 
   1  -7 -18   85.73   11.85 
   0  -6 -26  135.54   22.54 
   0   6 -26  138.56   17.98 
   0   6 -26  118.48   15.48 
   0  -6 -26  129.75   16.82 
   6  -4   1   25.74   10.59 
  -6   4  -1   20.40   10.77 
  -6  -4  -1   19.16    8.57 
  -6   4   2   15.93    7.95 
  -5  -5  12    2.19    2.77 
   6  -4  -2   10.76    8.24 
   5   5 -12    3.00    2.92 
   5  -5 -12    5.47    3.02 
   5  -5 -12    1.87    1.87 
   6  -4  -2   14.96    6.09 
  -5   5  12    5.54    3.13 
  -6  -4   2   11.44    9.58 
  -6  -1 -19   10.10    6.34 
  -6   1 -19   13.98    7.52 
   2  -3 -35   28.77   12.97 
  -6   2 -17  191.17   24.31 
  -6  -2 -17  188.19   23.79 
   4   5 -21   70.04    9.79 
   4   5 -21   69.03   15.75 
   4  -3 -29   50.48   15.52 
   2   3 -35   35.72    6.69 
   4   3 -29   52.54   12.47 
   2  -3 -35   35.26   10.91 
  -6   2 -17  180.46   23.65 
   4  -3 -29   40.57   13.57 
  -4  -3  29   51.92   17.64 
   4  -5 -21   59.90    3.96 
   2   3 -35   35.64    9.03 
  -4   3  29   44.41    6.82 
   4  -5 -21   62.12   13.15 
  -4   5  21   68.93    9.40 
   2  -7  15    0.52    1.75 
  -6   3 -13    9.52    6.65 
  -6  -3 -13   10.02    6.04 
  -6  -3 -13   10.72    8.33 
  -6   3 -13   10.42    9.18 
   1  -7  18   41.64    6.42 
  -2   7 -15    0.27    1.35 
  -6  -4  -2    1.83    2.48 
  -1   7 -18   48.56    7.93 
  -6   4  -2    4.25    3.50 
  -1  -7 -18   47.81    7.61 
  -5   2  26   97.78   13.18 
   5   2 -26   97.23   13.60 
   1   2 -38   16.39    7.54 
  -5  -2  26   93.22   12.89 
   1  -2 -38   18.16    8.15 
   3  -7   8   51.51   17.75 
   1   2 -38   18.21   10.34 
  -3   7  -8   62.84    9.12 
   5  -2 -26   83.23   11.48 
   5  -2 -26   94.62   12.65 
   6  -4  -3   63.57    8.92 
  -6  -4   3   65.02    9.15 
  -6   4   3   80.98   11.49 
   6  -4  -3   71.39   18.55 
  -4   6  13   35.83    5.92 
   4   6 -13   32.10    8.81 
   0  -7 -19    2.24    1.71 
   4  -6 -13   23.65   12.87 
   4   6 -13   36.23    6.35 
   0   7 -19    2.48    3.10 
   1  -1 -39   15.79    5.94 
   1   1 -39   17.43    7.20 
   1   1 -39   12.71    8.50 
  -3   6  20   14.83    5.31 
   3   6 -20   15.95    8.98 
   3   0 -36   10.49    8.87 
  -3   0  36   14.45    6.07 
   3  -6 -20   16.95    5.52 
   3   6 -20   10.62    6.86 
   6  -4   3    7.76    2.71 
  -6   4  -3   12.58    5.31 
   3  -4 -30   53.05    8.51 
  -5  -3 -23   52.92   18.88 
   3   4 -30   53.53   14.52 
   3  -5 -26   18.42   11.53 
   3  -5 -26   19.81   10.75 
   3   5 -26   20.18   11.61 
   3  -4 -30   56.05    9.74 
  -5   3 -23   59.62   17.98 
   3   4 -30   57.62    8.92 
   3   5 -26   19.90    8.42 
  -5   3 -23   49.67    9.59 
  -6   3  14  179.57   23.06 
  -6  -3  14  162.39   21.18 
  -6  -4   4    1.85    2.51 
  -6   4   4    2.85    2.16 
   4  -4 -26   62.25    8.89 
   4  -4 -26   57.42    8.74 
   6  -2 -18    3.64    1.54 
  -4  -4  26   59.17   14.83 
  -6   2  18    2.04    2.61 
   0  -5 -31  378.89   47.20 
   6  -2 -18    2.84    2.22 
   0   5 -31  401.32   10.34 
  -6  -2  18   -0.08    2.52 
   0   5 -31  386.36   10.75 
   4   4 -26   66.49   10.32 
   0  -5 -31  365.89   45.65 
   5   0 -28   72.73   10.24 
  -5   0  28   83.04   11.71 
  -4   4  26   63.15    8.84 
  -6  -1  20   84.94   11.97 
   6  -1 -20   80.33   11.40 
  -6   1  20   85.30   17.45 
   6  -1 -20   73.97   10.07 
   1  -4 -34   92.04   12.63 
   1  -4 -34   96.44   12.79 
  -1  -2 -38   18.29    9.86 
   1   4 -34  108.34   14.42 
  -5   4 -19   14.26    8.08 
  -5   4 -19   19.94    7.37 
  -1   2 -38   18.74    9.53 
  -1   2 -38   15.12    8.81 
   1   4 -34   95.14   21.04 
   3  -7  -9   12.49    7.25 
  -5  -5 -12   26.74   17.73 
  -3   7   9   11.31    7.22 
  -5   5 -12   33.44    9.14 
   5  -5  12   35.64   14.84 
   3   7  -9   13.63    3.31 
  -5  -5 -12   32.45    5.20 
  -5  -1 -27    6.01    3.62 
   2   5 -29  230.80   29.06 
   2  -5 -29  210.59   26.62 
   2  -5 -29  212.08   26.91 
   2   5 -29  234.32   29.73 
  -5   1 -27    4.13    1.93 
  -5   1 -27    4.25    4.02 
  -1   1 -39  246.62   31.54 
   0   8   0    4.75    3.29 
  -1  -1 -39  236.83   30.44 
  -1   1 -39  226.19   28.09 
  -2   0 -38  253.56   32.29 
   0  -8   0    7.91    3.73 
  -6   0 -20  105.09   14.19 
  -6  -4  -4   57.00    8.77 
  -6   4  -4   64.06    9.35 
   6  -4   4   73.14   10.56 
   0   8  -1   31.40    7.79 
   0  -8   1   29.09    5.63 
  -4  -1 -32   34.52    8.48 
   0  -8  -1   34.90    5.73 
  -4   1 -32   32.82    5.23 
  -4   1 -32   36.48   11.34 
   0   8   1   30.08    8.15 
  -4  -6 -13    5.87    4.34 
  -4   6 -13   10.91    4.59 
  -2   3 -35   10.65    7.13 
  -6   4   5  201.21   25.94 
  -2   3 -35   15.18    6.81 
   6  -4  -5  175.42   22.84 
  -2  -3 -35   14.44    9.42 
  -6  -4   5  179.57   22.95 
   0  -8   2   15.87    7.64 
   0   8  -2   16.13    8.39 
   0  -8  -2   14.67   11.14 
   0   8   2   15.14    6.93 
   3  -7   9  113.37   15.41 
  -1   4 -34   41.03   11.89 
  -3   7  -9  115.51   15.25 
  -1  -4 -34   41.55    9.13 
  -1   4 -34   41.10   13.80 
  -4  -5 -21    4.95    2.81 
  -4   5 -21    4.11    2.75 
   2   2 -37   21.86    8.18 
  -4   5 -21    2.14    1.62 
   2   2 -37   24.23   15.70 
   2  -2 -37   26.31    3.75 
   2  -2 -37   24.81    6.05 
   3  -6  20   15.03    6.60 
  -3   6 -20   18.98    8.69 
   2  -1 -38   47.53    7.85 
  -3  -6 -20   17.64   10.85 
   2   1 -38   40.14   18.59 
   2   1 -38   39.24    6.11 
   2   6 -24   18.07   11.45 
   2  -6 -24   27.01   13.77 
   2   6 -24   27.82   10.87 
  -5  -5  13   43.14    7.44 
   5  -5 -13   40.89    6.85 
   0   8   3   53.25    8.16 
  -5   5  13   38.08    9.09 
   0   3 -37    2.38    2.20 
  -7   0   0   44.12    7.64 
  -7   0   1   -0.83    2.15 
   0   3 -37    0.61    1.53 
   0  -8  -3   57.86    4.59 
   0  -8   3   52.98    8.00 
   0  -3 -37    2.25    1.36 
   0   8  -3   67.08   14.19 
   3   3 -33   31.53   22.00 
   3  -3 -33   37.03   13.36 
   3  -3 -33   30.13   14.18 
   3   3 -33   34.87   18.61 
   4   0 -33    2.71    3.68 
  -4   0  33   -0.12    1.36 
   7   0  -2    1.92    1.25 
  -7   0  -1    1.19    1.87 
  -6   4  -5   15.22    7.22 
  -7   0   2    1.16    1.12 
   6  -4   5   16.79    6.23 
  -6  -4  -5   11.15    5.50 
   2  -7 -16   67.21    9.63 
   2   7 -16   79.92   11.11 
  -4   2 -31  177.61   24.26 
   6   0 -21    0.48    0.61 
   6   0 -21    1.23    1.82 
  -4  -2 -31  185.24   24.18 
  -6   0  21    0.52    1.44 
  -4   2 -31  177.49   22.98 
   5   4 -20   29.37    6.96 
  -5   4  20   27.39   12.48 
   5  -4 -20   25.93    6.36 
  -5  -4  20   22.63   16.92 
   5  -4 -20   28.07    5.03 
  -2   5 -29  266.85   33.38 
   5  -3 -24   17.88    7.06 
   1  -6 -26   83.62   11.62 
  -5  -3  24   23.20   12.90 
  -2  -5 -29  247.93   31.36 
  -5   3  24   17.51   10.96 
  -2   5 -29  253.93   32.02 
  -3   5 -26   31.54   11.65 
   1  -6 -26   81.88   10.78 
   1   6 -26   76.18   10.69 
  -3  -5 -26   32.91    5.93 
   5  -3 -24   20.56    5.93 
  -6   4   6   59.11   19.48 
   6  -4  -6   58.03   14.17 
  -6  -4   6   44.30    7.15 
  -4   3 -29   45.52    7.03 
  -7   0  -2   20.73    3.19 
  -4   3 -29   44.60    7.35 
  -4  -3 -29   45.48    8.16 
  -6   3 -14    6.03    4.43 
   7   0  -3    0.80    1.16 
  -6  -3 -14    5.65    4.75 
  -6   3 -14    4.58    3.58 
  -6  -3 -14    5.22    3.57 
  -7   0   3    0.56    2.75 
   0  -8  -4   33.49   17.24 
   0  -8   4   33.12    8.29 
   0   8  -4   36.95    6.22 
   0   8   4   32.19   11.80 
  -3   4 -30    2.17    1.91 
  -4   6  14    6.97    4.15 
  -3   4 -30    0.94    2.33 
   4   6 -14   10.78    8.22 
   4  -6 -14   11.83    6.97 
  -3  -4 -30    3.10    1.64 
   3   1 -36   47.87    8.06 
   3  -1 -36   53.15   11.79 
   3  -7 -10   11.12    4.75 
   3  -1 -36   49.70    7.32 
  -3   1  36   53.91    8.30 
   3   1 -36   55.99   20.01 
   3   7 -10   14.57    3.96 
   0   0 -40  103.47   14.36 
  -3   7  10   13.52    6.22 
  -3   0 -36   31.24   11.51 
   2  -7  16   10.45    7.00 
  -2   7 -16   11.15    6.27 
  -2  -7 -16    7.52    4.56 
  -1   6 -26  145.08   19.66 
  -1  -6 -26  129.28   16.89 
  -5  -2 -26   46.29   13.08 
  -2   6 -24   76.82   11.01 
   2  -6  24   88.80   11.77 
  -2  -6 -24   76.27   10.50 
  -1  -6 -26  118.95   15.74 
  -5   2 -26   42.45   14.59 
  -5   2 -26   40.43    7.90 
   1   7 -19   95.73   12.73 
   1  -7 -19  111.46   16.33 
  -7   0  -3   -0.28    2.45 
   3   2 -35   88.74   11.79 
   3  -2 -35   95.33   13.11 
  -3   2  35   94.36   12.32 
   3   2 -35   52.72    8.61 
   3  -2 -35  101.36   13.85 
  -4  -4 -26  153.97   20.26 
  -5  -1  28    5.46    2.79 
  -4   4 -26  141.17   18.38 
   5   1 -28    5.51    4.54 
  -7   0   4    8.27    5.94 
  -5   1  28    3.83    1.39 
   5  -1 -28    4.83    2.84 
  -4   4 -26  165.84   21.46 
   7   0  -4    8.19    3.61 
  -6   4  -6   12.44    7.41 
   6  -4   6   15.48    5.59 
  -6  -2 -18   37.84    6.92 
  -6   2 -18   31.36   10.52 
  -6  -4  -6   13.12    6.72 
   6  -3 -15   47.71   13.28 
  -6   3  15   48.45   12.50 
  -6  -3  15   41.91   11.75 
  -2   2 -37   11.79    6.62 
   2  -4 -33   36.39   10.64 
   2   4 -33   29.21   11.20 
   2  -4 -33   25.04   13.83 
  -2  -2 -37   14.11    9.45 
  -2   2 -37   11.30    8.00 
   2   4 -33   27.02    5.16 
   5  -5  13   62.41   11.06 
  -5  -5 -13   59.26    5.18 
  -5   5 -13   69.05    9.88 
   1  -5 -31  120.46   15.85 
   3  -7  10   40.20   11.26 
   0  -8   5   16.59    8.70 
   0   8  -5   18.60    6.68 
  -1  -7 -19   24.53   11.23 
   1   5 -31  128.89   17.04 
  -2   1 -38    3.94    2.12 
   1  -5 -31  122.86   16.47 
  -1   7 -19   26.18   13.93 
  -2   1 -38    4.26    2.75 
  -2  -1 -38    4.42    3.17 
   0  -8  -5   20.30   10.91 
   1   5 -31  122.50   17.96 
   0   8   5   17.08    6.00 
   1  -7  19   17.88    9.83 
  -3   7 -10   41.87   17.58 
  -6   4   7    4.13    1.88 
  -6  -4   7    2.81    3.40 
  -6   1 -20   22.30    6.65 
   6  -4  -7    5.25    3.17 
  -6  -1 -20   24.35    3.17 
  -7   0  -4  184.68   23.64 
   4  -5 -22    5.09    2.13 
   4   5 -22    3.93    1.92 
   4  -5 -22    5.71    2.50 
  -4   5  22    4.73    2.84 
   0  -7 -20   99.94   13.57 
   0   7 -20  100.58   13.49 
   7   0  -5    0.84    0.95 
  -7   0   5   -0.34    1.75 
  -5   0 -28   11.01    5.46 
  -4  -6 -14   74.16   10.42 
  -5   0 -28   11.91    7.03 
   4  -6  14   88.99   12.22 
  -4   6 -14   72.96   10.19 
   1  -8   0   71.03   10.30 
  -1   5 -31  227.09   28.63 
   6  -2 -19   41.34    6.91 
   1   8   0   63.89    8.71 
  -1  -8   0   59.41    4.13 
  -6  -2  19   52.09   11.75 
  -1  -5 -31  213.14   26.97 
   6  -2 -19   38.72    8.03 
  -6   2  19   52.26   16.27 
  -1  -5 -31  199.59   25.98 
  -1   5 -31  192.49   24.65 
  -1   8   0   64.99    8.93 
   6   2 -19   40.68   14.36 
  -3   3 -33    5.56    3.32 
   1  -8  -1    2.20    1.46 
  -1  -8   1    1.19    1.16 
  -1  -8  -1    1.74    1.12 
   1   8  -1    1.50    2.45 
  -1   8   1    3.10    1.89 
   7  -1   0    4.64    3.69 
   1   8   1    1.68    1.90 
  -1   8  -1    2.33    2.08 
   1  -8   1    0.21    1.57 
  -7   1   1   10.19    7.74 
   3  -6 -21   95.38   13.12 
   3   6 -21   88.86   12.30 
  -7   1   0    3.77    2.56 
   7  -1  -1    9.23    7.93 
   3   6 -21   95.22   12.72 
  -7  -1   1   14.60    7.53 
  -3  -3 -33    8.62    5.51 
  -3   3 -33    6.51    4.15 
   4  -1 -33   31.98   17.94 
   4   1 -33   42.29    9.30 
   4  -1 -33   37.43    6.15 
  -4  -1  33   40.84    7.42 
  -4   1  33   33.59    8.27 
   5  -5 -14   25.65    8.67 
  -7   1  -1    4.84    4.93 
  -5   5  14   26.59    3.30 
  -7  -1  -1    4.62    2.05 
   7  -1   1    5.48    3.87 
  -5  -5  14   21.79   13.63 
   0  -8  -6   53.24    8.31 
  -7   1   2   12.82    6.10 
  -6   4  -7  112.47   15.14 
   0   8  -6   59.95    4.51 
   6  -4   7  168.80   22.47 
   7  -1  -2    8.02    5.57 
   0   8   6   50.56    7.47 
  -6  -4  -7  107.37   13.97 
   0  -8   6   56.03    8.33 
  -7  -1   2    9.97    6.16 
   0   6 -27    2.44    2.01 
  -1   8   2    4.81    2.39 
   1   8   2   49.77    7.55 
   1  -8  -2    6.44    3.07 
   1   8  -2    3.75    1.52 
  -1   8  -2   42.74   14.52 
   0  -6 -27    1.48    1.52 
  -1  -8   2    2.59    2.22 
  -1  -8  -2   45.68    6.91 
   1  -8   2   49.92    7.86 
   0   6 -27    1.56    1.29 
   0  -6 -27    3.45    1.45 
  -5  -4 -20  129.01   17.37 
  -5   4 -20  124.39   16.44 
   0   2 -39  249.07   31.15 
   1  -3 -37    0.66    1.47 
   0  -2 -39  251.28   32.18 
   6  -1 -21    7.12    6.26 
  -6   1  21    9.56    5.43 
   6  -1 -21    9.08    3.80 
   1   3 -37    0.71    1.30 
   1  -3 -37    1.08    1.20 
  -6  -1  21   12.15    4.01 
  -5   4 -20  123.27   21.77 
   1   3 -37    1.69    2.20 
  -7   0  -5   -0.36    3.43 
   0  -4 -35  165.07   21.29 
   0   4 -35  173.14   22.08 
   0   4 -35  180.20   23.16 
   0  -4 -35  184.99   23.72 
   3  -7 -11    2.61    1.97 
  -3   7  11    2.32    1.87 
   3   7 -11    3.02    1.40 
  -7  -1  -2   86.36   11.97 
  -7   1  -2   93.46   13.51 
  -2  -4 -33   62.43    9.16 
  -2   4 -33   65.25    9.15 
  -7   0   6   24.85   14.51 
   7   0  -6   24.26    3.22 
  -7  -1   3    1.63    2.18 
  -7   1   3    2.92    2.20 
  -2   4 -33   58.55    4.83 
   6  -4  -8   44.67    8.04 
  -6   4   8   46.97    7.63 
  -6  -4   8   45.58    7.55 
   5   2 -27  183.73   23.88 
  -5  -2  27  192.19   24.66 
   1   8  -3   62.92    8.63 
   5  -2 -27  186.92   24.10 
  -1  -8   3   58.19    3.91 
  -1   8   3   49.17   14.41 
   5  -2 -27  178.54   22.60 
   1  -8  -3   56.51    8.72 
  -5   2  27  196.74   24.98 
  -4   0 -33   -0.68    3.44 
   1   8   3   22.27    9.91 
  -1   8  -3   29.04    4.95 
   0  -1 -40  248.19   31.78 
   1  -8   3   21.99   11.17 
  -5  -3 -24   67.41   24.91 
  -1  -8  -3   24.61    7.12 
  -5   3 -24   53.58    8.63 
  -5   3 -24   51.71    8.63 
   0   1 -40  240.88   30.89 
   0   1 -40  230.28   28.55 
  -6   0 -21   -0.56    1.69 
  -3   1 -36  119.26   16.13 
  -3  -1 -36  131.18   17.88 
  -3   1 -36  113.71   14.59 
   2  -7 -17   15.33    8.64 
   2   7 -17   18.15    5.81 
   4  -2 -32    2.34    1.98 
  -4   2  32    0.66    1.62 
   4   6 -15   18.03    5.98 
   4  -6 -15   17.87    9.81 
  -7   1  -3    5.22    3.62 
   4  -2 -32    0.58    1.56 
  -4  -2  32   -0.62    2.54 
  -6  -3 -15    6.03    3.19 
  -4   6  15   25.68    7.06 
  -7  -1  -3    6.62    4.44 
  -6   3 -15    8.00    3.82 
  -6   3 -15    5.99    6.57 
  -6  -3 -15    8.30    5.34 
   4   2 -32    2.21    2.46 
   4  -3 -30   97.81   13.02 
  -4   3  30   95.33   12.40 
  -4  -3  30   99.54   23.53 
   1   0 -40   17.96   10.86 
   4   3 -30   91.33   12.55 
   4  -3 -30   93.98   12.82 
  -1   3 -37   48.71    7.85 
  -7   1   4   15.72    9.15 
  -3  -2 -35    1.97    2.67 
  -1   3 -37   50.12   10.23 
  -7  -1   4   15.86    9.47 
  -1  -3 -37   57.90    5.09 
  -3   2 -35   -0.21    2.03 
  -3   2 -35    1.18    1.42 
   7  -1  -4   10.80    6.95 
   7   1  -4   12.46    7.22 
  -3   7 -11   52.94   15.73 
   3  -7  11   55.25    8.65 
   3  -5 -27   27.82    4.99 
   3   5 -27   31.25    7.92 
   3   5 -27   32.17    7.87 
   3  -5 -27   31.68    5.73 
  -1   8   4    5.95    4.35 
  -1  -8   4    5.21    3.89 
   1   8  -4    4.76    2.56 
   1  -8  -4    6.96    3.34 
  -3  -6 -21   43.58    6.99 
   3  -6  21   36.59   19.28 
  -3   6 -21   44.75   14.01 
   4  -4 -27    8.99    3.71 
  -4   4  27    6.58    6.66 
  -4  -4  27    7.88    4.74 
   4  -4 -27   11.15    4.37 
   0   8   7    6.15    2.82 
   0  -8  -7    9.23    4.81 
   0   8  -7    8.80    3.52 
   0  -8   7    5.14    3.09 
  -1  -8  -4    5.94    3.60 
   1  -8   4    6.54    2.76 
   1   8   4    5.36    3.45 
  -1   8  -4    7.15    5.65 
  -4   5 -22   29.12    5.13 
  -4  -5 -22   30.55   12.28 
  -7   0  -6   71.83   10.17 
  -4   5 -22   28.58   14.50 
  -7   0   7    1.13    2.04 
   6  -4   8  179.15   23.59 
  -6   4  -8  179.42   23.26 
   5  -5  14   34.31   14.45 
  -6  -4  -8  159.98   20.31 
  -5  -5 -14   31.98    6.15 
   7   0  -7    1.83    1.72 
  -5   5 -14   32.43   15.61 
   2  -7  17   56.87    8.61 
  -2   7 -17   75.79   10.80 
  -2  -7 -17   57.52    8.74 
  -5   0  29   -1.48    2.79 
  -7  -1  -4   16.06    8.78 
  -7   1  -4   20.91   11.20 
  -5  -4  21  194.48   25.08 
  -6   3  16   24.29   16.80 
   5  -4 -21  171.69   21.98 
  -5   4  21  199.73   25.21 
  -6  -3  16   30.22   17.48 
   5  -4 -21  187.93   24.13 
   6  -3 -16   37.36    7.68 
  -7  -1   5   15.74    7.29 
  -7   1   5   10.85    5.25 
   7  -1  -5   11.53    3.01 
   7   1  -5    9.84    6.16 
   6   0 -22   28.99    8.80 
  -6   0  22   28.88    6.34 
  -5   1 -28   37.08   19.26 
  -5   1 -28   32.20    5.96 
  -1   0 -40   29.07   17.72 
  -5  -1 -28   40.17   15.21 
   3   4 -31    6.58    3.65 
   3  -4 -31    4.09    2.40 
   3  -4 -31    5.00    3.27 
   3   4 -31    4.13    2.32 
   6  -4  -9    2.99    2.81 
   2  -6 -25   74.60   10.85 
   2   6 -25   79.14   14.87 
   2   6 -25   75.79   10.42 
   1   8  -5   21.92    2.85 
   6  -4  -9    1.93    3.62 
  -6   4   9    5.12    3.32 
   1  -8  -5   23.96    8.57 
  -1   8   5   20.25    5.64 
  -6  -4   9    1.44    2.21 
   2  -3 -36   61.85    4.41 
   2   3 -36   63.97    8.94 
   2  -3 -36   68.04    9.68 
   2   3 -36   54.96   13.68 
   2  -5 -30    2.63    2.66 
  -1   8  -5   69.02   14.10 
   1  -8   5   64.79    9.02 
   1   8   5   62.58    9.47 
  -1  -8  -5   64.18    8.82 
   2   5 -30    2.46    2.07 
   2   5 -30    1.34    1.66 
   2  -5 -30    3.02    1.47 
   2   0 -39    1.24    1.08 
   2   0 -39    0.56    1.26 
   1  -7 -20   24.30   12.45 
  -4   6 -15   36.64   15.98 
  -4  -6 -15   36.35    6.56 
   4  -6  15   28.08   14.29 
   1   7 -20   30.95   10.22 
   0  -5 -32   24.98    7.56 
  -6   2 -19   19.88   11.90 
  -6  -2 -19   19.61    2.35 
   0   5 -32   16.07    3.08 
   0  -5 -32   27.06   11.76 
   0   5 -32   20.41    5.60 
  -3   7  12   41.97    6.48 
   3   7 -12   57.05   16.86 
   3  -7 -12   43.86    8.07 
   5  -3 -25    1.90    0.92 
   5  -3 -25    2.03    2.75 
  -5  -3  25    2.20    1.26 
   5   3 -25    2.70    1.14 
  -7   1  -5   27.15   11.10 
  -7  -1  -5   25.70   10.34 
  -5   5  15   50.73   14.71 
  -7   0  -7    1.24    1.48 
   5  -5 -15   49.97    8.14 
  -5  -5  15   42.55   11.94 
   5   5 -15   44.01   11.09 
   0  -8   8   12.76    5.76 
   0   8  -8   14.97    9.76 
   0   8   8   15.42    5.37 
  -7   1   6    2.49    2.30 
   0  -8  -8   14.03    5.68 
   7  -1  -6    3.31    1.49 
  -1   7 -20    9.38    4.90 
   7   1  -6    2.26    1.30 
  -1  -7 -20    8.89    7.02 
   1   2 -39   45.17   13.17 
   1   2 -39   38.36    6.18 
   1  -2 -39   41.53   18.55 
   1  -6 -27   30.83    5.46 
  -7   0   8   50.01    8.18 
   1  -6 -27   28.67   13.53 
   1   6 -27   34.77    4.85 
   1   6 -27   34.70    9.52 
   7   0  -8   47.25    7.27 
   3   0 -37   -1.04    2.51 
  -3   0  37    0.77    1.16 
   1   4 -35   34.41    9.01 
   1  -4 -35   31.59    5.58 
   1   4 -35   30.04   14.66 
   1  -4 -35   34.53    6.19 
  -3  -5 -27  114.05   11.68 
  -4   1 -33    6.60    3.61 
  -3   5 -27  106.49   10.29 
  -3   5 -27   96.04   10.15 
  -4   1 -33    5.09    3.80 
  -4  -1 -33    5.62    2.11 
  -6  -1 -21   18.23    2.51 
  -6   1 -21   18.28    8.29 
  -6  -1 -21   23.21   10.68 
   1  -8  -6   22.41   12.11 
  -1   8   6   27.36    4.07 
   1   8  -6   21.67    4.87 
  -2  -6 -25  111.55   11.14 
   2  -6  25  107.03   11.49 
  -2   6 -25   97.92   10.22 
  -1  -8  -6    6.77    3.98 
  -6  -4  -9   10.19    6.68 
  -6   4  -9   16.31    7.34 
   1   8   6    3.74    3.15 
  -1   8  -6    4.69    1.98 
   1  -8   6    6.21    3.24 
   6  -4   9   14.86    7.88 
   0  -7 -21   98.14   11.84 
   1  -1 -40    6.47    2.75 
   1   1 -40    6.52    2.81 
   1   1 -40    3.50    1.72 
  -3   7 -12    2.48    2.80 
   3  -7  12    2.57    1.44 
   0   7 -21  114.07   11.43 
   6   2 -20   15.20   10.83 
   6  -2 -20   18.77    3.37 
  -6   2  20   41.85    6.27 
  -6  -2  20   18.72    7.15 
   6  -2 -20   14.80    8.43 
  -2   5 -30   95.11   10.18 
  -1   6 -27   24.59   13.36 
  -2   5 -30   90.34    8.94 
  -1  -6 -27   23.53   12.03 
  -1  -6 -27   22.85   12.55 
  -2  -5 -30   93.91   10.56 
  -5  -2 -27   84.72   10.76 
  -4   5  23  100.24   10.71 
   4  -5 -23   96.41    9.56 
   4   5 -23  100.96   10.75 
   4  -5 -23   90.08   10.12 
   4   5 -23  104.27   10.37 
  -5   2 -27   97.56    9.86 
  -5   2 -27   89.64    9.56 
  -4   3 -30   12.17    9.68 
  -4  -3 -30   21.42   10.18 
  -4   3 -30   12.69    9.05 
  -1   4 -35   19.61    8.58 
  -4   4 -27   26.63    9.01 
  -7  -1  -6    1.11    1.09 
  -7   1  -6   -0.11    1.62 
  -1   2 -39    7.00    5.51 
  -2   3 -36    3.38    2.14 
  -2  -3 -36    3.45    2.81 
  -1  -4 -35   17.31    9.06 
  -1   4 -35   14.85   10.22 
  -4  -4 -27   31.42   14.08 
  -4   4 -27   25.30   12.10 
  -2   3 -36    3.44    1.87 
  -1  -2 -39   15.14    8.44 
  -1   2 -39   12.51    7.13 
  -4  -2 -32   32.66   18.41 
  -4   2 -32   38.63   10.34 
  -4   2 -32   37.43    5.05 
   6  -4 -10    9.48    7.00 
  -6   4  10    8.90    4.81 
  -6  -4  10    9.97    4.46 
   6  -4 -10    7.34    4.86 
   3  -3 -34  348.54   11.04 
   3   6 -22  103.80   16.32 
   4   6 -16   18.70   12.03 
   3  -3 -34  340.82    9.68 
   3  -6 -22  100.65   11.54 
   3   6 -22   97.54    9.58 
  -4   6  16   28.64    9.37 
   3   3 -34  336.98   29.29 
   4   6 -16   29.68    5.32 
   4  -6 -16   30.52   15.17 
   3   3 -34  329.41   29.38 
  -6  -3 -16    7.11    7.61 
   7   1  -7   45.72    3.72 
  -7   1   7   43.06    9.90 
  -6  -3 -16    6.93    3.85 
  -6   3 -16    7.20    4.71 
   4   0 -34  295.98   26.96 
  -4   0  34  282.29   28.14 
  -7  -1   7   43.01   16.44 
   5  -1 -29  222.84   20.50 
  -3  -4 -31    9.64    3.67 
  -2   0 -39    0.37    3.65 
   5   1 -29  236.53   21.71 
  -3   4 -31    6.34    8.93 
  -3   4 -31    9.84    7.70 
  -5  -1  29  248.71   22.54 
  -5   1  29  232.64   23.43 
  -5   4 -21  118.04   11.83 
  -5  -4 -21  103.19   11.29 
  -5   4 -21  131.97   12.89 
   2   7 -18   67.38    8.33 
   2  -7 -18   66.71    7.45 
  -6  -1  22   16.86    8.88 
   6  -1 -22   11.46    7.67 
  -1   1 -40  111.62   11.58 
  -6   1  22   18.88    9.17 
   6   1 -22   14.56    8.73 
   6  -1 -22   16.41   11.04 
  -7   0  -8    1.44    0.92 
  -1  -1 -40  120.26   12.35 
   2  -2 -38    3.98    2.11 
   2   2 -38    2.81    1.93 
   0  -8  -9   60.35    6.81 
   0   8  -9   70.30    7.38 
   1   8  -7   46.83    3.82 
   2   2 -38    3.48    2.13 
  -1   8   7   45.79    3.41 
   2  -2 -38    3.68    2.07 
   1  -8  -7   43.42    6.03 
  -5   5 -15   33.24    5.26 
   5  -5  15   29.41    9.57 
  -1   8  -7  121.18   12.46 
  -1  -8  -7  133.28   12.55 
   1  -8   7  114.02   10.95 
   2   1 -39    4.57    4.15 
   2   1 -39    4.26    2.87 
   2  -1 -39    5.87    5.80 
   0  -3 -38    8.79    5.19 
   0   3 -38    9.97    6.30 
   0   3 -38    8.70    3.37 
  -3   7  13    8.56    3.94 
   3  -7 -13    9.95    4.54 
  -6  -3  17   36.12    5.76 
   6  -3 -17   33.73    5.65 
   3   7 -13    9.02    3.80 
  -6   3  17   37.80    5.61 
  -6   0 -22   11.93    7.95 
  -6   0 -22   16.78    8.86 
   2  -7  18   57.96    6.22 
  -2  -7 -18   60.46    7.23 
  -2   7 -18   67.41   12.92 
  -5   0 -29   -0.74    1.38 
  -5   0 -29   -0.18    3.50 
  -7   1  -7    8.88    4.57 
   1  -5 -32    5.11    1.98 
   1  -5 -32    4.22    3.39 
  -7  -1  -7    7.42    4.29 
   1   5 -32    3.18    2.61 
   1   5 -32    3.43    2.41 
  -6   4 -10   14.82   11.53 
  -6  -4 -10   10.23    6.87 
   6  -4  10   13.97    7.87 
   3  -1 -37   48.45    6.83 
   3   1 -37   45.40    4.16 
   3  -1 -37   42.26    5.48 
  -3   1  37   41.96   11.69 
  -7   1   8  103.73   15.73 
  -7  -1   8  100.21   10.27 
   7  -1  -8  102.73   10.06 
   7   1  -8   98.80    9.49 
   2   4 -34   15.33    7.13 
   2  -4 -34   15.11    9.86 
  -4   6 -16    5.03    4.45 
   2  -4 -34   14.26    9.43 
  -4  -6 -16    3.85    4.38 
   2   4 -34   15.78    5.14 
   4  -6  16    4.39    2.89 
  -5  -3 -25   20.96    9.71 
  -3   0 -37   -0.73    3.07 
  -5   3 -25   17.74    6.47 
   0  -6 -28   33.23    5.23 
  -5   3 -25   13.86    5.12 
   0   6 -28   34.00    4.74 
   3  -2 -36    5.58    6.30 
   0  -6 -28   34.18    6.29 
   3  -6  22    1.15    1.31 
   3  -2 -36    8.80    4.04 
   3   2 -36    5.31    4.75 
   0   6 -28   35.28    8.64 
  -3  -6 -22    1.43    2.69 
   3   2 -36    9.17    4.61 
  -3   6 -22    0.77    2.02 
   5   5 -16   29.58    5.18 
  -5   5  16   20.45    9.12 
  -5  -5  16   21.62   13.64 
   5  -5 -16   22.59   11.72 
  -3   7 -13   24.63    8.05 
   3  -7  13   24.09    9.71 
   6  -4 -11   15.43    5.71 
  -6   4  11   12.20    7.67 
  -6  -4  11   11.32    6.05 
  -5   2  28   15.55    7.05 
   5  -2 -28   12.18    8.72 
   5  -4 -22   12.02    5.80 
  -4  -5 -23   47.43    4.80 
   1   8  -8   43.71    6.05 
   5   2 -28   17.15   12.71 
  -5  -4  22   15.65    6.61 
  -4   5 -23   41.82    6.24 
   5  -4 -22   12.33    8.80 
  -5  -2  28   17.93    9.01 
   5  -2 -28   18.61    5.90 
  -4   5 -23   38.91   18.52 
  -5   4  22   14.49    2.54 
   1  -8  -8   37.71   17.73 
  -1   8   8   40.57    6.38 
  -1   5 -32   16.99    8.50 
  -1   5 -32   12.38    9.89 
  -1  -5 -32   17.59    7.79 
  -1   8  -8   12.81    3.42 
  -1  -8  -8   12.56    6.47 
  -7   0  -9    1.92    1.73 
   1  -8   8   13.56    6.13 
   0   0 -41    1.23    2.68 
  -6   0  23    1.07    1.56 
   6   0 -23    0.87    2.08 
  -2   2 -38    0.99    1.75 
  -2   2 -38    1.58    1.73 
  -2  -2 -38    1.82    2.21 
  -6  -2 -20   10.85    7.60 
   1  -7 -21    6.58    8.37 
   7   0 -10   35.35    5.11 
   1   7 -21   11.25    3.72 
  -6   2 -20   13.87    9.97 
  -7   0  10   35.50    6.33 
   0   8 -10   10.50    3.68 
   0  -8 -10   10.38    7.28 
  -3  -3 -34    2.31    2.60 
  -3   3 -34    0.98    1.74 
  -3   3 -34    2.96    2.03 
  -4   1  34   11.20   10.53 
   4   1 -34   14.70    6.71 
  -4  -1  34   14.13    6.68 
   4  -1 -34   16.51    3.64 
   4  -1 -34   15.93    6.98 
   3   5 -28   10.72    8.27 
   3  -5 -28   12.50    7.83 
   3   5 -28   12.09    8.09 
   3  -5 -28   10.49    6.93 
  -2  -1 -39   39.63    6.54 
  -2   1 -39   30.83   16.50 
   4   4 -28   56.22   18.42 
  -4   4  28   60.69    6.33 
   4  -4 -28   53.71    6.22 
   4  -4 -28   52.20    6.97 
   4   4 -28   57.81    6.94 
  -7  -1  -8    4.27    2.90 
  -7   1  -8    5.14    2.54 
  -1  -7 -21    4.17    3.47 
  -1   7 -21    2.27    1.57 
   4  -3 -31   20.16    9.78 
  -4  -3  31   18.23    5.66 
  -4   3  31   17.39    2.38 
   4  -3 -31   19.32   12.49 
   7  -1  -9    2.07    2.46 
   7  -1  -9    1.84    2.49 
  -2  -4 -34    5.27    3.13 
   2  -6 -26   65.38    7.80 
  -2   4 -34    6.58    4.95 
   2   6 -26   63.53    6.77 
  -7   1   9    1.30    1.58 
   7   1  -9    1.89    2.06 
  -2   4 -34    6.30    3.05 
   2   6 -26   61.08    7.04 
  -7  -1   9    2.61    1.95 
   7  -2  -1   34.44    7.69 
  -7   2   0   83.29    9.20 
  -7   2   1   40.08    6.22 
  -7  -2   1   31.64   14.87 
  -7  -2   0   73.57    7.98 
   4   6 -17   54.41    6.52 
   4   6 -17   50.82    9.75 
   4  -6 -17   48.16    7.79 
  -4   6  17   51.40    5.78 
   4  -2 -33  115.68   11.40 
   4  -2 -33  116.21   10.93 
   0   4 -36   64.91    7.60 
   4   2 -33  119.91   11.94 
   0  -4 -36  111.57   11.44 
   0  -4 -36   58.63    9.36 
   0   4 -36   70.95    7.49 
  -4  -2  33  123.72   12.33 
  -4   2  33  103.94   11.90 
   7  -2   1  120.01   12.29 
  -7  -2  -1  125.65   12.24 
  -7  -2   2   -0.05    2.29 
  -7   2   2    0.55    2.36 
  -4   0 -34  269.30   26.22 
   7  -2  -2    0.95    2.05 
  -7   2  -1  115.84   11.91 
  -6  -3 -17    9.25    6.15 
  -6   3 -17    7.29    4.71 
  -6  -3 -17    8.31    3.89 
  -6  -1 -22    5.35    5.85 
  -6   1 -22    5.34    4.39 
  -6   1 -22   10.56    6.11 
  -6   4 -11   99.43   10.31 
  -5   0  30  741.15   14.43 
   6  -4  11   97.18   10.04 
  -6  -4 -11   83.71    8.08 
  -6   2  21   50.20    5.97 
   6  -2 -21   44.66    7.05 
   1   3 -38   24.44   11.49 
  -6  -2  21   49.00    6.33 
   1  -3 -38   32.67    4.80 
   1   3 -38   31.19    4.88 
   6   2 -21   55.25   17.34 
   1  -3 -38   21.27   11.87 
   6  -2 -21   48.51    6.16 
   1   8  -9   36.49   12.26 
   3   7 -14   35.12   11.86 
   3  -7 -14   47.20   12.77 
   1  -8  -9   35.36    5.49 
   5  -3 -26   69.70    7.94 
  -5  -1 -29   56.64    7.49 
  -3   7  14   42.77    5.71 
  -1   8   9   35.71    5.11 
  -5   1 -29   52.71    5.98 
  -5   3  26   72.83    7.56 
  -5   1 -29   66.65    7.99 
   5  -3 -26   70.79    8.32 
   5   3 -26   70.22   16.18 
  -5  -3  26   79.56    8.53 
   0   7 -22   28.60    4.66 
   5  -5  16   11.47    6.75 
  -5  -5 -16    9.99   10.38 
   0  -7 -22   24.49   15.41 
  -5   5 -16   16.13   10.42 
   7  -2   2    3.54    3.04 
  -7   2  -2    1.41    2.56 
  -7  -2  -2    1.12    1.37 
  -7   2   3   44.44   19.56 
   7  -2  -3   35.53    5.79 
  -7  -2   3   47.01    4.56 
   1  -8   9   30.45    4.63 
  -1  -8  -9   29.67   10.48 
  -1   8  -9   36.13   12.40 
   2  -7 -19    6.96    5.14 
   2   7 -19   10.24    6.62 
   0   2 -40    4.77    5.26 
   0  -2 -40    5.34    5.67 
   0   2 -40    4.12    3.69 
  -3   1 -37    2.01    2.24 
  -3  -1 -37    2.27    2.87 
   6  -4 -12    6.52    2.98 
  -3   2 -36   29.51    4.38 
  -3   2 -36   37.36   14.83 
  -7   0 -10   10.11    8.23 
   6   4 -12    2.95    3.88 
  -6   4  12    5.24    2.36 
  -6  -4  12    6.48    3.10 
  -3  -2 -36   32.94    5.42 
   3  -4 -32   52.61    6.52 
   3   4 -32   45.89    4.33 
   3  -4 -32   46.76    4.41 
   3   4 -32   47.11    4.79 
   5  -6   0   12.84    5.72 
  -5  -6   0   10.22    6.90 
   2   5 -31   65.71   10.54 
  -7  -2  -3   62.82    7.30 
   2  -5 -31   71.77    7.80 
   2   5 -31   67.84    7.26 
   7  -2   3   49.85    7.75 
  -5   6   0   14.25    4.96 
  -7   2  -3   64.22    7.34 
   2  -5 -31   66.69    7.16 
  -2   6 -26   19.40    9.75 
   4   5 -24    7.03    6.34 
  -2  -6 -26   20.31   10.31 
   6   3 -18   12.91    8.49 
  -7  -2   4   13.51   10.96 
  -6   3  18   11.56    5.89 
   7  -2  -4    8.53    5.87 
   6  -3 -18   10.08    6.31 
   4   5 -24    8.86    6.80 
  -6  -3  18   12.21    9.33 
   4  -5 -24    7.93    4.00 
  -5   6   1   40.46    6.12 
   2  -6  26   14.28    8.39 
   5  -6  -1   41.66    8.19 
  -4   5  24    8.17    5.19 
  -5  -6   1   40.80    8.08 
  -7   2   4   13.34    8.30 
   6  -3 -18   14.23    6.31 
   4  -5 -24    7.53    3.64 
  -7   0  11    0.49    1.14 
   7   0 -11    1.37    1.70 
   1   6 -28    7.32    3.23 
   3  -6 -23   14.41    6.23 
   1  -6 -28   13.19    6.77 
   1  -6 -28    7.18    6.41 
   3   6 -23   10.52    6.81 
   1   6 -28   12.32    4.11 
   3   6 -23   11.81    5.84 
   0  -8 -11   13.81    8.19 
  -1   3 -38   31.62    8.72 
  -1  -3 -38   24.70   13.70 
  -1   3 -38   33.16    4.96 
  -5   6  -1  156.69   15.01 
   0   8 -11   14.77    7.72 
   5  -6   1  147.94   14.57 
  -5  -6  -1  152.46   14.69 
  -3  -5 -28   53.36   20.36 
  -3   5 -28   46.81    3.90 
  -3   5 -28   52.09    7.00 
  -7  -1  -9   24.84    6.17 
  -7   1  -9   19.61    9.37 
  -3   7 -14   12.74    7.08 
   5  -6  -2   25.83   13.94 
  -5  -6   2   18.61   11.76 
  -5   4 -22    3.18    4.00 
  -5   4 -22    4.69    3.33 
   3  -7  14   12.54    7.93 
  -5   6   2   20.73   13.50 
   0   1 -41   43.05    5.49 
   0   1 -41   36.48   16.26 
   0  -1 -41   43.78    6.52 
  -6  -1  23  117.05   11.55 
  -6   1  23  122.96   12.14 
   6  -1 -23  113.43   10.74 
   6   1 -23  111.52   11.50 
   0  -5 -33   46.36    4.64 
   0   5 -33   36.49   13.30 
   2  -7  19   74.04    7.77 
   0  -5 -33   47.05    4.13 
   0   5 -33   40.10    5.68 
  -2  -7 -19   74.82    7.91 
  -4   6 -17   82.40    8.62 
   4  -6  17   84.03    9.64 
  -4  -6 -17   81.47    9.95 
  -2   7 -19   75.46    8.07 
   5  -6   2    8.11    4.34 
  -5   6  -2    5.12    1.74 
  -5  -6  -2    4.10    4.43 
  -7   1  10   29.21   11.76 
  -7  -1  10   29.10    9.77 
   7   1 -10   29.28    4.57 
   1   0 -41    0.64    1.11 
   5  -5 -17   30.74    5.19 
  -5   5  17   41.34    5.75 
  -5  -5  17   34.12   19.98 
  -5   6   3   13.67    4.55 
  -7   2  -4    5.11    2.82 
  -5  -6   3   15.82   12.29 
   5  -6  -3   12.26    6.96 
  -7  -2  -4    4.82    1.87 
   7  -2   4    6.36    3.42 
  -1   6 -28  101.70   10.42 
  -1  -6 -28   92.18    9.47 
  -1  -6 -28   98.38    9.88 
   7   2  -5    2.86    2.48 
  -7  -2   5    1.38    2.43 
  -7   2   5    3.97    2.59 
  -5   2 -28    2.94    2.16 
  -5  -2 -28    7.18    4.92 
  -5   2 -28    8.08    3.24 
  -5   6  -3    8.46    3.17 
  -4   4 -28  201.14   18.57 
  -5  -6  -3    9.90    6.03 
   2   8   0    4.78    2.06 
  -4  -4 -28  212.07   19.86 
   2   3 -37    6.96    5.93 
   2  -8   0    4.72    3.09 
  -2   8   0    3.75    2.70 
   2  -3 -37    8.33    5.22 
   2   3 -37    2.79    1.85 
  -4   4 -28  151.64   14.27 
   2  -3 -37    6.09    4.41 
   5  -6   3   10.21    6.23 
  -2   8   1  169.16   15.47 
   2   8  -1  154.49   14.07 
   2  -8  -1  147.33   13.91 
  -2   8  -1   42.92    6.12 
   1  -8 -10   32.88    5.13 
  -1   8  10   20.17    2.25 
   2  -8   1   38.88    9.74 
   2   8   1   37.71    5.17 
   1   8 -10   28.11    9.28 
  -6   0 -23   -0.07    1.97 
   2   8  -2   10.61    7.33 
   2  -8  -2   14.45    8.00 
  -5  -6   4   21.29   13.07 
   5  -6  -4   22.61    7.83 
  -2   8   2   13.46    7.76 
  -5   6   4   25.34   13.80 
  -2   5 -31    2.46    1.70 
  -4  -1 -34    3.32    3.01 
  -1   8 -10  108.49   10.85 
  -2   5 -31    3.20    3.15 
  -4   1 -34    4.41    4.27 
   1  -8  10  102.74    9.98 
  -1  -8 -10  107.40   11.17 
  -2  -5 -31    5.05    3.94 
  -4   1 -34    3.83    3.15 
   2   8   2    8.79    4.87 
  -2  -8  -2    8.39    4.49 
  -2   8  -2   10.02    8.44 
  -6  -4 -12   31.93    4.71 
   6  -4  12   35.24   17.00 
   2  -8   2    7.13    3.66 
  -6   4 -12   32.37   10.07 
  -4  -3 -31    1.34    2.18 
  -4   3 -31   -0.04    2.36 
  -4   3 -31    1.49    2.31 
   5   1 -30   24.86   11.01 
  -5   1  30   18.05    9.31 
  -1   0 -41    1.90    3.21 
  -5  -1  30   23.49    8.70 
  -7   2  -5    5.14    5.55 
  -7  -2  -5    8.86    4.59 
   7  -2   5    4.88    4.32 
   1  -4 -36   53.88    7.01 
  -3   6 -23   23.73    4.24 
   1   4 -36   58.67    6.89 
   3  -6  23   16.64    7.28 
   1   4 -36   59.95    6.68 
   1  -4 -36   54.51   10.71 
  -3  -6 -23   26.61   10.69 
  -5   6  -4   19.26    8.82 
  -5  -6  -4   14.49    2.39 
   2   0 -40   12.08    7.81 
   2   0 -40    9.55    5.80 
   2  -8  -3    5.94    4.92 
   2   8  -3    6.25    2.24 
  -7   2   6   15.90   10.43 
  -7  -2   6   10.05    7.20 
  -2   8   3    8.73    3.94 
   7  -2  -6   11.34    6.21 
  -7   0 -11   -0.27    1.63 
   5   4 -23   25.69   11.10 
   2  -8   3   24.76    9.55 
   5  -4 -23   15.37    8.86 
  -5   4  23   22.59    6.90 
   3   0 -38   31.05   19.08 
  -3   0  38   31.16    4.59 
   5  -4 -23   22.33   11.76 
  -5  -4  23   21.87   10.48 
  -2  -8  -3   22.91    4.12 
   2   8   3   25.62    3.75 
  -2   8  -3   22.59   11.02 
  -4   2 -33   44.24    6.22 
  -4   2 -33   42.98    6.70 
  -4  -2 -33   56.84    7.46 
   3  -7 -15   46.02   14.36 
  -3   4 -32   26.65    4.48 
  -3   7  15   43.80    5.75 
  -3   4 -32   39.54    5.73 
  -3  -4 -32   31.03   16.11 
   3   7 -15   40.35   12.17 
  -6   4  13   18.77   13.40 
   6  -4 -13   15.17   10.63 
  -7  -1 -10   -0.74    1.75 
  -6   2 -21   42.36    6.02 
  -6  -4  13   20.18   14.31 
  -7   1 -10    0.38    2.33 
   6  -4 -13   16.75   10.76 
   5  -6  -5   17.28    8.57 
  -5  -6   5   17.40   11.98 
  -5   6   5   16.70    7.75 
   7   0 -12   77.80    8.35 
   4   6 -18   32.25    5.13 
  -4   5 -24    5.06    3.79 
   4  -6 -18   30.90   13.93 
  -4   5 -24    3.59    3.67 
  -4  -5 -24    7.03    4.55 
  -4   6  18   28.18    5.31 
  -7   0  12   89.65    9.75 
   4   6 -18   29.85    9.84 
   1   7 -22    3.15    1.87 
   1  -7 -22    2.09    3.02 
  -5  -3 -26  133.73   20.18 
   1   2 -40   15.29    8.03 
   1  -2 -40   15.66    7.56 
  -5   3 -26  142.30   14.60 
   1   2 -40   11.56    5.84 
  -5   3 -26  145.16   13.75 
   3  -3 -35   29.32   14.06 
   0   8 -12    3.00    3.37 
   3  -3 -35   40.10   15.61 
   3   3 -35   34.73    6.34 
   3   3 -35   29.63   18.28 
   0  -8 -12    4.21    3.11 
  -7   1  11   82.68   10.01 
   2   8  -4   24.17    8.11 
  -7  -1  11   81.97    9.19 
  -4   0  35    1.36    1.64 
  -2   8   4   31.32    5.69 
   6   0 -24   52.50    6.75 
   4   0 -35    1.32    3.86 
  -6   0  24   50.74    6.08 
   2  -8  -4   24.09   10.74 
  -1   4 -36   35.11   10.52 
  -1  -4 -36   34.36    5.57 
  -1   4 -36   29.72    4.98 
  -6  -3 -18   37.77    6.22 
  -6   3 -18   42.03    6.13 
   2   8   4   69.16    6.85 
   5  -5  17   17.45    5.84 
  -5  -5 -17   13.32    8.79 
  -2  -8  -4   70.40    7.51 
  -2   8  -4   69.39    8.22 
   2  -8   4   76.04   14.44 
  -5   5 -17   17.61    8.53 
  -2   3 -37   10.98    9.49 
  -5   6  -5  165.85   15.62 
  -2   3 -37   16.27    7.83 
  -2  -3 -37   17.65   10.08 
  -5  -6  -5  165.10   15.42 
  -5   0 -30  257.26   25.25 
  -1  -7 -22    0.35    1.64 
  -1   7 -22    0.68    1.53 
  -7   2  -6    3.37    2.41 
  -4   7   0  180.04   16.67 
   0  -6 -29   70.14    7.46 
  -7  -2  -6    2.79    2.51 
   0   6 -29   77.54    9.42 
   4  -7   0  183.48   17.26 
   0  -6 -29   86.32    9.18 
   4   7   0  162.80   14.94 
   4   7  -1    8.63    7.01 
   4  -7  -1   10.00    6.66 
  -4   7   1    9.99    6.66 
  -4   7  -1   22.80   10.89 
   4   7   1   20.00    7.13 
   1  -1 -41    1.73    2.28 
   1   1 -41    0.82    1.22 
  -7   2   7   22.62    8.04 
  -7  -2   7   15.59   14.82 
   1   1 -41    1.08    2.25 
   7  -2  -7   19.59    8.11 
   4  -7  -2   24.53   13.86 
   5  -2 -29   13.44    9.51 
   3  -7  15    2.23    4.70 
  -4   7   2   27.37    8.85 
   5  -2 -29   11.43    4.62 
   5   2 -29   11.17    7.56 
  -5  -2  29   15.48    5.63 
  -3   7 -15    2.09    2.27 
  -5   2  29   13.04    7.26 
   4   7  -2   28.74    7.73 
   5  -6  -6    9.49    5.46 
   1  -8 -11    9.71    8.71 
   1   8 -11   12.54    4.50 
  -5   6   6   12.68    4.52 
  -5  -6   6   13.07    8.40 
  -1   2 -40    5.95    3.56 
  -1  -2 -40    7.68    4.02 
  -1   2 -40    6.76    4.88 
  -4   7  -2   84.43   11.77 
   1   5 -33    6.24    4.02 
   4  -7   2   78.12   15.92 
   1  -5 -33    6.99    5.60 
   6  -2 -22    3.36    2.56 
   1  -5 -33    5.06    4.91 
   4   7   2   73.71    9.65 
   6  -2 -22    2.66    3.36 
   1   5 -33    7.82    3.66 
   6   2 -22    3.63    6.27 
  -6  -2  22    5.82    3.50 
  -6   2  22    5.76    3.81 
   2   7 -20  110.83   14.80 
   2  -7 -20  112.21   14.96 
  -2   8   5    3.05    1.44 
   2  -8  -5    2.47    1.09 
   2   8  -5    0.60    1.04 
  -1   8 -11    9.94    3.49 
   1  -8  11    6.95    2.82 
  -1  -8 -11    8.19    3.97 
   6  -3 -19   17.97    8.26 
   6   3 -19   14.08   10.19 
   2  -8   5    9.12    3.09 
   4  -7  -3    7.42    4.27 
   2   8   5    5.33    5.18 
  -2  -8  -5    5.67    4.20 
  -6   3  19   24.80    4.57 
  -4   7   3    7.75    7.44 
   6  -3 -19   15.66    8.91 
  -2   8  -5   10.12    5.92 
   4   7  -3    7.80    4.39 
  -6  -3  19   17.56   11.22 
  -6   1 -23    4.87    2.27 
  -2   0 -40   65.38   10.97 
  -6  -1 -23    4.13    4.50 
   2   2 -39  122.60   15.73 
   2   2 -39  120.14   19.11 
   2  -2 -39  126.22   16.09 
   0   7 -23   18.41   12.54 
   0  -7 -23   21.19   13.25 
   2  -2 -39  119.76   15.96 
   3  -5 -29   24.73    4.42 
   3  -5 -29   20.09   11.24 
   3   5 -29   16.07   12.81 
   3   5 -29   18.97    9.46 
   4  -7   3   15.28    5.28 
   2  -4 -35   19.62   12.55 
   2   4 -35   16.62   13.20 
   2   4 -35   19.24   11.29 
  -4   7  -3   14.10    6.91 
   4   7   3    9.17    4.05 
   5  -6   6   42.32   17.42 
  -5  -6  -6   29.27    5.21 
   2  -4 -35   21.60   13.97 
  -5   6  -6   29.25   17.11 
   2  -6 -27    3.97    3.73 
  -4  -6 -18   29.69   16.08 
   4   4 -29    1.19    2.06 
   4  -4 -29    2.17    1.57 
   4   4 -29    2.39    1.90 
   2   6 -27    3.10    2.20 
   2   6 -27    3.37    2.90 
  -4   6 -18   37.38   11.31 
   4  -4 -29    1.93    1.56 
   4  -6  18   31.22    5.39 
   6  -4  13   30.25   15.89 
  -5   5  18    8.41    6.25 
  -1  -1 -41   32.24   15.51 
  -6  -4 -13   40.29    7.15 
  -1   1 -41   31.62    6.49 
   5  -5 -18    6.65    3.48 
  -5  -5  18    8.36    4.10 
  -6   4 -13   35.02    6.28 
  -6  -4 -13   32.11    5.02 
   0  -3 -39    8.86    5.91 
  -1   5 -33  241.98   31.06 
   0   3 -39    7.06    5.23 
   0   3 -39    7.79    7.40 
  -1  -5 -33  252.29   32.55 
  -1   5 -33  253.86   31.67 
   2  -1 -40   15.65    8.77 
  -7   0 -12    3.56    2.07 
  -4   7   4    5.70    3.75 
   2   1 -40   17.31    7.34 
   2   1 -40   19.05   12.93 
   4   7  -4    7.02    3.88 
  -7   2  -7   21.07   14.25 
   4  -7  -4    5.37    4.24 
  -7  -2  -7   26.78    4.95 
  -7   1 -11    6.68    7.61 
  -2  -7 -20   18.23   10.71 
  -7  -1 -11    7.31    7.57 
   2  -7  20   28.70    5.20 
  -2   7 -20   22.79   10.55 
   5   3 -27   10.05    5.83 
  -5   6   7    1.17    1.63 
   3  -1 -38  110.56   14.91 
   5  -3 -27   10.39    5.49 
   3   2 -37   99.95   13.73 
  -3   1  38  106.65   13.75 
   2  -8  -6    3.29    2.41 
   3   2 -37   97.10   12.73 
   3   1 -38   97.36   12.61 
   2   8  -6    3.16    1.73 
   3  -2 -37  105.14   16.10 
  -5   3  27    6.64    5.39 
  -5  -6   7    0.54    1.17 
  -2   8   6    2.64    2.73 
   3  -1 -38  103.19   13.61 
   5  -3 -27    7.26    5.64 
   3  -2 -37  102.71   13.35 
  -5  -3  27   13.36    4.61 
   7  -2  -8    6.16    3.00 
  -7   2   8    5.00    5.64 
  -7  -2   8    3.32    3.04 
  -7   0  13    0.17    1.12 
   4   7   4   10.62    8.64 
   4  -7   4   15.21    7.59 
  -4   7  -4   17.14    6.89 
   3   6 -24    9.57    7.54 
  -7  -1  12    7.23    6.91 
   3  -6 -24   12.39    5.45 
  -7   1  12    6.29    8.14 
  -3   0 -38   63.30   20.90 
   7  -1 -12    9.49    4.44 
   3   6 -24    9.21    4.97 
   6  -4 -14   60.76   11.89 
  -5   4 -23   67.39    4.85 
  -2  -8  -6   69.51    4.31 
  -5  -4 -23  100.59   14.37 
  -6  -4  14   55.01    8.94 
  -2   8  -6   72.74   10.03 
  -6   4  14   60.41    9.20 
  -5   4 -23   75.36   12.70 
   2  -8   6   76.67   10.52 
  -4  -3  32  338.36   11.74 
  -4   5  25   29.82    5.58 
   4   5 -25   28.60   10.39 
   4  -5 -25   31.31    5.37 
  -4   3  32  308.28   37.74 
   4   5 -25   29.20    7.36 
   4  -3 -32  310.02   38.57 
   4  -5 -25   26.84    4.47 
   4  -3 -32  304.23   37.49 
   0   8 -13   14.37    8.04 
   0  -8 -13   12.50    6.71 
  -3  -3 -35   17.93   11.81 
   4  -1 -35  178.73   23.13 
   6  -1 -24    0.39    0.98 
  -4   1  35  189.95   26.14 
   4  -1 -35  175.91   22.01 
  -3   3 -35   15.50   11.16 
  -6  -1  24    2.01    2.02 
  -6   1  24    1.69    1.97 
  -3   3 -35   17.98   11.25 
  -4  -1  35  201.12   25.33 
   4   1 -35  210.65   27.34 
   6   1 -24    2.79    4.04 
   4   7  -5   18.59    8.59 
   5   0 -31    0.87    3.05 
   3   7 -16  241.10   35.36 
  -4   7   5   17.55    7.15 
  -3   7  16  238.04   29.38 
   4  -7  -5   20.03   11.52 
   3  -7 -16  224.74   28.37 
  -5   0  31    2.03    2.16 
  -5   1 -30    5.70    4.22 
  -5  -1 -30    5.66    3.66 
  -5   1 -30    3.00    2.65 
  -2   6 -27    9.67    5.15 
  -5  -6  -7    4.63    4.19 
  -2  -6 -27   12.43    7.44 
   5  -6   7    4.50    3.81 
  -5   6  -7    8.75    3.11 
   2  -6  27   10.57    8.41 
   1   8 -12   62.84    9.43 
   1  -8 -12   59.24    8.81 
   4  -2 -34   13.62   10.03 
   4  -2 -34   14.53    7.81 
   4   2 -34   15.75    5.46 
  -4   2  34    8.68    7.19 
  -4  -2  34   14.44    4.37 
  -2  -4 -35   13.90    7.95 
  -2   4 -35   13.11    5.93 
   4  -7   5    6.86    3.70 
  -4   7  -5    8.40    4.63 
  -2   4 -35   10.39    6.20 
   4   7   5    4.97    4.74 
  -2  -2 -39    9.62    8.31 
  -2   2 -39    8.67    4.19 
  -2   2 -39    8.38    4.60 
   1   6 -29   86.27   12.44 
   2   8  -7   82.51   11.26 
   1  -6 -29   88.16   12.50 
   2  -8  -7   64.21    9.29 
  -2   8   7   73.34    9.90 
   1   6 -29   73.35   11.35 
  -7   2  -8   23.73   13.60 
  -1  -8 -12   82.30   11.43 
  -7  -2  -8   24.11   10.44 
   1  -8  12   81.85   10.95 
  -1   8 -12   91.65   12.61 
  -4   0 -35   -3.14    3.06 
  -5   6   8   25.54    9.72 
  -4   6  19   15.58    2.79 
   4   6 -19   16.72    7.30 
   5  -6  -8   20.99   14.70 
   4  -6 -19   11.55    7.90 
  -5  -6   8   22.15    4.44 
   4   6 -19   11.34    7.65 
  -3  -5 -29   38.12    7.05 
  -3   5 -29   35.56    5.73 
  -3   5 -29   33.18   14.38 
  -6   0 -24   25.40    4.64 
  -6   0 -24   22.22   13.20 
  -2  -8  -7    5.39    4.61 
   7  -2  -9   74.95   15.90 
  -2   8  -7   10.41    6.20 
  -7   2   9   77.14   11.07 
   2  -8   7    8.66    6.66 
  -7  -2   9   79.01   11.15 
  -2   1 -40   32.75   12.66 
  -2  -1 -40   35.66    6.49 
   0   0 -42  144.86   19.08 
   2   5 -32   45.09    7.12 
  -5   5 -18    9.92    6.14 
   4  -7  -6   91.59   13.04 
   4   7  -6   87.34   12.15 
  -5  -5 -18    7.89    6.42 
   2  -5 -32   52.73   15.61 
   0   4 -37   84.91   11.38 
  -4   7   6   89.23   13.29 
   0  -4 -37    5.06    2.39 
   2   5 -32   43.40    8.02 
   0  -4 -37   94.32   13.07 
   2  -5 -32   51.86    7.93 
   5  -5  18    7.03    2.31 
   0   4 -37   87.43   12.05 
   3   4 -33    2.38    1.51 
   3  -4 -33    4.23    2.12 
   3   4 -33    0.73    1.85 
   3  -4 -33    2.47    3.77 
   3  -7  16  112.54   14.83 
  -3   7 -16  116.71   19.63 
  -6   3 -19    3.68    2.81 
  -1  -6 -29   64.92    9.35 
   3  -6  24  123.25   16.70 
  -3  -6 -24  135.08   17.71 
  -1  -6 -29   66.06    5.18 
  -1   6 -29   67.11    4.85 
  -3   6 -24  136.21   17.87 
  -6   2 -22   45.91    7.39 
   5   4 -24  187.29   24.05 
   5  -4 -24  176.58   22.38 
   5  -4 -24  189.13   24.35 
  -5   4  24  196.63   24.68 
  -5  -4  24  186.08   23.95 
  -5  -2 -29    4.58    3.39 
  -5   2 -29    4.55    2.78 
  -5   2 -29    5.09    3.23 
  -7  -1 -12    9.49    5.82 
  -7   1 -12    9.89    5.59 
   1   7 -23   87.52   11.97 
  -4   4 -29    5.00    3.96 
   1  -7 -23   77.24   10.84 
  -4   4 -29    6.67    3.63 
  -4  -4 -29    6.64    5.59 
   4  -7   6   44.10   14.16 
  -4   7  -6   56.22    8.80 
  -6  -4 -14    9.50   10.06 
  -6   4 -14    9.63    4.96 
   1   3 -39   27.31    9.26 
   6  -4  14   12.20    7.35 
   1  -3 -39   41.64    7.14 
  -7   0 -13    0.64    1.10 
  -5   6  -8   51.22   18.37 
   1  -3 -39   46.54   11.88 
   1   3 -39   28.09   16.74 
   7  -1 -13   12.75   10.07 
  -7   1  13   21.20    7.81 
  -3  -2 -37  125.58   16.77 
  -3   2 -37  127.00   17.85 
  -7  -1  13   12.71   10.50 
  -3   2 -37  123.58   15.82 
   0  -5 -34   11.07    7.08 
  -3  -1 -38   94.63   13.74 
   2  -8  -8   27.66    9.55 
   0   5 -34   11.69    8.44 
   2   8  -8   18.40   12.78 
   0  -5 -34    8.64    5.82 
   0   5 -34    7.60    6.00 
  -2   8   8   21.57   10.02 
  -3   1 -38   84.11   12.35 
  -4  -5 -25   65.15   12.99 
  -4   5 -25   76.45   13.13 
  -1  -7 -23   15.83    7.21 
  -6   0  25    0.44    1.39 
   6   0 -25    1.98    1.99 
   7   0 -14    1.81    1.43 
   7   0 -14    2.39    3.14 
  -1   7 -23   15.02   10.69 
  -7   0  14    2.82    2.65 
  -6  -3  20    7.62    3.72 
   4  -7  -7   55.88    8.59 
   4   7  -7   55.49    8.85 
   6   3 -20    4.19    2.60 
   4   7  -7   55.15    8.03 
   6  -3 -20    4.37    2.08 
  -4   7   7   56.89   17.72 
   6  -3 -20    5.55    4.41 
  -6   3  20    6.77    5.45 
  -5   6   9   86.37   11.73 
   2   7 -21   10.64    6.31 
   2  -7 -21    9.54    9.69 
   5  -6  -9   85.99   11.97 
  -5  -6   9   93.79   13.04 
  -2   8  -8  134.70   17.57 
   2  -8   8  134.86   18.77 
  -2  -8  -8  122.38   15.83 
  -6  -4  15   43.03   17.78 
   5  -1 -31    9.70    3.80 
  -7  -2  -9   81.48   11.59 
   5   1 -31    9.90    7.01 
   0  -8 -14    5.90    2.51 
  -5  -1  31   13.46    7.08 
   6  -4 -15   46.02   12.21 
  -5   1  31    7.15    7.05 
  -6   4  15   45.45    7.33 
   0   8 -14    7.05    4.18 
  -7   2  -9   96.69   13.10 
   0   2 -41  232.63   29.33 
  -5   3 -27   14.85   10.31 
  -2   5 -32   50.57    7.55 
  -5  -3 -27   19.86    8.53 
  -5   3 -27   11.73    7.17 
   5  -5 -19  127.36   16.65 
  -5   5  19  121.93   18.82 
   0  -2 -41  259.35   32.71 
  -5  -5  19  146.85   19.35 
  -2   5 -32   47.48   12.66 
  -2  -5 -32   45.42    7.39 
   0   2 -41  204.75   25.48 
   4  -6  19    1.08    2.42 
  -6  -2  23   12.96    5.58 
   6  -2 -23    5.39    4.09 
  -4   6 -19    2.14    2.70 
  -4  -6 -19    1.46    1.72 
  -6   2  23    8.84    4.61 
   6  -2 -23    8.43    6.32 
   6   2 -23    8.86    6.58 
  -1   3 -39   16.37   10.29 
  -1  -3 -39   24.43   14.24 
  -1   3 -39   15.38    9.08 
  -4  -3 -32  198.75   25.58 
  -4   3 -32  211.94   26.45 
  -7   2  10   20.97   12.23 
  -4   3 -32  213.70   27.48 
   7  -2 -10   23.29   12.26 
  -7  -2  10   22.68   14.40 
   1  -8 -13   10.98    7.32 
   1   8 -13    8.77    6.69 
  -4   7  -7   13.74    4.89 
   4  -7   7   15.96    5.93 
  -1  -8 -13   22.57   12.57 
   1  -8  13   26.91    4.42 
  -1   8 -13   24.66    4.82 
  -4  -1 -35  164.54   21.76 
  -4   1 -35  160.22   21.31 
  -6   1 -24   27.31   12.37 
   3   7 -17   13.16    7.06 
  -6  -1 -24   34.19    5.33 
   3  -7 -17   17.87    9.96 
  -6   1 -24   23.75   16.98 
   2  -3 -38  233.52   29.39 
   2  -3 -38  233.35   28.98 
   6  -5  -1   84.61   11.95 
   2   3 -38  250.94   31.75 
   2   3 -38  229.61   28.61 
   0  -7 -24   82.17   11.47 
   0   7 -24   85.90   11.82 
  -6   5   0    2.56    1.50 
  -6  -5   0    2.40    3.09 
  -6  -5   1   94.76   12.87 
  -2   7 -21   56.05    8.60 
  -6   5   1   86.91   11.94 
   2  -7  21   45.90    7.71 
   6  -5   0    3.95    4.23 
  -2  -7 -21   52.66    7.95 
  -3  -4 -33    8.81    6.14 
   5  -6   9    2.76    2.26 
  -3   4 -33    7.77    4.80 
   0  -1 -42   43.33   13.71 
  -6  -5  -1   10.27    6.17 
   0   1 -42   40.07    6.75 
  -3   4 -33    6.07    4.87 
   6  -5   1   10.11    5.11 
  -6   5  -1   10.24    7.96 
  -5   6  -9    0.52    1.98 
   0  -6 -30   30.15    5.14 
   0   6 -30   27.01    4.80 
  -6   5   2   13.16   12.82 
   0  -6 -30   26.63    5.04 
  -6  -5   2   12.90    8.54 
  -4   2 -34   13.66    6.60 
  -4   2 -34   10.67    8.78 
  -4  -2 -34    9.14    5.57 
   1   0 -42   37.20   11.86 
  -2   8   9   22.37    3.89 
  -4   7   8   15.20   11.86 
   2   8  -9   13.70    8.76 
   4  -7  -8   11.78    9.63 
   4   7  -8   14.11    5.96 
   2  -8  -9   16.05    8.77 
  -5   0 -31   -0.12    3.07 
   4   7  -8   16.25    5.91 
  -6   5  -2   17.52    9.71 
   1  -4 -37    0.73    1.85 
   5  -2 -30   23.75   16.53 
   5  -2 -30   26.34    8.36 
   5   2 -30   28.85    9.83 
  -6  -5  -2   17.31   10.33 
  -5   2  30   30.83    5.15 
   6  -5   2   16.55   11.86 
  -5  -2  30   24.55   12.07 
   1   4 -37    0.76    1.38 
   1  -4 -37    0.20    1.30 
   1   4 -37   -0.40    1.97 
  -6   5   3   99.15   15.54 
  -6  -5   3   86.43   11.73 
   6  -5  -3   89.77   13.46 
  -2   8  -9  153.97   20.06 
  -5  -6  10    2.74    2.01 
   2  -8   9  165.40   21.31 
   5  -6 -10    4.67    4.40 
  -7  -1 -13   17.18   11.68 
  -5   6  10    4.45    2.76 
  -2  -8  -9  140.52   19.95 
  -7   1 -13   18.89    8.80 
   2  -6 -28    3.38    1.78 
   2   6 -28    4.16    3.32 
   2   6 -28    1.65    2.64 
  -5  -4 -24   93.03   12.97 
   3   3 -36  116.07   15.70 
   3  -3 -36  116.61   15.19 
   4   0 -36   19.01   11.44 
  -5   4 -24   92.01   12.30 
  -5   4 -24   92.08   12.56 
  -4   0  36   23.24    9.48 
   3  -3 -36  112.58   15.21 
   3   3 -36  111.00   14.52 
   3   6 -25   77.00   12.53 
  -6   5  -3   11.40    6.60 
  -7   2 -10   28.96    5.35 
   3   6 -25   73.83   10.37 
   3  -6 -25   75.74   10.78 
  -6  -5  -3    7.59    3.18 
   6  -5   3   10.22    5.39 
  -7  -2 -10   27.88   12.44 
  -7   0 -14    2.77    1.62 
  -7   0 -14    2.85    2.41 
  -3   7 -17    5.95    4.59 
   3   0 -39    0.60    2.10 
  -4   7  -8   30.00    9.82 
   3   0 -39    0.51    1.04 
   4  -7   8   18.81    9.27 
   3  -5 -30    5.96    3.82 
   7  -1 -14   43.90    7.81 
   3   5 -30    5.82    2.53 
   7  -1 -14   42.42    6.75 
   4  -6 -20   29.90    5.33 
   3   5 -30    3.91    3.65 
  -7  -1  14   49.84    8.10 
  -4   6  20   34.53    5.37 
   4   6 -20   25.93    8.90 
   4   6 -20   32.33    8.08 
   3  -5 -30    4.93    4.76 
  -7   1  14   46.45   10.95 
  -6  -1  25    3.21    2.39 
  -6   5   4   14.14    9.57 
   4  -4 -30   91.65   12.47 
   6   1 -25    1.71    2.29 
  -6   4 -15    4.79    3.40 
   4   4 -30   95.07   13.66 
  -6   1  25    3.08    2.35 
  -6  -5   4   11.81    4.56 
   6  -1 -25    3.85    3.01 
   4   4 -30   95.56   12.82 
   6  -5  -4   13.53    8.51 
   4  -4 -30   95.35   12.79 
   6  -1 -25    1.77    1.54 
   4   5 -26    5.94    4.99 
   4  -5 -26    4.53    3.73 
   5  -3 -28   88.95   12.11 
  -1   4 -37  103.98   13.94 
   5  -3 -28   80.12   10.73 
   4  -5 -26    9.96    4.93 
  -1   0 -42  354.46   12.25 
  -1  -4 -37   93.08   12.82 
  -1   4 -37   91.96   12.21 
  -5  -3  28   90.51   12.56 
   2   0 -41    1.99    1.18 
  -5   3  28   98.61   13.07 
   4   5 -26    7.49    3.58 
   5   3 -28   88.99   19.07 
   7   2 -11   41.83    8.15 
   7  -2 -11   37.95    8.71 
  -7  -2  11   36.11    6.33 
  -7   2  11   31.23   11.69 
   5  -5  19  105.55   14.29 
   1   5 -34   24.52   12.67 
  -5  -5 -19   94.97   15.59 
   1  -5 -34   27.80   15.00 
   1   5 -34   19.06   13.18 
  -5   5 -19   88.37   11.94 
   1  -5 -34   30.01    8.91 
   7   0 -15    0.51    0.85 
  -7   0  15    2.37    2.64 
   6  -5   4   10.78    6.19 
  -6   3 -20    1.14    2.15 
  -2   3 -38   24.17   14.65 
  -6   5  -4   10.99    5.59 
  -2  -3 -38   31.14    6.57 
  -2   3 -38   27.46    5.21 
  -6  -5  -4    9.46    3.88 
   1  -2 -41   48.30   20.78 
   1   2 -41   42.08   19.98 
   1   2 -41   46.05    6.93 
   4   7  -9    1.15    1.02 
   0   8 -15    4.89    2.15 
  -4   7   9    2.36    1.75 
   5  -6  10   39.73    8.32 
   0  -8 -15    4.65    2.83 
   4  -7  -9    2.67    3.01 
  -5   6 -10   41.31    8.09 
   4   7  -9    0.69    1.89 
   6  -5  -5   15.81   11.47 
  -6   5   5   15.24   11.52 
  -6  -5   5   16.73   10.88 
  -6   4  16   67.01    5.00 
  -6  -4  16   68.67    5.93 
   1   8 -14    2.38    3.11 
   6  -4 -16   62.04    9.38 
   1  -8 -14    3.44    2.57 
   6  -4 -16   60.77    9.10 
  -1   5 -34    0.17    1.20 
   2   8 -10   36.75    9.66 
   2  -8 -10   39.19   17.83 
  -2   8  10   31.48   11.02 
  -1  -5 -34    3.28    2.27 
  -1   5 -34    1.61    1.41 
  -2  -6 -28  129.44   16.82 
  -2   6 -28  137.07   18.08 
   2  -6  28  135.78   17.13 
  -6   0 -25    2.38    3.58 
  -6   0 -25    0.29    0.86 
   2   4 -36   57.38    8.71 
   2  -4 -36   59.65    8.96 
   2   4 -36   67.59    5.16 
   2  -4 -36   61.87    9.23 
  -1  -8 -14   27.96   12.27 
  -1   8 -14   29.57    5.15 
  -7  -3   1    4.61    4.48 
  -7   3   0    7.15    5.14 
   7  -3   0    7.41    6.51 
  -7   3   1    4.28    3.83 
   7  -3  -1    5.82    2.09 
  -7  -3   0    5.81    4.31 
  -6   2 -23   58.13    8.85 
   4  -3 -33   17.25   12.62 
   4   3 -33   18.51    6.18 
  -2  -8 -10   58.44    8.39 
   4  -3 -33   16.85    6.90 
   2  -8  10   46.91   23.69 
  -2   8 -10   66.53   13.96 
  -7  -3  -1    4.51    2.84 
  -6   5  -5   40.63    8.40 
   7  -3   1    3.90    2.74 
  -6  -5  -5   35.75    6.39 
  -7   3  -1    5.84    4.13 
   6  -5   5   37.34   10.42 
   1  -1 -42    4.54    2.98 
  -4   7  -9    1.35    1.53 
   5  -6 -11    9.19    6.62 
  -7   3   2  141.93   21.92 
  -5   1 -31   76.28   10.32 
  -5   0  32   92.42   13.75 
   1   1 -42    2.00    1.38 
   3  -6  25   27.24    4.79 
  -5  -1 -31   71.67   10.52 
   5   0 -32   95.49   13.17 
  -5  -6  11    7.35    8.20 
  -5   6  11    8.49    7.30 
  -7  -3   2  142.01   18.31 
   7  -3  -2  146.68   20.31 
  -5   1 -31   77.58   11.67 
  -3   6 -25   24.84   13.45 
   1   1 -42    4.91    3.62 
   4  -7   9    4.15    4.28 
  -3  -6 -25   23.44    4.70 
   1   7 -24   90.86   12.89 
  -1   2 -41  216.80   29.06 
  -1   2 -41  220.07   27.19 
   1  -7 -24   97.64   13.52 
  -1  -2 -41  238.79   30.39 
  -6   3  21    2.06    1.87 
   5  -4 -25   28.04   15.54 
  -5   5  20    6.10    3.10 
   5  -4 -25   31.26   15.26 
  -6  -3  21    3.21    2.39 
  -5  -5  20    4.19    2.97 
  -5   4  25   35.43    5.68 
   6  -3 -21    2.09    2.92 
  -5  -4  25   37.67   17.69 
   6  -3 -21    4.33    2.07 
   5  -5 -20    5.93    3.15 
   5   5 -20    7.56    4.59 
   6   3 -21    2.48    2.14 
   5   4 -25   32.53    6.06 
   1   6 -30   59.26    8.64 
   2  -2 -40   43.31    6.83 
   2   2 -40   42.13    8.75 
   6  -5  -6   19.83    9.70 
   1   6 -30   73.64   10.57 
   1  -6 -30   79.87   11.23 
  -6   5   6   18.37   11.60 
  -6  -5   6   17.54    9.72 
   2  -2 -40   44.72    7.49 
   2   2 -40   45.43    6.82 
  -7   3  -2  122.01   16.27 
   7  -3   2  123.79   16.44 
  -4  -6 -20   10.76    7.82 
  -7  -3  -2  122.74   15.98 
  -4   6 -20   13.99   10.20 
   4  -6  20   13.15    7.92 
  -7   3   3    7.49    5.36 
  -7  -2 -11    2.08    2.46 
   2   7 -22    4.71    3.97 
   7  -3  -3   13.22    7.57 
  -7   2 -11    3.07    2.14 
   2  -7 -22    8.27    5.59 
  -7  -3   3    6.96    2.83 
  -3   5 -30   42.13   12.36 
  -2   0 -41    1.10    3.37 
  -3   5 -30   47.73    9.34 
  -3  -5 -30   58.34    9.27 
   3  -7 -18  196.61   25.58 
   3  -2 -38   13.47    8.87 
   3  -2 -38    9.20    6.01 
   3   2 -38    7.27    6.18 
   3   2 -38   11.16    8.92 
   3   7 -18  200.53   27.38 
   0  -3 -40  167.39   21.79 
   0   3 -40  152.15   19.19 
   0   3 -40  158.48   20.57 
   4   1 -36   35.13   16.02 
   4  -1 -36   47.20   17.83 
  -1   7 -24   40.59    5.97 
  -4   1  36   43.99    6.73 
  -1  -7 -24   33.57    8.52 
  -4  -1  36   49.15    7.93 
  -3   3 -36   14.62   12.41 
   3   1 -39    1.39    1.67 
  -7  -1 -14    6.48    3.48 
   3  -1 -39    0.51    0.53 
   3   1 -39    0.67    1.45 
  -3  -3 -36   18.80   12.70 
  -7   1 -14    4.23    4.33 
   3  -1 -39    1.26    1.76 
  -3   3 -36   11.02   10.33 
  -7  -1 -14    5.02    5.56 
  -7  -2  12   26.80   14.13 
   7  -2 -12   27.11    7.05 
  -7   2  12   36.74   14.04 
  -7   3  -3   16.01    9.68 
   2   1 -41    5.75    2.43 
  -7  -3  -3   14.15    7.40 
   2   1 -41    7.07    6.87 
   2  -1 -41    7.24    5.49 
  -7  -3   4   33.17   15.91 
  -7   3   4   41.39   11.71 
  -4  -2  35   17.43    6.88 
   4  -2 -35   17.88    8.85 
   4  -2 -35   15.02    4.87 
  -4   5 -26   23.76   12.94 
  -4   7  10   90.59   10.59 
   4   2 -35   16.92   12.07 
  -1  -6 -30   65.23    8.16 
  -4  -5 -26   26.59   15.75 
  -4   2  35   18.75    3.09 
   4  -7 -10   81.51   11.88 
  -6   0  26    1.62    2.80 
  -1  -6 -30   73.81    9.43 
   4   7 -10   96.97   11.41 
  -1  -1 -42  106.60   12.93 
  -1   1 -42   99.28   12.23 
  -1   6 -30   60.39    9.37 
   7  -3  -4   33.50   11.40 
  -6  -2  24   19.95   12.64 
   6   2 -24   12.51   13.72 
   6  -2 -24   13.52   12.57 
  -6   2  24   22.08    4.79 
   6  -2 -24   18.88    2.58 
   6  -5   6    6.73    2.94 
  -6  -5  -6    8.60    4.06 
  -6   5  -6    8.28    4.46 
  -3   0 -39   -0.74    3.48 
  -7  -1  15   26.76    4.53 
  -7   1  15   34.04   11.40 
   7  -1 -15   30.80    4.81 
   2  -5 -33    7.87    8.64 
   2  -5 -33   14.28    3.15 
  -5   2 -30   26.21   12.36 
   2   5 -33    9.99    7.03 
   2   5 -33    6.92    5.95 
  -5   2 -30   26.73    9.44 
  -5  -2 -30   28.95   14.00 
  -7   0 -15   -0.28    2.12 
  -4  -4 -30  171.62   19.40 
  -4   4 -30  175.73   19.40 
  -5   6 -11   42.68    6.50 
   5  -6  11   37.20   12.20 
  -4   4 -30  157.33   17.54 
  -2   4 -36    0.82    1.55 
  -2  -4 -36   -0.26    2.26 
  -2   4 -36    0.30    1.31 
  -6   5   7   28.44   13.53 
  -2   7 -22   10.69    5.17 
   2  -8 -11   50.49   21.50 
  -6  -5   7   26.83    8.97 
   2  -7  22    7.27    3.86 
   6  -5  -7   34.19    5.26 
   2   8 -11   49.68    9.83 
  -2  -7 -22   10.51    5.21 
  -2   8  11   49.46    5.96 
   3   4 -34   82.65   15.18 
   3  -4 -34  100.38   12.11 
   3  -4 -34   98.16   11.32 
   3   4 -34  103.73   11.98 
  -6   4 -16    5.22    3.60 
  -6   4 -16    2.48    2.71 
  -7   3  -4   15.52   10.86 
   7  -3   4   21.46   11.64 
  -7  -3  -4   16.35   11.78 
  -4   0 -36  378.51  157.42 
   7   0 -16    9.38   10.31 
  -7   0  16   14.89   10.18 
  -3   7 -18    6.43    4.99 
   3  -7  18    6.19    5.51 
  -7   3   5   13.33    5.71 
  -7  -3   5   16.30    6.32 
  -5  -3 -28   87.95   11.42 
  -5   3 -28   92.58   11.16 
  -5   3 -28   87.77   12.46 
  -4   7 -10  290.84   30.73 
   2  -8  11   18.23    6.71 
   4  -7  10  272.77   29.22 
  -2  -8 -11   17.67    2.49 
  -2   8 -11   21.47    3.94 
   0   7 -25   48.99    6.32 
   0  -7 -25   45.69    6.33 
  -6   1 -25   68.96   13.27 
  -6   1 -25   67.45    8.18 
   1   8 -15   20.18   11.63 
   1  -8 -15   19.41   10.98 
  -2   2 -40   13.20    7.99 
  -2   2 -40   13.55    7.19 
  -2  -2 -40   11.66    7.12 
   0  -8 -16   19.53   10.87 
  -5  -6  12    4.12    6.47 
   0   8 -16   17.83    8.35 
  -5   6  12    4.61    3.14 
   5  -6 -12    6.36    4.30 
   0  -4 -38   87.66   10.63 
   0   4 -38  100.91   14.67 
   0   4 -38   89.90   10.82 
   4   6 -21   34.10    5.01 
  -4   6  21   32.45   10.32 
   4   6 -21   34.98   14.38 
   4  -6 -21   33.50   13.28 
   5  -1 -32   47.07   14.71 
   6  -5   7    5.48    2.54 
  -6  -5  -7    3.56    2.69 
   6   4 -17    8.73    6.49 
   6  -4 -17    9.01    8.61 
  -5   1  32   51.98    9.73 
   5   1 -32   55.63    8.34 
  -5  -1  32   56.21    8.54 
  -6   5  -7    2.91    1.75 
  -6  -4  17    6.98    5.51 
  -6   4  17   11.76    4.89 
  -1  -8 -15    1.56    2.92 
  -1   8 -15    5.20    2.71 
  -5   5 -20   11.28    7.75 
   5  -5  20   13.72    5.13 
  -7  -3  -5   22.79    3.99 
  -7   3  -5   14.59   14.53 
   7  -3   5   18.70   13.53 
   0   5 -35   16.27   12.92 
   0  -5 -35   18.91   11.40 
   0   5 -35   17.27   11.03 
   0  -5 -35   22.44    9.11 
  -7  -2 -12    4.40    3.97 
  -7   2 -12    4.65    3.95 
  -2  -5 -33  110.11   13.30 
   7  -3  -6    5.30    2.61 
  -7   3   6    4.64    2.89 
  -7  -3   6    3.17    2.89 
  -2   5 -33   99.73   11.75 
  -2   5 -33  111.03   12.62 
  -2   1 -41    1.63    1.77 
  -6   5   8   12.68   14.64 
  -6  -5   8   16.84   11.91 
  -2  -1 -41    4.37    2.58 
   6  -5  -8   15.53    9.80 
  -4  -3 -33   28.59   12.74 
   4   7 -11    1.10    0.78 
  -4   3 -33   26.94    8.26 
  -4   7  11    3.46    2.14 
  -4   3 -33   26.25   12.56 
   4  -7 -11    3.33    2.49 
  -5  -4 -25   29.59   14.63 
  -5   4 -25   35.17    7.72 
  -5   4 -25   35.61    6.09 
  -6   3 -21    7.06    6.00 
  -7   2  13   77.79   11.72 
   7  -2 -13   74.81    9.98 
  -7  -2  13   80.44   14.43 
   3   6 -26   23.89    5.35 
  -3   2 -38    8.78    5.67 
  -3   2 -38   12.34    4.19 
  -3  -2 -38    8.87    7.31 
   3  -6 -26   20.91   15.28 
   3   6 -26   20.74   11.99 
   0   0 -43    2.79    5.37 
   1   3 -40  315.78   32.85 
   1  -3 -40  323.71   34.57 
   1   3 -40  336.06  139.78 
  -6  -1  26    1.06    1.34 
   6  -1 -26    1.16    2.44 
   6   1 -26    2.05    3.03 
  -6   1  26    1.69    1.74 
   0  -6 -31   29.54    4.35 
   0   6 -31   34.48    6.25 
   0  -6 -31   27.74   14.37 
  -3  -1 -39   92.33   11.35 
  -3   1 -39   85.91   10.88 
  -5   2  31  113.67   12.87 
  -5  -2  31  113.83   13.19 
   5   2 -31  102.29   18.60 
   5  -2 -31  111.49   12.50 
   5  -2 -31  115.40   13.43 
   2   8 -12    2.96    1.76 
  -7  -1 -15   58.51    9.17 
   2  -8 -12    3.13    1.51 
  -7   1 -15   59.70    7.70 
   5  -6  12    1.42    2.22 
  -7   1 -15   62.84    9.16 
  -7  -1 -15   58.05    9.44 
  -5   6 -12    2.93    1.52 
   2   6 -29   51.16    6.97 
   4  -5 -27   18.45    6.54 
   4   5 -27   13.94    7.90 
   4  -5 -27    8.08    5.85 
   2  -6 -29   55.07    7.28 
   2   6 -29   40.69    5.32 
   4   5 -27   10.05    9.48 
  -7   3  -6   57.32    7.94 
   7  -3   6   56.91    7.93 
  -7  -3  -6   56.25    7.13 
  -5   0 -32   10.33    6.08 
  -3   4 -34   83.51   10.08 
  -3  -4 -34   81.39   10.71 
  -3   4 -34   81.94   10.35 
  -7   3   7   32.32   13.83 
   6  -5   8   10.01    6.60 
  -7  -3   7   20.45   13.16 
  -6   5  -8    9.96    7.30 
  -6  -5  -8   10.62    4.36 
   7  -3  -7   26.29    8.64 
  -4  -1 -36    3.74    3.07 
  -4   7 -11   11.98    5.06 
  -4   1 -36    4.43    3.75 
   5  -5 -21    6.06    2.85 
   3  -7 -19    5.63    3.02 
   5  -3 -29   32.18    7.11 
  -5   5  21    4.01    2.64 
  -5   3  29   28.97    4.21 
  -5  -3  29   26.58   13.44 
  -5  -5  21    4.05    2.11 
   5   3 -29   31.69   14.70 
   3   7 -19    5.27    5.17 
   5  -3 -29   20.82   13.70 
   7  -1 -16    0.32    1.84 
  -7  -1  16    1.32    2.15 
  -7   1  16    1.78    1.63 
  -6   3  22   10.67    5.73 
  -6  -3  22   11.92    5.61 
  -2  -8 -12   11.96    8.19 
   2  -8  12   13.60    4.56 
   6  -3 -22    5.02    6.27 
   6  -3 -22    7.94    4.36 
   6   3 -22    6.76    6.72 
  -2   8 -12   15.31    7.45 
   3   5 -31   48.03    6.27 
  -4   2 -35    1.30    1.99 
   3  -5 -31   39.56    5.35 
  -4  -2 -35    3.44    3.35 
   3   5 -31   42.23   17.40 
  -1   3 -40  119.06   19.63 
  -1  -3 -40  134.79   15.90 
  -1   3 -40  122.13   13.88 
   3  -5 -31   42.49    5.95 
  -4   2 -35    2.18    1.55 
   4  -6  21   26.28   10.36 
  -7   0 -16  130.17   15.51 
  -4   6 -21   28.02   13.60 
  -4  -6 -21   30.75   11.83 
   4  -4 -31    1.28    1.81 
   4  -4 -31    3.75    3.27 
   4   4 -31    2.29    3.44 
   4   4 -31    1.81    2.01 
  -6   2 -24    7.12    4.81 
  -6   5   9   13.54    6.01 
  -6  -5   9   10.72    6.95 
   6  -5  -9   10.15    8.58 
   0  -2 -42   64.80    8.46 
   0   2 -42   65.66    9.23 
   0   2 -42   63.70    7.79 
   5   6 -13   41.26   13.07 
  -5   6  13   50.69   21.70 
   5  -6 -13   43.91   14.73 
  -6   0 -26    1.40    2.16 
   2   3 -39   11.24    8.41 
   2  -3 -39   12.57    7.10 
  -6   0 -26    1.09    0.95 
   2  -3 -39   13.36    7.61 
   2   3 -39    9.45    9.61 
   2  -7 -23    8.26    6.30 
   2   7 -23   16.94    5.84 
  -6   4 -17   31.94    5.15 
   7   0 -17    0.82    1.63 
  -7   0  17   -0.07    2.43 
   1  -7 -25   15.56   10.18 
  -6   4 -17   30.30    6.55 
   1   7 -25   13.34    5.75 
   1   4 -38   35.78    5.09 
   1  -4 -38   37.92    9.79 
   1   4 -38   36.16    5.61 
   1  -4 -38   28.75   15.54 
  -2   6 -29   82.14   10.91 
  -5   4  26   50.44   21.30 
  -5  -4  26   48.83    7.52 
  -3   6 -26   14.13    6.65 
   5  -4 -26   42.27   10.00 
  -3  -6 -26   11.36    6.90 
   3  -6  26    9.83    4.77 
   5   4 -26   49.15   10.19 
   5  -4 -26   40.51    5.67 
  -2  -6 -29   88.90   10.93 
  -7   3  -7   11.76   10.33 
  -7  -3  -7   11.90    9.26 
   7  -3   7   15.29   10.25 
   4   7 -12   83.92   10.38 
   4  -7 -12   59.25   19.69 
  -4   7  12   65.15    7.97 
   1  -8 -16   62.54   10.54 
   1   8 -16   56.40   14.87 
  -7   2 -13  169.79   21.55 
  -7  -2 -13  165.89   18.04 
   4   0 -37    1.67    2.57 
  -7   3   8   69.61   11.39 
   3   3 -37   82.14   10.64 
   7  -3  -8   73.55    9.70 
  -4   0  37   -0.45    2.04 
   3  -3 -37   85.59   10.03 
   3   3 -37   79.42    9.74 
   3  -3 -37   80.37   10.14 
  -7  -3   8   72.75    9.39 
   0  -8 -17   24.19   12.15 
   1   5 -35   20.70   10.25 
   1   5 -35   14.10    8.50 
   1  -5 -35   22.44    3.92 
   1  -5 -35   25.41    4.91 
   0   8 -17   19.68    9.44 
  -1   7 -25    6.04    3.23 
   3  -7  19   16.51    8.09 
  -3   7 -19   17.65   13.08 
  -1  -7 -25    8.94    5.27 
  -1  -8 -16   11.61    9.73 
  -1   8 -16    8.74    9.87 
   0  -1 -43   54.16    7.62 
   0   1 -43   57.59    8.06 
  -7  -2  14    6.19    5.48 
  -7   2  14    4.77    3.73 
   3   8   0   24.13    8.59 
  -6  -5  -9   26.98    3.94 
  -6  -2  25   28.24    9.77 
   6  -2 -25   21.38   14.41 
   6   2 -25   27.89    9.12 
   3  -8   0   24.61   10.03 
  -3   8   0   27.06   11.08 
  -6   5  -9   29.57    5.72 
   6  -5   9   24.16   15.21 
   6  -2 -25   20.02   11.33 
  -6   2  25   22.44   12.38 
   3  -8  -1  178.58   19.80 
   6  -4 -18    9.29    5.14 
   6  -4 -18    6.16    4.89 
  -6  -4  18    9.78    3.80 
  -6   4  18    9.72    5.01 
   3   8  -1  169.23   18.15 
  -3   8   1  184.21   19.92 
  -3   8  -1    5.55    3.40 
   3  -8   1    6.26    5.51 
   3   8   1    5.15    3.73 
   1   0 -43    1.52    1.86 
   2  -7  23    8.11    5.17 
  -2   7 -23   14.25    6.48 
  -1   4 -38  139.32   16.46 
  -1  -4 -38  159.92   18.12 
  -1   4 -38  152.53   17.07 
   2  -8 -13    9.76    6.72 
   3   0 -40   52.76    7.52 
   3   0 -40   49.50    5.96 
   3   8  -2   14.25    8.88 
   2   8 -13   14.41    8.35 
   3  -8  -2   14.11   13.12 
  -3   8   2   13.21    4.70 
   6   0 -27    0.87    2.03 
  -5   6 -13    3.90    2.69 
   5  -6  13    3.50    3.47 
  -6   0  27    0.65    1.65 
   3  -8   2   16.08    9.32 
  -3   8  -2   15.62   10.29 
   3   8   2   12.50    9.34 
  -5  -1 -32  202.84   25.91 
  -1   5 -35    6.36    8.20 
  -6  -5  10    5.60    3.99 
   1   6 -31   32.27    5.31 
  -5   1 -32  181.62   21.36 
   1   6 -31   34.98    5.52 
  -5   1 -32  169.16   19.28 
  -4   5 -27   25.42   14.53 
  -1   5 -35    9.54    5.48 
  -4  -5 -27   17.95   14.15 
  -1  -5 -35   14.21    6.65 
   6  -5 -10    6.48    3.59 
   1  -6 -31   37.79    5.87 
  -4   7 -12   18.75   10.87 
   5   0 -33    1.86    2.80 
   4  -7  12   13.78    8.32 
   4   3 -34    7.38    4.27 
   4  -3 -34    7.93    3.81 
   4   3 -34    6.13    5.95 
   4  -3 -34    7.84    7.80 
   3   8  -3    1.48    1.00 
  -3   5 -31   38.48    5.26 
  -3   8   3    0.61    1.99 
  -3   5 -31   51.27   13.28 
  -2   3 -39    2.98    2.58 
  -2  -3 -39    6.39    4.26 
  -3  -5 -31   47.71    7.12 
  -2   3 -39    2.50    2.08 
   3  -8  -3    0.89    1.93 
   4   6 -22   15.49    4.37 
  -5  -5 -21   49.50   10.29 
   4  -6 -22   14.03    4.96 
   4   6 -22   14.09    9.26 
  -5   5 -21   48.38   10.21 
   2   0 -42    3.65    3.96 
   5  -5  21   40.71   12.43 
  -3   8  -3   55.58    7.11 
   3  -8   3   58.59    7.78 
   3   8   3   47.83    5.97 
  -2   8 -13   23.75   13.08 
  -7   3  -8   66.72    8.86 
   2  -8  13   24.39    9.75 
  -7  -3  -8   58.17    7.21 
  -2  -8 -13   26.63    4.05 
   2  -4 -37    6.84    5.44 
  -7  -1 -16    1.59    2.94 
  -7   1 -16    2.69    1.84 
   2   4 -37    5.43    4.15 
  -7  -1 -16    1.26    2.78 
   2  -4 -37    5.30    2.46 
   2   4 -37    4.22    2.84 
  -1   0 -43   -2.24    4.91 
  -1  -6 -31  134.53   15.55 
  -1   6 -31  133.00   16.65 
  -7   3   9    1.22    2.69 
   0  -7 -26    6.05    3.75 
   0   7 -26    3.81    3.19 
   7  -3  -9    4.10    3.07 
  -7  -3   9    0.74    1.79 
  -1  -6 -31  145.62   16.16 
  -6   1 -26   65.39   15.77 
  -6   1 -26   56.05    7.03 
   5   6 -14   40.63    5.85 
   5  -6 -14   42.33    7.28 
   3   8  -4    0.62    2.09 
  -5   6  14   47.89    6.12 
  -3   8   4    0.95    1.39 
   3  -8  -4    1.50    2.57 
   1   2 -42   89.83   10.12 
   1  -2 -42   84.95   10.68 
   1   2 -42   99.70   11.97 
  -5   2 -31   77.00   10.60 
  -5  -2 -31   77.43   10.36 
  -5   2 -31   81.84    9.84 
   7  -1 -17   81.90    9.95 
  -7  -1  17   81.18   10.22 
  -7   1  17   88.98   11.33 
  -4  -4 -31    8.59    5.86 
  -4   4 -31    8.77    2.79 
  -6   3 -22   36.29    5.39 
  -4   4 -31   10.63    4.40 
   3  -8   4   25.39   12.93 
  -3   8  -4   25.88   12.90 
  -5   3 -29   70.34   11.50 
  -5   3 -29   61.96    8.66 
  -5  -3 -29   70.16    9.72 
   4   7 -13    1.12    1.40 
  -4   7  13    2.29    2.26 
   4  -7 -13    3.16    2.54 
   6  -5  10    3.38    3.05 
  -7   0 -17   -0.33    4.28 
  -6   5 -10    1.44    2.14 
   4  -1 -37    4.98    3.80 
  -4   1  37    3.57    3.43 
  -4  -1  37    2.83    2.89 
   4   1 -37    3.96    5.62 
   2  -5 -34    7.31    4.70 
   2   5 -34    5.02    5.77 
   2  -5 -34    6.65    3.58 
   2   5 -34    7.42    4.12 
  -3  -3 -37    3.82    3.45 
  -3   3 -37    0.99    1.35 
   4   2 -36   21.03   11.43 
   3   7 -20   39.72    5.90 
  -4  -2  36   26.13    7.85 
  -3   3 -37    0.82    1.67 
   4  -2 -36   31.31    6.86 
   4  -2 -36   19.82   13.59 
   3  -7 -20   33.65    9.75 
   3   8  -5   77.65    9.08 
  -3   8   5   66.51    8.15 
   3   2 -39   46.12    9.15 
  -7  -2 -14    0.65    1.24 
   3  -8  -5   68.59    8.69 
   3  -2 -39   52.23    6.60 
  -7   2 -14    1.29    2.23 
   3  -2 -39   57.48    7.97 
   3   2 -39   46.08    6.08 
  -5   4 -26   40.81    5.71 
  -5  -4 -26   38.45   19.15 
  -5   4 -26   39.66   15.08 
  -7   0  18   79.00   10.02 
   3  -4 -35   21.46    8.64 
   6  -5 -11   19.54   10.19 
   2  -2 -41   19.34    9.51 
  -1  -2 -42   31.14   16.27 
   3   4 -35   20.29   19.02 
  -6   5  11   26.69   10.73 
   2   2 -41   20.07    3.40 
  -1   2 -42   29.71   15.96 
  -1   2 -42   37.87    4.85 
   3  -4 -35   20.07   13.04 
   2  -2 -41   12.17    4.93 
   2   2 -41   23.32    7.06 
  -6  -5  11   15.59   13.56 
   3   4 -35   17.49   13.81 
   5  -5 -22   16.36    8.33 
  -5   5  22   12.85    8.40 
   1  -1 -43   76.34    9.90 
   1   1 -43   81.02   12.01 
  -5  -5  22   15.68   10.83 
   3   6 -27    2.16    2.04 
   3  -6 -27    5.34    3.54 
  -6   4 -18    2.06    2.79 
   3  -8   5   29.26    4.72 
  -3   8  -5   30.73    4.93 
   3   6 -27    1.63    2.04 
  -6   4 -18    2.44    2.90 
   3  -1 -40   20.37   15.81 
  -7   2  15   47.32    6.46 
  -7  -3  -9    9.94    5.03 
  -7  -2  15   56.97    8.67 
  -7   3  -9   11.21    7.24 
   7  -3   9   10.91    7.91 
   3   1 -40   27.07    4.84 
   3   1 -40   18.86    9.05 
   7  -2 -15   51.16    6.82 
   3  -1 -40   33.01    4.27 
   1  -8 -17   11.63    6.83 
   1   8 -17   11.51    6.62 
   6  -1 -27    9.44    9.34 
  -6   1  27   12.74    6.76 
   0  -3 -41   24.49   10.00 
   6   1 -27    8.69    7.50 
  -2   4 -37    3.46    4.80 
   0   3 -41   21.94    6.81 
  -2   4 -37    3.28    4.14 
   0   3 -41   17.65   11.45 
  -2  -4 -37    3.61    5.26 
  -6  -1  27   12.91    7.79 
   6  -3 -23    0.49    1.41 
   6  -3 -23    3.36    2.32 
  -4  -6 -22    4.34    2.49 
  -4   6 -22    0.95    1.45 
   4  -6  22    0.30    1.96 
  -6   3  23    1.99    2.13 
  -2   0 -42  147.27   16.84 
   6   3 -23    1.06    1.53 
   2  -8 -14   86.41   10.98 
   2   8 -14   81.00   10.07 
  -5   1  33   44.02    6.01 
   7  -3 -10   30.98    6.90 
  -5  -1  33   38.27   12.44 
  -7  -3  10   34.72    6.55 
   5  -1 -33   41.53   18.83 
  -7   3  10   30.28   16.55 
   5   1 -33   44.01   14.48 
  -1  -8 -17    5.92    2.42 
  -5   6 -14   30.66   16.17 
   5  -6  14   38.54   18.74 
  -4   0 -37   -1.37    8.14 
  -1   8 -17    3.68    3.36 
   4  -7  13    3.95    2.86 
  -4   7 -13    5.62    2.66 
   0   8 -18  121.63   13.87 
   0  -8 -18  121.96   17.53 
  -3   0 -40  330.36  137.96 
   2   1 -42    6.74    4.19 
   4   5 -28    2.95    1.93 
   2  -1 -42   10.56    8.33 
   4  -5 -28    1.28    2.45 
   4   5 -28    5.23    3.32 
   4  -5 -28    2.27    2.52 
   2   1 -42    8.07    6.76 
  -3   8   6   14.48   10.25 
   3   8  -6   12.89    4.10 
   3  -8  -6   14.36    6.99 
   3  -7  20   62.13    7.75 
  -3   7 -20   60.99    8.28 
  -6   2 -25   13.06    9.60 
  -6   2 -25    7.83    5.93 
  -1   1 -43  113.50   18.66 
   2  -8  14    1.79    1.50 
  -2  -8 -14    0.68    1.45 
  -1  -1 -43  101.06   12.39 
   2   7 -24   92.42   11.20 
  -2   8 -14    1.04    1.64 
   2  -7 -24   98.67   12.20 
   6   4 -19  121.14   15.85 
  -6  -4  19  123.99   14.61 
  -6   4  19  126.08   14.21 
  -2   5 -34    1.76    2.01 
   6  -4 -19  117.64   13.57 
  -2   5 -34    2.23    1.87 
  -2  -5 -34    0.76    2.12 
   2   6 -30   50.32   22.50 
   2   6 -30   55.93    7.34 
  -3   8  -6    1.01    1.95 
   2  -6 -30   66.76    8.64 
   3  -8   6    2.70    2.70 
   0  -5 -36   10.73    6.97 
   0   5 -36    7.85    5.19 
   0   6 -32   63.02    9.38 
   0  -6 -32   55.68    7.77 
   0  -6 -32   61.75    7.87 
  -4   3 -34   10.18    6.97 
  -4   3 -34    9.39    9.77 
   0  -5 -36   10.20    6.83 
  -4  -3 -34    9.31   10.02 
   0   5 -36    7.84    6.49 
   5  -2 -32    2.17    2.13 
   5   2 -32    5.07    3.59 
   5  -2 -32    3.58    3.36 
  -5   2  32    3.48    2.06 
  -5  -2  32    2.81    1.45 
  -5   3  30   76.41    9.01 
   5  -3 -30   71.24    9.07 
   5   3 -30   66.26    9.92 
  -6   5 -11    4.06    3.90 
   6  -5  11    6.72    3.71 
   0   4 -39    7.61    8.27 
   5  -3 -30   83.55   10.06 
  -5  -3  30   74.43    9.68 
   0   4 -39    7.17    6.44 
   0  -4 -39    9.17    8.53 
   1  -7 -26    5.55    5.03 
   1   7 -26    9.65    5.97 
  -6   0 -27    3.17    2.24 
  -6   0 -27   -0.12    1.21 
   5   6 -15    4.51    3.23 
  -5   6  15    9.12    5.33 
   5  -6 -15    6.14    3.66 
  -7  -1 -17   42.78    6.73 
  -7  -1 -17   29.30    4.30 
  -7   1 -17   31.79   10.06 
  -2   2 -41   35.36    5.43 
  -2  -2 -41   33.54    5.63 
  -2   2 -41   31.63    4.17 
  -4   7  14   18.42    3.63 
   4   7 -14   13.87   11.24 
   4  -7 -14   12.39   10.30 
   5   4 -27    6.03    4.51 
   5  -4 -27    6.18    4.16 
  -5   4  27    3.61    4.26 
  -5  -4  27   12.33    5.52 
   5  -4 -27    4.67    3.53 
  -3  -6 -27  180.31   20.63 
  -5   0 -33    1.99    3.03 
  -3   6 -27  198.43   21.96 
   3  -6  27  174.15   19.68 
   3  -8  -7   11.43    8.85 
   3   8  -7   13.12    6.72 
  -3   8   7   14.02    8.80 
   6   5 -12    8.77    4.66 
  -6   5  12    6.48    3.82 
   6  -5 -12    6.91    6.10 
  -7  -3 -10    6.54    5.22 
  -6  -5  12    2.52    3.35 
   7  -3  10    6.55    5.19 
  -7   3 -10    7.40    5.90 
   3  -5 -32   13.71    6.39 
  -1   7 -26   34.72   10.16 
   3   5 -32    9.41    6.70 
  -1  -7 -26   25.17   13.36 
   3   5 -32    9.13    5.16 
   3  -5 -32    7.36    6.11 
   4  -4 -32    2.54    2.81 
   4   4 -32    1.90    1.95 
   4  -4 -32    3.54    2.93 
  -2   7 -24    7.74    5.55 
   4   4 -32    2.39    2.44 
  -7   1  18   80.77   10.69 
  -6   2  26   26.04    4.13 
   6   2 -26   19.11   16.49 
   7  -1 -18   76.22    9.59 
  -7  -1  18   85.00   10.68 
  -6  -2  26   23.45    9.50 
   6  -2 -26   27.96    4.26 
  -3   4 -35    2.47    2.38 
  -3   4 -35    0.60    1.33 
  -7   3  11   18.90   13.30 
  -3  -4 -35    1.04    2.85 
  -7  -3  11   12.69    7.91 
   7  -3 -11   13.73   10.49 
  -3   8  -7   -0.19    2.36 
  -3  -2 -39    2.02    3.40 
   3  -8   7    2.75    2.47 
  -3   2 -39    3.78    2.91 
  -3   2 -39    6.46    3.39 
  -2   6 -30  101.67   13.12 
  -5  -5 -22   17.84   15.93 
  -2  -6 -30   99.08   11.85 
  -5   5 -22   20.84   10.72 
  -7   2 -15   48.08    6.96 
  -7  -2 -15   39.91   10.76 
   4   6 -23   52.23    7.31 
   4  -6 -23   54.67    7.37 
   4   6 -23   47.45    4.43 
  -2  -1 -42    6.42    3.24 
  -2   1 -42    9.73    3.65 
  -7   0 -18   48.99    6.71 
  -7   0 -18   46.95    5.33 
   1   3 -41   66.70   21.09 
   1  -3 -41   76.74   10.11 
  -4   1 -37    0.77    2.13 
  -3  -1 -40    3.44    4.67 
   1   3 -41   64.46    9.48 
  -4  -1 -37    3.18    3.94 
  -3   1 -40    2.55    2.27 
  -4   2 -36   10.44    7.36 
  -4  -2 -36   14.10   11.89 
  -4   2 -36   15.73   10.69 
  -7  -2  16    8.98    9.51 
   7  -2 -16    9.99    7.19 
   7  -2 -16   10.34    6.12 
  -7   2  16    9.84    5.80 
   6   0 -28   51.61    9.51 
  -6   0  28   53.91    7.75 
   4  -7  14   10.65    5.29 
  -4   7 -14    9.36    6.52 
   2  -8 -15   12.69    6.09 
   2   8 -15    8.24    5.88 
  -4   5 -28    1.06    2.89 
  -4  -5 -28    4.54    6.00 
   0   0 -44  159.26   18.22 
   3  -8  -8    2.64    2.02 
   3   8  -8    2.19    2.01 
  -5   6 -15    7.77    4.60 
  -3   8   8    0.87    1.17 
  -5  -6 -15    9.92    2.99 
   5  -6  15    8.14    4.41 
   7   0 -19    0.41    1.92 
  -7   0  19    0.85    2.90 
   3  -7 -21   18.78    8.28 
   3   7 -21   16.92   10.29 
   1   8 -18    2.69    3.32 
  -6   3 -23   21.00   17.09 
   1  -8 -18    6.11    3.54 
  -6   3 -23   41.00   17.16 
  -6   4 -19    3.96    4.46 
  -6   4 -19    1.89    2.57 
   6  -5  12   10.46    6.12 
  -6   5 -12   10.46    5.48 
   0  -7 -27    4.25    3.82 
   0   7 -27    2.14    4.22 
  -1  -8 -18   27.90    7.87 
  -2   8 -15    0.93    1.41 
  -1  -3 -41    2.11    3.97 
  -1   8 -18   15.87   14.06 
  -1   3 -41    2.01    3.24 
  -1   3 -41    4.13    2.35 
  -2  -8 -15    0.59    0.87 
  -3   8  -8   53.84    7.40 
   3  -8   8   54.29    8.29 
  -6   1 -27    8.79    5.24 
   2  -3 -40   15.07   13.45 
   2  -3 -40   26.85    8.99 
   1  -5 -36    1.11    1.75 
   1   5 -36    2.54    2.09 
   1  -6 -32   38.23   10.64 
  -6   1 -27    7.61    3.79 
   2   3 -40   19.61    9.82 
   2   3 -40   14.96   13.80 
   1  -5 -36    1.01    1.57 
   1   6 -32   27.13   10.95 
   1   6 -32   31.29   12.76 
  -6  -1 -27    7.02    6.00 
  -7  -3 -11   14.40    6.90 
  -7   3 -11    5.96    3.82 
   0  -8 -19   50.18    7.13 
   7  -3  11    6.22    8.77 
   0   8 -19   41.82   14.36 
   1  -4 -39   15.59   11.76 
   1   4 -39   14.62   11.74 
   1  -4 -39   20.78   12.62 
   1   4 -39   19.00   10.78 
  -5  -5  23   49.65    7.55 
   4   0 -38   31.67    9.05 
   3  -3 -38  122.90   13.81 
  -5   1 -33    9.74    5.74 
   3  -3 -38  125.02   14.66 
  -5  -1 -33   18.13    7.70 
   3   3 -38  113.38   13.05 
   3   3 -38  119.62   14.17 
  -4   0  38   26.73    7.51 
   5  -5 -23   53.03   10.70 
  -5   5  23   61.52    7.74 
  -3  -5 -32    5.31    2.21 
  -3   5 -32    2.43    1.93 
  -3   5 -32    3.66    3.88 
   6  -5 -13   62.45    8.62 
  -6  -5  13   63.60    8.59 
  -6   5  13   67.43    8.59 
  -7   3  12  191.35   21.26 
  -7  -3  12  175.73   19.61 
   5   0 -34   30.92   16.06 
  -5   0  34   28.67   11.65 
   0   2 -43    2.51    3.12 
   0  -2 -43    3.18    2.09 
   0   2 -43    4.19    1.62 
   5  -6 -16    5.20    4.13 
   5   6 -16    7.34    2.72 
  -5   6  16    6.23    4.06 
  -4   7  15    2.86    2.87 
   4  -7 -15    2.19    3.48 
   4   7 -15    1.65    2.28 
   6  -3 -24    4.86    2.12 
  -6  -3  24    4.52    3.17 
   6  -4 -20    7.84    8.54 
  -6  -4  20   15.04    7.84 
  -6   3  24    3.16    3.41 
  -4   6 -23    5.70    3.35 
   4   3 -35   46.12    7.39 
   6   3 -24    3.91    3.51 
  -6   4  20   14.56    9.13 
   4   3 -35   35.96   17.91 
  -4  -6 -23    3.22    3.15 
   4  -3 -35   47.26    4.21 
   4  -6  23    2.58    2.43 
   4  -3 -35   43.27   11.94 
   6  -3 -24    4.08    3.34 
  -1  -5 -36    0.94    2.70 
  -1   5 -36    1.95    2.65 
  -1   5 -36    2.43    1.86 
  -1   6 -32  126.42   14.77 
  -1  -6 -32  100.76   11.79 
  -1  -6 -32  121.68   14.72 
  -5  -4 -27   33.66   17.59 
  -5   4 -27   28.32   13.67 
  -5   3 -30    8.38    5.20 
  -5   4 -27   32.66   15.63 
  -5  -3 -30    8.31    4.20 
   3   8  -9    3.18    4.06 
  -5   3 -30    8.77    4.33 
   3  -8  -9    4.47    2.36 
   3  -7  21    6.60    3.37 
  -3   8   9    2.44    2.58 
  -3   7 -21    5.80    4.34 
  -1  -4 -39    5.57    8.47 
  -5  -2 -32    0.47    2.53 
  -5   2 -32    1.48    2.43 
  -1   4 -39    8.10    6.83 
  -5   2 -32    1.12    1.82 
  -1   4 -39    6.12    6.85 
  -7   1 -18   88.25   10.85 
  -7  -1 -18   84.26   11.34 
  -4  -4 -32   16.00   12.28 
  -4   4 -32   13.10    7.47 
  -7  -1 -18   83.30    9.79 
  -7   1 -18   60.44    9.07 
  -4   4 -32    8.00   11.28 
   3   6 -28  100.25   11.98 
   3  -6 -28   90.53   12.32 
   3   6 -28   99.15   11.52 
  -6   1  28   14.31   13.12 
  -6  -1  28   15.10    7.82 
   6   1 -28   15.53   14.27 
   6  -1 -28   13.41   12.00 
   3   0 -41    0.27    0.80 
   3   0 -41    1.25    2.83 
  -3   8  -9   30.90    8.64 
   3  -8   9   17.82   13.09 
  -7   2 -16    9.46    5.32 
  -7   2 -16   10.63    2.87 
  -7  -2 -16    6.45    6.72 
   2  -4 -38    5.67    2.45 
   2   4 -38    4.32    3.48 
   2  -4 -38    5.53    4.49 
   2   4 -38    3.68    4.94 
  -7   1  19   16.08   11.63 
   7  -1 -19   11.04    9.39 
   0  -1 -44    8.48    8.62 
   2  -7 -25    6.35    4.34 
   0   1 -44    8.73    6.80 
  -7  -1  19   11.96    9.78 
   2   7 -25    5.08    3.21 
  -2  -3 -40    5.72    2.61 
  -2   3 -40    2.48    2.36 
  -2   3 -40    1.52    3.14 
   1   0 -44    9.54    7.70 
  -6   2 -26   51.99   11.81 
  -6   2 -26   62.97    8.50 
   4  -7  15    2.83    3.90 
  -4   7 -15    2.86    2.76 
   2  -8 -16   56.83    7.89 
   2   8 -16   44.48   12.12 
  -7   2  17   74.64    9.40 
   4  -5 -29   75.29    9.65 
   2  -5 -35   17.21   12.01 
   2  -5 -35   15.70   11.37 
   4   5 -29   71.29   15.27 
   4  -5 -29   67.84    8.55 
   4   5 -29   75.03    9.41 
   2   5 -35   16.02   11.87 
   2   5 -35   21.22    8.07 
  -7  -2  17   75.14   13.57 
  -6   5 -13   81.43   16.23 
   6  -5  13  103.26   12.54 
  -7  -3 -12  124.67   14.13 
   5  -6  16    6.64    3.87 
  -7   3 -12  139.69   15.98 
  -5   6 -16    8.46    5.56 
  -7   0 -19    0.78    1.96 
   2   0 -43    1.10    1.85 
  -7   0 -19    1.08    1.98 
   1   7 -27   10.39    6.33 
   1  -7 -27   18.75   12.87 
   4  -2 -37  356.43   37.41 
  -4   1  38   63.99    8.28 
   4  -2 -37  377.00   12.17 
   4   1 -38   61.12    8.78 
   4   2 -37  353.54   38.09 
   4  -1 -38   63.12    8.63 
  -4  -1  38   56.36    7.27 
   3  -4 -36  121.99   13.92 
   3   4 -36  112.40   13.10 
   3   4 -36  119.49   14.16 
   3  -4 -36  117.56   13.98 
   3  -8 -10    4.66    4.09 
   3   8 -10    4.33    1.58 
  -3   8  10    2.93    4.56 
  -7  -3  13    2.59    2.21 
   7   3 -13    5.68    4.23 
   5  -1 -34   12.84    9.03 
  -5  -1  34   11.78    8.97 
  -5   1  34   10.48    8.95 
  -7   3  13    2.81    1.95 
   5   1 -34   13.42   12.04 
  -3   3 -38    3.62    3.07 
   2  -8  16    9.62    7.16 
  -2   7 -25    6.68    4.89 
  -2   8 -16   13.35    5.85 
  -3  -3 -38    2.55    4.49 
  -3   3 -38    4.83    4.21 
  -2  -8 -16    9.51    6.51 
  -6   5  14    9.06    4.77 
  -5   5 -23  174.69   19.86 
  -6  -5  14   11.50    6.03 
   6  -5 -14   10.13    6.02 
  -5  -5 -23  174.01   19.95 
  -6   0 -28    5.25    3.90 
   1  -8 -19  105.12   12.95 
  -1   0 -44   39.39   12.88 
   2  -6 -31   12.53    6.82 
   2   6 -31    5.70    5.93 
   2   6 -31   10.59    8.51 
   1   8 -19  113.47   13.33 
  -7   0  20  158.53   19.63 
   4   6 -24  102.52   12.02 
   4  -6 -24  102.42   12.52 
  -5  -4  28   13.01    8.31 
   4   6 -24  103.06   12.53 
   5  -4 -28   11.13    4.28 
  -5   4  28    5.74    4.00 
   5  -4 -28    6.88    4.86 
   5   4 -28   10.03    5.81 
   1  -2 -43    1.52    3.32 
   1   2 -43    2.54    1.52 
   1   2 -43    1.52    2.76 
   3  -2 -40   44.76   11.82 
   5   3 -31    5.16    2.46 
   3  -6  28   21.03   11.06 
  -1   7 -27   10.35    5.59 
  -3   6 -28   35.44   14.53 
   3   2 -40   44.49   15.22 
  -1  -7 -27    3.64    3.29 
   3   2 -40   54.22    6.96 
   5  -3 -31    1.33    1.08 
   3  -2 -40   40.31   26.04 
  -3  -6 -28   26.40   16.55 
  -5  -3  31   -0.04    2.66 
   5  -3 -31    2.03    2.33 
  -5   3  31    0.36    1.20 
   6  -2 -27    2.54    2.61 
   6   2 -27    2.23    4.20 
  -6   2  27    3.27    3.22 
  -6  -2  27    3.06    3.62 
   3  -8  10    0.92    0.80 
  -2  -4 -38   21.36   10.79 
  -1  -8 -19    6.60    7.37 
  -2   4 -38   20.70    9.53 
  -3   8 -10    0.37    1.36 
  -2   4 -38   21.42   13.72 
  -1   8 -19    7.30    3.65 
  -6  -4 -20   28.01    8.38 
   0  -6 -33   69.22    8.81 
  -6   4 -20   29.64    8.48 
   0  -6 -33   67.19    8.41 
   0   6 -33   69.40    8.56 
  -6   4 -20   14.64    9.23 
   4   7 -16  101.85   11.99 
   5  -2 -33  145.52   16.76 
  -5  -2  33  143.03   16.45 
   5  -2 -33  130.10   14.69 
   3  -7 -22  167.25   19.17 
   4  -7 -16   97.73   11.86 
  -4   7  16   99.37   11.45 
   5   2 -33  129.79   15.55 
   3   7 -22  273.99   30.01 
  -5   2  33  138.07   15.35 
   5  -6 -17   51.42   12.24 
  -5   6  17   60.09    7.78 
   5   6 -17   54.93    7.32 
  -2  -5 -35    2.03    2.46 
  -2   5 -35    0.50    1.42 
  -2   5 -35    0.80    1.64 
  -4   0 -38   48.16   18.41 
   2  -2 -42   52.71    7.64 
   0  -8 -20   22.09   12.59 
   2   2 -42   50.52   12.86 
   2   2 -42   51.43    6.42 
   0   8 -20   19.01    6.23 
   3   1 -41   47.13    5.06 
   3   1 -41   46.10    3.65 
   3  -1 -41   55.63    7.74 
  -4   3 -35    1.11    3.36 
  -4   3 -35    2.92    3.08 
  -4  -3 -35    4.66    2.64 
  -6   3 -24   63.40   17.90 
  -6  -3 -24   58.55    8.37 
  -6   3 -24   67.07   10.09 
  -1   2 -43    4.08    4.42 
  -1  -2 -43    4.74    2.27 
  -7  -4   1   10.64    9.43 
   7  -4   0   17.01   15.25 
   0  -3 -42   32.35   21.21 
  -7   4   1   13.66    9.53 
  -7   4   0   25.82   15.28 
   0   3 -42   34.01    9.79 
  -7  -4   0   25.89    7.43 
   0   3 -42   40.26   10.77 
   0  -5 -37  105.96   12.60 
   0  -5 -37  108.29   15.83 
   3   5 -33    5.33    2.52 
   0   5 -37  107.40   12.61 
   0   5 -37   96.34   11.52 
   3   5 -33    3.63    4.70 
   3  -5 -33    3.95    4.92 
   3  -5 -33    5.92    1.92 
   1   1 -44   48.53    7.13 
   4  -4 -33  106.24   12.55 
   4  -4 -33  106.32   12.46 
   4   4 -33  106.03   12.65 
   4   4 -33   91.49   11.30 
  -5   0 -34  158.37   18.46 
  -3   0 -41    3.12    3.24 
   1  -1 -44   51.93    7.54 
  -6   0  29    1.25    1.42 
   6   0 -29    0.64    2.43 
  -7  -4  -1   11.23    7.10 
   7  -4   1   12.18    8.08 
  -7   4  -1   10.49   10.91 
  -2  -6 -31    0.56    3.47 
  -2   6 -31    2.06    4.08 
  -7   4   2   20.89   12.92 
  -7  -4   2   12.56    6.82 
   7  -4  -2   16.15    9.48 
  -2   0 -43   -0.04    2.07 
   6  -4 -21    3.28    3.71 
  -6  -4  21    4.16    4.05 
  -6   4  21    2.63    4.66 
   5   5 -24   74.99    9.82 
  -5   5  24   55.57    7.84 
  -5  -5  24   70.76    9.95 
   5  -5 -24   61.40    8.65 
   3  -8 -11    5.74    5.35 
   3   8 -11    5.45    1.99 
  -3   8  11    5.75    4.65 
   7  -4   2    0.37    2.28 
  -4  -5 -29  172.41   19.68 
  -7  -1 -19   33.13    8.92 
  -7   4  -2    2.21    4.67 
  -4   5 -29  158.41   17.92 
  -7  -4  -2    1.97    1.28 
  -7   1 -19   26.35    7.39 
  -7  -1 -19   21.62   22.78 
  -7   2 -17    8.59    5.25 
   2  -1 -43   81.76   10.28 
   7  -4  -3   95.54   11.79 
  -7  -3 -13    3.73    3.02 
  -7   2 -17    6.63    7.79 
   6  -5  14    8.83    4.05 
  -7   3 -13    3.04    3.33 
  -7   4   3   96.59   11.84 
  -7  -2 -17    6.67    5.89 
  -6   5 -14    6.80    6.81 
  -7  -4   3   97.70   11.68 
   2   1 -43   77.96   10.10 
   2   1 -43   71.39    8.27 
   4  -7  16   51.34    9.15 
  -4   7 -16   60.73   14.20 
  -4  -7 -16   41.64   11.24 
  -3   7 -22    4.40    4.19 
   0  -7 -28   62.59    8.41 
   0   4 -40   26.61    7.63 
   0  -4 -40   27.13   10.69 
   0   7 -28   62.36    8.54 
   0   4 -40   12.88   11.51 
   3  -7  22    4.01    3.71 
  -3   4 -36    3.37    2.31 
  -3  -4 -36    0.04    2.41 
  -3   4 -36    2.07    3.25 
  -4  -6 -24   30.28    9.17 
  -6   1 -28    0.86    1.23 
  -7   3  14    1.18    2.90 
   4  -6  24   15.17   11.24 
  -7  -3  14    4.11    3.09 
   7  -3 -14    2.83    4.05 
   2  -8 -17   39.99   11.05 
  -4   6 -24   21.82   14.00 
  -6  -1 -28    0.93    2.04 
   2   8 -17   32.70   16.40 
  -6   1 -28    0.91    1.32 
  -7  -4  -3    2.55    1.83 
  -1  -1 -44   11.17   10.70 
  -1   1 -44    8.89    9.31 
  -6  -3  25    9.90    6.40 
  -7   4  -3    3.01    3.62 
   6  -3 -25    9.77    7.95 
   7  -4   3    5.40    3.37 
   6   3 -25   14.47    9.23 
  -6   3  25   12.80    9.15 
   6  -3 -25   12.54    7.64 
  -7  -1  20   43.93   12.08 
  -7   1  20   41.28   11.53 
   7  -2 -18   41.08   20.39 
  -7  -2  18   41.09   18.28 
   7  -1 -20   37.62   10.65 
   7   1 -20   37.49   10.78 
   7  -2 -18   48.84    6.53 
  -7   2  18   46.55    4.56 
  -7   4   4   11.63    3.89 
   3  -8  11    7.10    6.46 
  -3   8 -11    9.90    7.88 
   7  -4  -4    7.44    4.98 
  -7  -4   4    5.53    5.42 
  -5   6 -17   18.02   10.85 
   5  -6  17   20.60   13.88 
   6  -5 -15   12.05    7.92 
  -6   5  15    8.99    4.40 
  -6  -5  15   11.08    5.64 
   0  -9   0    1.41    1.43 
  -2  -2 -42    7.54    7.29 
  -2   2 -42    7.65    6.96 
   0   9   0    0.74    1.46 
   0  -9  -1   19.97    8.48 
   0  -9   1   22.05    8.55 
   0   9   1   20.16    7.69 
   0   9  -1   23.78    9.03 
  -4   2 -37   35.67   20.19 
  -4   2 -37   34.67    9.31 
  -4  -2 -37   35.32    9.99 
  -2   8 -17    4.09    3.52 
  -2  -8 -17    2.84    1.88 
  -3   2 -40   36.77   14.07 
   2  -8  17    1.37    2.68 
  -3  -2 -40   37.14   10.45 
  -4   1 -38   74.54   10.86 
  -7   4  -4   22.42   13.78 
  -7  -4  -4   28.74    8.21 
   7  -4   4   18.28   11.70 
  -4  -1 -38   70.67    9.62 
   0  -9  -2    1.03    1.02 
   0   9  -2    0.88    1.27 
   0   9   2    0.67    0.82 
   0  -9   2    0.69    1.40 
  -7   0 -20    3.87    2.27 
   1   6 -33   22.64   10.63 
  -7   0 -20    1.95    2.76 
   7  -4  -5    9.09    6.13 
  -7   4   5    8.73    4.74 
   1  -6 -33   27.46    7.80 
  -7  -4   5    7.63    5.98 
  -5  -4 -28   26.33   15.39 
  -5   4 -28   19.80   12.72 
  -5   4 -28   16.23   10.32 
  -3   5 -33   48.44    8.59 
   2  -7 -26   88.67   11.04 
  -3   5 -33   59.74    8.42 
  -3  -5 -33   68.28    9.16 
   2   7 -26   84.72   12.27 
  -4   7  17   34.69    9.48 
   4  -7 -17   19.36   15.52 
   0   9   3    5.36    6.93 
   0   9  -3    8.14    2.64 
   4   7 -17   35.63   10.18 
   0  -9  -3    7.57    5.14 
  -5  -1 -34   60.56    8.51 
   3  -6 -29   98.09   11.88 
   1   8 -20    1.06    3.25 
   3   6 -29  101.16   12.37 
  -3  -1 -41  125.51   15.30 
  -5   1 -34   69.98    9.87 
   1  -8 -20    4.69    3.06 
   3   6 -29   76.94   13.61 
  -3   1 -41  108.42   17.58 
   1   3 -42   36.40   13.56 
  -2  -1 -43   26.70   15.59 
  -6   1  29    7.22    5.53 
   6   1 -29    6.27    6.03 
  -5  -3 -31   49.19    7.73 
  -6  -1  29    7.38    3.87 
  -5   3 -31   47.02   14.73 
  -5   3 -31   50.28    6.98 
   1  -3 -42   39.55   13.06 
  -2   1 -43   24.67   11.87 
   1   3 -42   39.23   10.50 
   6  -1 -29   12.29    6.23 
   3  -8 -12   40.92   21.15 
  -7   0  21   -1.23    4.11 
   3   8 -12   54.46    7.01 
  -1   6 -33   22.91    6.84 
   5  -6 -18   98.97   12.31 
   1  -5 -37   68.01    8.85 
  -5   6  18   91.57   10.74 
   1   5 -37   57.02   14.07 
   5   6 -18   94.03   11.57 
   1  -5 -37   63.51    8.13 
  -1  -6 -33   16.79   12.51 
   5   0 -35    4.17    3.70 
   5   6 -18   85.45   13.73 
   1   5 -37   60.12    7.84 
  -5   0  35    0.59    1.49 
  -6   2 -27  150.41   20.45 
  -6  -2 -27  170.35   21.69 
  -7   4  -5    4.11    4.72 
  -6   2 -27  158.11   19.50 
   7  -4   5    1.51    2.18 
  -7  -4  -5    4.46    2.12 
  -7   4   6   60.41    8.45 
   7  -4  -6   53.69    7.66 
  -1  -8 -20    9.11   11.03 
  -7  -4   6   59.77    8.25 
  -1   8 -20   15.21   10.37 
   0   9  -4   18.75   10.91 
   0  -9  -4   13.46    9.84 
  -5   2 -33  115.26   13.10 
  -5  -2 -33  116.47   14.31 
  -5   2 -33  111.71   13.43 
  -4   4 -33    2.83    2.36 
  -5  -5 -24    3.76    5.89 
  -4   4 -33    3.61    3.37 
  -4  -4 -33    4.68    3.18 
  -5   5 -24    1.98    2.12 
   4  -3 -36  156.03   17.83 
  -6   4 -21   12.54    9.51 
   4  -3 -36  155.86   17.34 
  -6  -4 -21   13.09   11.12 
   4   3 -36  153.98   17.69 
   4   3 -36  158.76   17.68 
  -6   4 -21    8.55   11.04 
  -7   3 -14   14.09    8.72 
   3  -3 -39    3.18    2.08 
   3   3 -39    4.20    3.75 
  -4   0  39    0.92    0.93 
  -7  -3 -14    8.16    7.91 
   3  -3 -39    2.79    4.17 
   3   3 -39    2.28    3.50 
   4   0 -39    1.32    2.24 
   6  -5  15    4.51    2.12 
   1  -4 -40    7.33    4.16 
  -6   5 -15    4.96    3.44 
   1  -4 -40    6.11    2.16 
   1   4 -40    8.20    4.40 
   1   4 -40    5.41    4.63 
   4  -6 -25    2.22    1.81 
   4   6 -25    3.81    2.37 
   4   6 -25    3.41    2.66 
  -3   8 -12    7.27    4.05 
   0   8 -21   42.59   12.37 
  -5   7   0    6.93    2.60 
   4   5 -30    2.24    1.89 
   5   7   0    4.67    2.41 
   4   5 -30    1.01    1.09 
   5  -7  -1    4.78    4.40 
   2  -3 -41   19.61   13.51 
   2   3 -41   17.49   10.75 
   4  -5 -30    2.23    2.38 
   5  -7   0    5.30    2.36 
  -2   7 -26   62.74    8.38 
   4  -5 -30    1.26    2.80 
   5   7  -1    4.16    2.40 
  -5   7   1    8.74    3.60 
   2   3 -41   17.76    8.98 
   0  -8 -21   47.12    5.20 
   2  -3 -41   16.66    8.42 
  -1   5 -37   19.35    6.57 
  -1  -5 -37   21.60   14.07 
  -1   5 -37   29.26   10.24 
   3  -7 -23   38.28   10.88 
  -1   3 -42    3.66    5.02 
  -1  -3 -42    5.31    3.53 
  -1   3 -42    3.57    4.37 
   3   7 -23   30.61   12.93 
   5  -7   1   15.12   10.59 
   1   7 -28   40.49   21.14 
  -5   7  -1   17.75    8.79 
   5   7   1    8.67    8.05 
   0   0 -45    1.04    2.44 
   1  -7 -28   35.20   13.09 
   5  -7  -2   28.58   15.83 
  -7  -3  15   14.88   12.99 
  -5   7   2   27.33   10.25 
   5   7  -2   30.59    8.81 
  -7   3  15   17.69   13.52 
   7  -3 -15   15.59   10.84 
  -7   4  -6   38.45   10.83 
   7  -4   6   20.68   13.73 
  -7  -4  -6   22.47    8.86 
   0  -9  -5  165.49   19.50 
   0   9  -5  163.46   18.76 
   4  -7  17    0.88    1.86 
  -4  -7 -17    2.81    1.71 
   5  -7   2   11.00    8.59 
  -4   7 -17    3.82    1.90 
   5   7   2    8.42    4.96 
  -5   7  -2    9.16    6.57 
  -7  -2 -18    9.92    9.27 
  -7   2 -18    8.58    6.61 
  -7   2 -18    9.74   10.04 
   7  -4  -7    5.69    4.95 
  -7  -4   7    6.31    4.58 
  -7   4   7    3.75    2.34 
   5   7  -3   20.18   10.73 
   5  -7  -3   17.05   13.07 
  -5   7   3   15.81   15.60 
  -5  -4  29   13.67    9.12 
  -1   7 -28   17.43   14.33 
   5  -4 -29   10.14    7.24 
  -1  -7 -28   26.37   10.46 
   5  -4 -29    9.07    7.12 
   5   4 -29    8.39    5.92 
  -5   4  29    8.08    6.60 
  -6   0 -29    0.61    2.44 
  -6   5  16    6.70    4.76 
   6  -2 -28   32.26    8.64 
  -6  -5  16    0.73    2.88 
  -6  -2  28   33.52   14.47 
   6  -5 -16    7.33    8.83 
  -6   2  28   34.85    9.90 
   2  -8 -18  169.32   20.61 
   6   2 -28   19.74   16.94 
   2   8 -18  150.43   18.73 
  -1   4 -40    2.03    2.40 
  -6   4  22   15.71    8.50 
  -7  -1 -20   56.23    8.57 
  -1  -4 -40    2.58    2.30 
  -6  -4  22   11.23   10.07 
   6   4 -22   11.22    6.70 
  -7  -1 -20   65.94    8.95 
  -1   4 -40    1.98    1.17 
  -7   1 -20   60.98    8.21 
   6  -4 -22    8.88    6.87 
   6  -4 -22    8.46   10.23 
  -3   6 -29    7.56    6.45 
  -3  -6 -29    5.29    5.12 
   3  -6  29    6.23    4.41 
   0   2 -44   -0.15    2.35 
   0  -2 -44    1.54    2.15 
   5  -7   3    7.39    5.80 
   5   7   3    3.61    4.64 
  -6   3 -25   12.07    6.16 
  -5   7  -3   11.00    5.72 
  -6   3 -25   12.51    9.69 
   1   9   0    7.28    6.70 
   7  -2 -19  117.29   14.33 
   2   5 -36   42.61    6.52 
   1  -9   0    6.82    4.91 
  -1   9   0    4.49    6.16 
  -7   2  19  125.61   15.34 
  -7  -2  19  116.81   14.70 
   2  -5 -36   41.83    6.07 
   2   5 -36   26.23   14.17 
   2  -5 -36   43.58    6.44 
  -5  -6 -18   30.12    9.14 
  -5   6 -18   31.45   17.98 
   1  -9  -1    7.79    3.93 
   1  -9   1   51.08    6.81 
   2   6 -32   -0.08    1.16 
   2  -6 -32    1.19    1.64 
  -1   9   1    6.11    3.52 
   2   6 -32    0.32    1.46 
   1   9  -1    5.64    4.45 
   1   9   1   46.06    6.15 
  -1   9  -1   52.12    7.75 
   5  -6  18   24.35   12.08 
   2   4 -39   87.21   15.84 
   2  -4 -39   94.41   11.65 
   5   7  -4   69.83    8.91 
   2   4 -39   87.16   10.98 
  -5   7   4   78.74   10.54 
   2  -4 -39   97.84   12.46 
   5  -3 -32  246.99   27.85 
   5   3 -32  218.05   25.99 
  -5  -3  32  232.01   26.57 
  -5   3  32  233.06   26.36 
   0   9  -6    9.01    8.28 
   0  -9  -6    9.74    4.68 
   5  -3 -32  235.37   27.10 
  -1   9  -2   24.24   11.40 
   1  -9   2   30.53    9.01 
  -7  -1  21   79.26   10.61 
  -7   1  21   72.19    9.65 
   3  -8 -13   10.71    8.05 
   1  -9  -2    1.71    1.79 
   1   9  -2    1.30    1.73 
   7   1 -21   84.80   11.49 
   3   8 -13   10.91    3.18 
  -1   9   2    0.71    1.97 
   5   1 -35    3.44    3.34 
   5   5 -25   29.05   12.83 
  -5   5  25   35.08   10.02 
  -5  -1  35    1.87    2.07 
  -5   1  35    0.89    1.68 
   5  -5 -25   40.20    5.92 
   5  -1 -35    0.85    2.45 
  -2   8 -18    9.13    7.22 
  -2  -8 -18    7.12    6.11 
   3   0 -42   19.56   14.25 
   3  -7  23   67.58    8.53 
  -3   7 -23   71.15   17.05 
   7  -4   7   16.21    8.27 
  -7   4  -7   12.77    8.95 
  -7  -4  -7    8.94    7.40 
   5  -7   4    6.36    5.87 
  -5   7  -4    6.41    6.37 
  -2   3 -41   17.97    5.56 
   3   4 -37  214.47   26.16 
  -2  -3 -41   12.92   10.32 
   3  -4 -37  218.48   26.78 
   3   4 -37  220.71   25.84 
   3  -4 -37  203.15   24.92 
  -2   3 -41   14.62    7.56 
   4  -2 -38    5.23    4.79 
   4  -2 -38    5.97    5.40 
   7  -4  -8    8.39    3.52 
   1   9  -3   22.57    9.18 
  -7  -4   8    5.96    3.20 
   1  -9  -3   25.45   10.74 
  -7   4   8    6.55    4.35 
  -1   9   3   18.65    9.33 
   4   2 -38    6.76    4.49 
   1  -9   3   -0.63    1.97 
  -1   9  -3   -1.30    1.99 
   5  -7  -5   10.13    5.67 
   5   7  -5    7.63    4.47 
  -5   7   5   14.75   10.20 
   0  -6 -34    7.01    6.16 
   0   6 -34    7.31    3.31 
   4  -7 -18   20.48   14.77 
   4   7 -18   20.60   13.96 
   0  -6 -34    5.99    3.03 
  -5  -2  34   14.52   10.81 
   4   1 -39    1.00    2.61 
  -4  -1  39    1.49    1.13 
   5  -2 -34   16.97    5.30 
   5   2 -34   15.53   11.74 
   5  -2 -34   12.33    9.40 
  -5   2  34   11.14    8.68 
   4  -1 -39    3.35    2.13 
  -4   6 -25    8.73    5.44 
   4  -6  25    9.75    3.89 
  -4  -6 -25   12.06   11.88 
   6   0 -30    8.70    3.55 
  -6   0  30    3.52    4.65 
   3  -8  13    3.65    3.05 
  -3   8 -13    6.39    4.34 
   6  -3 -26  218.75   25.97 
   6   3 -26  274.75   31.42 
  -6   3  26  238.90   27.10 
  -6  -3  26  237.98   27.33 
  -3  -3 -39   79.28   11.50 
  -7   0 -21    0.42    1.94 
   0   1 -45   10.53   10.71 
  -3   3 -39   71.36   14.46 
  -3   3 -39   68.38    8.67 
  -7   0 -21    0.34    1.59 
   0  -1 -45   12.08   13.59 
  -7   3 -15    7.86    6.53 
   1   9  -4   13.45    9.92 
  -1   9   4   19.44    5.85 
   1  -9  -4   11.96   10.08 
   1   0 -45    0.72    2.91 
   1  -9   4   44.01    6.09 
   0   9  -7    6.63    3.23 
   0  -9  -7    7.24    4.30 
  -5   7  -5   29.77    9.05 
  -1  -9  -4   44.99    6.48 
  -2  -6 -32  110.17   13.59 
   5  -7   5   30.82   19.50 
  -4   5 -30   21.59   13.26 
  -4  -5 -30   19.11   14.02 
  -2   6 -32  116.81   14.38 
  -5   6  19   32.22    9.35 
   5  -6 -19   28.89    8.72 
   5   6 -19   27.40    8.20 
  -1   9  -4   56.97    7.77 
  -2   5 -36   10.36    9.64 
   0   7 -29   12.57    7.13 
  -2  -5 -36   15.63   12.30 
   0  -7 -29   10.75    8.23 
  -2   5 -36   13.14   10.54 
   1   8 -21    6.69    3.54 
   1  -8 -21    6.47    6.20 
   3  -5 -34   16.66    8.54 
   3   5 -34   18.28    9.82 
   3  -5 -34   10.59   10.86 
   3   5 -34   14.04   14.17 
   4   4 -34  128.02   16.04 
   4  -4 -34  122.38   14.81 
  -6   5 -16   -0.35    2.10 
   6  -5  16    1.61    1.72 
  -6  -5 -16    0.28    2.26 
   4   4 -34  120.35   14.95 
   4  -4 -34  114.66   13.83 
  -4   3 -36   41.75    6.44 
   2   0 -44   10.78    8.97 
  -4   3 -36   31.53   11.40 
  -4  -3 -36   38.23   13.18 
  -7   3  16    1.93    1.76 
  -2  -4 -39   26.91   13.58 
  -6   1 -29   42.99   17.18 
   7  -3 -16    3.07    2.09 
  -7  -3  16    2.98    3.01 
  -6   1 -29   37.29    5.34 
  -2   4 -39   35.60   10.66 
  -5   7   6  145.43   18.42 
   5  -7  -6  153.94   18.46 
  -2   4 -39   31.11    9.03 
  -6  -1 -29   38.46    6.46 
   7  -3 -16    1.33    2.35 
   5   7  -6  138.63   16.20 
  -7   0  22  209.60   24.49 
  -7  -4  -8   12.43    9.75 
   3   2 -41   33.41   15.74 
   7  -4   8   13.63    6.43 
  -7   4  -8   13.95   10.11 
   3  -2 -41   30.18   19.93 
   3   2 -41   40.12    5.67 
   3  -2 -41   31.78   13.10 
  -5   0 -35   -2.16    2.96 
  -1   8 -21   18.98    8.06 
  -1  -8 -21   20.78    6.41 
  -6   6   1    9.76   11.02 
   6  -6  -1   12.62    7.89 
  -6   6   0    7.34    5.24 
   6  -6   0    7.00    4.81 
  -4   0 -39   -2.15    3.00 
  -6  -6   1   13.06    9.68 
  -6  -6   0    4.13    3.46 
   7  -4  -9   68.42    9.91 
   1   9  -5   25.17    7.43 
  -7   4   9   68.24    9.28 
  -7  -4   9   68.89    9.40 
   1  -9  -5   26.89    7.99 
   1  -9   5   68.14    8.80 
  -6   6  -1   70.85    9.69 
   6  -6   1   71.26   11.59 
  -6  -6  -1   71.95    9.57 
  -1   9  -5   78.25    9.99 
  -1  -9  -5   62.81   12.79 
  -6   6   2   85.75   11.03 
   6  -6  -2   81.75   11.94 
  -6  -6   2   77.63   11.17 
   0   5 -38    2.88    2.41 
   0   5 -38    1.34    2.40 
   0  -5 -38    2.19    1.20 
   1   2 -44    8.55    4.27 
   1   2 -44    6.15    2.65 
   0  -5 -38    2.05    1.91 
   5  -7   6  164.41   19.66 
  -5   7  -6  154.68   18.34 
  -1   0 -45    1.83    2.08 
   4  -7  18    0.46    1.04 
  -4   7 -18    0.88    3.48 
  -4  -7 -18    0.67    1.00 
  -6   5  17   85.26   11.62 
  -6  -5  17   96.72   12.64 
   6  -5 -17   91.26   11.76 
   2   7 -27   27.33   18.62 
  -6   4 -22    4.33    4.01 
   2  -7 -27   24.42   19.90 
   6  -6   2    2.85    1.74 
  -6  -6  -2    1.37    2.02 
  -6   6  -2    2.93    2.25 
  -5   4 -29   10.08    5.19 
  -5   4 -29    5.59    2.97 
   3  -1 -42    0.63    3.41 
   3   1 -42    0.74    1.06 
   3  -8 -14    3.80    1.74 
  -5  -4 -29    6.27    2.96 
   3   8 -14    3.31    1.40 
   3   1 -42    1.96    3.14 
   6  -6  -3    7.08    3.93 
  -6  -6   3    3.38    2.85 
   0  -8 -22   25.81   11.50 
  -6   6   3    2.19    3.82 
   0   8 -22   21.92   15.09 
   0  -9  -8   50.95    9.65 
  -7  -2 -19   16.73   16.04 
   2   2 -43  128.35   15.99 
  -7   2 -19   13.13   10.29 
   2  -2 -43   92.47   19.63 
  -7   2 -19    9.53   10.21 
   0   9  -8   58.22    7.93 
   2   2 -43  107.08   12.82 
   5   7  -7   12.87    8.83 
   5  -7  -7   18.37   11.62 
  -5   7   7   17.74   10.54 
   2   8 -19   39.88   10.62 
   2  -8 -19   43.81    6.89 
  -5  -5 -25   99.09   12.93 
  -5   5 -25  101.86   12.91 
   1   9  -6   15.98   11.31 
  -3  -4 -37   32.93   10.75 
  -3   4 -37   40.46   10.23 
   6  -6   3    9.40    7.74 
   1  -9  -6   17.69   11.82 
  -6  -6  -3    8.95    6.04 
  -3   4 -37   30.20   11.48 
  -6   6  -3   14.09   12.97 
   0   3 -43  165.53   19.84 
   3   7 -24   11.88   10.26 
  -3   0 -42  124.41   15.69 
   3  -7 -24   10.44   10.46 
   0   3 -43  153.47   18.21 
   0  -3 -43  152.36   18.29 
  -6   2 -28    9.71    7.48 
   6  -1 -30   20.06   13.61 
   3   6 -30    1.65    3.59 
   6   1 -30   18.27   10.91 
  -6  -1  30   26.85    8.08 
   1  -9   6    5.25    4.57 
  -1  -9  -6    7.30    3.20 
  -6  -2 -28    2.58    2.21 
  -6   1  30   27.08    8.12 
  -1   9  -6    7.13    2.37 
  -6   2 -28   14.13    9.09 
   3  -6 -30    6.15    4.05 
   3   6 -30    2.41    1.96 
   6  -6  -4    1.99    3.21 
  -6  -6   4    1.07    1.19 
  -1   2 -44   11.48    9.73 
  -6   6   4    0.42    1.24 
  -1  -2 -44   13.80    9.66 
  -7  -2  20   58.63    9.83 
   7  -2 -20   52.88    7.15 
   7  -2 -20   43.63   15.47 
   4  -6 -26    2.71    2.08 
   4   6 -26    2.25    4.34 
  -7   2  20   55.27    8.25 
   1  -6 -34    3.10    3.29 
   5  -6  19    2.45    3.39 
  -7  -1 -21    2.43    2.37 
  -7   1 -21    2.74    2.17 
  -5  -6 -19    2.51    2.95 
   1   6 -34    1.10    1.48 
   1   6 -34    2.93    2.11 
  -5   6 -19    3.70    2.93 
  -7  -1 -21    2.59    3.76 
   7  -4   9   12.86   10.16 
  -7   4  -9   10.27    7.33 
  -7  -4  -9    8.88    7.00 
  -2   0 -44   22.64    9.46 
   3  -8  14   10.90    7.05 
  -3   8 -14   10.03   10.17 
   1   1 -45   15.01    7.57 
  -2   7 -27   26.20   13.51 
   1  -1 -45   14.46    9.01 
  -5   7  -7   10.38    3.43 
   6  -4 -23    9.62    9.67 
   6  -4 -23   23.18    7.37 
   0   4 -41    4.19    5.89 
   0   4 -41    5.56    4.45 
  -6   4  23   21.02    8.18 
   5  -7   7   11.44    6.33 
   0  -4 -41    5.90    2.42 
  -6  -4  23   13.16   11.46 
  -5   3 -32   63.92    8.25 
  -5   3 -32   66.59    9.16 
  -5  -3 -32   67.02    9.85 
  -6  -6  -4   13.75   13.94 
  -8   0   1    0.11    2.25 
  -7   4  10    7.98    5.89 
  -7  -4  10    7.67    3.57 
  -2  -8 -19    7.95    5.87 
  -2   8 -19    8.33    6.04 
   6  -6   4   33.58   10.22 
  -8   0   0  148.39   18.05 
   8   0   0  133.54   16.12 
   7  -4 -10    7.77    6.89 
  -6   6  -4   21.83   14.02 
   8   0  -1    2.18    2.54 
  -3  -5 -34    3.23    3.40 
  -3   5 -34    3.10    2.72 
   2   1 -44    2.56    3.40 
   8   0  -2    5.54    6.68 
   8   0   1    1.37    1.54 
  -8   0   2    9.84    7.33 
  -8   0  -1    0.31    1.78 
   2  -1 -44   -0.13    2.44 
  -6   6   5   16.99   10.23 
  -6  -6   5   17.39   11.52 
  -4   2 -38   23.26   13.57 
   6  -6  -5   15.19   11.94 
  -4  -2 -38   21.50    7.28 
   1   7 -29   -0.23    3.56 
   1  -7 -29    1.10    2.09 
  -7   1  22    1.84    1.69 
  -7  -1  22    2.87    2.12 
  -5   1 -35  137.13   18.56 
  -5  -1 -35  135.27   17.02 
  -5   7   8    1.23    1.09 
  -1  -6 -34  141.83   17.32 
   5   7  -8    1.50    2.03 
  -7   3 -16    3.25    3.52 
  -7  -3 -16    2.56    2.34 
  -1   6 -34  150.93   17.97 
   4   7 -19    8.00    5.32 
   5  -7  -8    2.25    2.90 
   4  -7 -19   10.17    3.22 
   4  -5 -31   26.52    9.64 
   4   5 -31   27.88   13.64 
  -4   1 -39    8.69    3.07 
   4   5 -31   18.89   14.82 
   1   9  -7    1.00    1.92 
   1  -9  -7    3.62    2.14 
   0  -9  -9   12.36    8.13 
   0   9  -9   12.70    7.29 
  -4  -1 -39    5.14    4.62 
   8   0   2    2.31    2.56 
  -8   0   3    0.89    1.46 
  -8   0  -2    2.06    2.30 
  -1   9  -7   61.71    8.40 
  -1  -9  -7   51.05    7.18 
   5   0 -36  140.72   17.01 
  -5   0  36  148.59   17.71 
  -6   3 -26   11.73    6.12 
  -6   3 -26    9.87   10.11 
  -5   2 -34    3.07    3.66 
  -5  -2 -34    5.82    3.34 
  -3  -2 -41   33.97   10.19 
  -3   2 -41   35.44   14.59 
  -5   2 -34    1.69    1.44 
  -1   1 -45   10.16   12.88 
   6  -2 -29   10.59    9.31 
  -4   4 -34   29.90    8.82 
  -6  -2  29   15.89   12.46 
  -1  -1 -45   14.84   10.98 
  -2   2 -43   84.27   11.10 
  -6   2  29   11.86    9.20 
  -2  -2 -43   85.24   11.70 
  -4   4 -34   23.13   10.34 
  -6   6  -5   57.30    8.11 
   6  -6   5   64.93    9.49 
  -4  -4 -34   29.53   18.45 
   6  -2 -29   16.77    9.44 
  -1   7 -29   12.35    6.41 
   3  -7  24   39.45    5.69 
  -7  -3  17   16.87   12.21 
  -6   5 -17   10.97    6.86 
  -1  -7 -29   14.27   10.00 
  -3   7 -24   44.46    6.96 
   7  -3 -17   18.43   12.72 
  -6  -5 -17    7.41   10.20 
   6  -5  17    8.44    4.97 
  -7   3  17   20.97    6.48 
   7   3 -17   10.15   16.13 
   7  -3 -17   22.91    7.31 
  -5  -4  30   80.35   10.92 
   5   4 -30   70.04   11.26 
   5  -4 -30   74.43    9.71 
   5  -4 -30   73.34    9.70 
   1   5 -38   15.73    9.40 
   5   6 -20    3.73    2.09 
   1  -5 -38   14.84   13.16 
   1   5 -38    9.90    8.10 
  -8   0  -3   -0.33    1.66 
   5   6 -20    2.60    1.49 
   1  -5 -38   14.99    9.37 
   5  -6 -20    2.30    3.43 
   8   0  -4    2.67    3.32 
  -6   0 -30   60.85   23.47 
   5   5 -26   25.42    8.40 
   6  -6  -6    4.83    3.02 
  -6   6   6    2.94    1.51 
   5  -5 -26   17.37   11.51 
  -8   0   4    2.44    1.77 
  -6  -6   6    0.95    2.22 
   5   5 -26   17.54   14.92 
  -5   7  -8   81.19   10.58 
   5  -7   8   76.42   11.20 
   4  -3 -37   52.36    6.98 
  -3  -6 -30   27.66   16.39 
  -3   6 -30   27.83   22.58 
   4   3 -37   52.06    8.97 
   4   3 -37   47.83    8.32 
   3  -6  30   34.84   10.04 
  -7   0 -22    0.57    1.10 
   4  -3 -37   35.37   21.08 
  -7   0 -22    0.32    1.48 
   3   8 -15    1.04    1.71 
   3  -8 -15    1.10    2.24 
  -7  -4 -10   25.32    7.68 
  -7   4 -10   25.35    7.75 
   7  -4  10   16.54   15.44 
  -3   1 -42   26.77   12.55 
   1   8 -22   26.33   14.43 
  -3  -1 -42   32.60   10.65 
   1  -8 -22   29.64    8.94 
   1   9  -8   27.00   11.50 
  -7   4  11   14.63   10.44 
  -8   0  -4   82.35   10.93 
   7  -4 -11   15.51    9.34 
   4  -6  26   72.17   10.08 
  -4  -6 -26   65.08    9.01 
  -7  -4  11   14.51   17.01 
   1  -9  -8   26.24    7.85 
  -6   5  18   46.75    6.75 
   7   4 -11   12.14   15.08 
   6  -5 -18   45.86   17.09 
  -4   6 -26   61.26    8.36 
  -8   0   5   -0.06    2.85 
  -6  -5  18   42.91    6.99 
   5  -7  -9    9.09    8.70 
  -5   7   9   12.31    8.51 
  -1   5 -38   26.63    7.93 
   1  -3 -43    4.43    3.59 
  -1  -5 -38   23.25   15.89 
   1   3 -43    2.62    2.12 
   5   7  -9    8.29    7.12 
  -1   5 -38   22.89   10.56 
   1   3 -43    0.71    1.39 
   5   7  -9    9.02    5.10 
  -6   6  -6   29.91    9.35 
   6  -6   6   16.72   17.42 
  -1   9  -8    6.32    6.97 
  -1  -9  -8   13.72    7.19 
   3  -3 -40   10.03   11.47 
   3   3 -40   13.16    5.97 
  -4   0  40  185.22   28.19 
   3  -3 -40   12.89    9.98 
   4   0 -40  207.86   24.34 
   3   3 -40   11.53    5.94 
  -2  -1 -44   40.40    7.11 
   4  -7  19   23.53    9.11 
   2  -6 -33   40.80    6.05 
  -4   7 -19   30.71   11.23 
   2   6 -33   28.38   12.34 
  -2   1 -44   31.35    9.45 
  -7   0  23    0.75    2.76 
  -6  -3  27    0.93    1.67 
   2   6 -33   32.17   13.88 
  -6   3  27    0.78    1.02 
  -1  -8 -22    1.33    3.21 
  -1   8 -22    1.66    1.35 
  -4   8   0    2.00    2.84 
   4  -8  -1   20.11   11.18 
   4   8  -1   15.00   11.31 
  -4   8   1   21.15   11.37 
   4   8   0    0.64    2.07 
   4  -8   0    0.73    1.79 
   6  -6  -7   29.81   19.85 
   8  -1  -1    5.58    6.08 
   5   3 -33   10.63    7.01 
   5  -3 -33    9.43    3.02 
  -6  -6   7   35.33   10.61 
  -8   1   1    5.01    7.20 
   5  -3 -33    9.02    4.47 
  -5  -3  33   10.29    4.88 
  -8  -1   1    4.72    4.22 
   0   9 -10  111.32   13.63 
   0  -9 -10  109.86   13.35 
  -6   6   7   24.78    7.49 
   8  -1   0    3.39    4.94 
   8   1  -1    3.12    3.21 
  -8   1   0    7.55    8.39 
  -8  -1   0    5.90    2.60 
   1   4 -41   51.77    9.76 
   1  -4 -41   51.13    6.97 
   4  -8   1  215.23   24.90 
   1  -4 -41   49.18    7.39 
   1   4 -41   52.30    8.98 
   4  -8  -2   52.13   17.75 
   8  -1   1   30.12    9.38 
  -3   8 -15   44.47    6.72 
   3  -8  15   52.02    7.11 
   4   8  -2   56.11    7.28 
  -8  -1   2    1.55    1.71 
   8   1  -2    0.64    1.63 
  -4   8   2   65.39    8.97 
  -8   1  -1   35.84   10.73 
  -8  -1  -1   36.22   13.87 
  -8   1   2    2.86    2.89 
   8  -1  -2    2.37    2.36 
   2  -3 -42   70.10    9.58 
   2   3 -42   66.17    8.48 
   2   3 -42   70.03   11.81 
   2  -3 -42   70.13    8.80 
  -7   2 -20    2.47    5.38 
  -7  -2 -20    4.85    6.65 
  -7   2 -20    5.05    2.90 
  -4   8  -2    7.53    5.19 
  -6   0  31    1.25    2.67 
   6   0 -31    1.44    2.37 
   4  -8   2    6.04    4.63 
   2   5 -37    6.01    4.33 
   2  -5 -37    7.36    5.29 
  -8   0  -5   -0.59    2.86 
   2   5 -37    5.61    3.90 
   2  -5 -37    7.45    6.32 
   2   8 -20   39.93    6.24 
   2  -8 -20   50.46    7.63 
  -8  -1  -2    5.24    6.43 
   8  -1   2    3.57    3.90 
  -8   1  -2    5.86    4.00 
   8   0  -6   53.22    7.21 
  -8   0   6   55.15    7.82 
  -1  -3 -43    3.53    4.95 
   8  -1  -3    5.32    2.90 
   4   8  -3   52.18    7.17 
  -8   1   3    2.91    3.59 
   4  -8  -3   51.35   17.74 
  -1   3 -43    2.51    3.23 
  -1   3 -43    3.65    4.02 
  -4   8   3   53.94    7.51 
  -8  -1   3    6.41    2.85 
  -6   4 -23   97.05   16.39 
   5  -7   9    4.05    2.04 
  -5   7  -9    4.79    2.02 
   5   1 -36   67.23   18.84 
  -5  -1  36   68.35   12.83 
   5  -1 -36   68.53   14.95 
  -5   1  36   70.83    9.29 
   0  -7 -30   20.50    7.36 
   0   7 -30   15.26   12.06 
   0   8 -23   20.68    7.71 
   0  -8 -23   22.94   14.90 
   4  -8   3  107.15   13.82 
  -4   8  -3  114.20   14.05 
   7  -2 -21    4.89    3.86 
  -6   6  -7    3.10    2.34 
  -7  -2  21    4.69    4.06 
   7   2 -21    5.21    3.90 
   6  -6   7    3.83    3.23 
  -4  -5 -31   63.23    9.02 
   7  -2 -21    4.28    3.30 
  -4   5 -31   62.92    8.66 
  -7   2  21    4.95    2.63 
  -1   4 -41   10.47   10.26 
   5  -2 -35   15.37   15.11 
   5  -6  20   10.57    9.40 
  -1  -4 -41   12.02   12.29 
   5   2 -35   15.62   13.23 
  -5   6 -20   16.71    7.56 
  -5  -2  35   21.23   10.34 
  -1   4 -41    8.48   11.61 
  -5   2  35   17.90    7.61 
  -8   1   4   15.58   14.05 
   8  -1  -4   25.55    7.81 
  -8   1  -3    6.32    6.78 
   0   6 -35  135.84   16.49 
  -8  -1   4   24.91   13.88 
   8  -1   3    7.53    8.17 
  -8  -1  -3    7.02    4.96 
   0  -6 -35  136.29   16.37 
   2  -4 -40   35.58   10.33 
  -6   1 -30    1.95    2.57 
   2   4 -40   21.58   18.87 
   2  -4 -40   37.64    6.02 
   0   0 -46    2.05    3.61 
  -6  -1 -30    1.91    2.29 
   2   4 -40   32.15   12.74 
  -6   1 -30    1.67    2.22 
  -4   8   4    9.03    7.10 
   4   8  -4    8.55    2.68 
   4  -8  -4    8.07    7.75 
   7  -4  11    1.06    2.52 
  -7  -3 -17    1.48    1.27 
  -7   4 -11    2.03    2.12 
  -7   3 -17    0.60    1.69 
   6  -6  -8    6.04    4.59 
  -6   6   8    4.94    4.98 
   3  -4 -38    0.94    1.11 
   3   4 -38   -1.00    2.21 
  -5   7  10   35.96   10.47 
   3  -4 -38    0.74    2.04 
   3   4 -38    0.47    2.57 
   5  -7 -10   38.96    6.23 
  -6  -6   8    6.26    3.18 
   5   7 -10   38.42    5.71 
  -7   1 -22    6.22    4.38 
  -7  -1 -22    5.88    6.64 
  -7   1 -22    6.33    4.91 
  -8   0  -6   32.81    9.96 
  -8   0   7    1.70    1.64 
;
_shelx_hkl_checksum              5718
#END Tags that were not found in dictionaries
loop_
_space_group_symop_operation_xyz
'x, y, z'
'x, -y, z+1/2'
loop_
_atom_site_label
_atom_site_type_symbol
_atom_site_fract_x
_atom_site_fract_y
_atom_site_fract_z
_atom_site_U_iso_or_equiv
_atom_site_adp_type
_atom_site_occupancy
_atom_site_site_symmetry_order
_atom_site_calc_flag
_atom_site_refinement_flags_posn
_atom_site_refinement_flags_adp
S1 S 0.23156(12) 0.14044(12) 0.38913(2) 0.02075(19) Uani 1 1 d . .
S2 S 0.35223(12) 0.34759(12) 0.20193(2) 0.01998(19) Uani 1 1 d . .
F1 F 0.2095(6) -0.2336(4) 0.48859(8) 0.0545(9) Uani 1 1 d . .
F2 F 0.3660(5) 0.7346(3) 0.10358(7) 0.0363(6) Uani 1 1 d . .
N1 N 0.1411(5) -0.0010(4) 0.42186(9) 0.0208(6) Uani 1 1 d . .
N2 N 0.4357(5) 0.4922(4) 0.16930(8) 0.0204(7) Uani 1 1 d . .
O1 O 0.4653(5) 0.1163(4) 0.38803(9) 0.0324(7) Uani 1 1 d . .
O2 O 0.1422(5) 0.3261(3) 0.39636(8) 0.0309(7) Uani 1 1 d . .
O3 O 0.4462(5) 0.1656(3) 0.19377(8) 0.0268(6) Uani 1 1 d . .
O4 O 0.1214(5) 0.3679(4) 0.20377(8) 0.0284(6) Uani 1 1 d . .
C1 C 0.2111(8) -0.2014(5) 0.42196(12) 0.0311(9) Uani 1 1 d . .
H1A H 0.3704 -0.2124 0.4262 0.037 Uiso 1 1 calc R U
H1B H 0.1713 -0.2652 0.3976 0.037 Uiso 1 1 calc R U
C2 C 0.0882(9) -0.2823(6) 0.45454(12) 0.0360(11) Uani 1 1 d . .
H2 H 0.0674 -0.4228 0.4519 0.043 Uiso 1 1 calc R U
C3 C -0.1224(8) -0.1790(6) 0.45479(13) 0.0373(11) Uani 1 1 d . .
H3A H -0.1824 -0.1759 0.4810 0.045 Uiso 1 1 calc R U
H3B H -0.2295 -0.2423 0.4376 0.045 Uiso 1 1 calc R U
C4 C -0.0742(7) 0.0270(6) 0.44047(12) 0.0277(9) Uani 1 1 d . .
H4 H -0.1848 0.0622 0.4205 0.033 Uiso 1 1 calc R U
C5 C -0.0733(7) 0.1785(5) 0.47158(11) 0.0238(8) Uani 1 1 d . .
C6 C 0.0989(7) 0.2083(6) 0.49591(12) 0.0298(9) Uani 1 1 d . .
H6 H 0.2299 0.1382 0.4926 0.036 Uiso 1 1 calc R U
C7 C 0.0848(9) 0.3385(6) 0.52498(13) 0.0351(10) Uani 1 1 d . .
H7 H 0.2055 0.3585 0.5418 0.042 Uiso 1 1 calc R U
C8 C -0.1069(9) 0.4413(5) 0.52988(12) 0.0353(11) Uani 1 1 d . .
H8 H -0.1165 0.5303 0.5502 0.042 Uiso 1 1 calc R U
C9 C -0.2804(8) 0.4161(5) 0.50598(12) 0.0309(9) Uani 1 1 d . .
H9 H -0.4106 0.4870 0.5095 0.037 Uiso 1 1 calc R U
C10 C -0.2651(8) 0.2832(5) 0.47582(12) 0.0300(9) Uani 1 1 d . .
H10 H -0.3841 0.2651 0.4586 0.036 Uiso 1 1 calc R U
C11 C 0.1319(6) 0.0583(5) 0.34425(10) 0.0179(7) Uani 1 1 d . .
C12 C 0.2713(5) 0.0646(4) 0.31322(10) 0.0205(7) Uani 1 1 d . .
H12 H 0.4171 0.1079 0.3164 0.025 Uiso 1 1 calc R U
C13 C 0.1946(6) 0.0065(5) 0.27741(10) 0.0227(7) Uani 1 1 d . .
H13 H 0.2896 0.0101 0.2561 0.027 Uiso 1 1 calc R U
C14 C -0.0183(6) -0.0566(5) 0.27230(10) 0.0205(7) Uani 1 1 d . .
C15 C -0.1539(5) -0.0645(4) 0.30398(9) 0.0235(7) Uani 1 1 d . .
H15 H -0.2985 -0.1111 0.3011 0.028 Uiso 1 1 calc R U
C16 C -0.0806(5) -0.0054(4) 0.33965(9) 0.0228(7) Uani 1 1 d . .
H16 H -0.1757 -0.0085 0.3609 0.027 Uiso 1 1 calc R U
C17 C -0.1020(7) -0.1157(5) 0.23332(10) 0.0284(8) Uani 1 1 d . .
H17A H -0.1068 -0.2549 0.2318 0.043 Uiso 1 1 calc R U
H17B H -0.0047 -0.0664 0.2136 0.043 Uiso 1 1 calc R U
H17C H -0.2490 -0.0643 0.2292 0.043 Uiso 1 1 calc R U
C18 C 0.3616(7) 0.6930(5) 0.17066(11) 0.0252(8) Uani 1 1 d . .
H18A H 0.4046 0.7545 0.1951 0.030 Uiso 1 1 calc R U
H18B H 0.2015 0.7026 0.1672 0.030 Uiso 1 1 calc R U
C19 C 0.4804(7) 0.7797(5) 0.13724(11) 0.0254(8) Uani 1 1 d . .
H19 H 0.4981 0.9204 0.1403 0.030 Uiso 1 1 calc R U
C20 C 0.6980(7) 0.6791(5) 0.13735(11) 0.0248(8) Uani 1 1 d . .
H20A H 0.8037 0.7469 0.1540 0.030 Uiso 1 1 calc R U
H20B H 0.7573 0.6736 0.1111 0.030 Uiso 1 1 calc R U
C21 C 0.6561(6) 0.4757(5) 0.15274(10) 0.0188(7) Uani 1 1 d . .
H21 H 0.7639 0.4469 0.1736 0.023 Uiso 1 1 calc R U
C22 C 0.6708(7) 0.3239(5) 0.12205(10) 0.0195(7) Uani 1 1 d . .
C23 C 0.5008(7) 0.2915(5) 0.09608(11) 0.0246(8) Uani 1 1 d . .
H23 H 0.3681 0.3604 0.0981 0.029 Uiso 1 1 calc R U
C24 C 0.5267(8) 0.1576(5) 0.06717(11) 0.0290(9) Uani 1 1 d . .
H24 H 0.4109 0.1359 0.0494 0.035 Uiso 1 1 calc R U
C25 C 0.7171(8) 0.0562(5) 0.06388(12) 0.0299(9) Uani 1 1 d . .
H25 H 0.7318 -0.0351 0.0440 0.036 Uiso 1 1 calc R U
C26 C 0.8879(7) 0.0867(5) 0.08949(12) 0.0297(9) Uani 1 1 d . .
H26 H 1.0199 0.0170 0.0872 0.036 Uiso 1 1 calc R U
C27 C 0.8642(7) 0.2201(5) 0.11849(12) 0.0254(8) Uani 1 1 d . .
H27 H 0.9807 0.2410 0.1361 0.031 Uiso 1 1 calc R U
C28 C 0.4553(6) 0.4214(5) 0.24675(11) 0.0198(7) Uani 1 1 d . .
C29 C 0.6660(5) 0.3719(4) 0.25831(10) 0.0221(7) Uani 1 1 d . .
H29 H 0.7608 0.3079 0.2413 0.027 Uiso 1 1 calc R U
C30 C 0.7355(5) 0.4179(5) 0.29525(9) 0.0239(7) Uani 1 1 d . .
H30 H 0.8800 0.3871 0.3031 0.029 Uiso 1 1 calc R U
C31 C 0.5966(7) 0.5087(5) 0.32103(11) 0.0256(8) Uani 1 1 d . .
C32 C 0.3892(6) 0.5584(5) 0.30833(10) 0.0255(8) Uani 1 1 d . .
H32 H 0.2942 0.6229 0.3253 0.031 Uiso 1 1 calc R U
C33 C 0.3175(6) 0.5167(4) 0.27190(10) 0.0224(7) Uani 1 1 d . .
H33 H 0.1748 0.5525 0.2639 0.027 Uiso 1 1 calc R U
C34 C 0.6727(8) 0.5489(6) 0.36160(11) 0.0359(10) Uani 1 1 d . .
H34A H 0.6152 0.6722 0.3699 0.054 Uiso 1 1 calc R U
H34B H 0.8324 0.5520 0.3625 0.054 Uiso 1 1 calc R U
H34C H 0.6197 0.4487 0.3786 0.054 Uiso 1 1 calc R U
loop_
_atom_site_aniso_label
_atom_site_aniso_U_11
_atom_site_aniso_U_22
_atom_site_aniso_U_33
_atom_site_aniso_U_23
_atom_site_aniso_U_13
_atom_site_aniso_U_12
S1 0.0213(5) 0.0234(4) 0.0176(4) -0.0014(3) 0.0025(3) -0.0050(3)
S2 0.0200(5) 0.0245(4) 0.0155(4) -0.0004(3) 0.0032(3) -0.0023(3)
F1 0.092(3) 0.0427(15) 0.0286(15) 0.0042(11) -0.0156(15) -0.0146(16)
F2 0.0499(18) 0.0325(12) 0.0263(13) 0.0047(10) -0.0137(11) -0.0013(12)
N1 0.0215(17) 0.0218(14) 0.0191(16) 0.0030(12) 0.0045(12) 0.0056(12)
N2 0.0218(18) 0.0228(14) 0.0168(15) 0.0002(12) 0.0040(12) 0.0035(12)
O1 0.0218(17) 0.0503(16) 0.0253(16) -0.0023(13) 0.0014(12) -0.0101(13)
O2 0.048(2) 0.0187(12) 0.0260(15) -0.0022(10) 0.0043(13) -0.0018(12)
O3 0.0370(18) 0.0221(12) 0.0216(15) -0.0004(10) 0.0055(12) -0.0033(11)
O4 0.0162(15) 0.0476(16) 0.0215(15) -0.0032(12) 0.0010(11) -0.0046(12)
C1 0.034(2) 0.0281(19) 0.031(2) 0.0051(16) 0.0055(18) 0.0120(17)
C2 0.056(3) 0.028(2) 0.024(2) 0.0071(16) 0.000(2) -0.0026(19)
C3 0.040(3) 0.039(2) 0.033(3) -0.0010(19) 0.011(2) -0.006(2)
C4 0.023(2) 0.035(2) 0.024(2) 0.0007(16) 0.0036(16) -0.0005(16)
C5 0.033(2) 0.0220(16) 0.0169(19) 0.0029(13) 0.0108(16) -0.0024(15)
C6 0.028(2) 0.036(2) 0.025(2) 0.0082(17) -0.0013(16) -0.0046(17)
C7 0.041(3) 0.038(2) 0.026(2) 0.0094(17) -0.0014(18) -0.0085(19)
C8 0.060(3) 0.0252(18) 0.021(2) -0.0009(15) 0.0123(19) -0.0084(18)
C9 0.037(2) 0.0245(19) 0.032(2) 0.0020(15) 0.0139(18) 0.0009(17)
C10 0.034(2) 0.033(2) 0.023(2) 0.0060(16) 0.0012(16) -0.0064(17)
C11 0.0218(19) 0.0165(15) 0.0153(16) -0.0001(12) 0.0010(13) -0.0014(13)
C12 0.0148(16) 0.0227(15) 0.0241(17) -0.0004(13) 0.0029(12) -0.0039(13)
C13 0.0264(19) 0.0237(16) 0.0182(16) -0.0005(13) 0.0058(13) -0.0017(14)
C14 0.0230(19) 0.0175(15) 0.0210(18) 0.0010(12) -0.0024(14) 0.0011(13)
C15 0.0191(16) 0.0224(16) 0.0291(18) -0.0022(13) 0.0001(13) -0.0012(13)
C16 0.0198(17) 0.0270(16) 0.0217(16) -0.0016(13) 0.0053(12) -0.0018(13)
C17 0.033(2) 0.0316(19) 0.0203(18) -0.0039(15) -0.0035(14) 0.0059(16)
C18 0.027(2) 0.0238(17) 0.025(2) 0.0003(15) 0.0031(16) 0.0046(15)
C19 0.035(2) 0.0224(17) 0.0189(19) -0.0025(14) -0.0025(16) -0.0004(15)
C20 0.031(2) 0.0227(16) 0.0208(19) -0.0027(14) 0.0051(16) -0.0038(15)
C21 0.0189(19) 0.0222(16) 0.0153(16) -0.0016(13) 0.0009(14) 0.0021(13)
C22 0.026(2) 0.0191(15) 0.0132(17) 0.0025(13) 0.0035(14) -0.0011(14)
C23 0.031(2) 0.0200(17) 0.0226(19) 0.0030(14) 0.0025(15) 0.0017(15)
C24 0.041(3) 0.0302(19) 0.016(2) 0.0023(14) 0.0003(17) -0.0046(17)
C25 0.044(3) 0.0244(17) 0.0213(19) -0.0019(14) 0.0145(17) -0.0032(17)
C26 0.030(2) 0.0293(19) 0.030(2) 0.0041(16) 0.0097(16) 0.0032(16)
C27 0.021(2) 0.0265(18) 0.028(2) 0.0030(15) 0.0050(16) 0.0014(15)
C28 0.0204(19) 0.0206(16) 0.0186(17) 0.0025(13) 0.0032(14) -0.0007(14)
C29 0.0201(17) 0.0219(15) 0.0245(17) 0.0041(12) 0.0067(12) -0.0011(12)
C30 0.0170(16) 0.0262(16) 0.0286(17) 0.0079(13) -0.0022(12) -0.0036(13)
C31 0.035(2) 0.0243(17) 0.0179(17) 0.0030(13) 0.0021(14) -0.0073(15)
C32 0.031(2) 0.0218(16) 0.0238(18) -0.0045(14) 0.0071(15) 0.0000(15)
C33 0.0217(17) 0.0203(15) 0.0253(17) -0.0008(13) 0.0023(13) 0.0005(13)
C34 0.040(3) 0.041(2) 0.027(2) 0.0022(17) -0.0041(17) -0.0128(19)
loop_
_atom_type_symbol
_atom_type_description
_atom_type_scat_dispersion_real
_atom_type_scat_dispersion_imag
_atom_type_scat_source
C C 0.0033 0.0016 'International Tables Vol C Tables 4.2.6.8 and 6.1.1.4'
H H 0.0000 0.0000 'International Tables Vol C Tables 4.2.6.8 and 6.1.1.4'
N N 0.0061 0.0033 'International Tables Vol C Tables 4.2.6.8 and 6.1.1.4'
O O 0.0106 0.0060 'International Tables Vol C Tables 4.2.6.8 and 6.1.1.4'
F F 0.0171 0.0103 'International Tables Vol C Tables 4.2.6.8 and 6.1.1.4'
S S 0.1246 0.1234 'International Tables Vol C Tables 4.2.6.8 and 6.1.1.4'
loop_
_geom_angle_atom_site_label_1
_geom_angle_atom_site_label_2
_geom_angle_atom_site_label_3
_geom_angle
O2 S1 O1 119.41(19)
O2 S1 N1 107.39(16)
O1 S1 N1 107.15(17)
O2 S1 C11 108.78(18)
O1 S1 C11 105.73(18)
N1 S1 C11 107.92(17)
O4 S2 O3 120.03(18)
O4 S2 N2 106.94(17)
O3 S2 N2 106.87(16)
O4 S2 C28 106.12(18)
O3 S2 C28 107.37(17)
N2 S2 C28 109.21(16)
C1 N1 C4 112.6(3)
C1 N1 S1 119.2(3)
C4 N1 S1 122.6(2)
C21 N2 C18 111.6(3)
C21 N2 S2 121.6(2)
C18 N2 S2 118.5(2)
N1 C1 C2 102.6(3)
N1 C1 H1A 111.3
C2 C1 H1A 111.3
N1 C1 H1B 111.3
C2 C1 H1B 111.3
H1A C1 H1B 109.2
F1 C2 C3 108.8(4)
F1 C2 C1 106.3(4)
C3 C2 C1 105.5(4)
F1 C2 H2 112.0
C3 C2 H2 112.0
C1 C2 H2 112.0
C2 C3 C4 106.5(4)
C2 C3 H3A 110.4
C4 C3 H3A 110.4
C2 C3 H3B 110.4
C4 C3 H3B 110.4
H3A C3 H3B 108.6
N1 C4 C5 114.0(3)
N1 C4 C3 100.9(3)
C5 C4 C3 114.8(3)
N1 C4 H4 108.9
C5 C4 H4 108.9
C3 C4 H4 108.9
C6 C5 C10 120.0(4)
C6 C5 C4 123.3(4)
C10 C5 C4 116.6(4)
C5 C6 C7 120.6(4)
C5 C6 H6 119.7
C7 C6 H6 119.7
C6 C7 C8 119.8(5)
C6 C7 H7 120.1
C8 C7 H7 120.1
C9 C8 C7 121.0(4)
C9 C8 H8 119.5
C7 C8 H8 119.5
C8 C9 C10 119.2(4)
C8 C9 H9 120.4
C10 C9 H9 120.4
C5 C10 C9 119.4(4)
C5 C10 H10 120.3
C9 C10 H10 120.3
C16 C11 C12 120.4(3)
C16 C11 S1 121.5(3)
C12 C11 S1 118.1(3)
C11 C12 C13 119.2(3)
C11 C12 H12 120.4
C13 C12 H12 120.4
C14 C13 C12 121.1(3)
C14 C13 H13 119.4
C12 C13 H13 119.4
C13 C14 C15 118.6(3)
C13 C14 C17 121.0(3)
C15 C14 C17 120.4(3)
C16 C15 C14 120.9(3)
C16 C15 H15 119.6
C14 C15 H15 119.6
C15 C16 C11 119.8(3)
C15 C16 H16 120.1
C11 C16 H16 120.1
C14 C17 H17A 109.5
C14 C17 H17B 109.5
H17A C17 H17B 109.5
C14 C17 H17C 109.5
H17A C17 H17C 109.5
H17B C17 H17C 109.5
N2 C18 C19 102.0(3)
N2 C18 H18A 111.4
C19 C18 H18A 111.4
N2 C18 H18B 111.4
C19 C18 H18B 111.4
H18A C18 H18B 109.2
F2 C19 C20 109.3(3)
F2 C19 C18 108.5(3)
C20 C19 C18 104.0(3)
F2 C19 H19 111.6
C20 C19 H19 111.6
C18 C19 H19 111.6
C19 C20 C21 106.4(3)
C19 C20 H20A 110.4
C21 C20 H20A 110.4
C19 C20 H20B 110.4
C21 C20 H20B 110.4
H20A C20 H20B 108.6
N2 C21 C22 113.1(3)
N2 C21 C20 102.6(3)
C22 C21 C20 113.1(3)
N2 C21 H21 109.3
C22 C21 H21 109.3
C20 C21 H21 109.3
C23 C22 C27 119.1(3)
C23 C22 C21 121.7(3)
C27 C22 C21 119.1(4)
C24 C23 C22 119.5(4)
C24 C23 H23 120.2
C22 C23 H23 120.2
C25 C24 C23 121.0(4)
C25 C24 H24 119.5
C23 C24 H24 119.5
C24 C25 C26 120.2(4)
C24 C25 H25 119.9
C26 C25 H25 119.9
C25 C26 C27 119.4(4)
C25 C26 H26 120.3
C27 C26 H26 120.3
C26 C27 C22 120.8(4)
C26 C27 H27 119.6
C22 C27 H27 119.6
C29 C28 C33 120.2(3)
C29 C28 S2 120.5(3)
C33 C28 S2 119.1(3)
C30 C29 C28 119.0(3)
C30 C29 H29 120.5
C28 C29 H29 120.5
C29 C30 C31 121.3(3)
C29 C30 H30 119.3
C31 C30 H30 119.3
C32 C31 C30 118.1(3)
C32 C31 C34 121.7(4)
C30 C31 C34 120.2(4)
C33 C32 C31 121.7(3)
C33 C32 H32 119.1
C31 C32 H32 119.1
C32 C33 C28 119.7(4)
C32 C33 H33 120.2
C28 C33 H33 120.2
C31 C34 H34A 109.5
C31 C34 H34B 109.5
H34A C34 H34B 109.5
C31 C34 H34C 109.5
H34A C34 H34C 109.5
H34B C34 H34C 109.5
loop_
_geom_bond_atom_site_label_1
_geom_bond_atom_site_label_2
_geom_bond_distance
S1 O2 1.438(3)
S1 O1 1.444(3)
S1 N1 1.618(3)
S1 C11 1.774(4)
S2 O4 1.425(3)
S2 O3 1.432(3)
S2 N2 1.615(3)
S2 C28 1.761(4)
F1 C2 1.438(6)
F2 C19 1.400(5)
N1 C1 1.472(4)
N1 C4 1.491(5)
N2 C21 1.480(5)
N2 C18 1.483(4)
C1 C2 1.485(5)
C1 H1A 0.9900
C1 H1B 0.9900
C2 C3 1.481(7)
C2 H2 1.0000
C3 C4 1.561(6)
C3 H3A 0.9900
C3 H3B 0.9900
C4 C5 1.521(5)
C4 H4 1.0000
C5 C6 1.365(6)
C5 C10 1.397(6)
C6 C7 1.371(6)
C6 H6 0.9500
C7 C8 1.392(7)
C7 H7 0.9500
C8 C9 1.357(7)
C8 H8 0.9500
C9 C10 1.412(5)
C9 H9 0.9500
C10 H10 0.9500
C11 C16 1.385(5)
C11 C12 1.389(5)
C12 C13 1.393(5)
C12 H12 0.9500
C13 C14 1.389(5)
C13 H13 0.9500
C14 C15 1.393(5)
C14 C17 1.509(5)
C15 C16 1.384(5)
C15 H15 0.9500
C16 H16 0.9500
C17 H17A 0.9800
C17 H17B 0.9800
C17 H17C 0.9800
C18 C19 1.511(5)
C18 H18A 0.9900
C18 H18B 0.9900
C19 C20 1.510(6)
C19 H19 1.0000
C20 C21 1.549(5)
C20 H20A 0.9900
C20 H20B 0.9900
C21 C22 1.516(5)
C21 H21 1.0000
C22 C23 1.394(6)
C22 C27 1.399(5)
C23 C24 1.391(5)
C23 H23 0.9500
C24 C25 1.374(6)
C24 H24 0.9500
C25 C26 1.387(7)
C25 H25 0.9500
C26 C27 1.389(5)
C26 H26 0.9500
C27 H27 0.9500
C28 C29 1.394(5)
C28 C33 1.397(5)
C29 C30 1.393(5)
C29 H29 0.9500
C30 C31 1.400(5)
C30 H30 0.9500
C31 C32 1.387(6)
C31 C34 1.515(5)
C32 C33 1.374(5)
C32 H32 0.9500
C33 H33 0.9500
C34 H34A 0.9800
C34 H34B 0.9800
C34 H34C 0.9800
loop_
_geom_torsion_atom_site_label_1
_geom_torsion_atom_site_label_2
_geom_torsion_atom_site_label_3
_geom_torsion_atom_site_label_4
_geom_torsion
O2 S1 N1 C1 -178.6(3)
O1 S1 N1 C1 -49.2(4)
C11 S1 N1 C1 64.2(4)
O2 S1 N1 C4 29.7(4)
O1 S1 N1 C4 159.1(3)
C11 S1 N1 C4 -87.4(3)
O4 S2 N2 C21 -164.3(3)
O3 S2 N2 C21 -34.6(3)
C28 S2 N2 C21 81.2(3)
O4 S2 N2 C18 50.0(3)
O3 S2 N2 C18 179.7(3)
C28 S2 N2 C18 -64.4(3)
C4 N1 C1 C2 -23.4(5)
S1 N1 C1 C2 -177.8(3)
N1 C1 C2 F1 -81.5(4)
N1 C1 C2 C3 33.9(5)
F1 C2 C3 C4 80.8(4)
C1 C2 C3 C4 -32.9(5)
C1 N1 C4 C5 127.4(4)
S1 N1 C4 C5 -79.3(4)
C1 N1 C4 C3 3.8(4)
S1 N1 C4 C3 157.1(3)
C2 C3 C4 N1 17.7(4)
C2 C3 C4 C5 -105.4(4)
N1 C4 C5 C6 -36.3(5)
C3 C4 C5 C6 79.4(5)
N1 C4 C5 C10 146.9(3)
C3 C4 C5 C10 -97.4(4)
C10 C5 C6 C7 1.0(6)
C4 C5 C6 C7 -175.7(3)
C5 C6 C7 C8 0.1(6)
C6 C7 C8 C9 -0.7(6)
C7 C8 C9 C10 0.1(6)
C6 C5 C10 C9 -1.5(5)
C4 C5 C10 C9 175.4(3)
C8 C9 C10 C5 1.0(6)
O2 S1 C11 C16 -74.6(3)
O1 S1 C11 C16 156.0(3)
N1 S1 C11 C16 41.6(3)
O2 S1 C11 C12 103.5(3)
O1 S1 C11 C12 -25.9(3)
N1 S1 C11 C12 -140.2(3)
C16 C11 C12 C13 0.2(5)
S1 C11 C12 C13 -178.0(2)
C11 C12 C13 C14 0.2(5)
C12 C13 C14 C15 -1.3(5)
C12 C13 C14 C17 178.8(3)
C13 C14 C15 C16 1.9(5)
C17 C14 C15 C16 -178.1(3)
C14 C15 C16 C11 -1.6(5)
C12 C11 C16 C15 0.5(5)
S1 C11 C16 C15 178.6(2)
C21 N2 C18 C19 28.8(4)
S2 N2 C18 C19 177.7(3)
N2 C18 C19 F2 80.2(4)
N2 C18 C19 C20 -36.1(4)
F2 C19 C20 C21 -84.0(3)
C18 C19 C20 C21 31.7(4)
C18 N2 C21 C22 -131.6(3)
S2 N2 C21 C22 80.6(4)
C18 N2 C21 C20 -9.4(4)
S2 N2 C21 C20 -157.2(3)
C19 C20 C21 N2 -14.0(4)
C19 C20 C21 C22 108.2(4)
N2 C21 C22 C23 37.6(4)
C20 C21 C22 C23 -78.5(4)
N2 C21 C22 C27 -145.6(3)
C20 C21 C22 C27 98.3(4)
C27 C22 C23 C24 -0.2(5)
C21 C22 C23 C24 176.6(3)
C22 C23 C24 C25 0.2(5)
C23 C24 C25 C26 -0.2(6)
C24 C25 C26 C27 0.2(6)
C25 C26 C27 C22 -0.2(5)
C23 C22 C27 C26 0.2(5)
C21 C22 C27 C26 -176.7(3)
O4 S2 C28 C29 162.5(3)
O3 S2 C28 C29 33.0(3)
N2 S2 C28 C29 -82.6(3)
O4 S2 C28 C33 -12.3(3)
O3 S2 C28 C33 -141.8(3)
N2 S2 C28 C33 102.7(3)
C33 C28 C29 C30 0.4(5)
S2 C28 C29 C30 -174.3(2)
C28 C29 C30 C31 1.4(5)
C29 C30 C31 C32 -2.3(5)
C29 C30 C31 C34 177.2(3)
C30 C31 C32 C33 1.6(5)
C34 C31 C32 C33 -177.9(3)
C31 C32 C33 C28 0.2(5)
C29 C28 C33 C32 -1.2(5)
S2 C28 C33 C32 173.6(3)
