#------------------------------------------------------------------------------
#$Date: 2016-02-18 17:37:37 +0200 (Thu, 18 Feb 2016) $
#$Revision: 176729 $
#$URL: svn://www.crystallography.net/cod/cif/1/51/66/1516632.cif $
#------------------------------------------------------------------------------
#
# This file is available in the Crystallography Open Database (COD),
# http://www.crystallography.net/
#
# All data on this site have been placed in the public domain by the
# contributors.
#
data_1516632
loop_
_publ_author_name
'Choudhary, Amit'
'Newberry, Robert W.'
'Raines, Ronald T.'
_publ_section_title
;
 n\\rightarrow \p* Interactions Engender Chirality in Carbonyl Groups.
;
_journal_issue                   13
_journal_name_full               'Organic letters'
_journal_page_first              3421
_journal_page_last               3423
_journal_paper_doi               10.1021/ol5012967
_journal_volume                  16
_journal_year                    2014
_chemical_absolute_configuration ad
_chemical_formula_sum            'C8 H13 N O3 S'
_chemical_formula_weight         203.25
_space_group_crystal_system      orthorhombic
_space_group_IT_number           19
_space_group_name_Hall           'P 2ac 2ab'
_space_group_name_H-M_alt        'P 21 21 21'
_symmetry_space_group_name_Hall  'P 2ac 2ab'
_symmetry_space_group_name_H-M   'P 21 21 21'
_atom_sites_solution_hydrogens   geom
_audit_creation_method
;
manual editing of the CIF file 
created by SHELXTL Ver. 6.10
;
_cell_angle_alpha                90
_cell_angle_beta                 90
_cell_angle_gamma                90
_cell_formula_units_Z            4
_cell_length_a                   6.4374(4)
_cell_length_b                   11.8996(7)
_cell_length_c                   12.6886(7)
_cell_measurement_reflns_used    11252
_cell_measurement_temperature    100(2)
_cell_measurement_theta_max      30.0193
_cell_measurement_theta_min      2.3464
_cell_volume                     971.98(10)
_computing_cell_refinement       'SAINT Ver. 6.22  (Bruker-AXS, 2003)'
_computing_data_collection       'SMART Ver. 5.622 (Bruker-AXS, 2003)'
_computing_data_reduction        'SAINT Ver. 6.22'
_computing_molecular_graphics    'SHELXTL Ver. 6.10'
_computing_publication_material  'SHELXTL Ver. 6.10'
_computing_structure_refinement  'SHELXL-2013 (Sheldrick, 2013)'
_computing_structure_solution    'SHELXTL Ver. 6.10 (Bruker-AXS, 2003)'
_diffrn_ambient_temperature      100(2)
_diffrn_measured_fraction_theta_full 1.000
_diffrn_measured_fraction_theta_max 0.990
_diffrn_measurement_device_type  'Bruker CCD-1000 area detector'
_diffrn_measurement_method       '0.30\% \w scans'
_diffrn_radiation_type           MoK\a
_diffrn_radiation_wavelength     0.71073
_diffrn_reflns_av_R_equivalents  0.0237
_diffrn_reflns_av_unetI/netI     0.0146
_diffrn_reflns_Laue_measured_fraction_full 1.000
_diffrn_reflns_Laue_measured_fraction_max 0.990
_diffrn_reflns_limit_h_max       8
_diffrn_reflns_limit_h_min       -9
_diffrn_reflns_limit_k_max       16
_diffrn_reflns_limit_k_min       -16
_diffrn_reflns_limit_l_max       17
_diffrn_reflns_limit_l_min       -17
_diffrn_reflns_number            14496
_diffrn_reflns_point_group_measured_fraction_full 1.000
_diffrn_reflns_point_group_measured_fraction_max 0.992
_diffrn_reflns_theta_full        25.242
_diffrn_reflns_theta_max         30.030
_diffrn_reflns_theta_min         2.346
_diffrn_source                   'fine-focus sealed tube'
_exptl_absorpt_coefficient_mu    0.308
_exptl_absorpt_correction_T_max  0.9051
_exptl_absorpt_correction_T_min  0.8763
_exptl_absorpt_correction_type   multi-scan
_exptl_absorpt_process_details
;
SADABS  (Bruker-AXS, 2003)
;
_exptl_crystal_colour            colorless
_exptl_crystal_density_diffrn    1.389
_exptl_crystal_description       block
_exptl_crystal_F_000             432
_exptl_crystal_size_max          0.440
_exptl_crystal_size_mid          0.330
_exptl_crystal_size_min          0.330
_refine_diff_density_max         0.343
_refine_diff_density_min         -0.171
_refine_diff_density_rms         0.046
_refine_ls_abs_structure_details
;
 Refined as an inversion twin.
;
_refine_ls_abs_structure_Flack   -0.01(6)
_refine_ls_extinction_method     none
_refine_ls_goodness_of_fit_ref   1.048
_refine_ls_hydrogen_treatment    constr
_refine_ls_matrix_type           full
_refine_ls_number_parameters     122
_refine_ls_number_reflns         2773
_refine_ls_number_restraints     0
_refine_ls_restrained_S_all      1.048
_refine_ls_R_factor_all          0.0237
_refine_ls_R_factor_gt           0.0232
_refine_ls_shift/su_max          0.000
_refine_ls_shift/su_mean         0.000
_refine_ls_structure_factor_coef Fsqd
_refine_ls_weighting_details
'w=1/[\s^2^(Fo^2^)+(0.0431P)^2^+0.1470P] where P=(Fo^2^+2Fc^2^)/3'
_refine_ls_weighting_scheme      calc
_refine_ls_wR_factor_gt          0.0637
_refine_ls_wR_factor_ref         0.0641
_reflns_Friedel_coverage         0.724
_reflns_Friedel_fraction_full    1.000
_reflns_Friedel_fraction_max     0.994
_reflns_number_gt                2721
_reflns_number_total             2773
_reflns_threshold_expression     'I > 2\s(I)'
_cod_data_source_file            ol5012967_si_005.cif
_cod_data_source_block           global
_cod_depositor_comments
'Adding full bibliography for 1516628--1516633.cif.'
_cod_database_code               1516632
#BEGIN Tags that were not found in dictionaries:
_shelx_space_group_comment
;
The symmetry employed for this shelxl refinement is uniquely defined
by the following loop, which should always be used as a source of
symmetry information in preference to the above space-group names.
They are only intended as comments.
;
_shelx_estimated_absorpt_t_min   0.876
_shelx_estimated_absorpt_t_max   0.905
_shelxl_version_number           2013-4
_shelx_res_file
;
TITL raines17 in P2(1)2(1)2(1)
CELL 0.71073   6.4374  11.8996  12.6886  90.000  90.000  90.000
ZERR    4.00   0.0004   0.0007   0.0007   0.000   0.000   0.000
LATT -1
SYMM 0.5-X, -Y, 0.5+Z
SYMM -X, 0.5+Y, 0.5-Z
SYMM 0.5+X, 0.5-Y, -Z
SFAC C  H  N  O  S
UNIT 32 52 4 12 4
L.S. 100
ACTA
BOND
FMAP 2
PLAN 10
size 0.44 0.33 0.33
wpdb -2
twin
conf
TEMP -173
WGHT    0.043100    0.147000
BASF  -0.00615
FVAR       0.28390
MOLE 1
S1    5    0.737542    0.405584    0.625808    11.00000    0.01865    0.01234 =
         0.01609    0.00067   -0.00041    0.00236
O1    4    0.776021    0.284608    0.866694    11.00000    0.01701    0.01850 =
         0.01605   -0.00153   -0.00009    0.00069
O3    4    0.773960   -0.026712    0.588821    11.00000    0.02140    0.01571 =
         0.01947    0.00027   -0.00159   -0.00164
AFIX 147
H3    2    0.694801   -0.081845    0.598638    11.00000   -1.50000
AFIX   0
O2    4    0.433657    0.277906    0.828706    11.00000    0.01593    0.01934 =
         0.02192   -0.00047    0.00404    0.00172
N1    3    0.873308    0.202346    0.670220    11.00000    0.01177    0.01240 =
         0.01498    0.00092    0.00194    0.00097
C2    1    0.914523    0.302116    0.628084    11.00000    0.01498    0.01295 =
         0.01056   -0.00131   -0.00052   -0.00022
C3    1    0.673407    0.174985    0.719920    11.00000    0.01334    0.01297 =
         0.01622    0.00004    0.00268   -0.00030
AFIX  13
H3A   2    0.561370    0.173962    0.665337    11.00000   -1.20000
AFIX   0
C6    1    1.012402    0.103246    0.666290    11.00000    0.01434    0.01257 =
         0.02116    0.00172    0.00097    0.00203
AFIX  23
H6A   2    1.121073    0.107869    0.721327    11.00000   -1.20000
H6B   2    1.079848    0.096567    0.596451    11.00000   -1.20000
AFIX   0
C4    1    0.708208    0.055095    0.762676    11.00000    0.02162    0.01272 =
         0.02049    0.00318    0.00617   -0.00042
AFIX  23
H4A   2    0.763389    0.056999    0.835481    11.00000   -1.20000
H4B   2    0.577366    0.011381    0.761951    11.00000   -1.20000
AFIX   0
C8    1    0.731894    0.357878    0.955436    11.00000    0.02487    0.02220 =
         0.01731   -0.00437    0.00111   -0.00072
AFIX 137
H8A   2    0.661373    0.425770    0.930313    11.00000   -1.50000
H8B   2    0.862290    0.378812    0.990125    11.00000   -1.50000
H8C   2    0.642241    0.318498    1.005760    11.00000   -1.50000
AFIX   0
C5    1    0.867195    0.005073    0.686442    11.00000    0.01678    0.01299 =
         0.01738    0.00162    0.00029    0.00125
AFIX  13
H5    2    0.942775   -0.059498    0.719211    11.00000   -1.20000
AFIX   0
C7    1    0.613042    0.254130    0.808794    11.00000    0.01675    0.01293 =
         0.01536    0.00216    0.00233   -0.00019
C1    1    1.128326    0.317908    0.583072    11.00000    0.01786    0.01549 =
         0.01886   -0.00236    0.00649   -0.00261
AFIX 137
H1A   2    1.231686    0.309964    0.639285    11.00000   -1.50000
H1B   2    1.139228    0.393016    0.551876    11.00000   -1.50000
H1C   2    1.153568    0.261050    0.528685    11.00000   -1.50000
AFIX   0
HKLF 4

REM  raines17 in P2(1)2(1)2(1)
REM R1 =  0.0232 for    2721 Fo > 4sig(Fo)  and  0.0237 for all    2773 data
REM    122 parameters refined using      0 restraints

END

WGHT      0.0430      0.1463

REM Highest difference peak  0.343,  deepest hole -0.171,  1-sigma level  0.046
Q1    1   0.8361  0.3577  0.6268  11.00000  0.05    0.34
Q2    1   0.9387  0.0541  0.6753  11.00000  0.05    0.33
Q3    1   0.6514  0.2196  0.7584  11.00000  0.05    0.31
Q4    1   0.7816  0.0262  0.7247  11.00000  0.05    0.27
Q5    1   0.9462  0.1562  0.6654  11.00000  0.05    0.26
Q6    1   0.7832  0.1925  0.6941  11.00000  0.05    0.25
Q7    1   1.0293  0.3122  0.6129  11.00000  0.05    0.24
Q8    1   0.6944  0.1061  0.7390  11.00000  0.05    0.24
Q9    1   0.8172 -0.0074  0.6355  11.00000  0.05    0.22
Q10   1   0.6514  0.3574  0.6283  11.00000  0.05    0.22
;
_shelx_res_checksum              28722
_shelx_hkl_file
;
   1   0   0   -0.91    0.02
  -1   0   0   -0.79    0.03
  -1   0   0   -0.90    0.02
   2   0   0  772.66   20.15
  -2   0   0  726.10   20.75
   2   0   0  744.27   20.76
  -2   0   0  763.88   19.19
  -2   0   0  762.99   19.20
  -3   0   0   -0.06    0.02
  -3   0   0   -0.13    0.03
  -3   0   0   -0.15    0.03
   3   0   0   -0.13    0.03
   4   0   0   42.39    1.19
   4   0   0   39.37    1.16
  -4   0   0   40.14    1.10
  -4   0   0   40.99    1.04
  -4   0   0   40.31    1.19
  -5   0   0   -0.01    0.05
   5   0   0    0.09    0.06
  -5   0   0   -0.02    0.05
  -6   0   0   80.78    2.16
   6   0   0   82.34    2.29
  -6   0   0   80.89    2.34
  -7   0   0   -0.09    0.07
  -7   0   0    0.04    0.08
   7   0   0   -0.06    0.08
  -8   0   0   41.76    1.21
   8   0   0   41.35    1.29
   0   1   0   -0.27    0.01
   0  -1   0   -0.26    0.01
   0   1   0   -0.27    0.01
   1   1   0   23.70    0.68
  -1   1   0   23.52    0.67
   1  -1   0   23.68    0.62
   1   1   0   24.05    0.65
  -1  -1   0   23.06    0.62
   1  -1   0   25.08    0.66
  -1  -1   0   23.76    0.68
   1   1   0   22.84    0.61
  -1   1   0   23.56    0.62
  -2   1   0    2.33    0.08
  -2   1   0    2.24    0.10
   2   1   0    2.25    0.11
  -2  -1   0    2.24    0.11
   2  -1   0    2.21    0.10
   2   1   0    2.24    0.11
   2  -1   0    2.24    0.11
  -2   1   0    2.32    0.10
   2   1   0    2.31    0.08
   3   1   0   49.92    1.41
  -3  -1   0   49.68    1.34
  -3   1   0   53.65    1.30
   3   1   0   51.06    1.30
   3  -1   0   50.66    1.41
  -3  -1   0   50.79    1.45
  -3   1   0   49.91    1.44
  -3   1   0   49.39    1.33
   3   1   0   51.23    1.45
   3  -1   0   52.15    1.44
  -4   1   0   61.37    1.78
   4  -1   0   61.11    1.74
   4   1   0   63.75    1.78
   4   1   0   61.48    1.74
  -4   1   0   61.37    1.64
  -4   1   0   63.44    1.59
  -4  -1   0   61.12    1.65
  -4  -1   0   60.79    1.78
   4  -1   0   65.06    1.78
   4   1   0   64.32    1.59
  -5   1   0   55.94    1.62
   5  -1   0   56.61    1.59
  -5  -1   0   56.54    1.63
  -5  -1   0   56.45    1.50
   5   1   0   55.12    1.58
  -5   1   0   54.00    1.49
  -6  -1   0    0.02    0.06
  -6  -1   0   -0.05    0.05
  -6   1   0   -0.04    0.07
   6   1   0    0.02    0.07
  -6   1   0    0.05    0.06
   6  -1   0    0.07    0.07
   7  -1   0    8.61    0.38
  -7  -1   0    9.43    0.40
  -7   1   0    9.15    0.39
  -7   1   0    9.11    0.35
  -7  -1   0    9.26    0.36
   7   1   0    9.05    0.39
  -8   1   0    0.71    0.12
   8   1   0    0.51    0.14
   8  -1   0    0.59    0.12
  -8  -1   0    0.67    0.12
   0   2   0  183.86    4.63
   0  -2   0  186.88    4.91
   0   2   0  173.25    5.02
   0  -2   0  181.07    5.05
   1   2   0    8.02    0.26
  -1   2   0    8.69    0.24
   1   2   0    8.50    0.24
   1  -2   0    8.72    0.24
  -1   2   0    8.38    0.26
   1   2   0    8.56    0.25
   1  -2   0    8.85    0.25
  -1  -2   0    8.28    0.27
   2   2   0  118.18    3.34
   2   2   0  120.23    3.24
  -2  -2   0  116.93    3.09
  -2   2   0  117.35    3.34
  -2  -2   0  120.11    3.35
   2   2   0  123.89    3.06
  -2   2   0  121.92    3.06
   2  -2   0  123.81    3.09
   2  -2   0  124.64    3.25
   3   2   0   34.25    0.85
   3   2   0   33.33    0.96
   3  -2   0   32.39    0.95
  -3   2   0   33.80    0.85
   3   2   0   31.74    0.93
  -3   2   0   32.43    0.88
  -3  -2   0   33.57    0.89
  -3  -2   0   32.46    0.96
  -3   2   0   33.17    0.96
   3  -2   0   31.54    0.93
  -4  -2   0  107.68    3.01
   4  -2   0  107.00    2.92
  -4   2   0  113.11    2.72
  -4   2   0  106.09    3.00
   4   2   0  109.51    2.72
   4   2   0  108.81    3.00
  -4  -2   0  106.92    2.78
  -4   2   0  101.38    2.77
   4   2   0  103.63    2.92
  -5   2   0    3.63    0.17
   5  -2   0    3.65    0.20
   5   2   0    3.48    0.19
  -5  -2   0    3.84    0.20
  -5   2   0    4.03    0.19
  -5  -2   0    3.61    0.18
  -6  -2   0    1.05    0.12
  -6  -2   0    1.07    0.11
  -6   2   0    0.97    0.12
  -6   2   0    1.21    0.11
   6  -2   0    1.09    0.12
   6   2   0    1.01    0.12
  -7   2   0    0.12    0.09
  -7   2   0    0.36    0.10
   7   2   0    0.16    0.09
  -7  -2   0    0.28    0.10
   7  -2   0    0.32    0.10
  -7  -2   0    0.36    0.09
  -8   2   0    2.25    0.17
   8   2   0    2.25    0.20
  -8  -2   0    2.38    0.19
   8  -2   0    2.39    0.21
   0   3   0   -0.01    0.03
   0  -3   0   -0.05    0.02
   0   3   0   -0.05    0.03
   0  -3   0    0.18    0.04
   0  -3   0   -0.02    0.03
  -1  -3   0  224.81    5.98
  -1   3   0  200.63    5.50
   1  -3   0  216.21    5.98
  -1   3   0  215.09    5.98
   1   3   0  222.48    5.84
   1   3   0  218.50    5.97
   1  -3   0  221.10    5.81
   1  -3   0  218.38    5.52
  -1  -3   0  222.54    5.53
   1   3   0  213.77    5.52
   2  -3   0  129.98    3.52
  -2   3   0  129.22    3.33
   2   3   0  132.13    3.32
  -2  -3   0  128.95    3.63
   2  -3   0  131.33    3.62
  -2   3   0  131.85    3.62
   2   3   0  136.31    3.63
   2  -3   0  128.44    3.35
   2   3   0  130.57    3.51
  -3  -3   0  148.46    3.85
  -3   3   0  153.93    3.81
   3  -3   0  152.97    4.04
   3   3   0  154.70    4.17
   3  -3   0  150.40    4.15
   3   3   0  156.48    3.81
  -3   3   0  129.65    3.84
   3   3   0  161.29    4.04
  -3   3   0  147.47    4.16
  -3  -3   0  146.83    4.17
   4   3   0    3.60    0.12
   4   3   0    3.42    0.18
   4  -3   0    3.54    0.17
  -4   3   0    3.56    0.17
   4   3   0    3.88    0.17
  -4   3   0    3.28    0.15
  -4  -3   0    3.67    0.16
  -4  -3   0    3.44    0.18
  -4   3   0    3.48    0.13
  -5  -3   0   52.95    1.46
  -5   3   0   53.94    1.45
   5   3   0   55.25    1.54
  -5   3   0   54.57    1.58
   5  -3   0   53.15    1.54
  -5  -3   0   53.97    1.59
  -6  -3   0   66.57    1.79
  -6  -3   0   65.91    1.94
   6   3   0   63.15    1.87
  -6   3   0   65.23    1.77
   6  -3   0   65.88    1.88
  -6   3   0   68.17    1.93
   7   3   0   10.69    0.43
  -7   3   0   10.51    0.39
  -7  -3   0   10.84    0.41
  -7   3   0   10.65    0.43
   7  -3   0   10.46    0.43
  -8   3   0   17.95    0.62
   8   3   0   19.61    0.69
   8  -3   0   19.53    0.69
  -8  -3   0   18.54    0.65
   0  -4   0   49.46    1.29
   0  -4   0   50.13    1.40
   0  -4   0   50.28    1.34
   0   4   0   47.94    1.39
  -1   4   0    9.60    0.32
  -1   4   0    9.99    0.30
   1   4   0    9.49    0.29
  -1  -4   0   10.25    0.33
   1  -4   0   10.26    0.30
   1   4   0    9.97    0.29
   1  -4   0    9.85    0.29
  -1  -4   0    9.78    0.30
   1   4   0   10.38    0.33
   1  -4   0   10.46    0.32
   2   4   0   16.00    0.47
   2  -4   0   18.12    0.50
  -2  -4   0   16.31    0.51
   2  -4   0   15.57    0.48
   2   4   0   17.31    0.51
   2   4   0   16.91    0.45
  -2  -4   0   16.15    0.47
   2  -4   0   15.60    0.45
  -2   4   0   15.35    0.45
  -2   4   0   15.46    0.50
   3   4   0    4.24    0.18
  -3   4   0    3.87    0.15
   3   4   0    3.74    0.16
   3  -4   0    4.03    0.17
  -3   4   0    3.83    0.17
   3  -4   0    3.94    0.15
   3  -4   0    3.75    0.16
  -3  -4   0    3.72    0.18
   3   4   0    4.00    0.14
  -4  -4   0   87.15    2.35
  -4   4   0   90.46    2.30
   4  -4   0   89.79    2.46
   4   4   0   92.21    2.29
  -4  -4   0   89.70    2.55
   4   4   0   86.65    2.45
  -4   4   0   90.35    2.53
  -4   4   0   89.67    2.34
  -5  -4   0    3.78    0.19
  -5   4   0    4.03    0.20
   5   4   0    3.81    0.19
  -5  -4   0    4.03    0.22
  -5   4   0    3.95    0.18
   5  -4   0    3.39    0.19
   6   4   0    0.19    0.07
  -6   4   0    0.18    0.08
  -6  -4   0    0.10    0.09
  -6  -4   0    0.19    0.08
  -6   4   0    0.22    0.08
   6  -4   0    0.30    0.09
  -7  -4   0    0.00    0.07
   7   4   0    0.05    0.08
   7  -4   0   -0.06    0.09
  -7   4   0   -0.01    0.08
  -7   4   0   -0.02    0.09
   8  -4   0    2.55    0.21
  -8  -4   0    2.39    0.20
  -8   4   0    2.39    0.19
   8   4   0    2.59    0.21
   0   5   0   -0.22    0.04
   0   5   0   -0.06    0.04
   0  -5   0   -0.20    0.03
   0  -5   0   -0.21    0.03
   0  -5   0   -0.18    0.03
  -1  -5   0  487.98   13.37
   1   5   0  495.04   12.25
   1   5   0  483.62   13.28
   1   5   0  484.77   12.94
   1  -5   0  484.81   12.99
  -1   5   0  485.32   12.30
   1  -5   0  476.90   13.30
  -1  -5   0  493.88   12.37
  -1   5   0  459.70   13.30
   1  -5   0  493.12   12.36
  -2  -5   0    2.94    0.15
   2   5   0    2.73    0.14
   2   5   0    2.80    0.12
  -2  -5   0    2.82    0.13
  -2   5   0    2.78    0.13
  -2   5   0    2.69    0.13
   2   5   0    3.24    0.12
   2  -5   0    3.01    0.12
   2  -5   0    2.69    0.13
   2  -5   0    2.89    0.13
   3  -5   0    2.26    0.11
   3   5   0    2.41    0.11
   3   5   0    2.44    0.14
  -3   5   0    2.26    0.13
   3   5   0    2.29    0.12
  -3   5   0    2.16    0.11
  -3  -5   0    2.31    0.13
  -3  -5   0    2.18    0.14
   3  -5   0    2.54    0.13
   3  -5   0    2.35    0.13
   4   5   0    2.07    0.13
  -4   5   0    2.18    0.14
  -4  -5   0    2.46    0.15
   4   5   0    2.25    0.11
  -4   5   0    2.18    0.13
  -4  -5   0    2.48    0.16
  -4   5   0    2.21    0.12
   4  -5   0    2.09    0.14
  -5   5   0    7.70    0.32
  -5   5   0    8.15    0.29
   5   5   0    7.39    0.30
  -5  -5   0    7.48    0.33
   5  -5   0    7.74    0.31
  -5  -5   0    7.95    0.31
  -6  -5   0    0.06    0.07
   6   5   0    0.04    0.08
  -6   5   0    0.03    0.07
  -6   5   0    0.01    0.07
   6  -5   0   -0.02    0.07
  -6  -5   0    0.00    0.09
   7  -5   0   11.17    0.45
  -7  -5   0   10.97    0.44
   7   5   0   11.25    0.45
  -7   5   0   11.39    0.42
  -7   5   0   11.92    0.47
   8   5   0    2.55    0.22
  -8  -5   0    2.73    0.21
  -8   5   0    2.42    0.19
   8  -5   0    2.63    0.22
   0  -6   0   40.19    1.17
   0   6   0   38.91    1.07
   0  -6   0   42.25    1.10
   0   6   0   38.52    1.16
   0  -6   0   40.34    1.07
  -1  -6   0    4.77    0.21
  -1   6   0    4.45    0.19
   1   6   0    4.65    0.20
   1  -6   0    5.14    0.17
   1   6   0    4.54    0.18
  -1   6   0    4.90    0.18
   1  -6   0    4.76    0.20
   1  -6   0    4.68    0.18
  -1  -6   0    4.59    0.19
   1   6   0    4.68    0.16
   2   6   0    5.56    0.23
   2  -6   0    5.31    0.20
  -2   6   0    5.07    0.21
   2  -6   0    5.74    0.22
  -2  -6   0    5.64    0.22
   2   6   0    5.77    0.21
   2  -6   0    5.45    0.20
  -2  -6   0    5.96    0.24
   2   6   0    5.87    0.20
  -2   6   0    5.43    0.20
  -3  -6   0   13.68    0.44
   3  -6   0   13.70    0.42
   3  -6   0   14.22    0.45
   3   6   0   14.01    0.42
   3   6   0   14.13    0.44
  -3   6   0   14.30    0.42
   3   6   0   13.93    0.48
  -3  -6   0   14.07    0.49
  -3   6   0   14.02    0.47
   4   6   0   88.44    2.20
   4   6   0   87.37    2.34
  -4   6   0   82.62    2.42
  -4   6   0   85.63    2.21
  -4  -6   0   85.10    2.45
  -4  -6   0   80.71    2.25
   4  -6   0   86.82    2.35
   4  -6   0   83.46    2.23
   5  -6   0   56.33    1.61
  -5   6   0   56.56    1.65
  -5   6   0   55.91    1.52
   5   6   0   55.37    1.60
  -5  -6   0   57.31    1.69
  -5  -6   0   55.45    1.55
   6  -6   0   25.24    0.83
   6   6   0   25.44    0.82
  -6   6   0   26.68    0.85
  -6   6   0   26.74    0.78
  -6  -6   0   26.04    0.81
  -7  -6   0   17.41    0.63
  -7   6   0   18.60    0.60
  -7   6   0   18.94    0.67
   7  -6   0   18.23    0.65
   7   6   0   18.98    0.65
  -8  -6   0    4.35    0.28
   8   6   0    4.41    0.29
   8  -6   0    3.91    0.27
  -8   6   0    4.27    0.25
   0   7   0   -0.02    0.04
   0  -7   0   -0.05    0.03
   0  -7   0    0.02    0.04
   0  -7   0   -0.02    0.03
   0   7   0    0.04    0.04
   1  -7   0   26.91    0.75
   1  -7   0   27.22    0.81
  -1   7   0   27.03    0.81
   1   7   0   26.21    0.82
  -1   7   0   27.09    0.75
  -1  -7   0   27.02    0.76
   1   7   0   26.68    0.75
  -1  -7   0   27.89    0.83
   1  -7   0   26.15    0.76
  -2  -7   0    0.43    0.08
   2   7   0    0.52    0.08
   2   7   0    0.47    0.07
   2  -7   0    0.52    0.07
  -2   7   0    0.53    0.07
   2   7   0    0.34    0.05
   2  -7   0    0.41    0.05
  -2  -7   0    0.48    0.07
  -2   7   0    0.60    0.07
   3   7   0   40.71    1.10
   3   7   0   43.30    1.15
   3  -7   0   40.22    1.10
   3  -7   0   40.41    1.15
   3   7   0   41.63    1.22
  -3   7   0   40.41    1.10
  -3   7   0   39.63    1.20
  -3  -7   0   39.54    1.13
  -3  -7   0   39.61    1.23
  -4   7   0    7.87    0.28
  -4  -7   0    8.03    0.31
   4   7   0    8.29    0.28
  -4  -7   0    8.37    0.35
   4  -7   0    8.02    0.29
   4   7   0    8.20    0.30
   4  -7   0    7.89    0.30
  -4   7   0    7.73    0.32
   5   7   0    6.07    0.26
  -5   7   0    5.35    0.24
   5  -7   0    5.84    0.26
  -5  -7   0    5.49    0.26
  -5   7   0    5.54    0.27
   6   7   0    0.88    0.13
  -6   7   0    0.82    0.11
   6  -7   0    0.60    0.11
  -6   7   0    0.67    0.12
  -6  -7   0    0.82    0.13
  -7  -7   0    7.50    0.35
  -7   7   0    7.20    0.32
   7  -7   0    7.31    0.35
  -7   7   0    7.31    0.36
   7   7   0    7.53    0.35
   8   7   0    2.36    0.22
  -8   7   0    1.91    0.18
   8  -7   0    2.02    0.21
   0  -8   0    7.59    0.24
   0   8   0    7.77    0.28
   0  -8   0    7.39    0.30
   0  -8   0    7.57    0.27
   0   8   0    6.98    0.29
   1  -8   0   57.94    1.59
   1   8   0   58.65    1.55
   1   8   0   59.17    1.69
   1  -8   0   57.64    1.55
  -1   8   0   55.89    1.55
  -1  -8   0   59.38    1.59
  -1  -8   0   57.76    1.56
  -1   8   0   56.39    1.67
  -1  -8   0   59.43    1.70
  -2  -8   0    3.27    0.19
   2   8   0    2.76    0.16
   2  -8   0    3.03    0.14
  -2   8   0    2.79    0.15
   2   8   0    3.35    0.18
   2  -8   0    3.18    0.15
   2   8   0    3.10    0.13
  -2   8   0    2.95    0.16
  -2  -8   0    3.09    0.16
   3  -8   0    2.66    0.14
   3  -8   0    2.76    0.15
  -3  -8   0    2.56    0.16
  -3   8   0    2.58    0.16
  -3  -8   0    2.67    0.18
  -3   8   0    2.74    0.15
   3   8   0    2.61    0.15
   3   8   0    2.71    0.14
  -4  -8   0    2.43    0.16
   4  -8   0    2.29    0.14
   4  -8   0    2.45    0.15
  -4   8   0    2.15    0.14
   4   8   0    2.64    0.14
   4   8   0    2.40    0.15
  -4   8   0    2.36    0.17
   5  -8   0    5.40    0.25
  -5   8   0    5.40    0.26
  -5   8   0    5.36    0.24
   5   8   0    5.71    0.25
  -5  -8   0    5.09    0.26
  -6   8   0    0.25    0.10
  -6  -8   0    0.33    0.10
   6  -8   0    0.33    0.11
  -6   8   0    0.45    0.10
   7  -8   0    0.90    0.14
  -7  -8   0    1.09    0.16
  -7   8   0    1.09    0.14
   0   9   0    0.00    0.06
   0  -9   0    0.00    0.05
   0   9   0   -0.11    0.05
   1   9   0   72.98    2.02
  -1   9   0   67.82    2.00
  -1  -9   0   68.65    1.86
   1  -9   0   69.70    1.85
  -1   9   0   69.37    1.85
   1   9   0   68.51    1.85
  -2   9   0    9.13    0.32
  -2   9   0    8.88    0.35
   2   9   0    8.56    0.35
  -2  -9   0    9.13    0.33
   2  -9   0    8.75    0.30
   2  -9   0    8.61    0.31
   2   9   0    9.26    0.32
   3   9   0   69.54    1.83
  -3   9   0   68.62    2.00
  -3   9   0   68.02    1.84
   3  -9   0   69.80    1.91
  -3  -9   0   67.70    1.87
   3  -9   0   69.92    1.84
  -4  -9   0    1.80    0.15
   4   9   0    1.73    0.13
  -4   9   0    2.41    0.17
  -4   9   0    1.87    0.15
   4  -9   0    1.65    0.14
   4  -9   0    1.87    0.14
   5  -9   0   10.29    0.41
   5  -9   0   11.88    0.40
  -5  -9   0   11.38    0.44
  -6  -9   0    0.85    0.14
  -6   9   0    0.87    0.15
   6  -9   0    1.02    0.14
  -6   9   0    0.87    0.12
   7  -9   0    0.19    0.12
  -7  -9   0    0.40    0.13
   0  10   0  149.73    3.92
   0 -10   0  148.30    3.93
   0  10   0  157.22    4.27
   1  10   0   22.31    0.67
  -1  10   0   22.74    0.73
   1 -10   0   21.95    0.66
  -1  10   0   22.46    0.68
   1  10   0   22.71    0.74
  -1 -10   0   22.06    0.68
   2 -10   0    7.30    0.27
  -2  10   0    6.91    0.31
  -2 -10   0    7.21    0.29
  -2  10   0    7.13    0.29
   2  10   0    7.12    0.28
   3  10   0    0.28    0.08
  -3  10   0    0.48    0.09
  -3  10   0    0.34    0.09
   3 -10   0    0.24    0.07
  -3 -10   0    0.38    0.10
   4  10   0    6.85    0.28
  -4  10   0    7.25    0.32
  -4  10   0    6.55    0.28
  -4 -10   0    6.93    0.31
   4 -10   0    6.72    0.28
  -5 -10   0    8.14    0.36
   5 -10   0    7.64    0.32
  -5  10   0    8.04    0.37
  -6  10   0    6.63    0.34
  -6  10   0    7.41    0.32
  -6 -10   0    7.12    0.35
   0  11   0   -0.01    0.08
   0  11   0    0.00    0.06
   0 -11   0    0.04    0.06
  -1 -11   0    8.45    0.33
  -1  11   0    8.92    0.34
   1 -11   0    8.85    0.33
   1  11   0    8.97    0.34
  -1  11   0    8.44    0.36
  -2 -11   0   30.10    0.90
   2  11   0   29.83    0.88
   2 -11   0   29.99    0.87
  -2  11   0   29.95    0.89
  -2  11   0   30.64    0.96
   3  11   0   18.76    0.59
  -3  11   0   18.43    0.60
  -3 -11   0   18.29    0.61
   3 -11   0   18.44    0.58
  -3  11   0   18.17    0.64
   4 -11   0    0.68    0.10
  -4  11   0    0.64    0.11
  -4  11   0    0.58    0.12
  -4 -11   0    0.77    0.13
   5 -11   0   63.30    1.75
  -5  11   0   65.81    1.93
  -5 -11   0   62.77    1.80
  -6 -11   0    6.10    0.34
   0  12   0    3.40    0.20
   0 -12   0    3.94    0.21
  -1 -12   0    1.38    0.13
   1 -12   0    1.15    0.12
   1  12   0    1.18    0.13
  -1  12   0    1.09    0.14
  -1  12   0    1.04    0.13
  -2  12   0    6.04    0.28
  -2  12   0    6.50    0.31
   2 -12   0    6.16    0.26
   2  12   0    5.68    0.28
  -2 -12   0    5.98    0.29
   3 -12   0    0.32    0.09
  -3  12   0    0.22    0.10
   3  12   0    0.22    0.10
  -3  12   0    0.34    0.10
  -3 -12   0    0.28    0.10
  -4  12   0   -0.07    0.09
  -4  12   0    0.00    0.10
   4 -12   0    0.10    0.09
  -4 -12   0    0.17    0.09
  -5 -12   0   12.26    0.50
   0  13   0   -0.06    0.08
   0 -13   0   -0.06    0.08
   1 -13   0    7.93    0.33
  -1  13   0    7.56    0.33
  -1 -13   0    8.09    0.34
   1  13   0    7.86    0.34
  -2 -13   0   36.45    1.08
   2 -13   0   36.52    1.05
  -2  13   0   35.45    1.07
   2  13   0   36.63    1.07
   3  13   0   18.12    0.59
  -3  13   0   17.30    0.59
   3 -13   0   16.70    0.56
  -3 -13   0   16.63    0.60
  -4  13   0    0.45    0.13
  -4 -13   0    0.70    0.13
  -5 -13   0   -0.09    0.11
   0 -14   0    6.83    0.31
   0  14   0    6.66    0.32
  -1  14   0    7.07    0.33
  -1 -14   0    6.77    0.32
   1  14   0    6.92    0.33
   1 -14   0    6.86    0.31
  -2 -14   0    0.87    0.14
   2  14   0    0.58    0.12
  -2  14   0    0.72    0.13
   2 -14   0    0.94    0.13
  -3 -14   0    0.33    0.13
  -3  14   0    0.11    0.11
   3  14   0    0.04    0.11
  -4 -14   0    1.12    0.17
  -4  14   0    1.29    0.16
   0 -15   0    0.15    0.10
   0  15   0    0.00    0.09
   1 -15   0   11.36    0.43
  -1 -15   0   10.77    0.44
  -1  15   0   10.83    0.45
   1  15   0   11.05    0.45
  -2 -15   0   18.14    0.66
   2  15   0   19.20    0.66
  -2  15   0   19.76    0.67
  -3  15   0    3.97    0.27
   3  15   0    4.79    0.28
  -3 -15   0    4.36    0.28
  -4  15   0   -0.03    0.13
   0  16   0   12.80    0.51
  -1 -16   0    0.12    0.12
   1  16   0   -0.02    0.11
  -1  16   0    0.21    0.12
  -2 -16   0   17.32    0.66
   2  16   0   20.06    0.68
   0   0   1   -0.62    0.00
  -1   0   1   25.43    0.65
  -1   0   1   24.77    0.71
  -1   0  -1   23.99    0.70
  -1   0   1   25.33    0.65
  -1   0  -1   24.83    0.66
   1   0  -1   25.35    0.71
   1   0  -1   25.80    0.69
  -2   0   1    0.37    0.03
  -2   0   1    0.39    0.04
   2   0  -1    0.37    0.05
  -2   0  -1    0.38    0.04
  -2   0  -1    0.33    0.04
   2   0  -1    0.42    0.04
   2   0   1    0.41    0.05
  -2   0   1    0.31    0.04
  -3   0   1    0.36    0.03
   3   0  -1    0.29    0.05
  -3   0   1    0.35    0.05
  -3   0  -1    0.28    0.04
  -3   0   1    0.28    0.05
  -3   0  -1    0.32    0.05
   3   0   1    0.23    0.05
   3   0  -1    0.26    0.05
  -4   0   1    0.26    0.06
  -4   0   1    0.00    0.04
   4   0   1    0.02    0.04
   4   0  -1    0.07    0.05
  -4   0  -1    0.05    0.04
  -4   0   1    0.06    0.02
  -4   0  -1    0.03    0.04
   4   0  -1    0.06    0.05
  -5   0   1    5.83    0.25
  -5   0   1    5.98    0.23
   5   0   1    5.60    0.25
  -5   0  -1    5.76    0.23
  -5   0  -1    5.51    0.24
   5   0  -1    5.86    0.26
  -6   0   1    7.27    0.29
  -6   0  -1    7.26    0.31
  -6   0  -1    7.38    0.29
   6   0   1    6.88    0.31
   6   0  -1    6.90    0.31
  -6   0   1    7.84    0.32
  -7   0  -1   24.21    0.73
  -7   0   1   23.11    0.73
   7   0   1   23.11    0.78
  -7   0   1   22.77    0.80
   7   0  -1   23.74    0.79
  -7   0  -1   25.45    0.81
   8   0  -1   -0.04    0.11
  -8   0   1    0.05    0.09
  -8   0  -1    0.08    0.10
  -8   0  -1    0.07    0.09
   8   0   1    0.00    0.11
  -9   0   1    3.34    0.24
   0  -1  -1   25.31    0.62
   0   1  -1   25.37    0.61
   0  -1  -1   21.35    0.66
   0   1  -1   24.88    0.67
   0  -1  -1   20.99    0.64
   1   1  -1  512.28   14.58
  -1  -1  -1  479.70   14.57
  -1  -1  -1  503.65   13.49
   1  -1   1  571.75   14.17
  -1   1   1  552.24   13.51
  -1   1   1  510.80   14.59
  -1   1   1  527.29   13.42
   1  -1   1  550.14   13.51
   1   1  -1  556.15   14.17
   1  -1  -1  562.89   14.50
  -1  -1   1  543.69   13.71
   1   1   1  556.01   14.48
  -1   1  -1  492.84   14.88
   1   1   1  554.05   13.78
  -1   1  -1  558.69   13.74
  -1  -1   1  545.91   13.80
  -1   1  -1  512.13   14.91
  -2   1   1   14.32    0.43
   2   1  -1   14.34    0.42
   2  -1   1   14.66    0.42
   2   1  -1   13.91    0.43
  -2   1   1   13.91    0.39
  -2  -1  -1   14.51    0.40
  -2  -1  -1   14.29    0.43
  -2   1   1   14.71    0.38
  -2  -1   1   14.53    0.45
  -2   1  -1   14.90    0.41
  -2  -1   1   15.18    0.40
  -2  -1   1   14.62    0.41
  -2   1  -1   14.96    0.39
   2  -1  -1   14.98    0.45
  -2   1  -1   14.32    0.44
   2   1   1   15.64    0.44
   2  -1  -1   14.55    0.44
   3  -1   1   55.01    1.50
  -3   1   1   55.85    1.39
   3   1  -1   57.88    1.54
  -3   1   1   51.91    1.54
  -3  -1  -1   52.02    1.42
  -3   1   1   53.70    1.42
  -3  -1  -1   53.12    1.53
   3   1  -1   54.05    1.50
  -3  -1   1   58.17    1.44
  -3   1  -1   55.74    1.48
  -3  -1   1   56.30    1.60
  -3  -1   1   57.24    1.47
   3   1   1   54.68    1.55
   3  -1  -1   56.50    1.60
   3  -1  -1   54.46    1.56
  -3   1  -1   57.39    1.44
  -3   1  -1   56.42    1.59
   4  -1   1   14.95    0.49
   4   1  -1   15.42    0.49
  -4   1   1   15.12    0.41
  -4  -1  -1   15.57    0.46
  -4   1   1   15.45    0.49
  -4   1   1   14.83    0.45
  -4  -1  -1   15.57    0.49
   4   1  -1   15.00    0.49
   4   1   1   16.26    0.50
   4  -1  -1   16.16    0.51
  -4  -1   1   16.18    0.43
  -4  -1   1   16.18    0.47
  -4   1  -1   15.51    0.47
   4  -1  -1   15.59    0.50
  -4   1  -1   14.87    0.50
  -4  -1   1   15.72    0.51
  -5   1   1   13.14    0.42
  -5  -1  -1   13.60    0.46
   5  -1   1   12.68    0.45
  -5   1   1   13.84    0.46
   5   1  -1   12.67    0.45
  -5  -1  -1   13.03    0.42
  -5   1  -1   13.26    0.44
   5   1   1   13.02    0.45
  -5   1  -1   12.47    0.41
  -5  -1   1   12.98    0.45
   5  -1  -1   12.27    0.44
  -5  -1   1   12.67    0.41
   6   1  -1    3.39    0.21
  -6  -1  -1    3.36    0.18
   6  -1   1    3.28    0.20
  -6   1   1    3.37    0.18
  -6   1   1    3.48    0.20
  -6  -1  -1    3.19    0.19
  -6   1  -1    3.22    0.18
  -6  -1   1    3.11    0.18
   6   1   1    3.17    0.20
  -6  -1   1    3.08    0.19
  -6   1  -1    3.47    0.19
   6  -1  -1    2.99    0.19
  -7   1   1   14.76    0.52
  -7  -1  -1   16.34    0.54
  -7  -1  -1   15.77    0.58
   7  -1   1   16.25    0.58
   7   1  -1   15.66    0.57
  -7   1   1   16.27    0.58
   7   1   1   16.72    0.59
  -7   1  -1   15.79    0.54
  -7   1  -1   16.34    0.59
  -7  -1   1   16.34    0.54
   7  -1  -1   16.04    0.58
  -8  -1  -1    6.48    0.33
   8   1  -1    5.52    0.31
   8  -1   1    6.43    0.34
  -8   1   1    6.04    0.29
  -8  -1  -1    6.41    0.30
   8  -1  -1    6.16    0.33
  -8  -1   1    6.28    0.30
   8   1   1    5.52    0.32
  -8   1  -1    5.97    0.29
  -8   1  -1    6.18    0.33
  -9   1   1    5.43    0.30
   0   2   1   42.99    1.22
   0   2  -1   43.55    1.22
   0  -2  -1   43.58    1.19
   0  -2  -1   45.52    1.13
   0  -2   1   43.99    1.14
   0   2  -1   43.10    1.13
   1   2  -1   53.92    1.46
  -1  -2  -1   56.65    1.60
   1   2  -1   57.58    1.60
  -1  -2  -1   58.04    1.47
   1  -2   1   58.86    1.54
   1   2  -1   60.60    1.54
   1  -2   1   57.40    1.48
  -1   2   1   56.28    1.46
  -1   2   1   55.89    1.59
   1  -2  -1   54.82    1.40
  -1  -2   1   57.30    1.53
   1  -2  -1   55.86    1.53
  -1   2  -1   53.05    1.40
   1   2   1   54.88    1.40
  -1   2  -1   53.13    1.52
   1   2   1   54.09    1.53
   1   2   1   53.80    1.48
   1  -2  -1   54.27    1.48
  -1  -2   1   56.64    1.42
   2   2  -1  116.16    2.93
   2  -2   1  115.24    3.10
  -2  -2  -1  112.71    2.96
  -2   2   1  109.46    3.20
   2   2  -1  114.12    3.10
   2  -2   1  118.58    2.96
  -2  -2  -1  112.34    3.20
   2   2  -1  117.16    3.20
  -2   2   1  120.19    2.95
  -2   2   1  119.73    2.93
   2  -2  -1  116.05    3.22
  -2  -2   1  115.62    2.98
   2   2   1  115.89    3.13
   2   2   1  120.96    3.22
  -2   2  -1  120.93    2.95
   2   2   1  118.20    2.95
   2  -2  -1  111.00    3.13
  -2   2  -1  113.00    3.22
  -3  -2  -1   23.07    0.68
   3   2  -1   26.01    0.74
  -3   2   1   24.01    0.67
  -3  -2  -1   25.85    0.74
  -3   2   1   24.74    0.65
   3   2  -1   25.33    0.65
  -3   2   1   25.26    0.74
   3   2  -1   24.02    0.71
   3  -2   1   23.93    0.71
   3   2   1   25.46    0.75
   3   2   1   25.79    0.65
  -3  -2   1   24.78    0.69
  -3   2  -1   25.33    0.69
   3  -2  -1   25.61    0.75
  -3   2  -1   24.66    0.74
   3   2   1   25.50    0.73
   3  -2  -1   24.63    0.74
  -3  -2   1   24.32    0.75
  -3   2  -1   25.92    0.66
  -4  -2  -1   37.76    1.04
  -4   2   1   37.46    1.13
   4  -2   1   38.53    1.10
   4   2  -1   36.55    1.09
  -4  -2  -1   36.63    1.12
  -4   2   1   38.97    1.03
   4   2  -1   39.50    1.13
   4   2  -1   39.32    0.99
  -4   2   1   39.68    1.00
  -4   2  -1   35.81    1.12
   4   2   1   39.17    1.11
  -4  -2   1   38.08    1.14
  -4   2  -1   40.08    1.00
  -4  -2   1   39.20    1.05
  -4   2  -1   36.83    1.05
   4  -2  -1   39.90    1.12
   4  -2  -1   40.55    1.14
  -5  -2  -1   43.43    1.28
  -5   2   1   45.74    1.29
  -5  -2  -1   42.77    1.18
  -5   2   1   43.17    1.17
   5   2  -1   41.67    1.24
   5  -2   1   41.42    1.25
  -5   2  -1   43.08    1.18
   5   2   1   41.48    1.25
  -5  -2   1   46.27    1.29
  -5   2  -1   43.13    1.27
  -5  -2   1   41.76    1.18
   5  -2  -1   42.71    1.25
   6  -2   1   60.50    1.76
  -6   2   1   62.77    1.81
  -6  -2  -1   60.92    1.67
  -6  -2  -1   62.08    1.81
   6   2  -1   60.89    1.76
  -6   2   1   61.14    1.66
  -6   2  -1   60.83    1.79
  -6   2  -1   60.68    1.66
   6   2   1   60.59    1.76
  -6  -2   1   64.99    1.82
   6  -2  -1   60.05    1.76
  -6  -2   1   60.39    1.66
   7  -2   1    3.92    0.24
  -7  -2  -1    4.49    0.25
  -7   2   1    4.15    0.21
  -7  -2  -1    4.18    0.23
   7   2  -1    4.63    0.25
  -7   2   1    4.30    0.24
   7   2   1    4.60    0.26
  -7   2  -1    4.45    0.25
  -7   2  -1    4.38    0.23
  -7  -2   1    4.72    0.24
   7  -2  -1    4.45    0.26
   8   2  -1    2.75    0.23
   8  -2   1    2.96    0.22
  -8   2   1    2.98    0.20
  -8  -2  -1    2.86    0.21
  -8   2  -1    3.00    0.21
   8   2   1    2.83    0.22
  -8   2  -1    3.24    0.23
   8  -2  -1    3.36    0.24
  -8  -2   1    3.02    0.22
   0   3   1   89.74    2.44
   0   3  -1   87.38    2.44
   0  -3   1   91.51    2.26
   0  -3  -1   88.43    2.25
   0  -3  -1   87.82    2.36
   0  -3  -1   85.89    2.44
   0   3  -1   85.35    2.24
  -1   3   1   74.15    1.90
   1  -3   1   73.67    1.92
   1   3  -1   74.46    2.07
  -1  -3  -1   73.92    2.08
  -1  -3  -1   71.92    1.91
   1  -3   1   76.05    2.00
   1   3  -1   77.13    2.00
   1   3  -1   74.20    1.90
   1   3   1   70.96    1.81
   1   3   1   73.10    1.97
  -1  -3   1   70.94    1.83
  -1   3  -1   69.96    1.81
  -1   3  -1   69.51    1.96
   1   3   1   70.26    1.90
   1  -3  -1   72.29    1.97
  -1  -3   1   69.40    1.98
   1  -3  -1   70.96    1.81
   1  -3  -1   70.36    1.91
   2   3  -1   44.72    1.18
   2  -3   1   44.04    1.18
   2   3  -1   41.81    1.12
   2   3  -1   43.78    1.23
  -2  -3  -1   43.28    1.23
  -2   3   1   42.42    1.12
  -2  -3  -1   41.17    1.13
  -2   3   1   44.09    1.23
   2  -3   1   42.07    1.13
   2   3   1   48.24    1.30
   2  -3  -1   46.24    1.18
   2   3   1   45.23    1.17
   2  -3  -1   44.44    1.29
   2  -3  -1   45.11    1.26
   2   3   1   44.75    1.25
  -2  -3   1   44.89    1.30
  -2   3  -1   45.00    1.29
  -2   3  -1   45.79    1.18
   3   3  -1   81.94    2.28
   3  -3   1   78.87    2.20
  -3   3   1   81.50    2.07
  -3   3   1   80.84    2.09
   3   3  -1   82.96    2.06
  -3  -3  -1   78.55    2.27
  -3  -3  -1   78.01    2.10
   3  -3   1   80.03    2.09
   3   3  -1   86.08    2.20
  -3   3   1   78.29    2.27
   3   3   1   80.89    2.23
  -3  -3   1   80.15    2.24
   3   3   1   80.70    2.02
   3  -3  -1   77.85    2.17
  -3   3  -1   79.37    2.03
  -3   3  -1   79.49    2.22
  -3  -3   1   77.63    2.07
   3  -3  -1   82.57    2.23
   3   3   1   75.11    2.16
   4   3  -1   45.90    1.34
  -4   3   1   48.41    1.24
   4  -3   1   46.03    1.34
  -4  -3  -1   47.03    1.39
  -4  -3  -1   46.78    1.28
  -4   3   1   48.58    1.27
  -4   3   1   46.93    1.38
   4   3  -1   49.62    1.39
   4   3  -1   48.27    1.23
  -4   3  -1   48.80    1.22
  -4   3  -1   47.55    1.27
   4   3   1   47.78    1.34
   4  -3  -1   47.31    1.34
  -4  -3   1   47.22    1.28
  -4   3  -1   45.81    1.37
  -4  -3   1   46.70    1.39
  -5  -3  -1   37.74    1.11
   5  -3   1   37.50    1.08
  -5   3   1   37.22    1.11
  -5  -3  -1   36.22    1.02
  -5   3   1   35.72    1.01
   5   3  -1   34.75    1.07
  -5   3  -1   36.53    1.01
  -5  -3   1   37.16    1.11
   5   3   1   36.48    1.07
   5  -3  -1   35.94    1.08
  -5  -3   1   35.36    1.02
  -5   3  -1   36.54    1.09
  -6  -3  -1   13.21    0.45
  -6   3   1   13.01    0.48
  -6  -3  -1   13.34    0.49
  -6   3   1   13.28    0.43
   6   3  -1   12.53    0.47
   6  -3   1   12.84    0.47
  -6  -3   1   13.21    0.46
  -6   3  -1   14.29    0.46
  -6  -3   1   14.09    0.52
  -6   3  -1   13.98    0.50
   6  -3  -1   13.44    0.49
   6   3   1   13.44    0.49
  -7  -3  -1    1.50    0.17
   7  -3   1    1.35    0.15
   7   3  -1    1.49    0.15
  -7  -3  -1    1.48    0.15
  -7   3   1    2.47    0.19
  -7   3  -1    1.23    0.15
  -7   3  -1    1.35    0.13
   7  -3  -1    1.37    0.15
   7   3   1    1.49    0.16
  -7  -3   1    1.47    0.14
   8  -3   1    3.44    0.24
   8   3  -1    2.94    0.23
  -8  -3  -1    3.77    0.24
  -8   3   1    3.36    0.22
   8  -3  -1    3.16    0.24
  -8   3  -1    3.17    0.22
  -8  -3   1    3.70    0.23
  -8   3  -1    3.97    0.25
   8   3   1    3.24    0.24
   0  -4  -1    9.62    0.32
   0  -4   1    9.51    0.31
   0   4  -1    9.53    0.31
   0  -4   1    9.83    0.29
   0   4   1   10.10    0.31
   0  -4   1    9.91    0.27
   0   4  -1    9.23    0.29
   0  -4  -1   10.27    0.29
   0  -4  -1    9.73    0.29
   1   4  -1  376.60    9.60
  -1   4   1  367.30   10.49
  -1  -4  -1  363.09   10.52
  -1   4   1  385.01    9.68
   1   4  -1  386.08   10.18
  -1  -4  -1  387.33    9.75
   1   4  -1  380.35   10.51
   1  -4   1  389.21    9.74
   1  -4   1  391.60   10.19
  -1   4  -1  352.12   10.62
   1   4   1  395.11    9.82
   1   4   1  385.96   10.58
   1   4   1  389.75   10.29
  -1  -4   1  396.08    9.87
  -1   4  -1  388.26    9.78
   1  -4  -1  390.90    9.82
   1  -4  -1  387.48   10.54
  -1  -4   1  389.63   10.57
   1  -4  -1  369.53   10.28
   2   4  -1   68.66    1.90
   2  -4   1   66.76    1.83
  -2  -4  -1   65.99    1.76
  -2  -4  -1   65.86    1.91
  -2   4   1   68.00    1.90
  -2   4   1   67.98    1.74
   2  -4   1   67.38    1.75
   2   4  -1   66.38    1.74
   2   4  -1   69.30    1.83
  -2  -4   1   68.15    1.79
  -2  -4   1   67.36    1.94
  -2   4  -1   66.88    1.92
   2  -4  -1   69.51    1.87
  -2   4  -1   68.54    1.77
   2   4   1   68.79    1.76
   2   4   1   67.04    1.86
   2  -4  -1   69.54    1.77
   2  -4  -1   68.55    1.92
   2   4   1   70.81    1.93
   3  -4   1  158.15    4.31
   3  -4   1  154.21    4.11
  -3  -4  -1  159.65    4.12
   3   4  -1  163.44    4.46
   3   4  -1  165.00    4.08
  -3  -4  -1  160.69    4.46
  -3   4   1  161.23    4.08
   3   4  -1  161.28    4.31
  -3  -4   1  161.62    4.17
  -3   4  -1  159.61    4.49
   3   4   1  159.26    4.36
  -3  -4   1  165.08    4.52
  -3   4  -1  163.96    4.12
   3  -4  -1  154.70    4.37
   3  -4  -1  164.04    4.49
   3   4   1  168.02    4.51
   3   4   1  164.84    4.12
   4   4  -1    1.90    0.13
  -4  -4  -1    1.88    0.13
  -4  -4  -1    1.96    0.12
   4   4  -1    2.00    0.10
   4   4  -1    1.61    0.13
  -4   4   1    2.04    0.10
  -4   4   1    2.03    0.11
   4  -4   1    1.94    0.12
  -4   4   1    1.85    0.12
  -4  -4   1    1.90    0.13
   4   4   1    2.12    0.13
  -4  -4   1    2.33    0.15
  -4   4  -1    1.97    0.12
   4  -4  -1    1.95    0.13
  -4   4  -1    2.22    0.10
  -4   4  -1    2.05    0.13
  -5   4   1   17.92    0.58
   5  -4   1   16.83    0.56
   5   4  -1   16.48    0.56
  -5   4   1   18.24    0.53
  -5  -4  -1   17.82    0.60
  -5  -4  -1   16.53    0.54
  -5  -4   1   16.79    0.53
   5   4   1   16.73    0.55
  -5   4  -1   16.86    0.56
  -5   4  -1   16.90    0.52
   5  -4  -1   15.91    0.55
   6   4  -1    0.88    0.11
  -6   4   1    0.61    0.10
  -6   4   1    0.70    0.11
  -6  -4  -1    0.48    0.11
   6  -4   1    0.49    0.10
  -6  -4  -1    0.68    0.10
  -6  -4   1    0.47    0.09
   6  -4  -1    0.66    0.11
  -6   4  -1    0.59    0.10
   6   4   1    0.46    0.10
  -6   4  -1    0.69    0.10
  -7  -4  -1   12.21    0.46
   7  -4   1   12.13    0.47
  -7   4   1   12.26    0.43
  -7   4   1   12.38    0.49
   7   4  -1   12.18    0.47
  -7  -4  -1   12.09    0.50
  -7   4  -1   12.42    0.43
   7   4   1   12.12    0.47
  -7   4  -1   12.04    0.47
  -7  -4   1   11.60    0.44
   7  -4  -1   11.03    0.46
  -8   4   1    4.59    0.25
   8  -4   1    4.35    0.28
  -8  -4  -1    4.63    0.27
   8   4  -1    4.66    0.29
   8   4   1    4.22    0.27
   8  -4  -1    4.96    0.29
  -8   4  -1    4.26    0.27
  -8   4  -1    4.11    0.24
  -8  -4   1    4.34    0.27
   0   5  -1   43.63    1.30
   0  -5  -1   44.60    1.20
   0  -5   1   47.17    1.23
   0  -5   1   45.64    1.21
   0  -5   1   47.01    1.31
   0   5   1   46.03    1.20
   0   5   1   45.29    1.30
   0   5  -1   45.39    1.20
   0  -5  -1   46.49    1.25
   0  -5  -1   45.96    1.31
   1   5  -1   50.85    1.43
  -1  -5  -1   49.25    1.44
  -1   5   1   49.71    1.31
  -1  -5  -1   50.58    1.32
   1  -5   1   50.28    1.32
  -1   5   1   50.59    1.43
   1   5  -1   49.89    1.35
   1  -5   1   50.77    1.36
   1   5  -1   48.57    1.31
   1  -5  -1   50.92    1.32
   1   5   1   51.92    1.44
  -1   5  -1   50.21    1.33
   1  -5  -1   51.37    1.44
   1   5   1   50.44    1.37
  -1   5  -1   49.63    1.43
   1  -5  -1   49.62    1.38
  -1  -5   1   49.70    1.34
  -1  -5   1   51.58    1.45
   1   5   1   50.00    1.32
  -2  -5  -1    0.48    0.07
  -2   5   1    0.38    0.06
   2  -5   1    0.38    0.06
   2   5  -1    0.44    0.05
   2   5  -1    0.35    0.06
  -2   5   1    0.45    0.06
   2  -5   1    0.45    0.05
  -2  -5  -1    0.39    0.05
   2   5  -1    0.42    0.05
  -2   5  -1    0.50    0.06
   2  -5  -1    0.51    0.05
   2   5   1    0.60    0.06
   2   5   1    0.53    0.07
  -2   5  -1    0.39    0.05
   2   5   1    0.56    0.05
   2  -5  -1    0.50    0.06
  -2  -5   1    0.48    0.07
   2  -5  -1    0.55    0.07
  -2  -5   1    0.41    0.06
   3  -5   1    9.31    0.31
  -3   5   1    9.68    0.34
  -3   5   1   10.17    0.31
   3  -5   1    9.87    0.33
  -3  -5  -1    9.55    0.36
   3   5  -1   10.11    0.32
  -3  -5  -1    9.95    0.33
   3   5  -1    9.86    0.30
   3   5  -1    9.74    0.35
   3  -5  -1    9.72    0.33
  -3  -5   1   10.00    0.33
  -3   5  -1    9.09    0.30
   3  -5  -1    9.37    0.30
   3   5   1    9.69    0.29
   3   5   1    9.46    0.32
  -3   5  -1    9.13    0.33
   3   5   1   10.04    0.35
   3  -5  -1    9.85    0.33
  -3  -5   1   10.09    0.36
   4   5  -1    1.75    0.10
  -4   5   1    1.65    0.12
   4  -5   1    2.32    0.12
  -4  -5  -1    1.77    0.13
  -4   5   1    1.96    0.11
   4   5  -1    1.68    0.12
   4  -5   1    1.83    0.13
  -4   5   1    1.78    0.11
  -4  -5  -1    1.82    0.14
   4  -5  -1    1.78    0.13
   4   5   1    1.81    0.09
  -4   5  -1    1.85    0.11
  -4  -5   1    1.76    0.13
   4   5   1    1.79    0.13
  -4  -5   1    1.81    0.15
  -5   5   1    0.91    0.09
  -5  -5  -1    0.77    0.12
   5   5  -1    1.00    0.10
  -5   5   1    0.91    0.11
   5  -5   1    0.89    0.10
  -5  -5  -1    0.97    0.11
  -5  -5   1    1.19    0.14
  -5  -5   1    1.17    0.12
  -5   5  -1    0.82    0.09
  -5   5  -1    0.73    0.10
   5   5   1    1.42    0.12
   5  -5  -1    0.86    0.11
  -6  -5  -1   35.26    1.08
  -6   5   1   33.32    0.95
   6  -5   1   31.36    1.01
  -6   5   1   33.26    1.04
  -6  -5  -1   33.17    0.98
   6   5  -1   33.00    1.01
  -6   5  -1   32.16    0.94
   6  -5  -1   31.68    1.00
  -6  -5   1   33.65    0.96
   6   5   1   31.52    0.99
  -6   5  -1   32.66    1.01
   7   5  -1    7.27    0.33
  -7   5   1    6.66    0.29
  -7  -5  -1    7.01    0.32
   7  -5   1    6.62    0.32
  -7  -5   1    6.68    0.31
   7  -5  -1    6.12    0.31
  -7   5  -1    5.97    0.29
  -7   5  -1    7.25    0.33
   7   5   1    6.39    0.32
   8   5  -1    9.84    0.44
  -8   5   1   10.27    0.40
  -8  -5  -1    9.73    0.42
   8  -5   1   10.43    0.45
   8  -5  -1    9.89    0.45
  -8  -5   1   10.49    0.44
  -8   5  -1   10.56    0.41
   8   5   1   10.28    0.46
  -8   5  -1   10.55    0.45
   0  -6  -1   12.34    0.42
   0  -6   1   13.09    0.41
   0   6  -1   12.83    0.41
   0   6   1   12.47    0.38
   0   6  -1   12.45    0.38
   0   6   1   12.25    0.41
   0  -6   1   12.09    0.38
   0  -6   1   12.74    0.35
   0  -6  -1   12.52    0.38
   0  -6  -1   12.52    0.37
   1  -6   1   21.92    0.60
   1   6  -1   21.21    0.60
  -1  -6  -1   21.36    0.67
  -1   6   1   21.20    0.65
   1  -6   1   21.10    0.60
  -1  -6  -1   22.47    0.61
  -1   6   1   20.83    0.60
   1   6  -1   21.40    0.59
   1   6  -1   21.20    0.66
   1   6   1   22.54    0.68
  -1  -6   1   22.62    0.64
   1  -6  -1   22.42    0.64
   1  -6  -1   22.54    0.68
  -1   6  -1   22.12    0.63
   1  -6  -1   22.52    0.62
   1   6   1   21.93    0.63
   1   6   1   22.00    0.62
  -1  -6   1   22.42    0.69
  -2  -6  -1   41.57    1.21
   2   6  -1   41.55    1.13
   2   6  -1   39.11    1.20
   2  -6   1   41.26    1.10
  -2   6   1   39.65    1.09
   2   6  -1   40.35    1.09
  -2  -6  -1   41.44    1.11
   2  -6   1   42.29    1.14
   2  -6  -1   41.57    1.20
   2  -6  -1   41.28    1.09
  -2  -6   1   41.28    1.21
   2  -6  -1   42.12    1.15
   2   6   1   42.12    1.14
   2   6   1   41.48    1.10
   2   6   1   41.72    1.21
  -2   6  -1   38.89    1.19
  -2  -6   1   40.04    1.12
  -2   6  -1   40.60    1.10
   3   6  -1   25.77    0.80
   3   6  -1   25.47    0.74
   3  -6   1   25.45    0.72
  -3   6   1   24.99    0.71
   3   6  -1   26.31    0.71
  -3   6   1   25.38    0.79
  -3  -6  -1   25.43    0.74
   3  -6   1   26.15    0.75
  -3  -6  -1   25.68    0.81
  -3  -6   1   25.91    0.81
   3   6   1   25.91    0.70
   3   6   1   25.38    0.75
   3  -6  -1   25.03    0.71
   3   6   1   25.74    0.79
  -3  -6   1   26.72    0.74
   3  -6  -1   25.69    0.76
  -3   6  -1   25.48    0.71
  -3   6  -1   24.37    0.78
   4  -6   1    4.66    0.20
   4   6  -1    4.90    0.21
   4   6  -1    4.83    0.19
  -4   6   1    4.94    0.19
   4  -6   1    4.76    0.21
  -4  -6  -1    4.59    0.24
  -4  -6   1    4.95    0.24
   4  -6  -1    4.60    0.21
   4   6   1    4.80    0.21
  -4  -6   1    4.50    0.21
   4   6   1    4.55    0.17
  -4   6  -1    4.84    0.22
  -4   6  -1    4.86    0.19
  -5  -6  -1   11.31    0.40
  -5   6   1   11.41    0.42
  -5  -6  -1   11.59    0.45
   5  -6   1   10.96    0.40
  -5   6   1   10.68    0.37
   5   6  -1   11.04    0.40
  -5  -6   1   11.06    0.39
  -5   6  -1   11.08    0.41
   5   6   1   10.94    0.40
  -5   6  -1   10.14    0.37
   5  -6  -1   10.65    0.40
  -6  -6  -1   15.66    0.59
   6  -6   1   15.32    0.54
  -6   6   1   15.20    0.56
  -6  -6  -1   15.93    0.54
  -6   6   1   15.22    0.50
   6   6  -1   15.26    0.54
  -6  -6   1   14.68    0.52
  -6   6  -1   14.65    0.50
   6  -6  -1   15.45    0.54
   6   6   1   15.15    0.53
  -6   6  -1   14.49    0.54
  -7  -6  -1    3.58    0.23
   7   6  -1    3.52    0.23
  -7   6   1    3.65    0.21
   7  -6   1    3.67    0.24
   7  -6  -1    3.57    0.24
  -7  -6   1    3.81    0.24
   7   6   1    3.78    0.24
  -7   6  -1    3.80    0.24
  -7   6  -1    3.83    0.22
   8  -6   1    6.59    0.35
  -8  -6  -1    6.36    0.34
   8   6  -1    6.62    0.35
   8   6   1    6.35    0.35
  -8   6  -1    6.79    0.32
   8  -6  -1    6.13    0.35
  -8  -6   1    7.00    0.35
  -8   6  -1    6.40    0.34
   0  -7   1   17.95    0.52
   0   7  -1   17.26    0.56
   0  -7  -1   16.85    0.56
   0  -7   1   17.61    0.56
   0   7   1   17.90    0.56
   0  -7  -1   17.37    0.51
   0  -7   1   18.03    0.49
   0  -7  -1   17.22    0.51
  -1   7   1   12.37    0.42
   1  -7   1   13.10    0.38
  -1  -7  -1   13.13    0.40
  -1   7   1   13.10    0.40
   1  -7   1   13.25    0.42
   1   7  -1   12.79    0.43
  -1  -7  -1   12.09    0.44
   1   7  -1   12.68    0.40
   1  -7   1   12.57    0.39
   1   7   1   13.33    0.41
  -1  -7   1   13.46    0.42
   1   7   1   14.28    0.46
   1  -7  -1   13.22    0.40
  -1  -7   1   13.59    0.46
   1  -7  -1   13.82    0.41
  -1   7  -1   13.07    0.44
  -1   7  -1   13.43    0.42
  -1  -7   1   13.28    0.39
   1  -7  -1   13.27    0.45
  -2  -7  -1   64.06    1.72
  -2   7   1   62.28    1.85
  -2  -7  -1   64.07    1.87
   2   7  -1   65.21    1.70
   2  -7   1   63.11    1.70
   2  -7   1   67.14    1.77
  -2   7   1   63.92    1.70
   2   7  -1   66.09    1.75
   2   7  -1   65.61    1.86
   2   7   1   62.98    1.66
   2  -7  -1   66.46    1.81
   2  -7  -1   65.65    1.74
  -2   7  -1   60.42    1.66
  -2  -7   1   63.90    1.69
   2   7   1   59.59    1.72
   2  -7  -1   63.86    1.66
   2   7   1   64.51    1.82
  -2  -7   1   61.89    1.82
  -2   7  -1   61.44    1.80
   3   7  -1   41.53    1.11
  -3   7   1   40.81    1.12
  -3  -7  -1   39.07    1.14
   3  -7   1   42.01    1.12
   3  -7   1   41.37    1.16
   3   7  -1   42.81    1.24
  -3  -7  -1   41.49    1.25
   3   7  -1   40.39    1.15
  -3   7   1   41.43    1.22
  -3  -7   1   41.24    1.24
  -3  -7   1   40.62    1.14
  -3   7  -1   41.22    1.12
  -3   7  -1   41.82    1.22
   3   7   1   42.64    1.11
   3  -7  -1   39.95    1.11
   3   7   1   40.88    1.16
   3  -7  -1   40.93    1.17
   4  -7   1   80.92    2.32
   4   7  -1   87.65    2.20
  -4  -7  -1   81.05    2.24
   4  -7   1   83.10    2.22
  -4   7   1   84.45    2.20
  -4  -7  -1   83.32    2.44
  -4   7   1   86.57    2.41
   4   7  -1   85.78    2.31
   4   7   1   85.83    2.31
   4   7   1   84.33    2.17
  -4  -7   1   80.31    2.23
  -4   7  -1   85.65    2.18
  -4   7  -1   81.17    2.39
   4  -7  -1   84.16    2.19
   4  -7  -1   84.05    2.32
  -5   7   1   19.52    0.60
  -5  -7  -1   19.69    0.64
   5  -7   1   19.97    0.64
   5   7  -1   20.58    0.64
   5  -7  -1   19.90    0.64
  -5   7  -1   19.64    0.60
  -5   7  -1   18.77    0.64
   5   7   1   19.29    0.62
  -5  -7   1   18.23    0.61
  -6  -7  -1   10.66    0.43
  -6   7   1   11.36    0.40
  -6   7   1   12.06    0.46
   6   7  -1   11.44    0.43
   6  -7   1   10.57    0.43
  -6  -7   1    9.65    0.40
   6   7   1   10.75    0.41
  -6   7  -1   10.43    0.42
   6  -7  -1   11.04    0.42
  -6   7  -1   10.37    0.39
   7  -7   1   21.80    0.75
  -7   7   1   21.75    0.69
  -7  -7  -1   22.08    0.74
   7   7  -1   22.70    0.75
   7   7   1   23.14    0.77
  -7  -7   1   22.21    0.75
   7  -7  -1   22.46    0.77
  -7   7  -1   22.75    0.79
  -7   7  -1   23.31    0.73
   8  -7   1    3.43    0.25
  -8   7  -1    3.86    0.25
   8   7   1    3.70    0.28
   8  -7  -1    3.29    0.25
   0   8   1   95.15    2.51
   0  -8  -1   94.00    2.51
   0  -8  -1   97.29    2.73
   0  -8   1   95.21    2.52
   0   8  -1   97.45    2.51
   0  -8  -1   97.33    2.61
   0   8   1   96.40    2.73
   0   8  -1   98.50    2.73
   1  -8   1   14.51    0.43
   1   8  -1   14.98    0.51
  -1   8   1   15.25    0.50
  -1  -8  -1   15.24    0.46
   1  -8   1   14.80    0.46
  -1  -8  -1   15.33    0.46
   1   8  -1   15.27    0.47
  -1  -8  -1   15.05    0.52
  -1   8   1   14.79    0.46
   1   8   1   14.84    0.50
   1  -8  -1   14.53    0.44
   1   8   1   14.65    0.45
  -1   8  -1   13.68    0.49
  -1   8  -1   14.55    0.46
  -1  -8   1   14.75    0.46
   1  -8  -1   15.17    0.50
   1  -8  -1   15.04    0.45
   2   8  -1   44.06    1.33
  -2  -8  -1   44.06    1.34
   2   8  -1   43.78    1.21
   2  -8   1   44.39    1.21
  -2   8   1   45.35    1.32
  -2   8   1   43.97    1.21
  -2  -8  -1   45.07    1.23
   2  -8   1   45.96    1.24
  -2   8  -1   43.22    1.30
  -2   8  -1   42.69    1.20
   2   8   1   44.69    1.20
   2  -8  -1   44.64    1.24
   2  -8  -1   44.41    1.19
   2   8   1   46.10    1.32
   2   8   1   44.28    1.23
  -2  -8   1   43.36    1.22
  -3   8   1    0.80    0.10
   3   8  -1    0.77    0.09
  -3  -8  -1    0.61    0.11
  -3   8   1    0.97    0.09
   3   8  -1    0.80    0.11
  -3  -8  -1    0.81    0.09
   3  -8   1    0.57    0.08
   3  -8   1    0.96    0.08
   3   8   1    1.01    0.09
   3  -8  -1    1.02    0.09
  -3   8  -1    1.06    0.11
  -3  -8   1    0.95    0.10
   3   8   1    0.82    0.08
   3  -8  -1    0.89    0.09
  -3   8  -1    1.04    0.10
  -4   8   1   16.77    0.58
   4   8  -1   16.65    0.51
  -4  -8  -1   17.31    0.61
  -4   8   1   16.48    0.52
  -4  -8  -1   16.76    0.55
   4  -8   1   16.03    0.53
   4  -8   1   16.79    0.52
   4  -8  -1   16.24    0.50
   4   8   1   16.06    0.53
   4  -8  -1   17.37    0.54
  -4  -8   1   16.67    0.54
  -4   8  -1   16.29    0.51
  -4   8  -1   15.51    0.56
  -5  -8  -1   33.60    1.02
  -5   8   1   35.57    1.10
  -5   8   1   35.21    0.99
   5  -8   1   35.49    1.04
   5  -8  -1   37.38    1.13
   5   8   1   38.82    1.12
  -5  -8   1   37.10    1.11
  -6   8   1   24.53    0.73
  -6   8   1   23.34    0.80
  -6  -8  -1   23.29    0.76
   6  -8   1   23.66    0.77
  -6   8  -1   23.72    0.74
  -6  -8   1   23.51    0.77
   6   8   1   24.94    0.78
   6  -8  -1   23.62    0.78
  -6   8  -1   24.07    0.81
   7  -8   1    2.89    0.21
  -7  -8  -1    2.86    0.22
   7  -8  -1    2.97    0.22
  -7  -8   1    2.50    0.21
  -7   8  -1    2.61    0.22
  -7   8  -1    3.22    0.21
   0   9  -1  171.78    4.67
   0   9  -1  167.22    4.30
   0  -9   1  164.34    4.31
   0  -9  -1  164.51    4.48
   0  -9  -1  168.44    4.31
   0   9   1  165.72    4.29
   0   9   1  166.93    4.66
  -1  -9  -1   49.43    1.37
  -1  -9  -1   50.07    1.35
  -1  -9  -1   49.38    1.48
   1  -9   1   49.19    1.35
  -1   9   1   50.40    1.35
   1   9  -1   48.97    1.35
  -1   9   1   48.66    1.46
   1   9  -1   49.94    1.47
   1  -9  -1   52.68    1.41
  -1   9  -1   49.26    1.37
  -1  -9   1   51.01    1.38
   1   9   1   49.53    1.49
   1   9   1   49.81    1.37
   1  -9  -1   51.02    1.36
  -1   9  -1   50.20    1.48
  -2  -9  -1   40.25    1.13
   2   9  -1   40.74    1.12
   2  -9   1   39.20    1.11
   2   9  -1   41.08    1.23
  -2   9   1   41.29    1.12
  -2  -9  -1   39.72    1.23
   2   9   1   41.47    1.11
  -2   9  -1   40.05    1.11
  -2   9  -1   39.44    1.20
  -2  -9   1   38.72    1.13
   2  -9  -1   41.21    1.14
   2  -9  -1   39.49    1.09
  -3  -9  -1   32.77    0.95
  -3   9   1   33.28    1.02
   3  -9   1   32.01    0.93
   3   9  -1   34.76    0.94
  -3   9   1   32.41    0.94
   3  -9  -1   33.12    0.93
  -3   9  -1   33.61    1.03
  -3  -9   1   33.34    0.98
   3  -9  -1   33.78    0.98
  -3   9  -1   34.40    0.95
   3   9   1   33.23    0.94
  -4   9   1   38.67    1.18
   4   9  -1   38.13    1.07
  -4  -9  -1   36.12    1.10
   4  -9   1   38.85    1.08
  -4   9   1   39.46    1.08
  -4   9  -1   38.39    1.06
  -4   9  -1   37.18    1.15
  -4  -9   1   37.21    1.09
   4  -9  -1   37.15    1.11
   4  -9  -1   37.92    1.05
  -5  -9  -1   16.32    0.57
  -5   9   1   17.32    0.54
  -5   9   1   16.94    0.61
   5  -9   1   16.73    0.55
  -5   9  -1   17.19    0.61
   5  -9  -1   17.08    0.58
  -5  -9   1   16.47    0.58
  -6  -9  -1   16.74    0.60
  -6   9  -1   18.75    0.60
  -6   9  -1   18.19    0.66
   6  -9  -1   17.43    0.63
  -6  -9   1   18.39    0.64
  -7  -9  -1    3.28    0.25
  -7   9  -1    2.97    0.23
  -7   9  -1    2.87    0.22
   7  -9  -1    3.20    0.24
  -7  -9   1    2.99    0.23
   0  10   1   14.43    0.47
   0  10  -1   13.77    0.47
   0  10   1   14.51    0.51
   0 -10  -1   14.81    0.47
   0  10  -1   14.52    0.52
   0 -10   1   14.37    0.47
  -1  10   1   34.59    1.01
  -1  10   1   36.92    1.10
   1  10  -1   36.96    1.11
   1 -10   1   36.40    1.02
   1  10  -1   35.44    1.02
  -1 -10  -1   35.47    1.02
  -1  10  -1   35.52    1.01
   1 -10  -1   36.19    1.00
  -1 -10   1   34.40    1.01
   1  10   1   36.53    1.01
  -1  10  -1   35.91    1.09
   2  10  -1    1.51    0.15
  -2  10   1    1.61    0.14
   2  10  -1    1.61    0.13
  -2 -10  -1    1.53    0.13
   2 -10   1    1.37    0.12
  -2  10   1    1.78    0.14
  -2 -10   1    1.65    0.13
   2 -10  -1    1.70    0.12
   2  10   1    1.52    0.12
  -2  10  -1    1.61    0.14
  -2  10  -1    1.44    0.13
  -3  10   1   14.66    0.52
   3 -10   1   14.35    0.46
   3  10  -1   13.90    0.47
  -3  10   1   14.03    0.47
  -3 -10  -1   13.27    0.48
  -3  10  -1   14.38    0.48
  -3  10  -1   14.54    0.52
   3  10   1   14.51    0.47
   3 -10  -1   14.91    0.46
  -3 -10   1   13.91    0.50
   4 -10   1    6.20    0.27
  -4  10   1    6.02    0.27
  -4  10   1    6.40    0.31
  -4 -10  -1    6.45    0.29
   4  10  -1    6.37    0.27
  -4  10  -1    6.54    0.27
   4 -10  -1    6.27    0.26
  -4 -10   1    5.95    0.30
  -4  10  -1    6.08    0.29
   5 -10   1    5.63    0.26
  -5 -10  -1    5.44    0.29
  -5 -10   1    5.52    0.29
  -5  10  -1    5.62    0.30
  -6 -10  -1    9.27    0.41
  -6  10  -1   10.20    0.39
  -6  10  -1    8.88    0.41
  -6 -10   1    9.41    0.41
  -7  10  -1    6.81    0.33
   0 -11   1    4.13    0.21
   0 -11  -1    3.94    0.20
   0  11  -1    4.07    0.23
   0  11  -1    3.87    0.21
   0  11   1    4.08    0.21
   1  11  -1    0.34    0.10
  -1  11   1    0.23    0.09
  -1 -11  -1    0.39    0.08
   1  11  -1    0.35    0.08
  -1  11   1    0.48    0.09
   1 -11   1    0.36    0.08
  -1 -11   1    0.41    0.09
   1 -11  -1    0.29    0.08
  -1  11  -1    0.41    0.09
  -1  11  -1    0.60    0.10
   1  11   1    0.38    0.08
   2  11  -1    8.64    0.34
  -2 -11  -1    9.04    0.35
  -2  11   1    9.15    0.35
  -2  11   1    9.07    0.38
   2 -11   1    8.94    0.34
   2  11   1    8.74    0.34
  -2 -11   1    9.02    0.36
  -2  11  -1    8.76    0.35
  -2  11  -1    9.32    0.37
   2 -11  -1    9.10    0.33
  -3 -11  -1    0.58    0.11
  -3  11   1    0.43    0.11
   3  11  -1    0.47    0.09
   3 -11   1    0.51    0.09
  -3  11   1    0.26    0.08
   3  11   1    0.71    0.11
  -3  11  -1    0.59    0.11
   3 -11  -1    0.55    0.09
  -3 -11   1    0.41    0.10
  -3  11  -1    0.57    0.11
   4  11  -1    3.49    0.21
  -4  11   1    3.37    0.21
   4 -11   1    3.74    0.21
  -4 -11  -1    3.34    0.23
  -4 -11   1    3.39    0.22
  -4  11  -1    3.74    0.22
  -4  11  -1    3.59    0.23
   5 -11   1    2.09    0.17
  -5 -11  -1    1.93    0.19
  -5  11  -1    1.98    0.19
  -5 -11   1    1.68    0.18
  -6 -11  -1    0.90    0.15
  -6  11  -1    0.84    0.16
  -6  11  -1    0.78    0.13
  -6 -11   1    0.85    0.15
   0 -12  -1    0.18    0.09
   0  12   1    0.26    0.09
   0  12  -1    0.39    0.09
   0 -12   1    0.38    0.09
   0  12  -1    0.46    0.11
  -1  12   1   26.94    0.82
   1 -12   1   27.46    0.82
  -1 -12  -1   27.41    0.82
   1  12  -1   27.29    0.83
  -1  12  -1   28.55    0.92
  -1  12  -1   28.59    0.86
   1  12   1   28.80    0.86
   1 -12  -1   28.86    0.84
  -1 -12   1   27.67    0.86
  -2 -12  -1   28.99    0.88
   2 -12   1   30.08    0.87
   2  12  -1   29.16    0.88
  -2  12   1   29.03    0.88
  -2  12  -1   30.59    0.98
  -2  12  -1   30.43    0.91
   2 -12  -1   29.93    0.88
   2  12   1   30.01    0.90
  -2 -12   1   30.15    0.92
  -3 -12  -1   36.69    1.12
   3  12  -1   38.21    1.11
  -3  12   1   39.30    1.11
   3 -12   1   38.77    1.10
  -3  12  -1   37.74    1.12
   3  12   1   40.29    1.12
  -3  12  -1   39.09    1.22
  -3 -12   1   38.03    1.15
  -4 -12  -1    7.97    0.36
  -4  12   1    7.97    0.34
   4 -12   1    7.63    0.32
  -4  12  -1    7.87    0.34
  -4 -12   1    7.43    0.35
  -4  12  -1    7.39    0.35
  -5 -12  -1   22.93    0.77
   5 -12   1   22.36    0.72
  -5 -12   1   21.95    0.76
  -5  12  -1   22.74    0.79
   0 -13  -1   32.81    0.95
   0  13   1   32.10    0.97
   0  13  -1   31.50    0.97
   0 -13   1   32.80    0.96
  -1 -13  -1    3.49    0.21
   1 -13   1    3.93    0.22
   1  13  -1    3.79    0.23
  -1  13   1    3.85    0.22
   1 -13  -1    3.85    0.22
   1  13   1    4.19    0.24
  -1  13  -1    4.07    0.25
  -1 -13   1    3.65    0.22
  -1  13  -1    4.03    0.24
  -2  13   1   15.07    0.54
  -2 -13  -1   16.10    0.55
   2  13  -1   15.38    0.55
   2 -13   1   16.34    0.54
  -2  13  -1   16.06    0.59
  -2 -13   1   15.54    0.56
   2  13   1   16.17    0.55
  -2  13  -1   15.14    0.54
  -3  13   1    0.74    0.13
  -3 -13  -1    0.89    0.14
   3  13  -1    0.81    0.14
   3 -13   1    0.67    0.12
  -3 -13   1    0.66    0.14
  -3  13  -1    0.67    0.12
  -3  13  -1    0.89    0.15
   3  13   1    0.91    0.14
   4 -13   1   16.56    0.56
  -4 -13  -1   15.78    0.59
  -4  13   1   16.85    0.58
  -4  13  -1   16.74    0.57
  -4  13  -1   15.54    0.61
  -5 -13  -1    2.57    0.22
  -5 -13   1    2.71    0.24
   0  14  -1   25.88    0.83
   0 -14  -1   25.97    0.81
   0  14   1   27.35    0.84
   0 -14   1   26.29    0.83
  -1  14   1   17.12    0.60
  -1 -14  -1   16.85    0.58
   1 -14   1   17.46    0.58
   1  14  -1   17.51    0.60
  -1 -14   1   16.57    0.58
   1  14   1   16.87    0.59
  -1  14  -1   17.18    0.60
  -2 -14  -1   25.87    0.80
   2 -14   1   24.81    0.78
   2  14  -1   24.43    0.79
  -2  14   1   24.21    0.79
   2  14   1   27.03    0.80
  -2 -14   1   24.87    0.81
  -2  14  -1   23.27    0.79
   3  14  -1   30.51    0.93
  -3  14   1   29.95    0.93
  -3 -14  -1   29.17    0.94
   3 -14   1   29.39    0.90
   3  14   1   30.78    0.93
  -3 -14   1   29.76    0.96
  -3  14  -1   29.73    0.93
  -4 -14  -1    8.71    0.41
  -4  14   1    9.71    0.41
  -4 -14   1    9.68    0.43
  -4  14  -1    9.61    0.41
   0 -15   1    2.39    0.20
   0  15   1    2.22    0.20
   0  15  -1    2.53    0.20
  -1  15   1    0.53    0.13
   1 -15   1    0.61    0.13
  -1 -15  -1    0.48    0.13
   1  15  -1    0.46    0.12
  -1 -15   1    0.43    0.12
   1  15   1    0.35    0.11
  -1  15  -1    0.34    0.13
  -2  15   1    1.08    0.15
   2  15  -1    1.35    0.17
   2 -15   1    1.24    0.15
  -2 -15  -1    0.99    0.17
  -2  15  -1    1.63    0.18
   2  15   1    1.26    0.18
  -2 -15   1    1.30    0.17
   3  15  -1    4.21    0.28
  -3 -15  -1    4.32    0.29
  -3  15   1    4.16    0.27
  -3 -15   1    4.32    0.29
  -3  15  -1    4.59    0.29
   3  15   1    4.99    0.29
   0 -16   1    1.68    0.18
   0  16  -1    1.54    0.18
   0  16   1    1.51    0.18
   1  16  -1    0.43    0.14
  -1  16   1    0.36    0.13
   1 -16   1    0.54    0.12
   1  16   1    0.52    0.15
  -1 -16   1    0.75    0.14
  -1  16  -1    0.53    0.15
  -2 -16  -1    1.81    0.20
   2  16  -1    2.05    0.20
  -2 -16   1    1.49    0.20
   2  16   1    1.70    0.20
   0   0  -2  392.99   11.82
   0   0   2  409.78   10.46
   0   0   2  425.16   10.56
   0   0  -2  381.92   11.73
   0   0  -2  439.82   11.04
   1   0   2  303.41    7.77
  -1   0   2  294.88    7.37
   1   0   2  272.13    7.32
  -1   0  -2  274.71    8.06
  -1   0  -2  297.61    8.07
  -1   0   2  290.04    7.34
  -1   0  -2  303.94    7.37
   1   0  -2  268.88    7.93
  -2   0  -2   36.25    0.99
  -2   0   2   34.39    0.91
   2   0  -2   34.39    1.00
  -2   0  -2   35.00    0.93
  -2   0  -2   34.88    0.99
   2   0   2   33.48    0.97
  -2   0   2   34.47    0.92
  -2   0  -2   35.25    0.90
  -2   0   2   35.91    1.00
   2   0  -2   34.94    0.97
  -3   0   2    0.35    0.04
   3   0   2    0.15    0.05
  -3   0   2    0.23    0.05
  -3   0  -2    0.30    0.05
  -3   0   2    0.20    0.04
   3   0  -2    0.32    0.06
  -3   0  -2    0.37    0.05
   3   0  -2    0.20    0.05
  -4   0   2   21.14    0.59
  -4   0  -2   20.07    0.63
   4   0  -2   20.63    0.63
  -4   0  -2   19.52    0.59
  -4   0   2   21.02    0.55
  -4   0   2   19.93    0.64
   4   0  -2   21.71    0.65
   4   0   2   20.74    0.63
   5   0   2   42.16    1.26
   5   0  -2   46.21    1.27
  -5   0  -2   43.21    1.28
  -5   0  -2   43.70    1.20
  -5   0   2   42.68    1.30
  -5   0   2   44.05    1.19
   6   0   2    2.68    0.19
   6   0  -2    2.39    0.18
  -6   0   2    2.82    0.19
  -6   0  -2    2.71    0.16
  -6   0   2    2.73    0.16
  -6   0  -2    2.76    0.17
  -7   0  -2   16.80    0.60
   7   0  -2   17.19    0.61
   7   0   2   16.71    0.60
  -7   0   2   16.58    0.55
  -7   0  -2   17.14    0.56
   8   0  -2    0.36    0.11
  -8   0  -2    0.30    0.11
   8   0   2    0.40    0.12
  -8   0   2    0.44    0.12
  -8   0  -2    0.27    0.10
  -9   0   2    0.77    0.15
   0  -1  -2   43.98    1.12
   0   1  -2   43.40    1.21
   0  -1  -2   41.62    1.19
   0   1  -2   41.38    1.21
   0   1  -2   43.59    1.16
   0   1   2   42.36    1.10
   0  -1   2   42.57    1.10
   0  -1   2   43.51    1.11
   0  -1  -2   42.71    1.16
  -1  -1  -2  504.82   14.04
  -1  -1  -2  505.76   12.99
  -1   1   2  547.84   13.03
   1   1  -2  490.24   14.02
  -1  -1  -2  465.07   14.03
   1   1  -2  524.60   13.65
   1  -1   2  528.11   12.99
   1  -1   2  535.14   13.63
  -1   1   2  531.55   12.95
  -1   1   2  463.33   14.00
   1   1   2  533.40   13.24
   1  -1  -2  518.14   14.02
  -1  -1   2  533.52   13.34
  -1   1  -2  506.33   14.69
  -1   1  -2  553.21   13.26
  -1   1  -2  521.67   14.66
   1   1   2  521.70   13.99
   1  -1  -2  473.98   14.35
  -1  -1   2  537.73   13.25
  -2  -1  -2   43.83    1.20
  -2   1   2   42.08    1.10
  -2   1   2   41.72    1.21
  -2   1   2   42.98    1.11
  -2  -1  -2   41.95    1.12
   2   1  -2   43.16    1.17
   2  -1   2   41.90    1.17
   2   1  -2   43.49    1.21
  -2   1  -2   46.02    1.22
  -2  -1   2   43.67    1.23
  -2  -1   2   44.51    1.12
   2  -1  -2   42.33    1.23
  -2  -1   2   43.59    1.14
  -2   1  -2   43.27    1.14
  -2   1  -2   42.63    1.22
   2   1   2   44.06    1.11
   2   1   2   44.29    1.20
  -2   1  -2   43.35    1.11
   2  -1  -2   41.34    1.20
  -3   1   2    1.40    0.09
   3  -1   2    1.43    0.10
   3   1  -2    1.50    0.10
  -3   1   2    1.40    0.08
  -3   1   2    1.49    0.07
   3   1  -2    1.34    0.10
  -3  -1  -2    1.67    0.09
  -3  -1   2    1.47    0.10
  -3  -1   2    1.44    0.07
  -3   1  -2    1.51    0.09
  -3  -1   2    1.45    0.09
   3   1   2    1.88    0.10
   3  -1  -2    1.60    0.10
  -3   1  -2    1.35    0.05
  -3   1  -2    1.33    0.08
   3  -1  -2    1.56    0.10
  -4  -1  -2   15.15    0.47
   4  -1   2   15.61    0.50
   4   1  -2   16.43    0.52
  -4   1   2   16.18    0.47
   4   1  -2   15.68    0.50
  -4   1   2   15.88    0.44
  -4  -1  -2   15.87    0.51
  -4   1   2   16.43    0.52
   4  -1  -2   14.90    0.48
  -4   1  -2   14.75    0.47
   4  -1  -2   15.57    0.49
  -4  -1   2   14.64    0.41
  -4  -1   2   15.55    0.49
  -4  -1   2   14.83    0.44
  -4   1  -2   14.48    0.45
   4   1   2   14.18    0.48
  -5   1   2   74.32    1.92
  -5  -1  -2   73.69    2.09
   5  -1   2   71.86    2.04
  -5   1   2   71.28    2.09
  -5  -1  -2   71.68    1.94
   5   1  -2   74.66    2.04
  -5   1  -2   74.35    2.09
  -5  -1   2   75.34    2.11
  -5   1  -2   70.62    1.94
  -5  -1   2   75.10    1.94
   5  -1  -2   71.89    2.05
   5   1   2   71.87    2.05
  -6  -1  -2   19.47    0.61
  -6   1   2   19.88    0.66
   6   1  -2   20.43    0.66
  -6  -1  -2   19.59    0.65
  -6   1   2   19.51    0.60
   6  -1   2   18.86    0.65
  -6  -1   2   19.77    0.65
  -6   1  -2   19.00    0.59
   6   1   2   19.09    0.64
   6  -1  -2   18.35    0.63
  -6  -1   2   18.74    0.59
  -6   1  -2   19.44    0.64
  -7  -1  -2    8.07    0.35
   7  -1   2    7.67    0.35
  -7  -1  -2    7.74    0.33
  -7   1   2    7.79    0.32
   7   1  -2    7.93    0.35
  -7   1  -2    7.53    0.34
   7  -1  -2    8.17    0.36
  -7   1  -2    7.60    0.32
  -7  -1   2    7.89    0.32
   7   1   2    7.57    0.35
   8  -1   2    1.61    0.18
  -8   1   2    1.73    0.16
  -8  -1  -2    1.53    0.17
   8   1  -2    1.56    0.18
  -8  -1  -2    2.00    0.19
   8   1   2    1.31    0.17
  -8   1  -2    1.81    0.16
  -8   1  -2    1.87    0.18
  -8  -1   2    1.85    0.17
   8  -1  -2    1.93    0.19
   0  -2  -2   24.08    0.66
   0   2  -2   23.55    0.64
   0  -2  -2   22.43    0.59
   0  -2   2   22.87    0.60
   0   2  -2   22.68    0.62
   0  -2  -2   21.43    0.63
   0   2  -2   22.02    0.64
   0   2   2   22.94    0.60
   0   2  -2   22.42    0.60
  -1  -2  -2  296.68    7.51
  -1  -2  -2  277.90    8.04
   1   2  -2  283.72    8.10
   1  -2   2  301.84    7.84
  -1   2   2  288.30    8.08
  -1   2   2  299.97    7.43
   1   2  -2  296.10    7.86
   1  -2   2  297.04    7.51
   1  -2  -2  286.38    8.01
   1   2   2  288.80    7.39
  -1  -2   2  305.04    7.46
  -1   2  -2  275.88    8.02
   1   2   2  292.49    7.81
   1  -2  -2  292.51    7.81
  -1   2  -2  276.10    8.01
  -1   2  -2  287.93    7.39
  -1  -2   2  296.70    7.42
   1  -2  -2  302.35    7.42
  -2   2   2   16.89    0.47
  -2  -2  -2   16.77    0.51
   2  -2   2   17.60    0.50
  -2   2   2   16.70    0.51
   2   2  -2   16.92    0.52
  -2   2   2   17.50    0.46
   2   2  -2   17.32    0.50
   2  -2   2   17.24    0.48
  -2  -2   2   17.50    0.52
  -2   2  -2   16.95    0.50
   2   2   2   17.87    0.45
   2   2   2   15.74    0.50
  -2  -2   2   16.42    0.47
  -2   2  -2   17.28    0.50
   2  -2  -2   17.35    0.51
  -2  -2   2   17.06    0.46
   2  -2  -2   16.81    0.51
  -2   2  -2   16.65    0.45
  -3  -2  -2  266.97    6.86
  -3   2   2  272.99    6.85
   3  -2   2  271.64    7.19
  -3  -2  -2  259.10    7.41
   3   2  -2  275.42    7.19
  -3   2   2  272.12    6.80
  -3   2   2  270.54    7.42
   3   2  -2  266.73    7.42
  -3   2  -2  275.63    6.89
   3   2   2  291.71    6.92
  -3   2  -2  269.26    7.51
  -3  -2   2  274.48    6.93
   3   2   2  265.95    7.28
  -3   2  -2  278.82    6.95
  -3  -2   2  275.81    7.51
   3  -2  -2  273.57    7.50
  -3  -2   2  259.74    6.94
   3  -2  -2  262.68    7.29
  -4   2   2   11.69    0.35
  -4   2   2   11.78    0.37
  -4  -2  -2   13.05    0.41
   4   2  -2   12.18    0.42
  -4   2   2   12.15    0.41
   4  -2   2   11.89    0.40
   4   2  -2   12.42    0.40
   4   2  -2   12.00    0.34
  -4   2  -2   11.81    0.37
   4  -2  -2   11.85    0.40
  -4  -2   2   11.55    0.37
  -4   2  -2   11.68    0.39
  -4  -2   2   11.82    0.41
   4   2   2   11.61    0.40
  -5  -2  -2   14.51    0.46
  -5  -2  -2   14.18    0.49
  -5   2   2   14.07    0.44
   5   2  -2   14.20    0.48
   5  -2   2   13.48    0.48
  -5   2   2   14.70    0.49
  -5   2  -2   14.27    0.47
   5   2   2   15.40    0.50
  -5   2  -2   14.58    0.49
   5  -2  -2   15.08    0.50
  -5  -2   2   14.57    0.51
  -5  -2   2   14.44    0.46
   6   2  -2    1.97    0.16
  -6   2   2    2.10    0.14
  -6  -2  -2    1.94    0.15
  -6  -2  -2    1.92    0.15
   6  -2   2    1.91    0.16
  -6   2   2    2.13    0.17
  -6  -2   2    2.29    0.15
  -6   2  -2    2.06    0.16
  -6   2  -2    2.08    0.15
   6   2   2    2.13    0.16
   6  -2  -2    2.16    0.17
   7  -2   2   17.14    0.62
  -7  -2  -2   18.13    0.64
  -7   2   2   17.80    0.57
   7   2  -2   17.72    0.62
  -7  -2  -2   17.11    0.58
  -7   2  -2   17.66    0.62
   7   2   2   17.41    0.62
  -7  -2   2   18.77    0.59
  -7   2  -2   17.36    0.58
   7  -2  -2   17.27    0.63
   8   2  -2    4.62    0.28
   8  -2   2    4.76    0.29
  -8  -2  -2    5.04    0.27
  -8   2   2    4.95    0.25
  -8  -2  -2    4.63    0.28
   8   2   2    4.75    0.28
   8  -2  -2    4.77    0.29
  -8   2  -2    4.93    0.28
  -8  -2   2    4.61    0.27
  -8   2  -2    4.76    0.26
   0  -3  -2    5.50    0.19
   0   3   2    5.67    0.19
   0  -3  -2    5.48    0.20
   0  -3  -2    5.37    0.17
   0  -3   2    5.55    0.18
   0   3  -2    5.34    0.18
   1   3  -2   84.29    2.28
   1  -3   2   86.62    2.28
   1   3  -2   86.08    2.37
  -1   3   2   80.80    2.17
  -1  -3  -2   85.08    2.37
   1  -3   2   85.40    2.19
  -1   3   2   88.01    2.37
   1   3  -2   84.25    2.18
  -1  -3  -2   84.84    2.18
  -1   3  -2   79.52    2.28
   1   3   2   80.97    2.10
   1  -3  -2   82.70    2.23
   1  -3  -2   84.98    2.11
   1   3   2   80.84    2.22
  -1  -3   2   83.63    2.29
  -1   3  -2   83.57    2.11
  -1  -3   2   82.34    2.13
  -1   3  -2   82.23    2.28
   2   3  -2   21.92    0.59
  -2  -3  -2   20.93    0.65
   2  -3   2   22.29    0.62
  -2  -3  -2   21.00    0.59
   2   3  -2   21.50    0.65
  -2   3   2   22.71    0.59
   2  -3   2   21.45    0.60
   2   3  -2   21.26    0.61
  -2   3  -2   21.56    0.58
  -2   3  -2   21.49    0.63
   2  -3  -2   22.02    0.63
  -2  -3   2   22.19    0.60
   2  -3  -2   22.29    0.65
   2   3   2   20.84    0.62
  -2   3  -2   20.56    0.63
   2   3   2   21.62    0.57
  -2  -3   2   22.19    0.65
   3  -3   2   28.09    0.78
   3   3  -2   28.17    0.76
  -3   3   2   28.74    0.77
   3   3  -2   28.90    0.85
   3  -3   2   29.24    0.82
  -3  -3  -2   28.02    0.78
   3   3  -2   28.62    0.82
  -3   3   2   28.69    0.76
  -3   3   2   28.31    0.85
  -3  -3  -2   28.38    0.85
  -3  -3   2   27.31    0.77
   3   3   2   28.88    0.73
   3   3   2   26.40    0.80
  -3  -3   2   28.08    0.84
   3  -3  -2   27.70    0.81
  -3   3  -2   28.09    0.82
   3  -3  -2   28.51    0.83
  -3   3  -2   27.83    0.74
  -4  -3  -2    2.59    0.14
  -4   3   2    2.71    0.15
   4   3  -2    2.47    0.14
   4  -3   2    2.47    0.14
  -4  -3  -2    2.48    0.15
   4   3  -2    2.60    0.15
   4   3  -2    2.55    0.11
  -4   3   2    2.57    0.13
  -4   3   2    2.52    0.12
   4  -3  -2    2.45    0.14
  -4   3  -2    2.43    0.10
  -4  -3   2    2.30    0.13
  -4   3  -2    2.39    0.13
  -4   3  -2    2.52    0.14
  -4  -3   2    2.47    0.15
   4   3   2    2.36    0.14
   4  -3  -2    2.16    0.14
   5   3  -2   15.68    0.52
   5  -3   2   14.85    0.51
  -5  -3  -2   15.46    0.49
  -5   3   2   15.35    0.47
  -5   3   2   16.58    0.54
  -5  -3  -2   15.33    0.53
   5  -3  -2   14.69    0.50
  -5  -3   2   15.12    0.52
  -5  -3   2   14.70    0.47
  -5   3  -2   14.86    0.47
  -5   3  -2   14.60    0.49
   5   3   2   14.34    0.50
  -6   3   2    5.38    0.26
   6   3  -2    5.29    0.26
  -6   3   2    5.10    0.23
  -6  -3  -2    5.42    0.27
  -6  -3  -2    5.22    0.24
   6  -3   2    5.16    0.26
  -6   3  -2    5.48    0.25
   6  -3  -2    5.36    0.27
  -6  -3   2    5.40    0.25
   6   3   2    5.60    0.27
  -6   3  -2    5.57    0.26
  -7  -3  -2    9.40    0.41
  -7   3   2    9.35    0.35
  -7  -3  -2    9.18    0.37
   7  -3   2    9.39    0.40
   7   3  -2    9.59    0.39
  -7  -3   2    9.96    0.39
   7  -3  -2   10.46    0.42
  -7   3  -2    9.47    0.38
   7   3   2    9.69    0.41
  -7   3  -2    9.90    0.40
   8  -3   2    1.69    0.19
  -8  -3  -2    1.65    0.17
  -8  -3  -2    1.78    0.20
  -8   3   2    2.55    0.18
   8   3  -2    1.64    0.18
   8   3   2    1.60    0.18
  -8   3  -2    1.75    0.17
   8  -3  -2    1.93    0.19
  -8  -3   2    1.64    0.16
  -8   3  -2    1.65    0.16
   0  -4   2  108.31    2.76
   0   4  -2  108.90    2.74
   0  -4  -2  108.31    2.74
   0  -4  -2  112.79    2.89
   0  -4  -2  106.72    2.98
   0   4   2  104.17    2.73
   0   4  -2  103.78    2.97
   0   4   2  104.62    2.97
   1  -4   2   17.72    0.48
  -1  -4  -2   17.36    0.53
  -1  -4  -2   16.78    0.47
   1   4  -2   17.46    0.47
   1   4  -2   16.42    0.48
   1  -4   2   16.01    0.48
  -1   4   2   17.70    0.52
   1   4  -2   16.82    0.52
   1  -4  -2   15.97    0.43
  -1  -4   2   15.40    0.49
  -1   4  -2   15.69    0.47
   1   4   2   15.89    0.44
  -1  -4   2   16.02    0.46
   1  -4  -2   16.44    0.47
  -1   4  -2   15.81    0.45
   1   4   2   15.42    0.48
   1  -4  -2   15.93    0.49
   1   4   2   15.54    0.46
   2   4  -2   29.01    0.88
   2  -4   2   31.58    0.84
  -2  -4  -2   29.06    0.81
  -2  -4  -2   28.09    0.89
  -2   4   2   30.13    0.88
   2   4  -2   31.32    0.84
   2  -4   2   29.94    0.81
  -2   4   2   30.87    0.81
   2   4  -2   30.39    0.81
   2  -4  -2   31.16    0.89
   2   4   2   28.78    0.80
   2  -4  -2   30.25    0.86
  -2  -4   2   30.44    0.83
   2   4   2   30.39    0.86
   2  -4  -2   30.40    0.80
  -2  -4   2   31.14    0.90
  -2   4  -2   29.52    0.87
   2   4   2   30.21    0.89
  -2   4  -2   30.88    0.81
  -3  -4  -2   99.16    2.86
   3   4  -2  101.59    2.60
   3   4  -2  100.26    2.86
  -3   4   2  104.27    2.62
  -3   4   2  106.16    2.85
  -3  -4  -2  102.44    2.64
   3  -4   2  102.42    2.63
   3   4  -2  100.76    2.75
   3  -4   2   99.32    2.76
  -3   4   2  100.49    2.61
   3   4   2  103.40    2.72
   3   4   2  102.13    2.81
  -3   4  -2   96.65    2.79
   3  -4  -2  101.82    2.80
  -3  -4   2  101.08    2.82
  -3  -4   2   98.13    2.60
   3  -4  -2   97.29    2.73
   3   4   2   98.62    2.55
  -3   4  -2  102.01    2.56
  -4   4   2   14.43    0.43
   4   4  -2   14.74    0.42
   4   4  -2   13.89    0.50
   4   4  -2   14.09    0.46
  -4   4   2   14.67    0.49
   4  -4   2   14.49    0.47
  -4  -4  -2   14.68    0.50
  -4  -4  -2   14.93    0.46
  -4   4   2   15.48    0.43
  -4  -4   2   15.29    0.47
  -4  -4   2   15.01    0.52
  -4   4  -2   15.22    0.49
   4  -4  -2   15.03    0.49
  -4   4  -2   15.59    0.42
  -4   4  -2   14.25    0.46
   4   4   2   14.40    0.48
  -5  -4  -2   13.25    0.47
  -5  -4  -2   12.39    0.42
  -5   4   2   13.18    0.46
   5  -4   2   12.27    0.44
   5   4  -2   11.98    0.43
  -5   4   2   12.58    0.40
  -5  -4   2   12.93    0.44
   5   4   2   13.31    0.46
  -5   4  -2   13.16    0.43
   5  -4  -2   13.39    0.47
  -5   4  -2   13.16    0.46
  -5  -4   2   13.26    0.49
  -6  -4  -2    6.36    0.28
  -6   4   2    6.24    0.30
   6   4  -2    6.92    0.30
  -6  -4  -2    6.82    0.32
  -6   4   2    6.60    0.26
   6  -4   2    6.68    0.30
   6  -4  -2    5.89    0.29
  -6  -4   2    6.58    0.28
   6   4   2    6.59    0.30
  -6   4  -2    6.38    0.29
  -6   4  -2    6.53    0.28
   7  -4   2    7.31    0.34
  -7   4   2    7.82    0.31
  -7  -4  -2    8.44    0.38
   7   4  -2    6.98    0.34
  -7  -4  -2    7.42    0.33
  -7  -4   2    7.21    0.33
   7   4   2    7.32    0.34
  -7   4  -2    7.76    0.34
  -7   4  -2    7.24    0.32
   7  -4  -2    7.50    0.35
   8   4  -2    3.24    0.24
   8  -4   2    3.12    0.24
  -8  -4  -2    2.86    0.21
  -8   4   2    3.15    0.21
   8   4   2    2.75    0.23
  -8   4  -2    3.29    0.21
  -8   4  -2    3.06    0.23
  -8  -4   2    3.16    0.23
   8  -4  -2    3.01    0.23
   0   5   2  399.75   10.34
   0   5  -2  401.26   10.34
   0  -5  -2  408.91   10.41
   0   5  -2  388.75   11.22
   0   5   2  415.93   11.14
   0  -5  -2  403.71   11.15
   0  -5   2  414.66   10.38
   0  -5  -2  414.74   10.82
  -1  -5  -2   16.13    0.53
   1  -5   2   17.00    0.47
  -1   5   2   16.77    0.51
   1   5  -2   16.05    0.52
  -1   5   2   16.66    0.48
  -1  -5  -2   17.01    0.47
   1   5  -2   16.63    0.48
   1  -5   2   16.26    0.48
   1   5  -2   16.39    0.46
  -1   5  -2   15.53    0.50
   1   5   2   16.59    0.51
   1  -5  -2   17.11    0.46
   1  -5  -2   16.74    0.52
   1   5   2   15.77    0.46
  -1   5  -2   15.46    0.47
   1   5   2   16.77    0.48
   1  -5  -2   15.95    0.49
  -1  -5   2   17.15    0.52
   2   5  -2  340.57    8.98
   2  -5   2  331.09    8.55
   2  -5   2  343.16    9.02
  -2  -5  -2  335.00    9.26
   2   5  -2  332.96    8.50
  -2  -5  -2  333.14    8.55
  -2   5   2  336.87    8.50
   2   5  -2  338.81    9.25
  -2   5   2  335.09    9.24
   2  -5  -2  349.17    8.47
   2   5   2  334.88    9.14
  -2   5  -2  332.18    8.41
   2   5   2  334.50    8.91
   2  -5  -2  326.94    8.87
  -2   5  -2  316.24    9.13
  -2  -5   2  322.40    8.47
  -2  -5   2  346.11    9.16
   2   5   2  330.70    8.44
   3   5  -2   28.95    0.86
  -3  -5  -2   26.86    0.86
  -3   5   2   28.49    0.77
   3   5  -2   27.64    0.76
   3   5  -2   28.73    0.80
   3  -5   2   27.12    0.78
  -3  -5  -2   27.85    0.79
   3  -5   2   28.06    0.81
   3  -5  -2   28.52    0.85
   3  -5  -2   28.05    0.77
   3   5   2   28.32    0.86
   3   5   2   28.16    0.76
   3  -5  -2   29.02    0.84
  -3  -5   2   30.04    0.88
  -3   5  -2   28.48    0.77
  -3  -5   2   28.29    0.81
   3   5   2   27.88    0.83
  -3   5  -2   27.97    0.85
  -4   5   2   53.79    1.56
   4   5  -2   54.45    1.40
   4   5  -2   53.75    1.49
   4  -5   2   52.42    1.43
  -4   5   2   53.27    1.41
  -4  -5  -2   51.06    1.44
   4   5  -2   54.48    1.57
   4  -5   2   54.42    1.50
  -4   5   2   52.89    1.40
  -4  -5  -2   52.32    1.57
   4  -5  -2   52.00    1.54
   4   5   2   54.00    1.53
  -4  -5   2   55.13    1.48
  -4  -5   2   55.50    1.60
  -4   5  -2   54.42    1.57
  -4   5  -2   55.07    1.42
  -5   5   2   13.25    0.43
  -5  -5  -2   13.20    0.46
   5  -5   2   14.83    0.48
   5   5  -2   13.92    0.47
  -5   5   2   14.44    0.50
  -5  -5  -2   13.56    0.51
  -5   5  -2   12.83    0.46
   5   5   2   13.21    0.46
  -5   5  -2   13.09    0.44
   5  -5  -2   13.42    0.47
  -5  -5   2   13.63    0.45
   6  -5   2   38.95    1.18
  -6   5   2   40.04    1.23
  -6  -5  -2   40.01    1.14
  -6   5   2   39.95    1.11
  -6  -5  -2   39.77    1.25
   6   5  -2   39.06    1.18
  -6   5  -2   38.54    1.19
  -6   5  -2   39.65    1.11
   6  -5  -2   38.24    1.18
  -6  -5   2   38.78    1.13
   6   5   2   39.14    1.17
  -7   5   2    2.32    0.16
  -7  -5  -2    2.42    0.21
   7   5  -2    2.36    0.19
  -7  -5  -2    2.30    0.18
   7  -5   2    2.15    0.18
   7  -5  -2    2.34    0.20
  -7   5  -2    2.17    0.18
  -7   5  -2    2.61    0.19
   7   5   2    1.94    0.17
  -7  -5   2    1.93    0.18
   8  -5   2   11.73    0.50
   8   5  -2   11.83    0.49
  -8  -5  -2   11.85    0.47
   8   5   2   11.90    0.50
  -8   5  -2   12.80    0.47
  -8   5  -2   11.38    0.49
  -8  -5   2   13.18    0.50
   8  -5  -2   11.59    0.51
   0   6  -2   18.63    0.53
   0   6   2   18.05    0.53
   0   6  -2   18.68    0.57
   0   6   2   18.75    0.57
   0  -6  -2   18.19    0.52
   0  -6  -2   18.53    0.55
   0  -6  -2   18.69    0.59
   0  -6   2   18.33    0.54
  -1   6   2   11.49    0.38
   1  -6   2   11.80    0.33
   1   6  -2   11.39    0.38
  -1  -6  -2   10.87    0.35
   1   6  -2   11.17    0.35
  -1  -6  -2   11.41    0.39
   1  -6   2   11.14    0.35
   1   6  -2   11.26    0.32
   1  -6  -2   11.71    0.35
   1  -6  -2   11.55    0.40
  -1  -6   2   12.12    0.40
   1   6   2   11.89    0.37
   1  -6  -2   12.09    0.38
  -1   6  -2   11.07    0.36
   1   6   2   12.28    0.36
   1   6   2   12.79    0.40
  -1  -6   2   12.08    0.38
  -1   6  -2   11.97    0.39
   2   6  -2   16.50    0.54
   2  -6   2   16.79    0.49
  -2  -6  -2   16.29    0.54
   2  -6   2   16.58    0.49
   2   6  -2   16.84    0.49
   2   6  -2   16.89    0.48
  -2  -6  -2   16.52    0.49
  -2   6   2   16.26    0.49
  -2   6   2   16.38    0.53
  -2   6  -2   15.75    0.52
   2  -6  -2   16.58    0.53
  -2  -6   2   17.09    0.51
   2  -6  -2   17.11    0.47
  -2  -6   2   16.58    0.54
   2   6   2   16.70    0.48
   2   6   2   16.86    0.50
   2  -6  -2   17.02    0.52
  -2   6  -2   16.11    0.49
   2   6   2   16.91    0.54
  -3  -6  -2   49.46    1.37
  -3  -6  -2   51.52    1.50
   3   6  -2   53.36    1.41
   3   6  -2   50.90    1.49
   3  -6   2   51.08    1.41
  -3   6   2   49.15    1.35
   3   6  -2   52.09    1.35
   3  -6   2   50.92    1.37
  -3   6   2   50.07    1.48
  -3   6  -2   52.67    1.37
  -3   6  -2   50.61    1.49
   3  -6  -2   52.76    1.49
   3  -6  -2   49.77    1.36
   3  -6  -2   50.61    1.45
  -3  -6   2   50.60    1.40
  -3  -6   2   54.33    1.52
   3   6   2   51.60    1.35
   3   6   2   51.31    1.44
  -4   6   2    7.04    0.29
   4   6  -2    6.70    0.29
  -4   6   2    6.61    0.25
  -4  -6  -2    6.89    0.30
   4   6  -2    6.97    0.25
  -4  -6  -2    6.71    0.27
   4   6  -2    6.81    0.26
   4  -6   2    6.64    0.26
  -4   6   2    6.35    0.24
   4  -6   2    6.61    0.26
   4   6   2    6.33    0.26
  -4   6  -2    6.45    0.26
  -4  -6   2    6.36    0.26
   4  -6  -2    6.44    0.27
  -4   6  -2    6.73    0.24
   5   6  -2   42.95    1.21
  -5  -6  -2   42.59    1.29
   5  -6   2   40.61    1.21
  -5  -6  -2   40.60    1.17
  -5   6   2   41.84    1.14
  -5   6   2   41.30    1.26
  -5   6  -2   38.78    1.11
   5  -6  -2   39.16    1.17
  -5  -6   2   39.81    1.13
  -5   6  -2   40.02    1.19
   5   6   2   39.84    1.17
   6   6  -2    7.23    0.32
  -6  -6  -2    6.93    0.31
   6  -6   2    6.99    0.31
  -6  -6  -2    6.95    0.35
  -6   6   2    7.35    0.33
  -6   6   2    7.40    0.29
  -6   6  -2    7.16    0.32
  -6   6  -2    7.13    0.30
   6  -6  -2    7.11    0.32
   6   6   2    7.26    0.32
  -6  -6   2    6.85    0.32
   7   6  -2    7.87    0.35
   7  -6   2    7.97    0.36
  -7  -6  -2    8.14    0.35
  -7   6  -2    8.49    0.38
   7  -6  -2    8.31    0.38
   7   6   2    8.92    0.38
  -7  -6   2    8.43    0.38
  -7   6  -2    8.66    0.36
   8   6  -2    4.05    0.27
   8  -6   2    3.82    0.27
  -8  -6  -2    4.17    0.26
  -8   6  -2    3.81    0.24
  -8   6  -2    3.56    0.25
   8   6   2    3.71    0.27
  -8  -6   2    3.78    0.26
   8  -6  -2    3.64    0.26
   0   7  -2    2.27    0.13
   0  -7  -2    2.24    0.14
   0   7  -2    2.29    0.13
   0   7   2    2.13    0.13
   0  -7  -2    2.35    0.12
   0  -7  -2    2.30    0.12
   0  -7   2    2.40    0.13
  -1  -7  -2    1.33    0.12
  -1   7   2    1.34    0.11
   1  -7   2    1.39    0.07
  -1  -7  -2    1.30    0.09
   1   7  -2    1.44    0.11
   1   7  -2    1.35    0.10
   1  -7   2    1.31    0.10
  -1   7   2    1.47    0.10
  -1   7  -2    1.29    0.10
   1   7   2    1.54    0.11
   1  -7  -2    1.33    0.09
  -1  -7   2    1.42    0.11
  -1  -7   2    1.50    0.06
   1   7   2    1.48    0.12
   1  -7  -2    1.43    0.11
  -1   7  -2    1.40    0.11
  -1  -7   2    1.49    0.12
   1  -7  -2    1.40    0.10
   2   7  -2   35.47    0.95
  -2  -7  -2   35.26    1.05
  -2  -7  -2   34.33    0.96
   2   7  -2   33.97    1.04
   2  -7   2   34.35    0.96
   2   7  -2   33.93    0.95
   2  -7   2   33.86    0.95
  -2   7   2   35.27    1.04
  -2   7   2   34.90    0.95
   2   7   2   34.84    0.93
   2  -7  -2   34.54    1.02
  -2   7  -2   33.79    0.94
  -2   7  -2   33.60    1.01
   2   7   2   35.82    1.03
  -2  -7   2   33.39    0.96
   2  -7  -2   34.32    0.92
  -2  -7   2   33.94    1.04
   2   7   2   34.27    0.97
   2  -7  -2   33.35    0.98
  -3  -7  -2   12.45    0.46
  -3  -7  -2   12.16    0.41
   3  -7   2   11.91    0.40
  -3   7   2   12.83    0.40
  -3   7   2   13.10    0.44
   3  -7   2   12.35    0.40
   3   7  -2   12.93    0.39
   3   7  -2   12.78    0.40
   3   7  -2   12.67    0.45
   3  -7  -2   12.93    0.42
  -3  -7   2   12.92    0.42
   3   7   2   12.52    0.41
   3   7   2   12.88    0.38
  -3   7  -2   12.04    0.39
  -3   7  -2   11.44    0.42
   3  -7  -2   12.56    0.38
   4   7  -2   11.60    0.37
   4  -7   2   10.66    0.38
  -4  -7  -2   11.27    0.44
  -4  -7  -2   11.17    0.39
  -4   7   2   10.70    0.36
   4   7  -2   11.31    0.37
   4  -7   2   10.55    0.37
  -4  -7   2   11.57    0.41
  -4   7  -2   11.19    0.41
  -4   7  -2   11.29    0.37
   4   7   2   11.70    0.40
   4  -7  -2   11.48    0.41
  -5   7   2    2.18    0.17
  -5  -7  -2    2.18    0.19
   5  -7   2    2.34    0.16
  -5  -7  -2    2.13    0.17
   5   7  -2    2.44    0.16
  -5   7   2    2.30    0.14
   5   7   2    2.30    0.16
   5  -7  -2    2.34    0.16
  -5  -7   2    2.14    0.16
  -6  -7  -2   11.59    0.48
   6  -7   2   10.23    0.41
  -6   7   2   10.77    0.38
  -6  -7  -2    9.93    0.41
  -6   7  -2   10.81    0.40
  -6  -7   2   10.23    0.41
   6  -7  -2   10.68    0.42
   6   7   2   10.90    0.42
  -6   7  -2   10.68    0.42
   7  -7   2    2.37    0.20
  -7  -7  -2    1.90    0.18
  -7  -7   2    2.11    0.19
  -7   7  -2    2.12    0.17
   7  -7  -2    1.68    0.18
   7   7   2    1.70    0.17
  -7   7  -2    2.26    0.19
   8  -7   2    3.91    0.27
  -8   7  -2    3.64    0.25
   8   7   2    3.46    0.26
  -8   7  -2    2.91    0.24
   8  -7  -2    3.10    0.26
   0   8   2    2.68    0.16
   0   8  -2    3.24    0.17
   0   8   2    2.83    0.15
   0  -8  -2    2.90    0.14
   0  -8  -2    3.19    0.15
   0   8  -2    2.86    0.15
   0  -8   2    2.89    0.15
   0  -8  -2    2.95    0.17
   1  -8   2   15.76    0.48
   1   8  -2   15.35    0.48
  -1  -8  -2   15.84    0.48
  -1  -8  -2   16.13    0.54
  -1  -8  -2   15.16    0.48
   1   8  -2   15.36    0.52
  -1   8   2   15.50    0.52
  -1   8  -2   15.65    0.48
   1  -8  -2   15.34    0.52
   1   8   2   13.56    0.46
  -1   8  -2   15.07    0.51
   1  -8  -2   15.66    0.46
  -1  -8   2   15.95    0.49
   1  -8  -2   15.98    0.48
   2  -8   2   40.32    1.11
  -2  -8  -2   39.19    1.21
   2   8  -2   39.87    1.10
   2  -8   2   39.56    1.10
   2   8  -2   41.14    1.21
  -2   8   2   39.24    1.10
  -2  -8  -2   41.13    1.11
   2   8   2   40.36    1.13
   2   8   2   40.02    1.09
  -2   8  -2   39.66    1.18
  -2  -8   2   39.69    1.12
   2  -8  -2   40.77    1.08
  -2   8  -2   38.23    1.10
   2  -8  -2   41.51    1.15
   3   8  -2    7.95    0.33
  -3  -8  -2    7.76    0.30
   3   8  -2    8.28    0.29
  -3   8   2    7.34    0.31
  -3   8   2    7.63    0.29
   3  -8   2    7.81    0.27
  -3  -8  -2    7.49    0.33
   3  -8   2    7.64    0.29
  -3   8  -2    7.46    0.31
   3  -8  -2    7.82    0.27
  -3  -8   2    8.02    0.31
   3   8   2    8.25    0.28
   3  -8  -2    7.89    0.30
   3   8   2    8.06    0.29
  -3   8  -2    8.21    0.29
   4  -8   2   28.71    0.87
  -4  -8  -2   29.94    0.96
  -4   8   2   29.48    0.84
  -4  -8  -2   27.77    0.86
   4   8  -2   29.50    0.83
  -4   8   2   29.83    0.93
   4  -8   2   30.17    0.85
   4   8   2   29.33    0.86
   4  -8  -2   28.68    0.81
   4  -8  -2   27.85    0.87
  -4  -8   2   29.56    0.86
  -4   8  -2   27.15    0.89
  -4   8  -2   29.76    0.82
  -5  -8  -2    0.31    0.09
  -5  -8  -2    0.45    0.12
  -5   8   2    0.54    0.08
   5  -8   2    0.41    0.09
  -5   8   2    0.43    0.11
   5  -8   2    0.34    0.08
   5   8   2    0.51    0.10
  -5   8  -2    0.61    0.11
   5  -8  -2    0.39    0.10
  -5  -8   2    0.57    0.11
   6  -8   2   21.29    0.70
  -6  -8  -2   20.56    0.69
  -6  -8   2   22.49    0.73
   6   8   2   22.31    0.73
  -6   8  -2   21.93    0.69
   6  -8  -2   21.19    0.73
  -6   8  -2   20.98    0.74
   7  -8   2    0.15    0.11
  -7  -8  -2    0.05    0.10
   7  -8  -2    0.10    0.10
  -7   8  -2    0.21    0.11
  -7  -8   2   -0.07    0.10
   7   8   2   -0.04    0.11
  -7   8  -2    0.07    0.10
   0   9  -2   23.61    0.76
   0  -9   2   23.45    0.70
   0  -9  -2   24.18    0.69
   0   9  -2   23.33    0.70
   0  -9  -2   23.47    0.70
   0   9   2   24.99    0.76
   0  -9  -2   23.58    0.77
   0   9   2   24.24    0.70
   1   9  -2   12.97    0.42
  -1  -9  -2   12.26    0.41
  -1  -9  -2   12.98    0.41
   1   9  -2   12.94    0.46
  -1  -9  -2   12.97    0.47
   1  -9   2   11.98    0.41
   1  -9  -2   12.73    0.42
  -1   9  -2   12.95    0.43
  -1  -9   2   12.88    0.43
  -1   9  -2   12.51    0.45
   1   9   2   13.10    0.42
   1  -9  -2   12.94    0.40
  -2   9   2   22.03    0.70
  -2  -9  -2   20.78    0.72
   2  -9   2   21.13    0.64
  -2   9   2   21.73    0.65
   2   9  -2   21.44    0.65
   2   9  -2   21.60    0.71
  -2  -9  -2   22.25    0.65
   2  -9  -2   21.60    0.61
   2  -9  -2   20.87    0.65
  -2  -9   2   20.53    0.65
   2   9   2   21.74    0.63
  -2   9  -2   21.77    0.64
  -2   9  -2   21.24    0.68
   2   9   2   21.18    0.63
  -3   9   2   12.86    0.44
   3   9  -2   13.26    0.50
   3  -9   2   13.85    0.45
  -3  -9  -2   12.86    0.45
  -3   9   2   13.47    0.49
  -3  -9  -2   13.67    0.51
   3   9  -2   14.28    0.45
   3   9   2   13.72    0.45
   3   9   2   13.82    0.46
   3  -9  -2   14.54    0.48
   3  -9  -2   14.57    0.44
  -3   9  -2   14.11    0.50
  -3   9  -2   14.50    0.46
  -3  -9   2   14.12    0.49
  -4   9   2   12.08    0.46
  -4  -9  -2   11.88    0.48
   4   9  -2   11.77    0.40
   4  -9   2   11.67    0.41
  -4   9   2   11.94    0.40
  -4  -9  -2   11.83    0.43
  -4   9  -2   12.22    0.42
   4  -9  -2   12.69    0.41
   4   9   2   12.33    0.43
  -4  -9   2   12.59    0.46
  -4   9  -2   12.38    0.46
   4  -9  -2   12.61    0.45
   5  -9   2    5.27    0.25
  -5  -9  -2    5.50    0.28
   5  -9  -2    5.22    0.26
  -5  -9   2    5.53    0.28
   5   9   2    5.96    0.27
  -5   9  -2    5.40    0.28
  -6  -9  -2    9.02    0.39
  -6   9  -2    9.86    0.39
  -6   9  -2    9.63    0.42
   6  -9  -2   10.61    0.42
  -6  -9   2    9.30    0.41
  -7  -9  -2    5.42    0.30
  -7   9  -2    4.88    0.28
   7  -9  -2    4.97    0.30
  -7  -9   2    5.81    0.32
  -7   9  -2    4.93    0.30
   0 -10  -2    2.71    0.16
   0  10  -2    2.80    0.18
   0  10   2    2.57    0.17
   0 -10   2    2.60    0.16
   0  10  -2    2.53    0.16
   1  10  -2   95.05    2.51
   1  10  -2   98.84    2.73
   1 -10   2   95.71    2.51
  -1 -10  -2   95.69    2.51
  -1  10   2   90.49    2.50
  -1  10   2   94.96    2.72
  -1  10  -2   91.76    2.47
   1  10   2   93.97    2.46
  -1  10  -2   94.96    2.67
   1 -10  -2   93.65    2.45
  -1 -10   2   93.14    2.48
  -2  10   2    0.80    0.12
  -2 -10  -2    0.78    0.10
   2  10  -2    0.58    0.11
   2  10  -2    0.86    0.10
  -2  10   2    0.84    0.11
   2 -10   2    0.90    0.10
  -2 -10   2    0.98    0.11
   2  10   2    0.76    0.10
   2 -10  -2    1.03    0.10
  -2  10  -2    0.88    0.11
  -2  10  -2    0.92    0.11
   2 -10  -2    0.93    0.10
  -3 -10  -2    7.95    0.32
  -3  10   2    7.60    0.34
  -3  10   2    7.90    0.31
   3  10  -2    7.83    0.31
   3 -10   2    7.93    0.31
  -3 -10   2    7.28    0.31
  -3  10  -2    7.06    0.29
   3  10   2    6.79    0.27
  -3  10  -2    6.59    0.30
   3 -10  -2    6.80    0.28
   3 -10  -2    6.62    0.26
   4  10  -2    2.31    0.17
   4 -10   2    2.40    0.17
  -4  10   2    2.30    0.16
  -4 -10  -2    2.43    0.18
  -4  10  -2    2.57    0.17
  -4  10  -2    2.38    0.18
  -4 -10   2    2.56    0.19
   4 -10  -2    2.32    0.17
   5 -10   2    9.78    0.37
  -5 -10  -2    9.36    0.40
  -5  10  -2    8.68    0.38
  -5 -10   2    8.44    0.38
   5 -10  -2    9.27    0.37
  -6 -10  -2    0.45    0.13
  -6  10  -2    0.24    0.10
  -6  10  -2    0.46    0.13
   6 -10  -2    0.15    0.11
  -6 -10   2    0.31    0.12
  -7  10  -2   26.32    0.84
  -7  10  -2   25.89    0.91
   0 -11   2   99.61    2.62
   0  11   2   98.15    2.60
   0  11  -2   97.02    2.61
   0 -11  -2   97.96    2.59
   0  11  -2   99.94    2.83
   1  11  -2    7.56    0.31
   1  11  -2    7.69    0.34
  -1 -11  -2    7.68    0.30
  -1  11   2    7.59    0.31
   1 -11   2    7.75    0.31
  -1  11  -2    6.88    0.30
   1 -11  -2    8.05    0.29
   1  11   2    7.79    0.31
  -1 -11   2    7.66    0.32
  -1  11  -2    7.95    0.34
   2 -11   2   64.06    1.72
   2  11  -2   62.21    1.72
   2  11  -2   63.85    1.89
  -2 -11  -2   63.32    1.73
  -2  11   2   63.39    1.73
   2  11   2   65.23    1.77
  -2 -11   2   66.38    1.81
  -2  11  -2   65.59    1.93
   2 -11  -2   66.92    1.76
  -2  11  -2   63.98    1.78
   3  11  -2    4.58    0.23
  -3  11   2    4.19    0.22
  -3 -11  -2    4.17    0.23
   3 -11   2    4.59    0.23
  -3 -11   2    4.44    0.24
   3  11   2    4.45    0.22
  -3  11  -2    4.57    0.23
  -3  11  -2    3.98    0.23
   4  11  -2   28.34    0.83
   4 -11   2   26.80    0.82
  -4  11   2   28.15    0.83
  -4 -11  -2   26.34    0.85
  -4  11  -2   29.06    0.85
  -4 -11   2   26.85    0.88
  -4  11  -2   28.21    0.92
  -5 -11  -2   14.15    0.54
   5 -11   2   14.93    0.51
  -5  11  -2   15.55    0.57
  -5 -11   2   13.87    0.55
  -6 -11  -2   44.48    1.34
  -6  11  -2   44.00    1.41
  -6 -11   2   44.35    1.35
  -6  11  -2   46.07    1.31
   0  12  -2    0.99    0.14
   0 -12   2    1.21    0.13
   0  12  -2    1.13    0.13
   0 -12  -2    1.01    0.12
   0  12   2    0.88    0.12
  -1 -12  -2   14.11    0.48
  -1  12   2   14.48    0.50
   1  12  -2   15.28    0.56
   1  12  -2   14.66    0.51
   1 -12   2   13.95    0.49
   1 -12  -2   14.56    0.48
   1  12   2   13.98    0.49
  -1  12  -2   14.52    0.54
  -1 -12   2   14.53    0.51
  -1  12  -2   14.99    0.51
   2  12  -2    0.42    0.10
   2 -12   2    0.42    0.10
  -2  12   2    0.36    0.10
  -2  12  -2    0.42    0.11
  -2 -12   2    0.34    0.09
   2  12   2    0.17    0.09
  -2  12  -2    0.26    0.09
  -3 -12  -2   54.51    1.52
  -3  12   2   53.16    1.50
   3 -12   2   52.33    1.49
   3  12  -2   54.30    1.50
  -3 -12   2   52.23    1.55
  -3  12  -2   53.66    1.52
   3  12   2   57.22    1.51
  -3  12  -2   54.92    1.65
   4  12  -2    6.42    0.30
  -4  12   2    5.83    0.28
  -4 -12  -2    6.11    0.31
   4 -12   2    6.25    0.29
  -4  12  -2    6.45    0.32
  -4 -12   2    5.96    0.31
  -4  12  -2    6.24    0.30
  -5 -12  -2   10.96    0.46
   5 -12   2   11.31    0.43
  -5 -12   2    9.91    0.44
  -5  12  -2   10.86    0.46
  -6 -12  -2    4.92    0.31
  -6  12  -2    4.17    0.26
  -6  12  -2    4.32    0.28
   0  13  -2    3.22    0.21
   0 -13   2    2.80    0.19
   0  13  -2    3.05    0.22
   0  13   2    2.83    0.20
   0 -13  -2    3.01    0.19
  -1  13   2    0.90    0.12
   1  13  -2    0.92    0.13
  -1 -13  -2    0.96    0.13
   1 -13   2    1.09    0.12
  -1  13  -2    1.13    0.14
  -1  13  -2    0.72    0.12
   1  13   2    1.00    0.13
  -1 -13   2    0.94    0.13
  -2 -13  -2    3.84    0.23
  -2  13   2    3.76    0.23
   2  13  -2    3.73    0.23
   2 -13   2    3.51    0.21
  -2  13  -2    3.63    0.24
   2  13   2    3.82    0.23
  -2  13  -2    3.54    0.23
  -2 -13   2    3.64    0.23
   3  13  -2    3.01    0.21
  -3 -13  -2    3.43    0.23
   3 -13   2    2.95    0.20
  -3  13   2    2.90    0.21
   3  13   2    3.09    0.21
  -3 -13   2    2.73    0.21
  -3  13  -2    2.95    0.21
  -3  13  -2    3.02    0.22
  -4  13   2    7.58    0.34
   4 -13   2    7.27    0.33
  -4 -13  -2    6.81    0.34
  -4  13  -2    8.13    0.36
  -4  13  -2    7.32    0.36
  -4 -13   2    6.87    0.36
   5 -13   2    1.95    0.19
  -5 -13  -2    1.81    0.20
  -5  13  -2    1.90    0.20
  -5 -13   2    1.96    0.21
   0  14  -2    0.04    0.09
   0 -14   2   -0.07    0.09
   0  14   2    0.14    0.10
   1 -14   2    7.21    0.33
  -1  14   2    7.36    0.33
   1  14  -2    7.65    0.34
  -1 -14  -2    7.21    0.32
   1  14   2    7.98    0.36
  -1 -14   2    8.29    0.36
  -1  14  -2    7.42    0.35
  -2  14   2    0.39    0.11
  -2 -14  -2    0.44    0.11
   2 -14   2    0.20    0.10
   2  14  -2    0.21    0.10
   2  14   2    0.40    0.12
  -2  14  -2    0.26    0.11
  -2 -14   2    0.10    0.10
  -2  14  -2    0.45    0.12
   3 -14   2   51.21    1.48
   3  14  -2   54.51    1.50
  -3  14   2   51.61    1.50
  -3 -14  -2   52.43    1.51
  -3 -14   2   50.25    1.53
   3  14   2   55.10    1.51
  -3  14  -2   54.77    1.65
  -3  14  -2   51.72    1.51
  -4 -14  -2    2.10    0.21
   4 -14   2    1.80    0.18
  -4  14   2    1.84    0.19
  -4  14  -2    2.24    0.22
  -4  14  -2    2.53    0.21
  -4 -14   2    2.37    0.23
   0  15  -2    4.41    0.27
   0  15   2    4.63    0.27
   0 -15   2    4.62    0.27
   1  15  -2    3.88    0.26
   1 -15   2    4.00    0.25
  -1  15   2    4.24    0.26
   1  15   2    4.63    0.28
  -1 -15   2    3.97    0.26
  -1  15  -2    4.49    0.28
   2  15  -2   32.12    0.99
  -2  15   2   30.96    0.98
   2 -15   2   31.96    0.97
   2  15   2   31.42    0.98
  -2 -15   2   30.80    0.99
  -2  15  -2   32.33    0.99
  -3  15   2    1.84    0.19
   3 -15   2    1.78    0.18
   3  15  -2    1.40    0.18
  -3 -15  -2    2.20    0.21
  -3 -15   2    1.69    0.20
   3  15   2    1.81    0.19
  -3  15  -2    1.60    0.18
   0  16  -2    3.05    0.24
   0 -16   2    3.04    0.23
   0  16   2    3.18    0.24
   1  16  -2   18.35    0.68
   1 -16   2   20.69    0.68
   1  16   2   20.65    0.71
  -1 -16   2   19.55    0.70
   2 -16   2    3.43    0.25
   2  16   2    2.92    0.24
  -2 -16   2    2.76    0.24
   0   0   3    0.06    0.03
   0   0   3   -0.02    0.02
   0   0  -3    0.06    0.02
   0   0  -3   -0.04    0.03
   0   0  -3   -0.04    0.02
  -1   0   3  137.63    3.49
   1   0  -3  132.65    3.78
   1   0   3  134.88    3.48
   1   0   3  134.93    3.65
   1   0  -3  139.35    3.66
  -1   0   3  135.73    3.48
   1   0   3  140.65    3.50
  -2   0  -3   23.80    0.68
  -2   0   3   24.97    0.70
   2   0   3   24.18    0.68
  -2   0  -3   24.22    0.68
  -2   0  -3   22.42    0.64
   2   0  -3   24.30    0.70
   2   0   3   25.27    0.62
   2   0  -3   20.89    0.68
  -2   0   3   24.02    0.63
  -2   0   3   24.25    0.63
   3   0  -3   64.56    1.73
  -3   0  -3   64.55    1.76
   3   0  -3   61.05    1.77
   3   0   3   61.04    1.72
  -3   0   3   61.98    1.77
  -3   0   3   63.29    1.63
  -3   0   3   63.51    1.61
  -3   0  -3   60.67    1.75
  -3   0  -3   62.82    1.64
  -4   0  -3    4.09    0.18
   4   0  -3    4.08    0.20
  -4   0  -3    4.36    0.18
  -4   0   3    4.21    0.15
   4   0   3    4.62    0.20
   4   0  -3    4.57    0.20
  -4   0   3    4.50    0.20
  -4   0   3    4.27    0.17
   5   0   3    0.04    0.06
   5   0  -3    0.07    0.06
  -5   0   3    0.00    0.05
  -5   0   3    0.02    0.06
  -5   0  -3    0.07    0.05
  -5   0  -3    0.05    0.05
   6   0  -3  100.91    2.77
  -6   0   3  101.60    2.62
  -6   0  -3   97.64    2.82
   6   0   3   98.52    2.77
  -6   0  -3   97.53    2.63
  -7   0  -3    0.33    0.10
  -7   0  -3    0.60    0.10
   7   0   3    0.42    0.11
  -7   0   3    0.22    0.08
   7   0  -3    0.39    0.10
  -8   0   3    1.38    0.14
  -8   0  -3    1.08    0.14
   8   0   3    1.39    0.16
   8   0  -3    1.33    0.16
  -8   0  -3    1.09    0.15
   0  -1  -3   53.82    1.55
   0   1  -3   56.22    1.57
   0   1  -3   53.88    1.57
   0  -1  -3   57.25    1.55
   0   1  -3   56.44    1.51
   0   1   3   56.00    1.43
   0  -1  -3   54.35    1.52
   0  -1  -3   55.90    1.44
   0  -1   3   56.86    1.44
   1  -1   3   63.24    1.70
   1   1  -3   62.96    1.75
   1  -1   3   63.40    1.62
  -1  -1  -3   62.82    1.75
  -1   1   3   63.98    1.62
   1   1  -3   61.69    1.70
   1  -1   3   65.17    1.61
  -1  -1  -3   61.91    1.75
  -1  -1  -3   62.80    1.62
   1  -1  -3   63.88    1.80
   1  -1  -3   63.32    1.76
  -1  -1   3   65.17    1.66
   1   1   3   64.99    1.76
   1   1   3   65.48    1.65
  -1  -1   3   66.41    1.67
   2  -1   3   52.42    1.38
   2   1  -3   53.84    1.50
  -2   1   3   53.51    1.37
  -2  -1  -3   55.10    1.48
   2   1  -3   50.95    1.45
   2  -1   3   53.32    1.45
  -2  -1  -3   53.09    1.48
  -2   1   3   54.83    1.50
  -2  -1  -3   50.24    1.38
  -2   1   3   52.48    1.37
   2   1   3   52.58    1.31
  -2   1  -3   52.42    1.43
  -2  -1   3   50.89    1.33
  -2  -1   3   52.81    1.45
  -2  -1   3   51.12    1.34
   2  -1  -3   50.70    1.45
  -2   1  -3   53.45    1.32
   2   1   3   49.81    1.41
   2  -1  -3   49.51    1.42
  -2   1  -3   50.11    1.43
  -3  -1  -3   53.03    1.53
  -3   1   3   54.61    1.42
  -3  -1  -3   56.08    1.54
   3   1  -3   54.61    1.51
  -3  -1  -3   51.69    1.43
   3  -1   3   54.77    1.51
   3   1  -3   54.05    1.55
  -3   1   3   54.77    1.41
  -3   1   3   55.71    1.55
  -3   1  -3   56.64    1.45
  -3   1  -3   56.00    1.54
  -3  -1   3   54.42    1.42
  -3  -1   3   56.76    1.56
  -3  -1   3   54.89    1.44
  -3   1  -3   53.67    1.54
   3   1   3   53.12    1.52
   3  -1  -3   52.17    1.52
  -3   1  -3   55.48    1.40
   3  -1  -3   54.79    1.56
  -4   1   3   45.19    1.21
  -4  -1  -3   44.58    1.22
  -4  -1  -3   45.20    1.31
   4  -1   3   44.85    1.29
   4   1  -3   45.58    1.33
   4   1  -3   45.27    1.29
  -4   1   3   45.12    1.32
  -4   1   3   46.86    1.19
  -4  -1   3   43.38    1.18
  -4   1  -3   44.70    1.26
  -4  -1   3   45.42    1.29
   4   1   3   42.43    1.25
   4  -1  -3   43.49    1.26
  -4  -1   3   44.71    1.15
  -4   1  -3   42.10    1.18
   4  -1  -3   44.49    1.28
   5  -1   3   59.73    1.70
  -5  -1  -3   54.84    1.72
  -5   1   3   62.37    1.60
   5   1  -3   61.27    1.70
  -5   1   3   58.30    1.74
  -5  -1  -3   62.67    1.61
  -5  -1   3   62.03    1.74
  -5   1  -3   60.66    1.72
   5  -1  -3   60.42    1.70
  -5   1  -3   58.14    1.60
   5   1   3   57.84    1.69
  -5  -1   3   59.03    1.60
   6   1  -3   18.19    0.62
  -6  -1  -3   17.83    0.58
  -6  -1  -3   18.64    0.62
  -6   1   3   19.48    0.57
   6  -1   3   18.77    0.63
   6   1   3   18.69    0.62
  -6  -1   3   18.43    0.57
  -6   1  -3   17.88    0.57
  -6   1  -3   17.85    0.60
   6  -1  -3   17.88    0.62
   7  -1   3    6.76    0.33
  -7  -1  -3    6.81    0.30
   7   1  -3    7.06    0.33
  -7  -1  -3    6.66    0.32
  -7   1   3    6.92    0.29
  -7   1  -3    6.92    0.31
  -7   1  -3    6.63    0.30
  -7  -1   3    7.18    0.30
   7  -1  -3    6.33    0.32
   7   1   3    6.28    0.32
   8  -1   3   15.06    0.58
   8   1  -3   14.42    0.58
  -8  -1  -3   14.54    0.54
  -8   1   3   15.43    0.53
  -8  -1  -3   15.53    0.59
  -8   1  -3   14.57    0.57
  -8   1  -3   15.25    0.54
  -8  -1   3   15.64    0.54
   8  -1  -3   14.96    0.59
   8   1   3   14.64    0.58
   0   2  -3  904.12   26.30
   0   2  -3  995.03   25.52
   0  -2  -3  981.58   25.52
   0  -2  -3  949.94   24.43
   0  -2   3 1000.00   24.21
   0  -2  -3  877.42   26.26
   0   2   3  980.47   24.19
   0   2  -3  931.65   26.29
   0  -2   3  982.92   24.33
  -1   2   3  160.22    4.17
   1  -2   3  161.60    4.33
   1   2  -3  162.26    4.33
   1   2  -3  158.90    4.47
   1  -2   3  159.41    4.14
  -1   2   3  165.77    4.12
  -1  -2  -3  168.80    4.47
  -1   2   3  162.26    4.47
  -1  -2  -3  158.79    4.47
  -1  -2  -3  166.16    4.13
   1   2   3  166.22    4.07
  -1  -2   3  169.19    4.10
  -1   2  -3  154.68    4.46
   1  -2  -3  159.30    4.30
   1  -2  -3  159.03    4.43
  -1   2  -3  164.12    4.07
  -1   2  -3  152.09    4.47
  -2   2   3  330.25    8.63
   2   2  -3  311.16    8.36
   2   2  -3  287.58    8.60
   2  -2   3  323.37    7.98
   2  -2   3  312.07    8.36
  -2  -2  -3  305.51    7.97
  -2  -2  -3  299.54    8.68
  -2   2   3  330.28    8.00
  -2   2   3  307.06    7.91
  -2  -2  -3  326.44    8.61
  -2   2  -3  319.34    7.87
   2  -2  -3  307.13    8.49
  -2  -2   3  310.19    7.88
   2   2   3  303.15    8.24
   2  -2  -3  306.90    8.25
  -2  -2   3  320.42    8.49
  -2  -2   3  311.86    7.87
  -2   2  -3  302.35    8.52
   2   2   3  304.27    7.84
  -2   2  -3  307.44    8.51
   3  -2   3   32.06    0.90
  -3   2   3   32.11    0.93
   3   2  -3   30.75    0.93
   3   2  -3   32.20    0.90
  -3   2   3   32.41    0.84
  -3  -2  -3   31.08    0.92
  -3   2   3   31.69    0.84
  -3  -2  -3   30.37    0.86
  -3   2  -3   28.97    0.83
  -3   2  -3   31.13    0.79
   3  -2  -3   29.38    0.88
  -3  -2   3   31.24    0.81
   3   2   3   29.88    0.78
  -3  -2   3   31.60    0.90
   3   2   3   29.65    0.87
   3  -2  -3   31.08    0.90
  -3   2  -3   29.27    0.87
  -3  -2   3   30.12    0.83
  -3   2  -3   32.00    0.88
  -4   2   3   32.31    0.84
  -4  -2  -3   29.87    0.87
  -4   2   3   31.78    0.85
  -4   2   3   32.51    0.95
   4  -2   3   30.48    0.92
   4   2  -3   32.03    0.92
  -4  -2  -3   30.52    0.93
   4   2  -3   32.23    0.95
   4  -2  -3   29.98    0.93
   4   2   3   31.30    0.91
  -4  -2   3   32.08    0.86
  -4  -2   3   30.92    0.82
   4  -2  -3   29.91    0.91
  -4  -2   3   31.47    0.93
  -4   2  -3   29.89    0.86
  -4   2  -3   30.43    0.90
  -5  -2  -3   65.15    1.90
   5  -2   3   66.13    1.86
  -5   2   3   66.50    1.75
  -5   2   3   66.91    1.91
  -5  -2  -3   65.58    1.77
   5   2  -3   65.96    1.86
  -5   2  -3   66.59    1.90
  -5  -2   3   67.05    1.77
  -5   2  -3   65.55    1.77
   5   2   3   64.33    1.86
   5  -2  -3   67.16    1.87
   6   2  -3   28.76    0.87
  -6  -2  -3   27.63    0.82
  -6  -2  -3   27.96    0.88
   6  -2   3   27.21    0.87
  -6   2   3   27.10    0.80
  -6   2  -3   26.60    0.85
   6   2   3   26.04    0.85
  -6  -2   3   27.88    0.80
   6  -2  -3   26.28    0.85
  -6   2  -3   27.75    0.80
   7   2  -3    7.84    0.35
  -7  -2  -3    7.35    0.34
  -7  -2  -3    7.23    0.32
   7  -2   3    7.12    0.34
  -7   2   3    7.88    0.31
  -7   2  -3    7.77    0.33
  -7  -2   3    7.72    0.33
   7   2   3    8.14    0.36
   7  -2  -3    7.42    0.35
  -7   2  -3    8.33    0.35
  -8  -2  -3    5.75    0.30
  -8  -2  -3    5.85    0.32
   8   2  -3    6.03    0.32
  -8   2   3    5.98    0.29
   8  -2   3    6.06    0.33
  -8   2  -3    6.01    0.30
  -8  -2   3    5.73    0.30
  -8   2  -3    6.13    0.31
   8   2   3    5.41    0.31
   8  -2  -3    5.38    0.31
   0  -3  -3  494.68   12.26
   0   3  -3  504.15   12.90
   0  -3  -3  465.23   12.90
   0  -3   3  482.92   12.29
   0  -3  -3  478.47   13.25
   0   3   3  473.82   12.23
   0   3  -3  443.82   13.23
   0   3  -3  479.43   12.22
   0   3  -3  500.95   13.26
   1  -3   3   23.61    0.64
  -1   3   3   23.49    0.63
   1  -3   3   23.09    0.63
  -1   3   3   23.50    0.68
   1   3  -3   23.79    0.64
  -1  -3  -3   23.64    0.62
   1   3  -3   22.12    0.67
   1   3  -3   22.29    0.62
  -1  -3  -3   22.60    0.68
   1   3   3   25.97    0.66
   1  -3  -3   25.72    0.73
  -1  -3   3   24.29    0.67
   1   3   3   24.72    0.70
  -1   3  -3   24.70    0.70
   1  -3  -3   23.53    0.71
   1  -3  -3   24.72    0.64
  -1   3  -3   24.88    0.70
  -1   3  -3   24.07    0.66
  -2   3   3   31.24    0.85
  -2  -3  -3   27.77    0.78
   2   3  -3   29.47    0.81
  -2  -3  -3   28.68    0.84
  -2   3   3   29.29    0.76
   2  -3   3   29.48    0.81
   2  -3   3   27.84    0.78
  -2   3   3   28.34    0.77
   2   3  -3   28.48    0.85
  -2  -3   3   30.42    0.82
  -2  -3   3   29.75    0.88
   2  -3  -3   30.27    0.88
  -2   3  -3   29.65    0.86
   2   3   3   28.53    0.85
   2   3   3   31.97    0.79
  -2   3  -3   29.77    0.80
  -2   3  -3   30.65    0.85
   2  -3  -3   29.61    0.86
  -3   3   3    2.28    0.10
   3  -3   3    2.06    0.12
  -3   3   3    2.17    0.12
   3   3  -3    2.02    0.11
  -3  -3  -3    2.17    0.11
   3   3  -3    2.00    0.12
   3  -3   3    2.16    0.12
  -3   3   3    1.95    0.10
  -3  -3  -3    2.03    0.12
   3   3  -3    1.98    0.10
  -3   3  -3    2.14    0.11
   3  -3  -3    2.13    0.12
   3   3   3    2.11    0.12
  -3   3  -3    2.08    0.09
   3  -3  -3    2.15    0.13
   3   3   3    2.18    0.08
  -3   3  -3    2.07    0.11
  -3  -3   3    2.05    0.11
  -3  -3   3    1.97    0.12
   4   3  -3   75.73    1.93
   4  -3   3   73.48    2.07
  -4   3   3   77.08    2.13
  -4  -3  -3   68.66    2.12
   4   3  -3   76.73    2.14
   4   3  -3   76.22    2.06
  -4   3   3   76.77    1.93
  -4   3   3   74.76    1.95
  -4  -3  -3   72.99    1.97
   4  -3  -3   73.68    2.10
  -4  -3   3   76.95    2.11
  -4  -3   3   72.68    1.95
  -4   3  -3   72.00    1.94
  -4   3  -3   74.54    2.08
   4  -3  -3   70.14    2.05
   4   3   3   75.56    2.05
  -5  -3  -3    9.89    0.35
   5   3  -3    9.67    0.36
  -5  -3  -3   10.15    0.38
  -5   3   3   10.08    0.38
   5  -3   3    9.61    0.37
  -5   3   3   10.59    0.33
  -5   3  -3    8.82    0.33
  -5  -3   3    9.59    0.33
  -5   3  -3    9.05    0.34
   5   3   3    8.91    0.35
   5  -3  -3    8.93    0.35
  -6  -3  -3   27.36    0.81
   6  -3   3   26.52    0.85
   6   3  -3   26.00    0.84
  -6  -3  -3   27.96    0.88
  -6   3   3   27.55    0.78
   6   3   3   25.96    0.82
  -6  -3   3   25.33    0.77
   6  -3  -3   25.87    0.83
  -6   3  -3   25.86    0.77
  -6   3  -3   25.57    0.82
  -7   3   3    7.75    0.31
   7  -3   3    7.83    0.36
  -7  -3  -3    8.28    0.35
  -7  -3  -3    8.27    0.37
   7   3  -3    7.98    0.35
   7   3   3    8.13    0.37
  -7   3  -3    8.41    0.36
  -7   3  -3    7.72    0.34
   7  -3  -3    8.76    0.38
  -7  -3   3    8.68    0.35
   8  -3   3   11.74    0.50
   8   3  -3   12.27    0.50
  -8  -3  -3   12.34    0.52
  -8  -3  -3   11.44    0.46
  -8  -3   3   11.68    0.46
   8   3   3   11.28    0.48
   8  -3  -3   11.21    0.49
  -8   3  -3   12.77    0.49
  -8   3  -3   11.12    0.44
   0   4  -3    0.45    0.05
   0   4   3    0.42    0.05
   0  -4  -3    0.47    0.06
   0   4   3    0.47    0.05
   0  -4  -3    0.54    0.04
   0  -4   3    0.58    0.06
   0   4  -3    0.56    0.05
   0   4  -3    0.87    0.07
   0  -4  -3    0.54    0.06
  -1   4   3  168.43    4.34
   1  -4   3  171.19    4.36
   1   4  -3  169.89    4.71
  -1   4   3  178.98    4.71
  -1  -4  -3  164.44    4.72
   1   4  -3  167.43    4.34
  -1  -4  -3  173.74    4.35
   1  -4   3  175.35    4.55
   1   4  -3  167.49    4.55
   1   4   3  157.44    4.34
   1   4   3  178.35    4.58
   1  -4  -3  170.13    4.73
  -1  -4   3  170.63    4.38
  -1   4  -3  172.93    4.35
   1  -4  -3  174.98    4.35
   1  -4  -3  166.90    4.59
  -1   4  -3  169.47    4.71
  -1   4  -3  179.44    4.71
  -2   4   3   97.36    2.82
   2   4  -3  102.07    2.72
  -2  -4  -3  100.31    2.61
  -2  -4  -3   98.96    2.83
   2   4  -3  103.01    2.83
   2  -4   3  103.36    2.62
  -2   4   3  100.95    2.60
   2  -4   3  104.09    2.72
   2   4  -3  100.03    2.59
   2  -4  -3  101.58    2.58
  -2  -4   3  103.46    2.83
  -2   4  -3   97.07    2.80
   2   4   3  100.00    2.58
   2  -4  -3   99.20    2.75
   2   4   3  100.34    2.74
  -2   4  -3  102.32    2.80
  -2  -4   3  101.04    2.62
  -2   4  -3  101.90    2.59
   2  -4  -3  104.31    2.83
  -3   4   3   90.26    2.27
   3   4  -3   90.23    2.39
   3  -4   3   87.55    2.29
  -3   4   3   88.56    2.48
  -3   4   3   88.53    2.27
   3  -4   3   87.72    2.39
  -3  -4  -3   88.74    2.48
   3   4  -3   83.79    2.26
  -3  -4  -3   88.76    2.29
   3   4  -3   84.69    2.48
  -3  -4   3   85.04    2.29
   3  -4  -3   90.71    2.47
  -3  -4   3   90.07    2.48
  -3   4  -3   86.01    2.45
   3   4   3   87.09    2.24
   3   4   3   87.70    2.40
   3  -4  -3   87.19    2.41
  -3   4  -3   87.69    2.25
  -4   4   3   59.46    1.57
   4  -4   3   60.85    1.67
   4   4  -3   60.77    1.74
  -4   4   3   60.51    1.57
   4   4  -3   60.87    1.57
  -4   4   3   59.19    1.73
  -4  -4  -3   60.05    1.73
   4   4  -3   57.33    1.66
  -4  -4  -3   59.41    1.60
  -4  -4   3   61.16    1.72
  -4  -4   3   56.48    1.58
   4   4   3   56.97    1.65
   4  -4  -3   59.23    1.66
  -4   4  -3   60.14    1.52
   5   4  -3    9.27    0.35
  -5   4   3    9.58    0.31
   5  -4   3    9.45    0.35
  -5  -4  -3    9.45    0.37
  -5   4   3    8.88    0.36
  -5  -4  -3    9.15    0.34
  -5   4  -3    9.79    0.35
   5  -4  -3    9.07    0.37
  -5  -4   3    9.38    0.35
  -5   4  -3    9.89    0.36
   5   4   3    9.51    0.36
  -6  -4  -3   11.12    0.40
  -6   4   3   10.49    0.36
  -6  -4  -3   10.70    0.43
   6  -4   3   10.34    0.41
   6   4  -3   10.69    0.41
   6  -4  -3   11.00    0.43
  -6   4  -3   11.43    0.42
  -6  -4   3   10.85    0.40
  -6   4  -3   11.14    0.40
   6   4   3   11.13    0.43
  -7   4   3   19.14    0.59
   7   4  -3   18.46    0.65
  -7  -4  -3   18.20    0.62
  -7  -4  -3   19.18    0.69
   7  -4   3   18.24    0.65
  -7   4  -3   18.55    0.66
   7  -4  -3   18.40    0.67
   7   4   3   18.62    0.66
  -7   4  -3   19.98    0.63
  -7  -4   3   20.19    0.65
  -8  -4  -3    1.01    0.15
   8   4  -3    1.12    0.15
  -8  -4  -3    1.40    0.19
   8  -4   3    1.16    0.17
  -8  -4   3    1.54    0.17
  -8   4  -3    1.26    0.16
  -8   4  -3    1.20    0.16
   8   4   3    1.45    0.17
   8  -4  -3    1.16    0.17
   0  -5  -3  188.17    4.65
   0   5  -3  182.46    5.03
   0   5   3  184.21    5.04
   0  -5  -3  184.91    4.89
   0  -5  -3  175.93    5.05
   0   5   3  181.53    4.64
   0   5  -3  179.81    4.64
   1  -5   3   46.16    1.22
  -1  -5  -3   45.98    1.21
   1   5  -3   45.13    1.31
  -1   5   3   47.34    1.32
   1   5  -3   43.91    1.21
  -1  -5  -3   43.96    1.32
   1   5  -3   46.14    1.23
   1  -5   3   47.94    1.24
   1  -5  -3   43.75    1.28
  -1   5  -3   42.88    1.26
   1  -5  -3   44.05    1.24
  -1  -5   3   44.25    1.19
   1   5   3   46.02    1.23
   1   5   3   46.83    1.28
  -1   5  -3   44.35    1.18
   1  -5  -3   44.39    1.16
  -1   5  -3   45.27    1.27
   1   5   3   43.29    1.17
   2  -5   3    1.36    0.10
   2   5  -3    1.42    0.10
  -2  -5  -3    1.32    0.11
  -2   5   3    1.47    0.09
  -2  -5  -3    1.51    0.10
   2  -5   3    1.41    0.08
   2   5  -3    1.39    0.10
  -2   5   3    1.59    0.10
   2   5  -3    1.40    0.08
  -2   5  -3    1.58    0.10
   2  -5  -3    1.58    0.11
  -2   5  -3    1.53    0.09
  -2  -5   3    1.63    0.12
  -2   5  -3    1.39    0.10
   2  -5  -3    1.65    0.08
   2   5   3    1.41    0.09
   2   5   3    1.54    0.10
   2   5   3    1.43    0.11
   2  -5  -3    1.56    0.11
   3  -5   3   46.56    1.28
   3   5  -3   45.46    1.35
  -3  -5  -3   45.93    1.24
  -3   5   3   47.16    1.34
   3   5  -3   45.37    1.22
  -3  -5  -3   44.54    1.35
  -3   5   3   47.82    1.21
   3   5  -3   44.71    1.27
  -3   5   3   46.06    1.22
   3  -5   3   46.28    1.24
   3   5   3   44.77    1.29
  -3   5  -3   45.27    1.32
   3   5   3   45.62    1.20
  -3   5  -3   46.04    1.21
  -3  -5   3   48.48    1.36
   3  -5  -3   47.66    1.34
   3  -5  -3   42.37    1.30
  -3  -5   3   46.50    1.25
   4  -5   3    0.10    0.05
   4   5  -3    0.00    0.05
   4   5  -3    0.15    0.05
  -4   5   3    0.07    0.05
   4   5  -3   -0.04    0.05
  -4   5   3    0.11    0.05
   4  -5   3    0.16    0.06
  -4  -5  -3    0.15    0.07
  -4   5   3    0.12    0.05
  -4  -5  -3    0.05    0.06
  -4  -5   3    0.12    0.06
  -4   5  -3    0.14    0.06
   4  -5  -3    0.14    0.06
  -4   5  -3    0.09    0.05
   4   5   3    0.15    0.06
  -5   5   3    9.71    0.33
   5  -5   3    9.92    0.36
  -5  -5  -3    9.42    0.39
   5   5  -3    9.95    0.36
  -5   5   3   10.09    0.39
  -5  -5  -3    9.23    0.35
  -5  -5   3    9.67    0.36
   5   5   3    9.35    0.36
  -5   5  -3    9.58    0.36
   5  -5  -3    9.32    0.37
  -5   5  -3    9.51    0.35
  -6  -5  -3    5.79    0.30
   6   5  -3    5.30    0.26
   6  -5   3    5.37    0.26
  -6   5   3    5.10    0.23
  -6  -5  -3    5.31    0.25
  -6   5  -3    5.48    0.25
  -6  -5   3    5.67    0.26
   6   5   3    5.27    0.27
  -6   5  -3    4.94    0.25
   6  -5  -3    5.37    0.28
  -7  -5  -3   12.04    0.46
   7  -5   3   12.39    0.48
  -7  -5  -3   11.97    0.51
   7   5  -3   12.48    0.47
  -7  -5   3   12.02    0.47
   7   5   3   12.10    0.48
   7  -5  -3   12.38    0.50
  -7   5  -3   12.10    0.48
  -7   5  -3   12.80    0.46
  -8  -5  -3    7.38    0.36
   8   5  -3    6.90    0.35
   8  -5   3    6.92    0.36
   8  -5  -3    7.07    0.37
  -8   5  -3    7.26    0.36
  -8  -5   3    7.11    0.35
  -8   5  -3    6.98    0.33
   8   5   3    7.40    0.38
   0   6  -3   68.94    1.95
   0  -6  -3   71.04    1.79
   0  -6   3   65.54    1.81
   0   6  -3   66.84    1.80
   0   6   3   66.99    1.79
   0  -6  -3   69.31    1.89
   0  -6  -3   69.01    1.96
   0   6   3   72.88    1.95
   1  -6   3   68.07    1.88
   1  -6   3   74.00    1.92
  -1  -6  -3   71.56    1.87
   1   6  -3   69.99    2.03
  -1  -6  -3   72.23    2.04
  -1   6   3   75.73    2.03
   1   6  -3   69.65    1.87
  -1   6   3   71.28    1.87
   1  -6  -3   68.94    1.97
   1  -6  -3   74.71    2.05
   1   6   3   71.70    1.87
  -1  -6   3   70.31    1.89
  -1   6  -3   69.65    2.02
  -1   6  -3   73.00    1.88
   1  -6  -3   73.15    1.86
   1   6   3   71.21    1.96
   1   6   3   74.47    2.04
   2  -6   3   15.90    0.45
  -2  -6  -3   14.49    0.45
  -2   6   3   15.63    0.46
   2   6  -3   14.82    0.45
   2   6  -3   14.80    0.50
  -2  -6  -3   14.74    0.50
   2  -6   3   14.69    0.45
   2   6  -3   15.66    0.44
  -2   6   3   14.93    0.49
   2   6   3   15.44    0.45
  -2   6  -3   14.70    0.46
  -2  -6   3   15.88    0.48
   2   6   3   15.47    0.48
   2   6   3   16.76    0.51
   2  -6  -3   16.17    0.51
  -2   6  -3   14.91    0.49
   2  -6  -3   15.39    0.49
   2  -6  -3   15.57    0.44
   3  -6   3   44.65    1.21
   3   6  -3   45.26    1.20
   3   6  -3   44.00    1.28
  -3  -6  -3   42.03    1.28
  -3  -6  -3   42.24    1.17
  -3   6   3   43.25    1.27
  -3   6   3   42.07    1.16
   3  -6   3   42.65    1.17
   3   6  -3   40.92    1.15
   3  -6  -3   44.73    1.14
   3   6   3   43.92    1.23
   3  -6  -3   42.72    1.23
  -3   6  -3   42.38    1.15
  -3   6  -3   40.89    1.25
  -3  -6   3   41.97    1.19
   3  -6  -3   44.89    1.27
   3   6   3   43.11    1.14
  -4  -6  -3    1.16    0.13
   4   6  -3    0.87    0.11
   4   6  -3    1.10    0.10
   4  -6   3    1.10    0.10
  -4  -6  -3    1.04    0.11
   4  -6   3    1.04    0.10
  -4   6   3    0.97    0.09
  -4   6   3    1.10    0.09
  -4   6   3    0.98    0.11
   4   6  -3    0.99    0.09
   4  -6  -3    0.69    0.09
   4   6   3    1.06    0.11
  -4  -6   3    0.90    0.10
  -4   6  -3    0.91    0.09
  -4   6  -3    0.82    0.09
  -5  -6  -3    3.12    0.18
  -5   6   3    2.77    0.19
  -5  -6  -3    2.74    0.20
   5  -6   3    2.86    0.18
  -5   6   3    3.18    0.16
  -5   6   3    2.94    0.16
   5   6  -3    3.20    0.18
  -5   6  -3    2.72    0.17
  -5  -6   3    2.57    0.17
   5   6   3    3.01    0.18
   5  -6  -3    2.59    0.18
  -5   6  -3    2.72    0.16
   6  -6   3    2.41    0.18
  -6  -6  -3    3.11    0.23
   6   6  -3    2.91    0.19
  -6  -6  -3    2.76    0.19
   6  -6  -3    2.69    0.19
  -6  -6   3    3.09    0.20
  -6   6  -3    2.68    0.18
   6   6   3    2.97    0.20
  -6   6  -3    2.90    0.19
  -7  -6  -3    4.06    0.25
   7   6  -3    4.33    0.25
  -7  -6  -3    4.12    0.29
   7  -6   3    4.22    0.25
  -7   6  -3    4.50    0.26
  -7  -6   3    3.96    0.25
   7   6   3    4.32    0.26
  -7   6  -3    4.74    0.25
   7  -6  -3    4.63    0.27
   8  -6   3    1.05    0.16
   8   6   3    1.22    0.18
  -8  -6   3    1.44    0.18
  -8   6  -3    1.16    0.16
   8  -6  -3    1.35    0.18
  -8   6  -3    1.14    0.17
   0   7  -3    0.02    0.04
   0  -7  -3   -0.02    0.04
   0  -7  -3   -0.01    0.05
   0   7  -3   -0.01    0.04
   0  -7  -3    0.13    0.05
   0  -7   3    0.33    0.06
   0   7   3    0.25    0.06
   0   7   3    0.07    0.05
  -1   7   3  174.48    4.73
   1   7  -3  170.13    4.73
  -1  -7  -3  173.26    4.36
  -1   7   3  169.02    4.35
   1  -7   3  180.14    4.54
   1   7  -3  164.20    4.35
  -1  -7  -3  164.75    4.74
   1  -7   3  168.29    4.38
  -1  -7  -3  166.09    4.58
  -1   7  -3  171.99    4.74
   1   7   3  166.50    4.37
   1  -7  -3  174.89    4.37
   1  -7  -3  174.27    4.76
   1  -7  -3  169.64    4.60
   1   7   3  172.81    4.75
  -1  -7   3  167.31    4.41
  -1   7  -3  170.86    4.38
  -2   7   3   15.79    0.48
  -2   7   3   15.64    0.52
  -2  -7  -3   15.43    0.48
   2   7  -3   15.97    0.53
   2  -7   3   16.84    0.46
  -2  -7  -3   14.80    0.53
   2  -7   3   15.91    0.48
   2   7  -3   15.55    0.48
  -2  -7   3   15.86    0.50
   2   7   3   16.19    0.50
   2  -7  -3   16.65    0.54
   2   7   3   15.76    0.48
  -2   7  -3   16.10    0.49
   2  -7  -3   16.34    0.51
   2  -7  -3   16.28    0.46
  -2   7  -3   15.61    0.51
  -3   7   3   68.62    1.82
   3  -7   3   68.02    1.84
   3  -7   3   71.96    1.90
  -3  -7  -3   67.34    1.84
   3   7  -3   69.60    1.83
  -3   7   3   69.64    1.99
   3   7  -3   70.03    2.01
  -3  -7  -3   67.61    2.01
   3   7   3   68.36    1.90
   3  -7  -3   69.13    1.91
  -3   7  -3   68.09    1.95
   3   7   3   67.34    1.78
   3  -7  -3   67.12    1.78
  -3   7  -3   70.35    1.81
  -4   7   3   84.79    2.41
   4  -7   3   87.63    2.31
  -4  -7  -3   83.47    2.23
  -4  -7  -3   83.08    2.43
  -4   7   3   83.62    2.19
   4   7  -3   85.66    2.20
   4  -7   3   81.25    2.22
  -4   7   3   82.29    2.19
   4   7  -3   81.81    2.42
  -4  -7   3   81.63    2.25
   4   7   3   84.10    2.34
  -4   7  -3   84.04    2.40
   4  -7  -3   85.19    2.35
  -4   7  -3   86.45    2.20
  -5   7   3   17.18    0.53
  -5  -7  -3   16.96    0.56
   5  -7   3   16.87    0.56
   5  -7   3   17.35    0.55
  -5  -7  -3   16.91    0.62
   5   7   3   17.23    0.58
   5  -7  -3   17.54    0.59
  -5   7  -3   17.10    0.59
  -5  -7   3   16.91    0.57
   6  -7   3    1.19    0.14
  -6  -7  -3    1.27    0.17
  -6  -7  -3    1.26    0.14
   6   7   3    1.46    0.16
   6  -7  -3    1.56    0.15
  -6  -7   3    1.24    0.14
  -6   7  -3    1.37    0.14
  -6   7  -3    1.39    0.14
  -7  -7  -3    2.32    0.21
   7  -7   3    2.44    0.20
   7   7   3    2.28    0.20
  -7   7  -3    2.59    0.20
  -7  -7   3    2.41    0.21
   7  -7  -3    2.14    0.19
  -7   7  -3    1.99    0.18
   8  -7   3    3.92    0.27
   8   7   3    4.20    0.28
  -8   7  -3    4.17    0.28
   0  -8  -3    2.28    0.15
   0   8  -3    2.00    0.13
   0   8  -3    2.35    0.15
   0   8   3    2.28    0.14
   0  -8  -3    2.29    0.13
   0  -8   3    2.22    0.14
   0  -8  -3    2.20    0.12
   0   8   3    2.24    0.14
  -1  -8  -3   17.49    0.53
   1  -8   3   18.02    0.55
  -1   8   3   18.39    0.59
   1   8  -3   17.81    0.59
  -1   8   3   18.83    0.55
   1   8  -3   18.13    0.55
  -1  -8  -3   18.12    0.56
  -1  -8  -3   17.61    0.61
   1  -8  -3   19.67    0.60
   1  -8  -3   18.70    0.63
   1   8   3   18.99    0.57
  -1   8  -3   19.52    0.62
  -1   8  -3   20.22    0.58
   1  -8  -3   19.23    0.55
  -1  -8   3   18.87    0.59
  -2  -8  -3    5.52    0.27
  -2   8   3    5.81    0.26
   2   8  -3    5.79    0.23
   2  -8   3    5.76    0.24
   2   8  -3    6.07    0.27
  -2  -8  -3    6.05    0.24
   2  -8  -3    6.03    0.25
   2   8   3    6.06    0.23
  -2  -8   3    6.02    0.25
   2   8   3    6.35    0.23
  -2   8  -3    5.57    0.24
  -2   8  -3    5.98    0.25
   2  -8  -3    5.98    0.21
   2  -8  -3    5.99    0.26
  -3  -8  -3   12.22    0.42
   3  -8   3   12.78    0.42
  -3   8   3   12.47    0.46
   3   8  -3   13.15    0.42
  -3  -8  -3   12.42    0.48
  -3   8   3   13.06    0.42
   3   8  -3   12.66    0.47
  -3   8  -3   14.02    0.45
   3  -8  -3   13.68    0.47
  -3  -8   3   14.01    0.47
  -3   8  -3   13.10    0.47
   3   8   3   13.76    0.43
   3  -8  -3   14.25    0.42
   3   8   3   14.42    0.46
  -4   8   3   12.16    0.41
  -4  -8  -3   12.07    0.48
   4  -8   3   12.20    0.42
   4   8  -3   12.76    0.41
  -4  -8  -3   11.93    0.42
  -4   8  -3   11.99    0.44
   4  -8  -3   12.01    0.44
  -4  -8   3   13.04    0.45
   4   8   3   12.34    0.43
  -4   8  -3   12.65    0.41
  -5  -8  -3   21.90    0.71
  -5  -8  -3   22.36    0.79
   5  -8   3   22.34    0.71
   5  -8   3   22.52    0.69
  -5   8   3   23.33    0.68
   5  -8  -3   23.68    0.78
   5   8   3   24.56    0.77
  -5  -8   3   23.07    0.76
  -5   8  -3   24.33    0.78
  -6  -8  -3   11.14    0.43
  -6  -8   3   11.23    0.45
  -6   8  -3   11.69    0.43
  -6   8  -3   11.55    0.46
   6  -8  -3   11.55    0.46
   6   8   3   11.59    0.45
  -7  -8  -3    0.34    0.12
  -7   8  -3    0.13    0.11
   7   8   3    0.44    0.13
  -7  -8   3    0.51    0.14
   7  -8  -3    0.34    0.12
  -7   8  -3    0.24    0.11
   0   9  -3   82.42    2.40
   0  -9  -3   81.76    2.42
   0  -9  -3   86.75    2.31
   0  -9   3   85.93    2.23
   0   9   3   84.65    2.22
   0   9  -3   80.58    2.22
   0  -9  -3   86.40    2.21
  -1  -9  -3   37.59    1.02
  -1  -9  -3   36.32    1.07
  -1   9   3   36.71    1.12
   1  -9   3   37.57    1.04
   1   9  -3   37.50    1.13
  -1  -9  -3   37.10    1.14
   1   9  -3   36.09    1.04
  -1   9   3   36.87    1.03
  -1   9  -3   36.90    1.03
  -1   9  -3   36.82    1.11
   1  -9  -3   37.14    1.00
   1  -9  -3   34.93    1.11
   1  -9  -3   37.48    1.06
  -1  -9   3   36.57    1.04
  -2  -9  -3   13.80    0.44
   2   9  -3   13.05    0.44
  -2  -9  -3   13.27    0.50
  -2   9   3   14.23    0.49
  -2   9   3   13.61    0.45
   2   9  -3   13.20    0.49
   2  -9   3   13.75    0.45
   2   9   3   13.05    0.42
   2   9   3   12.39    0.41
  -2   9  -3   13.14    0.43
   2  -9  -3   12.80    0.39
   2  -9  -3   12.48    0.43
  -2   9  -3   11.90    0.44
  -2  -9   3   12.87    0.44
  -3  -9  -3   25.90    0.76
   3   9  -3   25.57    0.75
  -3  -9  -3   25.67    0.85
   3   9  -3   24.96    0.83
  -3   9   3   25.27    0.75
   3  -9   3   25.32    0.75
   3  -9  -3   26.28    0.78
   3   9   3   25.21    0.76
  -3   9  -3   23.81    0.73
  -3   9  -3   24.87    0.79
   3   9   3   25.07    0.72
  -3  -9   3   24.67    0.77
  -4   9   3    4.52    0.21
   4   9  -3    4.41    0.21
  -4  -9  -3    3.93    0.25
   4  -9   3    4.19    0.21
  -4  -9  -3    4.45    0.23
   4  -9  -3    3.83    0.22
  -4   9  -3    3.82    0.20
  -4  -9   3    3.57    0.22
   4   9   3    4.03    0.21
  -4   9  -3    3.80    0.21
  -5  -9  -3   31.14    0.95
  -5   9   3   31.47    0.91
   5  -9   3   32.33    0.94
  -5  -9   3   31.28    0.97
   5  -9  -3   31.58    0.99
   5   9   3   31.47    0.97
  -5   9  -3   32.53    1.01
  -6  -9  -3    5.02    0.28
   6   9   3    5.61    0.29
  -6  -9   3    5.58    0.30
   6  -9  -3    5.09    0.29
  -6   9  -3    5.57    0.29
  -6   9  -3    5.43    0.28
  -7  -9  -3   11.91    0.50
  -7   9  -3   12.00    0.48
  -7   9  -3   12.57    0.51
   7  -9  -3   12.59    0.52
  -7  -9   3   13.17    0.52
   0  10  -3    0.97    0.12
   0  10  -3    1.36    0.13
   0  10   3    1.11    0.11
   0 -10  -3    1.26    0.11
   0 -10   3    1.10    0.12
   0 -10  -3    1.30    0.11
   1  10  -3    2.91    0.19
  -1 -10  -3    3.28    0.17
  -1  10   3    2.85    0.17
  -1 -10  -3    2.92    0.21
  -1 -10  -3    3.17    0.17
   1  10  -3    2.95    0.18
   1 -10   3    3.08    0.18
  -1  10  -3    3.03    0.18
   1  10   3    2.97    0.18
  -1  10  -3    3.17    0.19
  -1 -10   3    3.08    0.18
   1 -10  -3    3.25    0.16
   1 -10  -3    3.11    0.18
   2  10  -3    1.72    0.16
   2 -10   3    1.68    0.14
  -2 -10  -3    1.77    0.14
  -2  10   3    1.89    0.14
  -2 -10  -3    1.87    0.14
  -2 -10  -3    1.91    0.17
   2  10  -3    1.96    0.15
   2 -10  -3    1.85    0.14
  -2  10  -3    1.84    0.14
  -2 -10   3    1.73    0.15
   2  10   3    1.87    0.14
  -2  10  -3    1.89    0.15
  -3  10   3   14.23    0.48
   3  10  -3   14.23    0.53
  -3 -10  -3   13.60    0.48
   3 -10   3   14.02    0.47
   3  10  -3   14.17    0.48
  -3  10  -3   14.49    0.48
   3 -10  -3   14.79    0.50
  -3 -10   3   13.54    0.50
  -3  10  -3   13.85    0.51
   3  10   3   14.56    0.46
  -4 -10  -3    6.86    0.30
  -4  10   3    6.63    0.29
   4 -10   3    6.64    0.29
   4  10  -3    6.68    0.29
  -4 -10   3    5.99    0.30
  -4  10  -3    6.44    0.28
   4 -10  -3    7.02    0.30
  -4  10  -3    6.55    0.30
  -5  10   3    4.19    0.22
  -5 -10  -3    3.60    0.24
   5 -10   3    4.30    0.22
   5 -10  -3    4.39    0.25
  -5 -10   3    3.78    0.24
  -5  10  -3    4.24    0.25
  -6 -10  -3   15.62    0.58
  -6  10  -3   15.78    0.56
  -6 -10   3   14.20    0.57
  -6  10  -3   15.07    0.58
   6 -10  -3   16.64    0.59
  -7  10  -3    6.88    0.35
  -7  10  -3    6.50    0.33
   7 -10  -3    6.01    0.35
   0 -11  -3   21.01    0.62
   0  11  -3   20.70    0.69
   0 -11   3   20.00    0.64
   0  11  -3   19.87    0.64
   0  11   3   20.23    0.64
  -1 -11  -3   12.50    0.42
   1  11  -3   12.79    0.48
  -1  11   3   12.79    0.44
   1  11  -3   11.76    0.44
   1 -11   3   12.05    0.43
   1  11   3   12.74    0.44
  -1  11  -3   12.76    0.45
  -1 -11   3   11.85    0.44
  -1  11  -3   13.03    0.48
  -2  11   3    4.51    0.24
  -2 -11  -3    4.64    0.23
   2 -11   3    4.87    0.23
   2  11  -3    4.79    0.26
   2  11  -3    4.37    0.23
  -2  11  -3    4.54    0.23
  -2 -11   3    4.10    0.23
  -2  11  -3    4.15    0.22
   2  11   3    4.43    0.22
  -3 -11  -3    0.71    0.11
   3 -11   3    0.88    0.11
  -3  11   3    0.84    0.11
   3  11  -3    0.80    0.12
  -3  11  -3    0.73    0.11
  -3  11  -3    0.76    0.12
  -3 -11   3    0.82    0.12
   3  11   3    0.90    0.11
  -4 -11  -3    7.52    0.33
   4  11  -3    7.79    0.33
   4 -11   3    7.95    0.32
  -4  11   3    7.33    0.32
  -4 -11   3    7.31    0.34
  -4  11  -3    7.54    0.32
  -4  11  -3    7.27    0.34
  -5  11   3    0.37    0.11
  -5 -11  -3    0.27    0.11
   5 -11   3    0.19    0.11
  -5  11  -3    0.40    0.11
  -5 -11   3    0.29    0.12
  -6 -11  -3    0.06    0.12
  -6 -11   3   -0.07    0.12
   0  12   3   31.33    0.94
   0 -12   3   31.29    0.95
   0  12  -3   30.91    0.95
   0  12  -3   34.30    1.03
   1  12  -3    3.01    0.21
  -1 -12  -3    3.23    0.19
   1 -12   3    2.60    0.18
   1  12  -3    2.85    0.19
  -1  12   3    3.12    0.19
   1  12   3    2.97    0.19
  -1  12  -3    2.84    0.20
  -1  12  -3    3.23    0.20
  -1 -12   3    2.89    0.20
  -2  12   3    5.16    0.27
   2  12  -3    5.20    0.26
   2 -12   3    5.77    0.26
  -2 -12  -3    5.59    0.26
  -2  12  -3    4.94    0.26
  -2 -12   3    4.89    0.26
  -2  12  -3    5.02    0.26
   2  12   3    5.12    0.25
  -3 -12  -3    8.41    0.36
  -3  12   3    8.72    0.35
   3  12  -3    8.42    0.35
   3 -12   3    8.74    0.35
  -3  12  -3    8.89    0.38
   3  12   3    9.30    0.36
  -3 -12   3    9.18    0.38
  -3  12  -3    8.20    0.35
   4 -12   3    0.62    0.12
   4  12  -3    0.50    0.12
  -4  12   3    0.57    0.12
  -4 -12  -3    0.53    0.12
  -4  12  -3    0.56    0.12
  -4 -12   3    0.76    0.13
  -4  12  -3    0.74    0.13
  -5 -12  -3    9.37    0.41
  -5  12   3    8.92    0.37
   5 -12   3    8.56    0.38
  -5 -12   3    8.10    0.39
  -5  12  -3    9.08    0.41
  -6 -12  -3    3.20    0.25
   0 -13   3   30.18    0.91
   0  13  -3   28.71    0.91
   0  13  -3   30.67    0.99
   0  13   3   29.18    0.90
  -1  13   3    1.29    0.14
   1 -13   3    1.37    0.14
   1  13  -3    1.36    0.17
   1  13  -3    1.25    0.14
   1  13   3    1.13    0.13
  -1 -13   3    0.98    0.13
  -1  13  -3    0.83    0.13
  -1  13  -3    1.03    0.14
   2 -13   3   13.17    0.48
   2  13  -3   12.80    0.49
  -2  13   3   12.82    0.49
  -2 -13  -3   14.23    0.49
  -2 -13   3   13.53    0.51
  -2  13  -3   13.83    0.53
  -2  13  -3   13.28    0.49
   2  13   3   13.74    0.49
  -3  13   3   12.18    0.46
   3  13  -3   12.70    0.47
   3 -13   3   11.67    0.45
  -3 -13  -3   11.91    0.46
   3  13   3   12.24    0.45
  -3  13  -3   13.04    0.50
  -3  13  -3   11.71    0.46
  -3 -13   3   12.05    0.49
   4  13  -3   33.55    1.03
  -4 -13  -3   34.35    1.05
  -4  13   3   34.14    1.03
   4 -13   3   34.36    1.02
  -4  13  -3   36.29    1.06
  -4  13  -3   35.53    1.15
  -4 -13   3   34.39    1.10
   5 -13   3    5.88    0.31
  -5 -13  -3    5.92    0.32
  -5  13  -3    5.78    0.34
  -5 -13   3    5.95    0.34
   0  14  -3    4.30    0.27
   0 -14   3    4.10    0.24
   0  14   3    3.98    0.25
   0  14  -3    4.07    0.25
   1  14  -3   11.87    0.46
   1 -14   3   11.05    0.44
  -1  14   3   11.86    0.45
  -1  14  -3   11.45    0.45
   1  14   3   10.72    0.43
  -1 -14   3   11.26    0.45
  -1  14  -3   11.50    0.48
   2  14  -3   13.94    0.52
   2 -14   3   13.39    0.50
  -2  14   3   13.57    0.52
  -2 -14   3   12.61    0.52
  -2  14  -3   13.61    0.51
   2  14   3   13.98    0.50
  -2  14  -3   14.36    0.55
   3 -14   3   10.44    0.42
  -3  14   3   10.87    0.44
   3  14  -3   10.69    0.44
  -3 -14  -3    9.69    0.42
   3  14   3   10.41    0.42
  -3  14  -3   10.97    0.46
  -3  14  -3   10.62    0.44
  -3 -14   3    9.67    0.44
  -4 -14  -3   12.56    0.50
  -4  14   3   11.66    0.47
   4 -14   3   12.31    0.47
  -4  14  -3   12.92    0.51
  -4  14  -3   12.96    0.54
  -4 -14   3   12.38    0.53
   0  15  -3    1.15    0.15
   0 -15   3    0.80    0.14
   0  15   3    1.18    0.14
   1  15  -3   17.30    0.62
  -1  15   3   18.01    0.63
   1 -15   3   17.37    0.61
   1  15   3   17.63    0.62
  -1 -15   3   17.27    0.63
  -1  15  -3   17.60    0.63
   2 -15   3    7.51    0.35
  -2  15   3    8.00    0.38
   2  15  -3    7.48    0.37
   2  15   3    8.74    0.38
  -2  15  -3    8.61    0.41
  -2  15  -3    8.14    0.38
  -2 -15   3    7.65    0.38
   3  15  -3    8.82    0.41
   3 -15   3    8.54    0.39
  -3  15   3    8.94    0.40
   3  15   3    9.38    0.40
  -3  15  -3    9.78    0.45
  -3 -15   3    8.99    0.43
  -3  15  -3    8.90    0.41
   0 -16   3   -0.11    0.12
   1 -16   3    1.25    0.17
   1  16   3    1.51    0.19
  -1 -16   3    1.62    0.18
   2 -16   3   11.72    0.47
   2  16   3   12.18    0.49
   0   0  -4  712.07   20.71
   0   0   4  779.21   19.13
   0   0   4  740.33   19.03
   0   0  -4  801.16   20.11
   0   0  -4  726.35   20.76
   1   0   4   71.83    1.91
   1   0   4   75.98    2.03
   1   0   4   74.90    1.93
  -1   0   4   78.68    1.93
   1   0  -4   74.07    2.08
   1   0  -4   73.94    2.04
   2   0  -4  101.53    2.78
  -2   0   4  103.31    2.63
   2   0   4   96.88    2.78
  -2   0  -4  101.74    2.84
  -2   0  -4  106.41    2.84
  -2   0   4  109.71    2.63
  -2   0   4  105.69    2.86
   2   0  -4   98.46    2.86
   2   0   4  103.64    2.61
  -2   0  -4  100.09    2.65
   3   0  -4  103.90    2.92
  -3   0  -4  108.21    2.78
   3   0   4  104.88    2.92
   3   0  -4  109.35    3.01
  -3   0  -4  110.16    2.98
  -3   0   4  111.43    3.01
  -3   0   4  108.99    2.75
  -3   0  -4  105.61    2.98
  -3   0   4  106.69    2.77
  -4   0   4   98.71    2.43
  -4   0   4   98.10    2.67
  -4   0  -4   89.69    2.47
  -4   0  -4   84.78    2.64
   4   0  -4   98.44    2.68
  -4   0   4   96.38    2.45
   4   0  -4   94.55    2.60
   4   0   4   96.21    2.60
  -5   0  -4   10.80    0.39
   5   0  -4   11.26    0.41
  -5   0   4   11.62    0.37
   5   0   4   11.04    0.40
  -5   0  -4   11.10    0.38
   6   0  -4   75.18    2.14
  -6   0  -4   74.34    2.03
   6   0   4   76.51    2.14
  -6   0   4   77.38    2.02
  -6   0  -4   74.29    2.17
  -7   0  -4    0.17    0.09
  -7   0   4   -0.01    0.08
  -7   0  -4   -0.04    0.07
   7   0   4    0.16    0.10
   7   0  -4    0.24    0.09
   8   0  -4   23.84    0.83
  -8   0  -4   23.59    0.77
   8   0   4   23.82    0.83
  -8   0   4   24.69    0.77
  -8   0  -4   24.19    0.83
   0  -1  -4   12.47    0.37
   0   1  -4   12.75    0.37
   0  -1   4   12.58    0.35
   0   1   4   12.98    0.33
   0   1  -4   12.70    0.36
   0  -1   4   11.81    0.34
   0   1  -4   11.91    0.36
   0  -1  -4   13.15    0.37
   0   1   4   12.39    0.35
   1   1  -4  196.07    5.42
   1  -1   4  202.97    5.16
   1  -1   4  210.09    5.17
   1   1  -4  197.19    5.59
  -1   1   4  212.82    5.20
  -1  -1  -4  204.72    5.60
  -1  -1  -4  188.66    5.60
   1  -1   4  209.24    5.41
  -1   1   4  202.19    5.16
  -1  -1  -4  206.44    5.17
  -1  -1   4  211.93    5.25
   1   1   4  204.25    5.51
  -1  -1   4  213.68    5.23
   1   1   4  207.88    5.23
   1  -1  -4  196.74    5.67
   1  -1  -4  204.82    5.52
   2   1  -4  181.88    5.00
   2   1  -4  186.24    5.16
  -2   1   4  187.86    5.15
  -2  -1  -4  185.86    4.77
   2  -1   4  186.68    4.73
   2  -1   4  188.19    5.00
  -2   1   4  187.26    4.75
  -2  -1  -4  181.38    5.15
  -2  -1  -4  192.25    5.14
   2  -1   4  187.05    4.77
  -2   1   4  193.00    4.74
   2   1   4  181.83    4.89
  -2   1  -4  185.80    5.03
  -2  -1   4  187.32    4.65
   2   1   4  187.68    4.61
   2  -1  -4  180.16    5.03
  -2   1  -4  177.71    5.03
  -2  -1   4  179.87    4.62
   2  -1  -4  175.38    4.89
  -2  -1   4  186.31    5.03
  -3  -1  -4   54.71    1.47
  -3   1   4   52.58    1.36
  -3  -1  -4   52.15    1.38
  -3  -1  -4   50.91    1.47
   3   1  -4   50.52    1.49
  -3   1   4   51.75    1.36
   3   1  -4   50.59    1.45
   3  -1   4   51.26    1.45
  -3   1   4   53.89    1.49
  -3  -1   4   49.05    1.33
  -3   1  -4   53.18    1.43
   3   1   4   52.26    1.29
   3  -1  -4   49.13    1.42
  -3   1  -4   50.65    1.30
  -3   1  -4   50.26    1.34
   3  -1  -4   50.02    1.45
  -3   1  -4   49.72    1.42
   3   1   4   49.47    1.41
  -3  -1   4   50.53    1.32
  -3  -1   4   52.33    1.45
  -4  -1  -4   35.54    1.06
  -4   1   4   36.63    1.08
  -4   1   4   35.89    0.98
  -4  -1  -4   36.18    1.00
   4   1  -4   36.84    1.09
  -4   1   4   38.16    0.97
   4   1  -4   35.09    1.05
   4  -1   4   36.12    1.05
   4   1   4   34.48    1.04
  -4  -1   4   37.38    1.07
   4  -1  -4   37.01    1.07
  -4   1  -4   34.22    1.04
  -4   1  -4   36.03    0.99
  -4  -1   4   36.14    0.98
   4  -1  -4   34.24    1.04
  -4  -1   4   37.11    0.96
  -5  -1  -4   39.51    1.12
  -5   1   4   40.95    1.10
   5  -1   4   39.57    1.19
   5   1  -4   40.09    1.19
  -5  -1  -4   42.18    1.20
   5  -1  -4   38.06    1.14
  -5  -1   4   38.98    1.06
   5   1   4   38.80    1.13
  -5   1  -4   37.95    1.13
  -5   1  -4   38.04    1.07
   6   1  -4    9.62    0.39
  -6   1   4   10.13    0.35
  -6  -1  -4    9.51    0.37
  -6  -1  -4    9.84    0.37
   6  -1   4    9.61    0.39
   6  -1  -4    9.48    0.38
  -6  -1   4    9.67    0.35
  -6   1  -4    8.90    0.35
   6   1   4    8.91    0.37
  -6   1  -4    9.09    0.36
  -7   1   4    3.88    0.21
   7   1  -4    3.70    0.24
  -7  -1  -4    3.57    0.21
  -7  -1  -4    3.72    0.22
   7  -1   4    3.35    0.22
   7   1   4    3.53    0.23
  -7   1  -4    3.84    0.22
  -7   1  -4    3.60    0.21
  -7  -1   4    3.87    0.21
   7  -1  -4    3.58    0.23
  -8  -1  -4    2.59    0.20
  -8  -1  -4    2.48    0.20
   8  -1   4    2.44    0.21
   8   1  -4    2.54    0.23
  -8   1  -4    2.59    0.20
  -8   1  -4    2.35    0.19
   8  -1  -4    2.72    0.22
   8   1   4    2.77    0.22
  -8  -1   4    2.72    0.21
   0  -2  -4   42.25    1.25
   0   2  -4   45.63    1.21
   0  -2   4   43.90    1.16
   0   2   4   42.51    1.15
   0  -2  -4   45.77    1.14
   0   2  -4   45.27    1.24
   0  -2  -4   43.81    1.24
   0   2  -4   44.85    1.23
   0  -2   4   44.74    1.16
  -1  -2  -4   73.99    2.10
   1   2  -4   75.32    2.10
   1  -2   4   74.39    2.03
   1  -2   4   76.33    1.94
   1  -2   4   74.13    1.95
   1   2  -4   75.62    2.04
  -1  -2  -4   72.96    2.09
  -1  -2  -4   78.67    1.94
  -1   2   4   77.70    1.94
   1  -2  -4   75.39    2.12
   1  -2  -4   75.86    2.08
  -1  -2   4   73.77    1.97
   1   2   4   79.37    1.95
  -1  -2   4   78.42    1.96
   1   2   4   74.28    2.06
  -2  -2  -4   18.65    0.54
   2   2  -4   18.25    0.56
  -2  -2  -4   17.95    0.54
   2   2  -4   18.05    0.53
  -2  -2  -4   17.03    0.50
   2  -2   4   18.44    0.53
   2  -2   4   19.06    0.52
  -2   2   4   18.37    0.55
  -2   2   4   18.93    0.49
  -2   2   4   18.15    0.51
   2   2   4   18.15    0.54
  -2   2  -4   19.29    0.52
  -2   2  -4   17.45    0.52
   2  -2  -4   17.56    0.55
   2   2   4   19.15    0.49
  -2   2  -4   18.62    0.50
   2  -2  -4   18.05    0.55
  -2  -2   4   19.08    0.52
  -2  -2   4   17.64    0.51
  -3   2   4    2.98    0.13
  -3   2   4    2.96    0.11
  -3   2   4    2.94    0.15
   3  -2   4    2.96    0.14
   3   2  -4    2.70    0.15
  -3  -2  -4    2.90    0.13
  -3  -2  -4    3.09    0.14
   3   2  -4    2.92    0.14
  -3  -2  -4    2.95    0.13
   3   2   4    3.10    0.15
   3   2   4    3.15    0.10
   3  -2  -4    2.99    0.16
  -3   2  -4    3.05    0.11
   3  -2  -4    2.97    0.15
  -3  -2   4    2.94    0.13
  -3   2  -4    3.14    0.13
  -3  -2   4    3.03    0.15
  -3  -2   4    2.87    0.14
  -4  -2  -4   12.09    0.41
  -4   2   4   12.58    0.43
   4   2  -4   12.99    0.44
  -4   2   4   12.45    0.37
   4   2  -4   12.07    0.41
  -4  -2  -4   12.68    0.39
   4  -2   4   11.54    0.41
  -4   2   4   12.14    0.37
  -4  -2   4   12.16    0.39
   4  -2  -4   12.35    0.42
   4  -2  -4   12.15    0.42
  -4   2  -4   12.00    0.39
  -4  -2   4   12.30    0.37
   4   2   4   11.99    0.41
  -4   2  -4   12.04    0.39
   5   2  -4   26.61    0.82
   5  -2   4   26.13    0.82
  -5  -2  -4   27.02    0.83
  -5  -2  -4   25.83    0.77
  -5   2   4   27.47    0.75
   5  -2  -4   25.95    0.82
  -5   2  -4   25.69    0.80
  -5  -2   4   27.62    0.77
  -5   2  -4   26.50    0.77
   5   2   4   26.04    0.81
  -6  -2  -4    1.98    0.15
  -6  -2  -4    2.14    0.15
   6   2  -4    1.90    0.16
  -6   2   4    2.03    0.14
   6  -2   4    1.91    0.16
  -6   2  -4    1.66    0.14
  -6   2  -4    1.62    0.14
   6  -2  -4    1.99    0.17
   6   2   4    2.17    0.17
  -6  -2   4    1.97    0.15
  -7   2   4    1.47    0.13
  -7  -2  -4    1.30    0.15
  -7  -2  -4    1.16    0.14
   7  -2   4    1.43    0.16
   7   2  -4    1.26    0.14
  -7   2  -4    1.23    0.13
   7  -2  -4    1.16    0.15
   7   2   4    1.12    0.15
  -7   2  -4    1.18    0.13
  -7  -2   4    1.06    0.13
  -8  -2  -4    6.59    0.32
  -8  -2  -4    6.86    0.35
   8  -2   4    6.47    0.35
   8   2  -4    6.62    0.35
   8  -2  -4    6.49    0.34
  -8  -2   4    6.69    0.32
  -8   2  -4    6.21    0.32
   8   2   4    6.48    0.35
  -8   2  -4    6.11    0.31
   0   3  -4  191.16    5.11
   0   3   4  179.11    4.71
   0  -3  -4  187.07    4.74
   0   3  -4  177.11    5.12
   0  -3  -4  186.76    4.98
   0  -3   4  191.63    4.74
   0   3  -4  187.18    4.97
   0  -3  -4  186.47    5.12
  -1   3   4   59.83    1.57
  -1  -3  -4   60.39    1.71
   1  -3   4   60.69    1.64
  -1  -3  -4   62.32    1.57
  -1   3   4   62.24    1.70
   1   3  -4   59.25    1.70
   1   3  -4   61.08    1.64
   1  -3   4   58.64    1.58
  -1   3  -4   61.76    1.70
  -1  -3   4   62.19    1.61
   1   3   4   61.09    1.59
  -1   3  -4   62.64    1.59
  -1  -3   4   61.01    1.60
  -1   3  -4   59.56    1.71
   1  -3  -4   60.02    1.69
   1  -3  -4   60.65    1.73
   1   3   4   63.52    1.68
  -2  -3  -4   38.22    1.11
   2  -3   4   38.26    1.04
  -2   3   4   39.71    1.00
   2   3  -4   38.19    1.12
  -2   3   4   40.34    1.12
   2  -3   4   40.04    1.08
  -2  -3  -4   37.72    1.11
  -2  -3  -4   38.50    1.03
   2   3  -4   36.75    1.07
  -2   3   4   39.98    1.03
   2  -3  -4   38.44    1.12
   2   3   4   41.24    1.01
   2  -3  -4   38.52    1.10
  -2  -3   4   37.92    1.03
  -2  -3   4   37.01    1.03
  -2   3  -4   36.90    1.08
  -2   3  -4   40.18    1.08
   2   3   4   37.39    1.08
  -2   3  -4   39.48    1.02
   3  -3   4   28.25    0.81
   3  -3   4   26.86    0.77
   3   3  -4   27.51    0.81
   3   3  -4   28.25    0.85
  -3   3   4   27.72    0.76
  -3  -3  -4   28.09    0.77
  -3  -3  -4   27.31    0.83
  -3   3   4   29.29    0.85
  -3   3   4   29.01    0.75
   3  -3  -4   27.78    0.84
  -3   3  -4   26.40    0.82
  -3  -3   4   29.01    0.86
  -3   3  -4   28.45    0.76
   3  -3  -4   28.70    0.85
  -3  -3   4   28.48    0.79
  -3  -3   4   27.85    0.77
   3   3   4   27.16    0.83
   3   3   4   29.83    0.74
  -3   3  -4   29.31    0.82
   4   3  -4    1.04    0.11
  -4  -3  -4    1.11    0.10
  -4   3   4    0.99    0.08
  -4   3   4    1.11    0.08
   4  -3   4    0.95    0.10
  -4   3   4    1.33    0.11
  -4  -3  -4    1.33    0.11
   4   3  -4    1.16    0.10
  -4   3  -4    1.32    0.10
   4  -3  -4    1.38    0.11
   4   3   4    1.25    0.11
  -4  -3   4    1.33    0.10
   4  -3  -4    1.18    0.11
  -4   3  -4    1.35    0.10
  -4  -3   4    1.37    0.10
  -5   3   4   33.60    0.92
   5   3  -4   33.00    1.00
  -5  -3  -4   33.95    1.03
  -5  -3  -4   32.04    0.95
  -5   3   4   35.14    0.92
   5  -3   4   33.52    1.00
  -5   3  -4   32.36    0.97
  -5   3  -4   31.93    0.92
   5  -3  -4   31.77    0.98
  -5  -3   4   33.49    0.93
   5   3   4   32.35    0.98
  -6  -3  -4    8.61    0.37
   6   3  -4    9.66    0.37
   6  -3   4    8.69    0.37
  -6  -3  -4    8.83    0.35
  -6   3   4    9.31    0.32
  -6   3  -4    8.51    0.34
  -6   3  -4    8.53    0.34
   6  -3  -4    8.99    0.37
  -6  -3   4    8.82    0.34
   6   3   4    8.80    0.36
  -7  -3  -4    1.12    0.14
  -7  -3  -4    0.94    0.13
   7   3  -4    1.01    0.14
   7  -3   4    1.24    0.15
  -7   3  -4    1.21    0.14
   7   3   4    1.26    0.15
   7  -3  -4    1.00    0.14
  -7  -3   4    1.09    0.14
  -7   3  -4    1.16    0.13
   8   3  -4    7.89    0.39
   8  -3   4    8.91    0.40
  -8  -3  -4    7.76    0.36
  -8  -3  -4    8.18    0.40
   8  -3  -4    7.57    0.39
   8   3   4    8.55    0.39
  -8   3  -4    8.21    0.37
  -8  -3   4    7.56    0.36
  -8   3  -4    7.83    0.35
   0  -4   4    0.26    0.05
   0   4  -4    0.27    0.05
   0  -4  -4    0.26    0.06
   0  -4  -4    0.28    0.03
   0  -4  -4    0.23    0.05
   0   4  -4    0.30    0.05
   0   4  -4    0.27    0.03
   0   4   4    0.32    0.05
  -1   4   4   42.43    1.12
   1  -4   4   40.23    1.13
  -1  -4  -4   42.80    1.11
  -1   4   4   42.16    1.21
   1  -4   4   43.21    1.15
   1   4  -4   41.96    1.21
  -1  -4  -4   42.79    1.22
   1   4  -4   42.59    1.12
   1   4  -4   42.97    1.15
   1   4   4   42.92    1.19
  -1   4  -4   44.82    1.21
   1   4   4   41.98    1.13
   1  -4  -4   41.63    1.23
  -1  -4   4   43.70    1.15
   1  -4  -4   44.27    1.10
  -1   4  -4   41.66    1.21
   1  -4  -4   43.11    1.21
  -1   4  -4   42.14    1.13
   2   4  -4    0.89    0.07
  -2   4   4    0.88    0.05
  -2   4   4    0.80    0.07
   2   4  -4    0.74    0.07
  -2  -4  -4    1.08    0.08
   2  -4   4    0.82    0.07
   2   4  -4    0.61    0.07
  -2  -4  -4    0.90    0.08
   2  -4   4    0.77    0.06
  -2   4   4    0.90    0.08
  -2  -4   4    0.90    0.08
   2   4   4    0.92    0.07
  -2   4  -4    1.18    0.08
   2   4   4    0.82    0.07
   2  -4  -4    0.90    0.08
  -2   4  -4    0.94    0.07
   2  -4  -4    0.96    0.08
  -2   4  -4    1.03    0.07
   3  -4   4   52.08    1.37
   3   4  -4   52.50    1.42
   3  -4   4   51.24    1.43
   3   4  -4   50.82    1.49
  -3   4   4   52.91    1.34
  -3   4   4   51.88    1.49
  -3  -4  -4   49.15    1.48
  -3  -4  -4   48.80    1.36
   3   4  -4   52.32    1.36
  -3   4   4   51.89    1.36
   3  -4  -4   52.78    1.48
  -3   4  -4   52.08    1.34
   3  -4  -4   49.54    1.44
  -3   4  -4   50.25    1.45
  -3  -4   4   51.98    1.49
  -3  -4   4   47.73    1.37
   3   4   4   50.80    1.43
   3   4   4   53.14    1.32
   4  -4   4   23.94    0.71
   4   4  -4   23.83    0.71
   4  -4   4   23.41    0.68
   4   4  -4   23.79    0.66
   4   4  -4   22.99    0.75
  -4  -4  -4   20.91    0.73
  -4   4   4   24.36    0.66
  -4  -4  -4   23.31    0.68
  -4   4   4   24.48    0.67
  -4   4   4   24.96    0.75
   4  -4  -4   24.92    0.78
   4   4   4   24.32    0.76
  -4  -4   4   26.43    0.73
   4  -4  -4   24.30    0.77
  -4   4  -4   25.22    0.76
  -5   4   4    6.92    0.25
  -5  -4  -4    6.97    0.30
   5   4  -4    7.39    0.29
  -5  -4  -4    6.57    0.27
   5  -4   4    7.09    0.29
  -5   4   4    7.15    0.25
   5  -4  -4    6.96    0.31
  -5  -4   4    7.36    0.29
  -5   4  -4    7.20    0.28
  -5   4  -4    7.07    0.29
   5   4   4    7.10    0.30
  -6  -4  -4    1.46    0.13
   6   4  -4    1.28    0.14
   6  -4   4    1.01    0.12
  -6  -4  -4    1.08    0.13
   6   4   4    1.03    0.13
  -6  -4   4    1.19    0.13
  -6   4  -4    1.27    0.13
   6  -4  -4    1.40    0.15
  -6   4  -4    1.18    0.12
  -7  -4  -4   16.81    0.62
   7   4  -4   16.29    0.58
  -7  -4  -4   16.08    0.56
   7  -4   4   15.12    0.58
   7  -4  -4   16.71    0.61
  -7  -4   4   17.51    0.58
   7   4   4   15.86    0.60
  -7   4  -4   16.25    0.59
  -7   4  -4   17.06    0.57
   8  -4   4    5.75    0.32
  -8  -4  -4    5.97    0.35
  -8  -4  -4    5.71    0.30
   8   4  -4    5.88    0.33
  -8  -4   4    5.58    0.30
  -8   4  -4    5.69    0.31
   8  -4  -4    5.62    0.33
   8   4   4    5.36    0.32
  -8   4  -4    5.43    0.29
   0   5   4  126.78    3.32
   0   5  -4  120.87    3.59
   0  -5  -4  135.42    3.31
   0   5  -4  128.59    3.32
   0  -5  -4  126.82    3.51
   0   5  -4  139.24    3.61
   0   5   4  133.63    3.60
   0  -5   4  127.64    3.34
   0  -5  -4  128.69    3.62
  -1  -5  -4  116.94    2.95
  -1  -5  -4  114.53    3.22
   1  -5   4  119.77    3.08
   1   5  -4  109.09    2.96
   1   5  -4  117.71    3.08
  -1   5   4  111.89    2.95
   1  -5   4  114.41    2.98
  -1   5   4  116.42    3.21
   1   5  -4  115.12    3.21
  -1   5  -4  110.88    2.86
   1  -5  -4  109.44    3.03
   1   5   4  111.87    2.86
   1  -5  -4  111.72    3.12
  -1  -5   4  107.18    2.89
   1  -5  -4  114.76    2.84
   1   5   4  112.18    3.01
  -1   5  -4  110.98    3.09
  -1   5  -4  113.94    3.10
  -2  -5  -4    4.19    0.17
   2  -5   4    4.34    0.18
  -2   5   4    4.63    0.20
   2   5  -4    4.69    0.18
   2  -5   4    4.22    0.16
  -2   5   4    3.89    0.17
   2   5  -4    4.21    0.15
  -2  -5  -4    4.03    0.19
   2   5  -4    4.21    0.19
  -2   5  -4    4.15    0.17
  -2  -5   4    4.64    0.19
   2  -5  -4    4.42    0.19
   2  -5  -4    3.99    0.19
  -2   5  -4    4.02    0.17
  -2   5  -4    4.08    0.16
   2   5   4    4.05    0.16
   2  -5  -4    4.30    0.14
   2   5   4    4.58    0.18
  -2  -5   4    4.29    0.18
  -3   5   4   59.66    1.51
   3   5  -4   57.62    1.54
  -3   5   4   57.66    1.68
   3   5  -4   59.60    1.60
  -3  -5  -4   57.97    1.55
  -3  -5  -4   58.54    1.69
   3  -5   4   56.88    1.55
   3  -5   4   58.32    1.61
   3   5  -4   57.60    1.69
  -3   5   4   57.65    1.54
  -3  -5   4   55.95    1.48
   3   5   4   53.76    1.54
   3   5   4   56.61    1.43
  -3   5  -4   54.97    1.44
   3  -5  -4   54.30    1.55
   3  -5  -4   54.71    1.59
  -3   5  -4   53.62    1.56
   4   5  -4   51.82    1.55
  -4  -5  -4   50.53    1.42
   4   5  -4   55.42    1.48
   4  -5   4   52.95    1.49
  -4   5   4   54.44    1.55
  -4   5   4   54.17    1.39
   4   5  -4   51.83    1.40
   4  -5   4   51.76    1.43
  -4   5   4   52.79    1.40
  -4  -5  -4   51.11    1.55
   4   5   4   52.01    1.48
   4  -5  -4   53.44    1.49
  -4   5  -4   50.20    1.49
  -4  -5   4   51.39    1.42
  -5  -5  -4   22.71    0.76
  -5  -5  -4   21.80    0.69
  -5   5   4   23.83    0.66
   5  -5   4   22.16    0.72
  -5   5   4   23.81    0.66
   5   5  -4   23.02    0.71
  -5   5  -4   23.83    0.73
  -5   5  -4   23.07    0.70
   5  -5  -4   23.22    0.74
   5   5   4   21.63    0.72
  -5  -5   4   23.10    0.70
   6  -5   4    0.65    0.10
  -6  -5  -4    0.66    0.10
  -6  -5  -4    0.50    0.11
   6   5  -4    0.41    0.10
  -6   5  -4    0.65    0.11
   6   5   4    0.52    0.10
  -6   5  -4    0.54    0.09
   6  -5  -4    0.55    0.11
  -6  -5   4    0.62    0.11
   7  -5   4   13.27    0.51
  -7  -5  -4   13.30    0.50
  -7  -5  -4   13.85    0.55
   7   5  -4   13.08    0.51
  -7  -5   4   13.29    0.49
   7  -5  -4   12.29    0.51
   7   5   4   12.51    0.50
  -7   5  -4   13.19    0.48
  -7   5  -4   12.61    0.49
  -8  -5  -4    0.79    0.15
   8  -5   4    0.72    0.15
   8   5  -4    0.99    0.17
  -8  -5  -4    0.79    0.17
   8   5   4    0.73    0.14
  -8   5  -4    0.54    0.13
  -8   5  -4    0.61    0.14
   8  -5  -4    0.57    0.15
  -8  -5   4    1.09    0.16
   0  -6  -4   77.52    2.20
   0  -6  -4   80.58    2.28
   0   6  -4   80.08    2.09
   0   6  -4   81.21    2.26
   0   6   4   78.03    2.08
   0  -6   4   79.25    2.11
   0   6   4   82.26    2.26
   0  -6  -4   83.20    2.07
   1   6  -4   34.61    1.03
  -1  -6  -4   35.02    0.93
   1  -6   4   35.84    0.94
   1  -6   4   32.68    0.95
   1   6  -4   34.16    0.95
  -1  -6  -4   36.72    1.05
  -1   6   4   34.65    0.95
   1   6   4   36.14    1.05
  -1   6  -4   37.63    1.06
  -1   6  -4   35.62    1.04
  -1  -6   4   35.08    0.99
   1   6   4   36.11    1.02
   1  -6  -4   37.49    1.04
   1  -6  -4   37.47    0.95
   1   6   4   35.90    0.97
  -1   6  -4   34.28    0.98
   1  -6  -4   34.42    1.07
   2   6  -4   73.41    1.94
  -2   6   4   77.48    2.11
   2   6  -4   75.55    1.99
  -2  -6  -4   72.76    1.94
   2  -6   4   77.02    2.00
  -2   6   4   71.28    1.93
  -2  -6  -4   72.90    2.12
   2  -6   4   71.11    1.95
   2   6  -4   73.67    2.11
   2  -6  -4   76.33    2.16
   2  -6  -4   78.17    1.95
   2   6   4   77.69    2.09
   2   6   4   74.64    1.97
  -2   6  -4   76.15    2.14
  -2   6  -4   74.54    1.98
   2  -6  -4   73.64    2.10
  -3   6   4    8.19    0.24
  -3   6   4    7.64    0.27
   3  -6   4    7.43    0.27
  -3   6   4    7.77    0.30
  -3  -6  -4    7.24    0.31
   3   6  -4    7.22    0.27
   3   6  -4    7.56    0.31
  -3  -6  -4    7.75    0.28
   3   6  -4    7.92    0.26
   3   6   4    7.19    0.27
  -3  -6   4    7.25    0.28
  -3   6  -4    7.45    0.27
  -3   6  -4    7.18    0.26
   3  -6  -4    7.32    0.29
   3  -6  -4    6.98    0.29
   3   6   4    7.02    0.24
  -4   6   4   57.94    1.53
   4   6  -4   59.05    1.54
  -4   6   4   56.85    1.54
   4  -6   4   57.55    1.62
   4  -6   4   54.97    1.56
  -4  -6  -4   58.91    1.72
   4   6  -4   60.01    1.71
  -4  -6  -4   57.27    1.57
   4   6  -4   59.07    1.62
   4   6   4   57.41    1.61
  -4   6  -4   57.43    1.50
  -4  -6   4   56.90    1.56
   4  -6  -4   56.83    1.63
  -4   6  -4   55.65    1.64
   5  -6   4   16.69    0.55
   5   6  -4   17.07    0.55
  -5   6   4   17.63    0.52
  -5  -6  -4   16.13    0.59
  -5  -6  -4   15.72    0.53
  -5   6  -4   16.51    0.53
   5   6   4   16.24    0.55
  -5   6  -4   16.24    0.54
   5  -6  -4   15.68    0.56
  -5  -6   4   14.90    0.53
   6  -6   4    8.81    0.36
  -6  -6  -4    8.38    0.40
  -6  -6  -4    8.78    0.36
   6   6  -4    9.52    0.37
  -6   6  -4    8.76    0.35
  -6  -6   4    8.91    0.37
   6  -6  -4    9.04    0.39
  -6   6  -4    9.12    0.36
   6   6   4    8.89    0.38
  -7  -6  -4    5.29    0.28
  -7  -6  -4    5.72    0.33
   7  -6   4    5.27    0.29
   7   6   4    5.47    0.30
  -7   6  -4    6.17    0.30
  -7   6  -4    5.71    0.29
   7  -6  -4    6.04    0.32
  -7  -6   4    5.80    0.30
   8  -6   4    3.99    0.27
  -8   6  -4    4.16    0.27
   8   6   4    4.26    0.29
  -8  -6   4    4.44    0.29
   0   7  -4   44.84    1.23
   0  -7  -4   47.62    1.20
   0  -7  -4   46.36    1.29
   0  -7  -4   45.50    1.34
   0   7   4   47.09    1.32
   0   7  -4   42.63    1.31
   0   7   4   44.31    1.22
   0  -7   4   44.54    1.23
  -1   7   4  138.11    3.65
  -1   7   4  126.34    3.36
  -1  -7  -4  128.83    3.66
  -1  -7  -4  131.54    3.36
  -1  -7  -4  132.31    3.54
   1   7  -4  128.77    3.65
   1   7  -4  127.83    3.36
   1  -7   4  129.70    3.38
   1  -7  -4  134.07    3.58
   1  -7  -4  131.01    3.69
  -1   7  -4  128.54    3.67
  -1   7  -4  130.58    3.39
  -1  -7   4  128.21    3.42
   1  -7  -4  135.94    3.37
   1   7   4  133.31    3.38
  -2  -7  -4    9.11    0.30
  -2   7   4    8.89    0.31
   2  -7   4    8.32    0.30
  -2   7   4    9.16    0.33
   2  -7   4    9.22    0.28
  -2  -7  -4    8.87    0.35
   2   7  -4    8.28    0.31
   2   7  -4    9.08    0.34
   2  -7  -4    8.86    0.33
  -2   7  -4    8.43    0.31
   2  -7  -4    8.91    0.33
   2  -7  -4    8.84    0.27
  -2  -7   4    9.12    0.32
   2   7   4    8.47    0.29
  -2   7  -4    8.47    0.30
   2   7   4    8.87    0.31
   3  -7   4   70.10    1.84
   3   7  -4   66.28    1.78
  -3   7   4   69.19    1.94
  -3  -7  -4   65.01    1.95
   3   7  -4   66.16    1.95
  -3  -7  -4   67.83    1.79
   3  -7   4   66.28    1.79
  -3   7   4   65.81    1.78
   3   7   4   65.93    1.72
  -3   7  -4   65.92    1.74
   3   7   4   67.10    1.84
  -3   7  -4   62.95    1.88
   3  -7  -4   66.90    1.86
  -3  -7   4   66.75    1.78
   4  -7   4    5.30    0.23
  -4   7   4    5.73    0.23
   4  -7   4    5.49    0.24
  -4  -7  -4    5.45    0.27
   4   7  -4    5.59    0.23
   4   7  -4    5.70    0.27
  -4  -7  -4    5.49    0.24
   4   7   4    6.03    0.26
  -4   7  -4    5.90    0.23
  -4  -7   4    5.61    0.26
   4  -7  -4    5.87    0.27
  -4   7  -4    5.77    0.25
  -5  -7  -4   33.38    1.04
   5  -7   4   30.51    0.92
   5  -7   4   32.96    0.96
  -5  -7  -4   30.15    0.93
  -5   7   4   32.06    0.90
  -5  -7   4   31.17    0.94
   5   7   4   31.05    0.96
  -5   7  -4   31.45    0.97
   5  -7  -4   31.22    0.97
  -6  -7  -4   12.77    0.52
  -6  -7  -4   11.47    0.45
   6  -7   4   12.22    0.45
  -6   7  -4   12.05    0.46
   6  -7  -4   12.17    0.48
   6   7   4   11.77    0.46
  -6   7  -4   12.00    0.44
  -6  -7   4   12.10    0.46
  -7  -7  -4   13.08    0.56
  -7  -7  -4   12.69    0.50
   7  -7   4   12.96    0.50
  -7   7  -4   12.60    0.50
  -7  -7   4   12.72    0.50
  -7   7  -4   13.19    0.49
   7  -7  -4   12.65    0.52
   7   7   4   12.67    0.51
   0   8   4    1.08    0.10
   0  -8  -4    1.03    0.08
   0  -8  -4    1.03    0.10
   0  -8   4    1.00    0.10
   0   8  -4    0.95    0.10
   0   8  -4    1.05    0.10
   0  -8  -4    1.09    0.12
   1   8  -4    6.68    0.26
  -1  -8  -4    6.91    0.24
  -1  -8  -4    5.99    0.26
   1   8  -4    6.20    0.27
  -1  -8  -4    6.47    0.29
   1  -8   4    6.66    0.26
   1  -8  -4    6.43    0.26
  -1   8  -4    6.84    0.26
   1  -8  -4    5.92    0.27
  -1  -8   4    6.49    0.26
  -1   8  -4    6.72    0.26
   1   8   4    6.31    0.25
   1  -8  -4    6.55    0.22
  -2  -8  -4    7.42    0.33
   2  -8   4    7.57    0.29
   2   8  -4    8.10    0.32
   2   8  -4    7.80    0.29
  -2   8   4    7.88    0.29
  -2  -8  -4    8.29    0.29
  -2  -8   4    8.19    0.31
   2  -8  -4    8.01    0.32
   2   8   4    8.15    0.29
   2  -8  -4    7.49    0.30
  -2   8  -4    7.83    0.30
  -2   8  -4    8.10    0.30
   2   8   4    7.22    0.27
   3   8  -4   10.73    0.42
  -3   8   4   10.41    0.36
   3   8  -4   10.87    0.37
  -3  -8  -4   10.07    0.36
   3  -8   4   10.71    0.37
  -3  -8  -4   10.16    0.41
  -3   8  -4   11.05    0.38
   3   8   4   10.89    0.38
  -3  -8   4   11.22    0.40
   3   8   4   10.50    0.35
  -3   8  -4   11.09    0.39
   3  -8  -4   11.20    0.40
  -4  -8  -4    9.11    0.39
   4   8  -4    8.59    0.38
   4  -8   4    9.16    0.34
  -4  -8  -4    9.07    0.35
  -4   8   4    9.53    0.34
   4   8  -4    9.67    0.34
  -4  -8   4    9.28    0.37
   4  -8  -4    8.86    0.37
  -4   8  -4    9.56    0.36
   4   8   4    9.36    0.35
  -4   8  -4    9.57    0.33
  -5   8   4    5.53    0.25
  -5  -8  -4    5.55    0.27
  -5  -8  -4    5.94    0.31
   5  -8   4    5.40    0.26
  -5  -8   4    6.17    0.30
   5   8   4    5.69    0.28
   5  -8  -4    6.32    0.30
  -5   8  -4    6.10    0.28
  -6  -8  -4    5.10    0.27
  -6  -8  -4    5.14    0.31
  -6  -8   4    5.05    0.28
  -6   8  -4    5.25    0.28
  -6   8  -4    5.10    0.27
   6   8   4    5.65    0.29
   6  -8  -4    5.50    0.29
  -7  -8  -4    0.98    0.15
   7   8   4    0.87    0.15
   7  -8  -4    0.87    0.15
  -7   8  -4    0.80    0.13
  -7  -8   4    0.90    0.16
  -7   8  -4    0.87    0.14
   0   9  -4   34.23    1.04
   0  -9  -4   34.14    1.01
   0  -9  -4   33.92    1.06
   0   9   4   34.08    0.97
   0  -9  -4   34.97    0.94
   0  -9   4   34.50    0.98
  -1  -9  -4   19.25    0.56
   1  -9   4   18.62    0.58
  -1  -9  -4   18.30    0.59
  -1   9   4   18.58    0.57
  -1  -9  -4   19.01    0.64
   1   9  -4   17.59    0.57
   1   9  -4   18.58    0.62
  -1  -9   4   19.02    0.59
   1  -9  -4   19.13    0.60
  -1   9  -4   17.30    0.60
   1   9   4   18.35    0.57
  -1   9  -4   18.89    0.58
   1  -9  -4   19.14    0.63
  -2   9   4    5.43    0.24
   2  -9   4    5.41    0.24
  -2  -9  -4    5.12    0.27
  -2  -9  -4    5.70    0.23
   2   9  -4    5.50    0.24
   2   9  -4    5.42    0.26
  -2   9  -4    5.44    0.24
  -2  -9   4    5.67    0.26
  -2   9  -4    5.32    0.24
   2  -9  -4    6.24    0.26
   2   9   4    5.58    0.23
   2   9   4    5.93    0.24
  -3  -9  -4   24.22    0.81
  -3  -9  -4   23.90    0.72
  -3   9   4   23.64    0.71
   3   9  -4   24.24    0.80
   3   9  -4   23.76    0.72
   3  -9   4   23.44    0.72
  -3   9  -4   23.92    0.77
  -3   9  -4   24.95    0.72
   3   9   4   23.99    0.70
   3   9   4   24.15    0.74
  -3  -9   4   23.61    0.75
   3  -9  -4   24.08    0.76
  -4  -9  -4    0.90    0.14
   4   9  -4    0.99    0.11
  -4  -9  -4    0.99    0.13
  -4   9   4    0.95    0.12
   4  -9   4    0.89    0.11
  -4  -9   4    1.08    0.14
  -4   9  -4    0.89    0.11
   4   9   4    1.17    0.12
   4  -9  -4    0.84    0.12
  -4   9  -4    1.11    0.11
  -5  -9  -4   14.86    0.52
  -5  -9  -4   14.57    0.59
   5  -9   4   14.66    0.50
  -5   9   4   14.69    0.49
  -5   9  -4   14.03    0.53
   5   9   4   14.84    0.52
   5  -9  -4   15.13    0.54
  -5  -9   4   14.20    0.53
  -6  -9  -4    1.03    0.15
   6  -9  -4    0.96    0.16
   6   9   4    1.18    0.15
  -6  -9   4    1.18    0.15
  -6   9  -4    1.19    0.15
  -6   9  -4    1.39    0.15
  -7  -9  -4    9.63    0.43
   7   9   4    9.84    0.43
   7  -9  -4    9.45    0.43
  -7  -9   4    7.72    0.41
  -7   9  -4    8.80    0.40
  -7   9  -4    9.36    0.40
   0  10  -4  186.38    4.96
   0  10   4  191.03    4.96
   0  10  -4  187.42    5.38
   0 -10  -4  194.41    5.41
   0 -10  -4  202.51    4.96
   0 -10   4  188.43    4.99
   0 -10  -4  199.46    5.21
   1 -10   4   10.66    0.39
   1  10  -4   10.98    0.40
  -1 -10  -4   11.63    0.38
   1  10  -4   11.55    0.43
  -1 -10  -4   10.83    0.44
  -1 -10  -4   10.88    0.39
   1 -10  -4   11.41    0.40
  -1 -10   4   10.92    0.41
   1  10   4   11.56    0.39
  -1  10  -4   11.29    0.40
  -1  10  -4   11.24    0.42
  -2 -10  -4   67.10    2.02
   2  10  -4   69.50    2.01
  -2 -10  -4   68.96    1.92
  -2 -10  -4   70.84    1.84
   2 -10   4   66.65    1.84
  -2  10   4   67.03    1.84
   2  10  -4   67.24    1.84
  -2  10  -4   68.29    1.83
  -2  10  -4   67.87    1.97
   2 -10  -4   69.42    1.91
   2  10   4   66.71    1.81
  -2 -10   4   66.34    1.85
   3 -10   4   21.15    0.66
   3  10  -4   21.27    0.67
   3  10  -4   22.33    0.74
  -3  10   4   20.63    0.66
  -3 -10  -4   21.46    0.66
  -3 -10  -4   21.46    0.75
   3  10   4   21.80    0.69
  -3  10  -4   21.49    0.68
  -3  10  -4   21.31    0.72
  -3 -10   4   22.14    0.71
   3  10   4   22.64    0.66
   3 -10  -4   22.11    0.71
  -4 -10  -4   29.36    0.89
   4 -10   4   29.69    0.88
  -4  10   4   28.07    0.86
  -4 -10  -4   29.24    0.99
   4  10  -4   30.16    0.87
   4 -10  -4   30.56    0.93
   4  10   4   30.44    0.91
  -4  10  -4   29.80    0.94
  -4  10  -4   28.87    0.87
  -4 -10   4   28.08    0.91
   5 -10   4   22.62    0.72
  -5  10   4   22.61    0.71
  -5 -10  -4   23.41    0.75
  -5 -10   4   22.41    0.76
  -5  10  -4   23.83    0.78
   5 -10  -4   22.97    0.77
  -6 -10  -4   20.37    0.70
  -6  10  -4   20.90    0.74
   6 -10  -4   20.92    0.74
  -6 -10   4   20.80    0.73
  -6  10  -4   21.66    0.71
   0  11  -4   15.62    0.53
   0 -11   4   15.39    0.52
   0  11   4   16.37    0.52
   0  11  -4   15.06    0.55
   1  11  -4   32.56    0.97
  -1 -11  -4   34.00    0.95
  -1  11   4   33.86    0.98
   1 -11   4   32.07    0.97
   1  11  -4   34.05    1.06
  -1  11  -4   32.35    0.98
   1  11   4   34.25    0.97
  -1  11  -4   33.87    1.05
  -1 -11   4   33.56    0.99
   2  11  -4    5.25    0.29
   2  11  -4    5.02    0.25
  -2 -11  -4    5.88    0.25
  -2  11   4    5.32    0.25
   2 -11   4    5.61    0.25
   2  11   4    5.41    0.24
  -2  11  -4    5.44    0.26
  -2 -11   4    5.39    0.27
  -2  11  -4    5.22    0.25
   2 -11  -4    5.38    0.26
   3 -11   4   12.76    0.46
  -3  11   4   12.59    0.46
   3  11  -4   13.81    0.47
  -3 -11  -4   13.06    0.46
  -3  11  -4   13.57    0.48
  -3 -11   4   12.62    0.49
   3  11   4   14.61    0.46
   3 -11  -4   13.46    0.49
  -3  11  -4   13.28    0.50
  -4 -11  -4    6.39    0.30
   4 -11   4    6.66    0.29
  -4  11   4    6.56    0.29
   4  11  -4    6.28    0.29
  -4  11  -4    6.67    0.32
  -4 -11   4    6.61    0.33
   4 -11  -4    6.60    0.32
  -4  11  -4    6.68    0.30
  -5 -11  -4   21.46    0.71
  -5  11   4   21.66    0.68
   5 -11   4   20.30    0.68
  -5 -11   4   20.88    0.74
   5 -11  -4   22.33    0.74
  -5  11  -4   21.42    0.75
  -6 -11  -4    6.79    0.36
  -6 -11   4    6.29    0.34
   0  12   4    0.33    0.09
   0  12  -4    0.45    0.11
   0 -12   4    0.27    0.10
   0  12  -4    0.46    0.11
   1 -12   4    0.81    0.11
  -1  12   4    0.94    0.12
   1  12  -4    0.70    0.11
   1  12  -4    0.80    0.13
  -1  12  -4    0.87    0.12
  -1  12  -4    0.91    0.13
  -1 -12   4    0.92    0.13
   1  12   4    0.85    0.11
   2  12  -4   10.37    0.44
  -2  12   4   10.26    0.39
   2 -12   4   10.34    0.39
   2  12  -4    9.19    0.39
  -2 -12  -4    9.95    0.38
   2  12   4   10.41    0.38
  -2  12  -4    9.98    0.41
  -2 -12   4    9.94    0.41
  -2  12  -4   10.32    0.40
  -3 -12  -4    4.58    0.25
   3 -12   4    4.61    0.24
   3  12  -4    4.62    0.25
  -3  12   4    4.64    0.24
  -3  12  -4    4.73    0.25
   3  12   4    4.66    0.24
  -3 -12   4    4.59    0.26
  -3  12  -4    4.61    0.26
  -4 -12  -4   12.43    0.47
  -4  12   4   11.58    0.45
   4  12  -4   12.18    0.46
   4 -12   4   11.68    0.45
  -4  12  -4   11.83    0.48
  -4  12  -4   12.46    0.46
  -4 -12   4   11.77    0.48
   5 -12   4    6.81    0.32
  -5 -12  -4    5.79    0.32
  -5  12   4    6.23    0.30
  -5  12  -4    5.94    0.32
  -5 -12   4    6.05    0.33
   0  13  -4    0.17    0.10
   0  13   4    0.14    0.10
   0  13  -4    0.11    0.08
   0 -13   4    0.11    0.09
   1  13  -4    0.68    0.13
   1 -13   4    0.82    0.13
  -1  13   4    0.73    0.12
   1  13  -4    0.90    0.13
   1  13   4    0.92    0.13
  -1  13  -4    0.98    0.14
  -1 -13   4    0.63    0.12
  -1  13  -4    0.54    0.12
   2  13  -4    7.73    0.34
  -2  13   4    8.25    0.35
   2 -13   4    7.33    0.33
  -2  13  -4    7.68    0.35
  -2  13  -4    8.57    0.38
   2  13   4    8.27    0.35
  -2 -13   4    8.09    0.36
   3  13  -4    5.70    0.29
  -3  13   4    5.16    0.28
   3 -13   4    5.08    0.27
  -3  13  -4    5.32    0.29
  -3  13  -4    5.41    0.28
  -3 -13   4    4.79    0.29
   3  13   4    5.41    0.27
   4  13  -4    3.13    0.23
  -4 -13  -4    3.67    0.25
  -4  13   4    3.51    0.24
   4 -13   4    3.46    0.22
  -4  13  -4    3.34    0.23
  -4  13  -4    3.41    0.24
  -4 -13   4    3.45    0.26
  -5 -13  -4    1.05    0.18
   5 -13   4    0.99    0.16
  -5  13   4    1.28    0.17
  -5  13  -4    0.93    0.16
   0 -14   4    1.97    0.18
   0  14  -4    1.95    0.18
   0  14  -4    1.99    0.20
   0  14   4    2.14    0.19
  -1  14   4    6.32    0.32
   1 -14   4    6.30    0.31
   1  14  -4    6.37    0.32
  -1  14  -4    6.36    0.32
  -1  14  -4    6.47    0.34
  -1 -14   4    6.78    0.33
   1  14   4    6.86    0.32
  -2  14   4    1.98    0.18
   2 -14   4    1.46    0.17
   2  14  -4    1.50    0.17
  -2  14  -4    1.83    0.18
   2  14   4    1.17    0.16
  -2 -14   4    1.64    0.17
  -2  14  -4    1.62    0.17
   3 -14   4    1.81    0.17
   3  14  -4    1.42    0.17
  -3  14   4    1.80    0.18
   3  14   4    1.80    0.18
  -3  14  -4    1.79    0.19
  -3  14  -4    1.88    0.19
  -3 -14   4    1.86    0.20
   4  14  -4    5.39    0.30
  -4  14   4    5.27    0.30
   4 -14   4    5.23    0.29
  -4  14  -4    5.40    0.30
  -4  14  -4    5.32    0.31
   0 -15   4    0.10    0.10
   0  15   4    0.11    0.10
   0  15  -4    0.23    0.11
  -1  15   4   11.36    0.46
   1  15  -4   11.22    0.47
   1 -15   4   10.71    0.44
  -1  15  -4   10.56    0.46
  -1 -15   4   11.07    0.46
  -1  15  -4   11.05    0.48
   1  15   4   11.14    0.45
   2 -15   4    1.40    0.16
   2  15  -4    1.53    0.18
  -2  15   4    1.52    0.18
  -2  15  -4    1.75    0.19
  -2  15  -4    1.91    0.21
   2  15   4    2.02    0.20
  -2 -15   4    1.65    0.18
   3 -15   4   14.49    0.54
   3  15  -4   14.47    0.56
  -3  15  -4   13.42    0.55
  -3  15  -4   12.87    0.52
   0 -16   4   37.64    1.16
   1 -16   4    3.58    0.25
   0   0  -5   -0.01    0.02
   0   0  -5    0.03    0.02
   0   0   5    0.17    0.03
   0   0   5    0.05    0.03
   0   0  -5   -0.03    0.04
  -1   0   5   20.20    0.52
   1   0  -5   19.33    0.57
   1   0  -5   18.83    0.57
   1   0   5   19.55    0.56
   1   0   5   19.87    0.52
   1   0   5   19.03    0.52
   1   0  -5   19.35    0.57
  -1   0   5   18.68    0.53
  -2   0  -5   32.92    0.94
  -2   0  -5   33.79    0.90
   2   0   5   34.04    0.88
   2   0  -5   33.43    0.96
   2   0   5   32.83    0.95
   2   0  -5   32.79    0.97
  -2   0   5   34.54    0.89
  -2   0  -5   35.08    0.94
  -2   0   5   32.49    0.89
  -3   0  -5   16.16    0.49
  -3   0  -5   17.42    0.49
  -3   0   5   16.53    0.47
  -3   0   5   16.58    0.47
   3   0  -5   15.67    0.52
   3   0   5   16.91    0.45
  -3   0  -5   16.44    0.48
   3   0   5   16.47    0.51
   3   0  -5   15.74    0.51
  -3   0   5   16.92    0.52
   4   0  -5    9.39    0.35
  -4   0   5    9.32    0.30
  -4   0   5    9.33    0.30
   4   0   5    9.18    0.34
  -4   0  -5    8.92    0.31
  -4   0  -5    9.39    0.31
  -5   0   5    7.59    0.26
   5   0   5    7.08    0.30
  -5   0   5    7.27    0.25
   5   0  -5    6.54    0.29
  -5   0  -5    6.82    0.27
  -5   0  -5    6.86    0.27
   6   0   5   11.66    0.45
  -6   0   5   12.83    0.41
   6   0  -5   11.71    0.45
  -6   0  -5   11.98    0.42
  -6   0  -5   11.92    0.44
   7   0   5    2.23    0.20
  -7   0   5    2.39    0.17
  -7   0  -5    2.50    0.19
  -7   0  -5    2.24    0.17
   7   0  -5    2.30    0.19
   8   0   5    2.60    0.23
  -8   0  -5    2.55    0.21
  -8   0  -5    2.55    0.20
   8   0  -5    3.10    0.25
   0  -1  -5   67.42    1.89
   0   1  -5   64.39    1.88
   0  -1   5   68.19    1.75
   0  -1  -5   67.06    1.86
   0   1   5   68.44    1.74
   0  -1   5   68.13    1.75
   0  -1  -5   71.64    1.88
   0   1  -5   70.39    1.88
   0   1   5   65.39    1.75
   0   1  -5   67.90    1.85
   1  -1   5   97.27    2.50
   1   1  -5   95.26    2.64
  -1  -1  -5   91.31    2.70
   1  -1   5   95.63    2.64
   1   1  -5   97.90    2.71
  -1   1   5  101.96    2.50
  -1  -1  -5  100.98    2.51
  -1  -1  -5  102.06    2.70
  -1   1   5   96.56    2.51
   1   1  -5   99.81    2.71
   1  -1   5   98.84    2.51
   1  -1  -5   96.92    2.75
   1  -1  -5   97.18    2.69
   1   1   5  101.45    2.68
   1   1   5   97.82    2.53
  -1  -1   5  102.60    2.54
   2   1  -5    7.69    0.27
  -2   1   5    7.94    0.22
   2  -1   5    7.55    0.26
  -2   1   5    7.34    0.24
   2   1  -5    7.56    0.26
  -2  -1  -5    7.00    0.24
   2  -1   5    8.23    0.23
   2  -1   5    7.79    0.25
  -2  -1  -5    7.39    0.24
  -2  -1  -5    8.15    0.24
   2   1   5    8.47    0.24
  -2  -1   5    8.02    0.26
  -2   1  -5    8.41    0.24
  -2   1  -5    7.90    0.23
  -2  -1   5    7.95    0.25
   2   1   5    7.82    0.27
   2  -1  -5    7.67    0.27
  -3  -1  -5    3.78    0.15
  -3  -1  -5    3.74    0.16
  -3   1   5    3.54    0.14
   3   1  -5    3.41    0.17
   3  -1   5    3.45    0.16
  -3   1   5    3.73    0.15
   3   1  -5    3.83    0.18
  -3   1   5    4.04    0.17
  -3  -1  -5    3.38    0.14
  -3  -1   5    3.74    0.17
   3  -1  -5    3.56    0.17
  -3   1  -5    3.50    0.14
   3   1   5    3.56    0.12
  -3   1  -5    3.63    0.13
  -3   1  -5    3.48    0.16
   3  -1  -5    3.42    0.17
  -3  -1   5    3.57    0.15
  -3   1  -5    3.82    0.14
   3   1   5    3.67    0.17
  -3  -1   5    3.40    0.15
   4   1  -5   11.44    0.41
  -4  -1  -5   11.65    0.38
   4  -1   5   11.68    0.39
   4   1  -5   11.75    0.40
  -4  -1  -5   10.42    0.36
  -4   1   5   10.97    0.35
  -4   1   5   11.62    0.35
  -4   1  -5   12.00    0.39
   4   1   5   11.47    0.41
   4  -1  -5   12.50    0.42
  -4  -1   5   12.14    0.38
  -4   1  -5   11.71    0.39
  -4  -1   5   12.01    0.37
   5   1  -5   14.35    0.50
   5  -1   5   13.66    0.48
  -5   1   5   13.94    0.43
  -5  -1  -5   13.15    0.44
  -5   1   5   13.59    0.41
  -5  -1  -5   13.76    0.46
   5   1  -5   13.72    0.48
   5  -1  -5   12.93    0.47
  -5  -1   5   13.45    0.42
  -5   1  -5   13.28    0.44
  -5   1  -5   13.20    0.44
   5   1   5   13.37    0.47
   6  -1   5   22.34    0.76
   6   1  -5   23.60    0.76
  -6  -1  -5   23.20    0.75
  -6  -1  -5   22.51    0.71
  -6   1   5   25.66    0.70
   6  -1  -5   23.33    0.76
  -6   1  -5   22.78    0.74
   6   1   5   23.43    0.76
  -6   1  -5   22.30    0.71
  -6  -1   5   23.88    0.70
   7  -1   5   38.21    1.17
  -7  -1  -5   36.24    1.16
  -7  -1  -5   36.80    1.10
   7   1  -5   39.06    1.17
   7  -1  -5   37.19    1.17
   7   1   5   36.74    1.16
  -7   1  -5   38.39    1.16
  -7   1  -5   36.19    1.09
  -7  -1   5   39.02    1.09
   8   1  -5    2.12    0.21
   8  -1   5    2.03    0.20
  -8  -1  -5    1.94    0.19
  -8  -1  -5    2.13    0.20
   8  -1  -5    1.77    0.19
  -8   1  -5    1.75    0.17
   8   1   5    2.03    0.20
  -8   1  -5    2.19    0.18
   0   2  -5   30.15    0.81
   0   2   5   28.23    0.77
   0  -2  -5   29.69    0.83
   0  -2  -5   27.89    0.75
   0   2  -5   27.97    0.81
   0  -2  -5   29.31    0.83
   0  -2   5   28.61    0.78
   0  -2   5   29.45    0.78
   0  -2  -5   28.29    0.83
   0   2  -5   30.24    0.82
   1  -2   5  101.06    2.70
   1   2  -5  106.75    2.93
   1   2  -5  107.80    2.93
   1   2  -5  108.36    2.85
  -1  -2  -5  106.36    2.92
   1  -2   5  104.70    2.72
   1  -2   5  107.30    2.84
  -1  -2  -5  106.15    2.93
  -1  -2  -5  102.87    2.70
   1   2   5  102.83    2.69
   1  -2  -5  105.50    2.86
   1  -2  -5  105.78    2.92
   1   2   5  102.97    2.84
  -1  -2   5  109.18    2.71
  -2   2   5   72.63    1.89
  -2  -2  -5   74.11    2.06
   2  -2   5   76.44    2.01
   2  -2   5   73.23    1.92
   2   2  -5   69.61    2.07
  -2  -2  -5   76.55    1.91
  -2  -2  -5   73.75    2.06
  -2   2   5   76.88    2.07
   2   2  -5   71.60    2.01
  -2   2   5   73.15    1.91
  -2  -2   5   74.25    1.95
   2  -2  -5   71.76    2.11
  -2   2  -5   78.37    2.08
  -2   2  -5   75.68    1.93
   2   2   5   76.57    1.92
  -2   2  -5   75.29    2.08
  -2  -2   5   73.17    1.94
   2  -2  -5   74.68    2.06
   2   2   5   75.51    2.05
  -3  -2  -5   46.90    1.34
   3   2  -5   47.01    1.36
  -3  -2  -5   46.58    1.25
   3   2  -5   47.27    1.31
  -3   2   5   47.41    1.24
   3  -2   5   46.07    1.31
  -3   2   5   47.71    1.36
  -3  -2  -5   45.47    1.33
   3  -2   5   46.31    1.25
  -3   2   5   47.39    1.22
   3   2   5   49.77    1.24
  -3   2  -5   46.77    1.35
  -3   2  -5   46.39    1.25
  -3  -2   5   49.06    1.39
   3  -2  -5   48.00    1.37
  -3  -2   5   49.01    1.28
  -3  -2   5   47.45    1.27
   3   2   5   47.28    1.36
   3  -2  -5   47.10    1.39
  -3   2  -5   50.10    1.35
  -4   2   5   23.57    0.64
  -4  -2  -5   22.92    0.67
  -4  -2  -5   23.06    0.70
   4   2  -5   21.93    0.70
   4  -2   5   22.58    0.70
   4   2  -5   23.14    0.73
  -4   2   5   23.56    0.65
  -4  -2   5   23.81    0.65
  -4   2  -5   23.31    0.68
   4   2   5   22.17    0.71
  -4   2  -5   23.35    0.69
   4  -2  -5   23.59    0.73
   4  -2  -5   23.01    0.72
  -4  -2   5   23.23    0.67
   5  -2   5   11.43    0.41
  -5  -2  -5   11.91    0.41
  -5   2   5   12.12    0.36
   5   2  -5   10.58    0.41
  -5   2   5   11.08    0.36
  -5  -2  -5   11.25    0.39
   5   2  -5   11.25    0.43
   5  -2  -5   10.99    0.42
  -5   2  -5   11.13    0.39
  -5   2  -5   11.52    0.39
   5   2   5   10.95    0.41
  -5  -2   5   11.32    0.38
  -6   2   5   18.15    0.56
   6  -2   5   17.58    0.62
  -6  -2  -5   18.57    0.59
   6   2  -5   18.77    0.62
  -6  -2  -5   18.40    0.62
   6   2   5   17.49    0.60
  -6  -2   5   18.39    0.57
  -6   2  -5   17.71    0.57
  -6   2  -5   17.19    0.58
   6  -2  -5   16.57    0.60
   7  -2   5    7.15    0.34
   7   2  -5    7.91    0.35
  -7  -2  -5    7.26    0.32
  -7  -2  -5    8.17    0.35
  -7   2  -5    7.15    0.32
   7  -2  -5    8.05    0.37
   7   2   5    7.36    0.35
  -7  -2   5    7.85    0.33
  -7   2  -5    7.67    0.33
   8   2  -5    2.11    0.21
   8  -2   5    1.95    0.20
  -8  -2  -5    2.13    0.21
  -8  -2  -5    2.12    0.19
   8  -2  -5    2.28    0.21
  -8   2  -5    2.63    0.20
  -8  -2   5    2.38    0.20
   8   2   5    2.43    0.21
  -8   2  -5    1.96    0.19
   0  -3  -5    1.03    0.05
   0   3  -5    0.98    0.07
   0  -3  -5    0.89    0.08
   0  -3  -5    0.94    0.08
   0   3   5    1.04    0.07
   0   3  -5    1.00    0.06
   0   3  -5    1.01    0.07
   0  -3   5    1.01    0.08
   0  -3   5    0.89    0.07
   1  -3   5    0.19    0.04
  -1  -3  -5    0.13    0.04
   1  -3   5    0.15    0.03
   1   3  -5    0.16    0.04
  -1   3   5    0.20    0.04
   1   3  -5    0.23    0.04
  -1  -3  -5    0.21    0.03
  -1  -3  -5    0.19    0.04
   1   3  -5    0.29    0.05
  -1  -3   5    0.28    0.05
  -1   3  -5    0.21    0.02
  -1   3  -5    0.27    0.03
   1   3   5    0.17    0.04
  -1   3  -5    0.17    0.04
   1  -3  -5    0.11    0.05
   1   3   5    0.23    0.05
  -1  -3   5    0.24    0.05
   1  -3  -5    0.24    0.05
  -2   3   5  125.97    3.10
  -2   3   5  119.81    3.12
  -2  -3  -5  123.81    3.12
   2   3  -5  118.58    3.28
  -2   3   5  123.97    3.39
  -2  -3  -5  122.93    3.38
   2   3  -5  122.23    3.39
  -2  -3  -5  115.06    3.38
   2  -3   5  123.72    3.28
   2  -3  -5  116.81    3.33
   2  -3  -5  126.53    3.42
  -2   3  -5  121.74    3.14
  -2   3  -5  128.46    3.38
   2   3   5  123.61    3.33
   2   3   5  123.78    3.13
  -2  -3   5  122.18    3.17
  -2  -3   5  123.67    3.15
  -2   3  -5  119.71    3.39
   3   3  -5    9.25    0.33
  -3  -3  -5    8.83    0.31
   3  -3   5    8.89    0.30
  -3  -3  -5    8.86    0.29
  -3   3   5    9.58    0.33
  -3   3   5    8.88    0.26
   3   3  -5    8.66    0.31
  -3   3   5    8.96    0.29
   3  -3   5    9.58    0.31
   3  -3  -5    8.94    0.34
   3   3   5    9.87    0.28
   3   3   5    9.35    0.33
  -3   3  -5    9.34    0.30
  -3  -3   5    8.92    0.30
  -3   3  -5    9.42    0.30
   3  -3  -5    9.45    0.33
  -3   3  -5   10.08    0.29
  -3  -3   5    9.17    0.31
  -4   3   5   42.81    1.18
  -4  -3  -5   44.16    1.20
   4   3  -5   41.82    1.25
   4   3  -5   43.67    1.31
   4  -3   5   45.36    1.26
  -4   3   5   45.83    1.17
  -4  -3  -5   44.22    1.29
   4  -3  -5   45.10    1.28
   4  -3  -5   41.61    1.25
   4   3   5   42.96    1.24
  -4  -3   5   42.78    1.15
  -4   3  -5   42.09    1.23
  -4   3  -5   43.35    1.18
  -4  -3   5   42.88    1.18
   5   3  -5   20.75    0.66
   5   3  -5   20.65    0.69
   5  -3   5   19.18    0.65
  -5   3   5   21.28    0.60
  -5  -3  -5   20.72    0.63
  -5   3   5   20.85    0.59
  -5  -3  -5   20.76    0.67
  -5   3  -5   20.81    0.64
   5   3   5   19.88    0.65
  -5  -3   5   20.54    0.62
  -5   3  -5   19.41    0.62
   5  -3  -5   20.15    0.67
   6  -3   5    5.78    0.28
   6   3  -5    5.87    0.28
  -6  -3  -5    5.72    0.26
  -6  -3  -5    5.62    0.28
  -6  -3   5    6.57    0.27
   6   3   5    5.97    0.29
   6  -3  -5    6.04    0.30
  -6   3  -5    6.54    0.28
  -6   3  -5    5.95    0.27
  -7  -3  -5    2.06    0.17
  -7  -3  -5    2.00    0.18
   7   3  -5    2.14    0.19
   7  -3   5    2.26    0.19
   7  -3  -5    2.09    0.19
   7   3   5    2.21    0.19
  -7   3  -5    2.12    0.17
  -7   3  -5    2.14    0.18
  -7  -3   5    2.35    0.18
  -8  -3  -5    4.35    0.29
  -8  -3  -5    4.58    0.27
   8   3  -5    4.67    0.28
   8  -3   5    4.52    0.29
   8   3   5    4.61    0.29
  -8   3  -5    4.64    0.27
  -8  -3   5    4.96    0.28
  -8   3  -5    4.66    0.27
   8  -3  -5    4.26    0.29
   0   4  -5    0.22    0.04
   0  -4  -5   -0.01    0.04
   0   4  -5    0.05    0.03
   0   4   5    0.01    0.03
   0   4  -5    0.01    0.03
   0  -4   5    0.00    0.03
   0  -4  -5    0.06    0.05
   0   4  -5    0.17    0.04
   0  -4  -5    0.02    0.02
  -1   4   5   32.50    0.90
  -1  -4  -5   33.45    0.88
   1  -4   5   33.17    0.91
   1   4  -5   33.95    0.97
   1   4  -5   34.04    0.92
   1  -4   5   35.23    0.92
   1   4  -5   32.21    0.90
  -1  -4  -5   32.84    0.98
  -1   4  -5   35.10    0.92
   1   4   5   34.54    0.92
   1   4   5   34.45    0.98
  -1  -4   5   34.83    0.94
  -1   4  -5   34.28    0.97
  -1   4  -5   35.17    0.97
   1  -4  -5   33.13    0.99
   1  -4  -5   32.87    1.00
  -2  -4  -5   45.15    1.41
  -2   4   5   51.11    1.41
   2  -4   5   46.80    1.31
   2  -4   5   49.11    1.35
   2   4  -5   49.71    1.35
  -2   4   5   51.11    1.26
   2   4  -5   48.75    1.41
  -2   4   5   48.55    1.30
  -2  -4  -5   51.61    1.30
  -2   4  -5   47.31    1.34
  -2   4  -5   48.27    1.26
   2   4   5   47.34    1.34
   2   4   5   47.25    1.25
  -2   4  -5   47.94    1.33
   2  -4  -5   44.78    1.35
   2  -4  -5   49.06    1.38
  -2  -4   5   48.85    1.28
   3   4  -5   57.72    1.65
  -3   4   5   56.80    1.50
   3  -4   5   59.32    1.58
   3  -4   5   50.96    1.51
  -3  -4  -5   55.82    1.64
  -3   4   5   56.08    1.64
  -3  -4  -5   58.29    1.51
  -3   4   5   60.61    1.48
   3   4  -5   57.21    1.58
  -3  -4   5   60.44    1.55
   3   4   5   58.82    1.62
  -3   4  -5   58.28    1.51
  -3   4  -5   54.68    1.62
   3  -4  -5   57.58    1.66
   3   4   5   59.06    1.50
   3  -4  -5   55.16    1.63
  -4   4   5    0.79    0.07
   4   4  -5    0.43    0.07
  -4  -4  -5    0.64    0.08
   4   4  -5    0.61    0.09
   4   4  -5    0.52    0.08
   4  -4   5    0.58    0.08
  -4   4   5    0.58    0.08
  -4  -4  -5    0.62    0.09
   4  -4   5    0.55    0.08
  -4  -4   5    0.57    0.09
   4  -4  -5    0.59    0.09
   4  -4  -5    0.44    0.09
  -4   4  -5    0.66    0.07
   4   4   5    0.58    0.08
  -5  -4  -5   21.06    0.70
   5  -4   5   21.03    0.68
   5   4  -5   22.13    0.68
  -5  -4  -5   21.30    0.65
  -5   4   5   21.36    0.62
   5  -4  -5   21.90    0.71
  -5  -4   5   21.77    0.66
  -5   4  -5   22.08    0.68
   5   4   5   20.12    0.69
  -5   4  -5   21.89    0.66
   6   4  -5   20.52    0.66
  -6  -4  -5   19.44    0.63
  -6  -4  -5   19.28    0.68
   6  -4   5   19.07    0.65
  -6   4  -5   18.62    0.62
   6  -4  -5   19.27    0.67
  -6  -4   5   19.75    0.63
  -6   4  -5   19.92    0.65
   6   4   5   20.06    0.67
   7   4  -5    7.90    0.36
  -7  -4  -5    7.98    0.38
  -7  -4  -5    7.42    0.34
   7  -4   5    8.12    0.36
   7   4   5    8.48    0.38
   7  -4  -5    8.79    0.40
  -7   4  -5    7.67    0.35
  -7   4  -5    8.11    0.35
  -7  -4   5    8.87    0.37
   8  -4   5   14.80    0.58
  -8  -4  -5   14.54    0.60
   8   4  -5   15.19    0.58
  -8  -4  -5   14.97    0.56
   8  -4  -5   13.41    0.57
   8   4   5   13.73    0.57
  -8  -4   5   14.54    0.54
  -8   4  -5   14.39    0.55
  -8   4  -5   14.55    0.53
   0  -5  -5    1.86    0.12
   0  -5  -5    1.87    0.08
   0   5   5    1.78    0.11
   0   5  -5    1.69    0.11
   0   5  -5    1.85    0.11
   0  -5   5    1.93    0.12
   0  -5  -5    1.55    0.11
   0   5  -5    1.77    0.07
   0   5  -5    1.71    0.10
   1   5  -5   21.37    0.67
  -1  -5  -5   22.42    0.61
  -1   5   5   22.05    0.67
   1  -5   5   21.61    0.63
   1   5  -5   22.04    0.63
  -1   5   5   21.85    0.63
  -1  -5  -5   21.20    0.68
   1   5  -5   23.40    0.61
   1  -5   5   23.38    0.62
  -1   5  -5   23.56    0.67
  -1  -5   5   22.13    0.65
   1   5   5   22.28    0.63
   1  -5  -5   21.67    0.69
   1  -5  -5   23.44    0.69
  -1   5  -5   22.61    0.64
   1  -5  -5   22.77    0.59
   1   5   5   22.05    0.67
  -1   5  -5   22.55    0.66
  -2   5   5   11.07    0.38
  -2   5   5   11.76    0.31
   2  -5   5   10.95    0.36
  -2   5   5   11.05    0.36
   2  -5   5   11.62    0.35
   2   5  -5   11.50    0.39
   2   5  -5   11.58    0.34
  -2  -5  -5   11.39    0.35
  -2  -5  -5   11.40    0.39
   2   5  -5   10.52    0.36
  -2   5  -5   11.00    0.35
   2   5   5   11.43    0.34
  -2   5  -5   10.66    0.35
   2  -5  -5   11.13    0.39
  -2   5  -5   11.07    0.35
   2   5   5   10.89    0.37
   2  -5  -5   10.97    0.38
  -2  -5   5   10.94    0.36
  -3  -5  -5   31.74    0.89
  -3   5   5   33.41    0.86
  -3   5   5   32.42    0.90
   3   5  -5   32.09    0.99
   3  -5   5   33.33    0.93
   3  -5   5   31.43    0.90
   3   5  -5   31.98    0.90
   3   5  -5   33.10    0.92
  -3  -5  -5   32.23    0.98
  -3   5  -5   31.66    0.94
  -3   5  -5   33.51    0.89
  -3  -5   5   32.13    0.92
   3   5   5   32.80    0.87
   3  -5  -5   32.37    0.97
   3   5   5   31.87    0.95
   3  -5  -5   33.23    0.99
   4   5  -5    2.26    0.14
  -4  -5  -5    2.40    0.16
   4   5  -5    2.47    0.17
   4  -5   5    2.56    0.15
   4   5  -5    2.49    0.15
   4  -5   5    2.23    0.14
  -4  -5  -5    2.30    0.14
  -4   5   5    2.26    0.14
  -4  -5   5    2.32    0.15
  -4   5  -5    2.37    0.13
   4   5   5    2.29    0.16
   4  -5  -5    1.98    0.16
  -5  -5  -5   12.61    0.48
   5  -5   5   13.03    0.45
  -5   5   5   13.00    0.42
  -5  -5  -5   12.61    0.44
   5   5  -5   12.72    0.44
   5  -5  -5   12.43    0.46
  -5   5  -5   11.33    0.42
   5   5   5   12.31    0.45
  -5  -5   5   12.41    0.43
  -5   5  -5   12.42    0.43
   6  -5   5   16.31    0.58
  -6  -5  -5   17.73    0.62
   6   5  -5   17.09    0.58
  -6  -5  -5   15.95    0.56
  -6   5  -5   17.33    0.57
   6  -5  -5   16.66    0.60
  -6   5  -5   16.90    0.56
  -6  -5   5   15.94    0.56
   6   5   5   16.77    0.59
   7   5  -5    3.26    0.23
  -7  -5  -5    3.56    0.25
   7  -5   5    3.58    0.23
  -7  -5  -5    3.35    0.22
   7   5   5    3.27    0.23
  -7  -5   5    3.53    0.23
  -7   5  -5    3.37    0.21
  -7   5  -5    3.17    0.22
   7  -5  -5    3.24    0.24
   8  -5   5   19.23    0.70
  -8  -5  -5   19.52    0.75
  -8   5  -5   17.32    0.63
   8   5   5   15.67    0.64
  -8  -5   5   18.33    0.63
   0   6   5   40.89    1.09
   0   6  -5   40.20    1.10
   0  -6  -5   39.36    1.19
   0  -6  -5   42.45    1.06
   0  -6  -5   39.93    1.16
   0  -6   5   39.69    1.11
   0   6  -5   40.16    1.17
  -1   6   5    5.23    0.22
  -1   6   5    5.15    0.21
   1   6  -5    5.13    0.21
  -1  -6  -5    5.13    0.23
   1  -6   5    5.92    0.22
  -1  -6  -5    5.62    0.19
   1   6  -5    5.45    0.22
   1  -6   5    5.55    0.17
  -1  -6  -5    5.32    0.23
   1  -6  -5    5.52    0.24
  -1   6  -5    5.62    0.21
   1   6   5    5.40    0.21
   1  -6  -5    5.76    0.17
   1  -6  -5    5.99    0.24
  -1  -6   5    5.49    0.23
  -1   6  -5    5.32    0.21
   2  -6   5    1.15    0.08
  -2  -6  -5    1.15    0.09
   2   6  -5    0.91    0.10
   2   6  -5    1.01    0.09
  -2  -6  -5    1.12    0.11
  -2   6   5    0.96    0.09
   2  -6   5    1.11    0.09
  -2  -6   5    1.22    0.10
   2   6   5    1.16    0.09
  -2   6  -5    1.00    0.08
   2  -6  -5    1.19    0.11
   2  -6  -5    1.06    0.10
   2   6   5    1.21    0.10
  -2   6  -5    1.16    0.10
   3  -6   5   16.35    0.47
   3   6  -5   14.79    0.46
  -3  -6  -5   14.06    0.51
  -3   6   5   14.44    0.46
   3  -6   5   14.83    0.47
   3   6  -5   14.86    0.51
  -3  -6  -5   14.15    0.46
   3   6   5   15.71    0.50
  -3   6  -5   15.09    0.46
   3  -6  -5   14.45    0.51
  -3   6  -5   15.21    0.48
  -3  -6   5   14.91    0.49
   3   6   5   15.65    0.45
   3  -6  -5   15.27    0.52
   4  -6   5   15.93    0.51
   4   6  -5   16.57    0.50
  -4   6   5   16.10    0.50
   4  -6   5   17.02    0.52
  -4  -6  -5   16.13    0.57
  -4  -6  -5   15.58    0.51
   4   6  -5   15.89    0.57
   4  -6  -5   14.83    0.53
  -4  -6   5   15.35    0.51
   4   6   5   16.16    0.52
  -4   6  -5   15.12    0.50
  -5  -6  -5    6.03    0.30
   5  -6   5    6.06    0.27
  -5  -6  -5    6.09    0.27
  -5   6   5    5.91    0.25
   5   6   5    5.44    0.27
  -5  -6   5    5.72    0.26
   5  -6  -5    5.42    0.27
  -6  -6  -5    9.97    0.43
   6  -6   5    9.51    0.39
  -6  -6  -5    9.23    0.37
   6  -6  -5    9.07    0.40
  -6   6  -5    8.58    0.35
  -6  -6   5    8.41    0.36
   6   6   5    8.96    0.38
  -6   6  -5    8.68    0.35
  -7  -6  -5    3.45    0.23
   7  -6   5    2.98    0.21
  -7  -6  -5    3.40    0.26
  -7  -6   5    3.28    0.24
  -7   6  -5    3.50    0.22
  -7   6  -5    3.39    0.22
   7  -6  -5    3.00    0.23
   7   6   5    3.04    0.23
  -8  -6  -5   13.01    0.57
   8  -6   5   11.68    0.50
  -8  -6   5   12.36    0.51
   0   7  -5   73.14    2.09
   0   7  -5   74.13    1.94
   0  -7  -5   70.81    2.04
   0   7   5   73.56    1.93
   0  -7   5   73.60    1.96
   0  -7  -5   71.83    2.11
   0  -7  -5   77.89    1.91
  -1  -7  -5   19.05    0.63
   1  -7   5   18.07    0.57
   1   7  -5   18.87    0.61
   1   7  -5   19.24    0.57
  -1  -7  -5   19.33    0.54
  -1  -7  -5   19.82    0.61
  -1   7   5   18.99    0.57
  -1   7  -5   17.83    0.56
   1   7   5   18.70    0.55
  -1   7  -5   19.07    0.59
  -1  -7   5   18.30    0.57
   1  -7  -5   19.80    0.62
   1  -7  -5   18.42    0.59
   2   7  -5   57.00    1.68
  -2  -7  -5   58.85    1.53
   2   7  -5   53.24    1.54
  -2   7   5   60.04    1.55
   2  -7   5   57.81    1.55
  -2  -7  -5   59.23    1.70
  -2  -7   5   56.89    1.57
   2   7   5   56.81    1.53
  -2   7  -5   60.47    1.66
   2  -7  -5   60.39    1.70
  -2   7  -5   57.44    1.55
   2   7   5   56.35    1.62
   2  -7  -5   58.24    1.65
  -3  -7  -5   49.56    1.39
   3   7  -5   50.60    1.52
   3   7  -5   51.08    1.39
  -3  -7  -5   51.62    1.53
   3  -7   5   52.98    1.40
  -3   7   5   51.95    1.39
   3  -7  -5   52.12    1.51
  -3  -7   5   50.40    1.44
  -3   7  -5   52.69    1.41
   3   7   5   52.01    1.38
   3  -7  -5   54.32    1.54
   3   7   5   50.39    1.48
  -3   7  -5   53.44    1.51
   4   7  -5   18.10    0.65
   4  -7   5   19.00    0.59
   4   7  -5   19.08    0.58
  -4  -7  -5   18.86    0.59
  -4  -7  -5   19.62    0.66
   4  -7   5   18.86    0.59
  -4   7   5   18.92    0.58
   4  -7  -5   19.02    0.64
  -4   7  -5   19.91    0.62
  -4  -7   5   18.62    0.62
   4   7   5   19.37    0.63
  -5  -7  -5    3.55    0.20
  -5  -7  -5    3.37    0.23
   5  -7   5    3.95    0.21
  -5   7   5    3.52    0.19
   5  -7   5    3.87    0.21
   5   7   5    3.46    0.21
  -5  -7   5    3.74    0.22
  -5   7  -5    3.75    0.20
   5  -7  -5    3.79    0.23
  -6  -7  -5    8.88    0.42
  -6  -7  -5    9.03    0.37
  -6   7  -5    8.22    0.35
   6   7   5    8.91    0.38
  -6   7  -5    8.27    0.35
  -6  -7   5    8.44    0.37
   6  -7  -5    8.24    0.38
  -7  -7  -5    0.96    0.18
  -7  -7  -5    1.01    0.15
   7   7   5    1.21    0.16
  -7  -7   5    1.13    0.17
  -7   7  -5    0.81    0.13
   7  -7  -5    0.97    0.16
  -7   7  -5    1.01    0.14
   0   8  -5   93.80    2.47
   0  -8  -5   93.69    2.59
   0  -8  -5   96.47    2.43
   0  -8  -5   92.31    2.68
   0   8  -5   93.57    2.66
   0  -8   5   95.02    2.48
   0   8   5   92.93    2.45
  -1  -8  -5    4.16    0.18
   1   8  -5    3.89    0.20
   1  -8   5    4.29    0.20
  -1  -8  -5    3.89    0.20
  -1  -8  -5    4.05    0.22
   1   8  -5    4.10    0.20
  -1   8   5    4.25    0.19
   1  -8  -5    3.77    0.20
  -1  -8   5    3.49    0.19
   1   8   5    3.55    0.18
   1  -8  -5    3.93    0.19
  -1   8  -5    3.74    0.18
  -1   8  -5    3.73    0.18
  -2  -8  -5   61.69    1.86
   2  -8   5   64.08    1.71
  -2   8   5   61.20    1.70
   2   8  -5   65.68    1.71
  -2  -8  -5   64.56    1.69
   2   8  -5   63.46    1.85
  -2   8  -5   63.04    1.69
   2   8   5   61.85    1.76
   2  -8  -5   64.51    1.78
  -2   8  -5   62.97    1.81
  -2  -8   5   64.11    1.71
   2   8   5   61.22    1.66
   3  -8   5    9.95    0.35
  -3   8   5    9.72    0.35
  -3  -8  -5    9.80    0.35
  -3  -8  -5    8.76    0.39
   3   8  -5   10.16    0.35
   3   8  -5    9.99    0.39
  -3   8  -5    9.25    0.33
   3  -8  -5    9.42    0.37
  -3  -8   5    9.49    0.36
  -3   8  -5    9.21    0.34
   3   8   5    9.30    0.31
   3   8   5    9.35    0.35
   4   8  -5   32.11    1.03
   4   8  -5   33.22    0.93
   4  -8   5   31.72    0.94
  -4   8   5   31.57    0.92
  -4  -8  -5   32.87    0.94
  -4  -8  -5   32.48    1.04
  -4   8  -5   31.68    1.01
  -4   8  -5   33.87    0.94
   4   8   5   34.24    1.01
   4  -8  -5   33.63    1.02
  -4  -8   5   32.68    0.98
  -5   8   5    0.95    0.12
  -5  -8  -5    1.02    0.12
  -5  -8  -5    0.94    0.15
   5  -8   5    1.05    0.13
  -5   8  -5    0.97    0.12
  -5  -8   5    0.88    0.12
   5  -8  -5    1.16    0.13
   5   8   5    0.98    0.13
  -6  -8  -5   51.05    1.57
  -6  -8  -5   48.01    1.42
   6  -8  -5   47.67    1.46
   6   8   5   48.38    1.44
  -6   8  -5   49.35    1.38
  -6  -8   5   48.62    1.40
  -6   8  -5   45.53    1.44
  -7  -8  -5   12.38    0.50
  -7  -8  -5   12.10    0.56
   7  -8  -5   11.62    0.50
  -7  -8   5   11.56    0.48
  -7   8  -5   11.94    0.48
  -7   8  -5   11.64    0.46
   7   8   5   11.99    0.50
   0  -9  -5   21.75    0.67
   0  -9   5   20.98    0.65
   0   9   5   20.74    0.63
   0  -9  -5   21.52    0.71
   0   9  -5   20.06    0.68
  -1  -9  -5   47.00    1.37
   1   9  -5   47.17    1.41
   1  -9   5   44.54    1.31
  -1  -9  -5   49.15    1.44
  -1  -9  -5   50.31    1.28
  -1   9   5   47.70    1.30
   1   9  -5   45.96    1.31
   1  -9  -5   48.03    1.36
  -1   9  -5   45.69    1.39
   1   9   5   47.56    1.29
   1  -9  -5   47.39    1.42
  -1  -9   5   47.18    1.32
  -1   9  -5   47.14    1.30
  -2  -9  -5   23.73    0.78
  -2  -9  -5   23.46    0.68
  -2   9   5   22.88    0.69
   2   9  -5   22.77    0.70
   2   9  -5   22.95    0.76
   2  -9   5   23.12    0.70
   2   9   5   24.40    0.70
  -2   9  -5   24.46    0.72
  -2   9  -5   24.38    0.76
   2  -9  -5   24.12    0.76
  -2  -9   5   22.66    0.73
   3  -9   5    7.96    0.31
   3   9  -5    7.80    0.31
  -3  -9  -5    7.94    0.36
  -3  -9  -5    7.87    0.31
  -3   9   5    7.42    0.30
   3   9  -5    7.74    0.35
  -3  -9   5    7.68    0.33
   3   9   5    7.76    0.29
   3   9   5    8.37    0.32
   3  -9  -5    8.15    0.34
  -3   9  -5    7.84    0.32
  -3   9  -5    7.93    0.31
  -4  -9  -5   18.56    0.68
  -4   9   5   17.78    0.58
   4  -9   5   18.61    0.59
  -4  -9  -5   18.48    0.60
   4   9  -5   18.56    0.59
   4   9   5   19.11    0.63
  -4  -9   5   18.52    0.63
  -4   9  -5   18.36    0.63
  -4   9  -5   19.84    0.60
   4  -9  -5   19.25    0.65
  -5  -9  -5   10.36    0.41
  -5   9   5   10.27    0.38
  -5  -9  -5   10.71    0.47
   5  -9   5   11.15    0.41
  -5   9  -5   10.49    0.41
   5   9   5   10.88    0.41
  -5  -9   5   10.03    0.41
   5  -9  -5    9.55    0.42
  -6  -9  -5   19.50    0.75
  -6  -9  -5   20.12    0.68
   6  -9  -5   19.71    0.73
  -6  -9   5   20.56    0.72
   6   9   5   20.93    0.72
  -6   9  -5   21.79    0.70
  -6   9  -5   21.20    0.72
  -7  -9  -5   23.76    0.81
   7   9   5   23.79    0.83
   7  -9  -5   24.83    0.85
  -7   9  -5   24.16    0.84
   0 -10  -5    1.06    0.12
   0  10  -5    1.27    0.12
   0 -10   5    0.84    0.11
   0  10  -5    0.91    0.11
   0 -10  -5    0.94    0.13
   0  10   5    0.94    0.11
  -1 -10  -5    9.06    0.34
  -1  10   5    8.74    0.33
   1  10  -5    8.55    0.36
  -1 -10  -5    8.91    0.38
   1 -10   5    8.48    0.34
   1  10  -5    8.25    0.34
  -1 -10   5    8.53    0.35
   1  10   5    8.70    0.33
  -1  10  -5    8.90    0.34
   1 -10  -5    9.52    0.36
  -1  10  -5    8.76    0.35
  -2 -10  -5   10.98    0.45
  -2  10   5   10.69    0.39
  -2 -10  -5   10.97    0.38
   2 -10   5   10.53    0.39
   2  10  -5   10.45    0.39
   2  10  -5   10.74    0.43
  -2 -10  -5   10.77    0.40
  -2  10  -5   10.40    0.40
  -2  10  -5   10.35    0.39
  -2 -10   5   10.82    0.40
   2 -10  -5   10.89    0.41
   2  10   5   10.89    0.38
   3 -10   5    2.10    0.16
   3  10  -5    1.90    0.18
  -3 -10  -5    1.98    0.15
   3  10  -5    1.83    0.15
  -3  10   5    1.89    0.15
  -3 -10  -5    2.10    0.19
   3  10   5    1.83    0.14
  -3  10  -5    1.90    0.15
  -3 -10   5    1.88    0.16
  -3  10  -5    1.82    0.15
   3  10   5    1.51    0.13
   3 -10  -5    1.72    0.16
  -4 -10  -5   11.02    0.49
   4  10  -5   11.92    0.43
  -4 -10  -5   12.08    0.44
  -4  10   5   11.65    0.42
   4 -10   5   11.94    0.43
  -4 -10   5   12.13    0.47
  -4  10  -5   12.28    0.44
   4 -10  -5   12.45    0.48
   4  10   5   12.29    0.46
  -4  10  -5   12.93    0.47
  -5 -10  -5   10.96    0.43
  -5 -10  -5   11.01    0.50
   5 -10   5   11.12    0.42
  -5  10   5   10.35    0.40
  -5  10  -5   10.97    0.45
   5 -10  -5   12.09    0.47
  -5 -10   5   10.74    0.46
   5  10   5   11.77    0.45
  -6 -10  -5    0.03    0.11
   6 -10  -5    0.27    0.12
  -6 -10   5    0.18    0.11
   0 -11   5   10.81    0.41
   0  11   5   10.43    0.40
   0  11  -5   10.93    0.41
   0  11  -5   11.29    0.44
   0 -11  -5   11.81    0.42
   1  11  -5   34.27    1.03
  -1  11   5   35.33    1.02
   1 -11   5   34.67    1.02
  -1 -11  -5   36.73    1.06
   1  11  -5   34.63    1.10
   1 -11  -5   38.39    1.09
  -1 -11   5   35.50    1.06
  -1  11  -5   34.88    1.05
  -1  11  -5   35.88    1.12
   1  11   5   36.32    1.04
  -2 -11  -5    3.80    0.22
   2 -11   5    3.97    0.22
   2  11  -5    4.09    0.23
  -2  11   5    4.40    0.22
   2  11  -5    4.08    0.24
  -2  11  -5    4.47    0.24
   2 -11  -5    4.67    0.24
  -2 -11   5    3.96    0.23
   2  11   5    4.45    0.22
  -2  11  -5    4.38    0.23
   3  11  -5    4.52    0.25
   3 -11   5    4.59    0.24
  -3  11   5    4.67    0.24
  -3 -11  -5    4.72    0.24
   3  11  -5    4.65    0.28
   3 -11  -5    4.86    0.26
   3  11   5    4.73    0.23
  -3  11  -5    4.88    0.25
  -3  11  -5    4.57    0.25
  -3 -11   5    4.56    0.26
   4  11  -5    2.71    0.19
  -4 -11  -5    2.50    0.20
  -4  11   5    2.63    0.19
   4 -11   5    2.61    0.18
   4 -11  -5    2.82    0.21
  -4  11  -5    2.74    0.19
  -4  11  -5    2.41    0.19
  -4 -11   5    2.53    0.20
  -5  11   5    8.27    0.36
   5 -11   5    8.79    0.37
  -5 -11  -5    8.75    0.39
   5 -11  -5    8.85    0.40
  -5  11  -5    8.84    0.39
  -5 -11   5    8.71    0.40
  -6 -11  -5    3.81    0.28
   6 -11  -5    3.95    0.28
   0  12  -5    0.14    0.09
   0  12  -5    0.03    0.08
   0 -12   5    0.24    0.09
   0  12   5    0.24    0.08
   1  12  -5   35.81    1.11
   1 -12   5   34.45    1.02
   1  12  -5   33.47    1.02
  -1 -12   5   35.72    1.06
  -1  12  -5   34.71    1.11
  -1  12  -5   34.74    1.04
   1  12   5   35.76    1.03
  -2  12   5   17.03    0.60
   2  12  -5   18.65    0.67
   2  12  -5   18.20    0.61
   2 -12   5   18.65    0.61
  -2  12  -5   17.16    0.59
  -2  12  -5   17.07    0.62
  -2 -12   5   17.65    0.61
   2  12   5   18.67    0.58
  -3  12   5   14.05    0.51
   3  12  -5   14.61    0.52
   3 -12   5   14.40    0.51
  -3  12  -5   14.90    0.53
   3  12   5   14.88    0.50
  -3  12  -5   15.04    0.56
  -3 -12   5   15.07    0.55
  -4  12   5    4.67    0.25
   4 -12   5    4.43    0.26
   4  12  -5    4.83    0.26
  -4 -12   5    4.80    0.29
  -4  12  -5    5.39    0.28
  -4  12  -5    5.11    0.28
   5 -12   5   10.29    0.42
  -5 -12  -5   10.28    0.44
  -5  12   5    9.50    0.41
  -5 -12   5    9.39    0.44
  -5  12  -5   10.04    0.43
   0  13  -5    4.13    0.24
   0 -13   5    3.92    0.24
   0  13  -5    3.95    0.25
   0  13   5    4.22    0.24
  -1  13   5   21.96    0.70
   1  13  -5   22.14    0.76
   1 -13   5   20.02    0.69
   1  13  -5   20.95    0.70
  -1  13  -5   21.67    0.74
  -1 -13   5   21.76    0.71
   1  13   5   21.27    0.69
  -1  13  -5   20.18    0.70
   2  13  -5    7.18    0.33
   2 -13   5    6.32    0.31
  -2  13   5    6.85    0.32
   2  13  -5    7.34    0.37
  -2  13  -5    7.08    0.34
  -2 -13   5    6.93    0.34
   2  13   5    7.60    0.33
  -2  13  -5    7.07    0.34
  -3  13   5   13.24    0.51
   3 -13   5   15.08    0.52
   3  13  -5   14.03    0.53
   3  13   5   14.07    0.50
  -3  13  -5   13.93    0.52
  -3 -13   5   14.03    0.55
  -3  13  -5   14.99    0.56
   4 -13   5    0.48    0.12
  -4  13   5    0.60    0.12
   4  13  -5    0.69    0.14
  -4 -13   5    0.59    0.15
  -4  13  -5    0.43    0.13
  -5  13   5   11.59    0.47
   0  14  -5    6.62    0.35
   0 -14   5    7.23    0.34
   0  14   5    6.05    0.31
   0  14  -5    6.63    0.33
   1  14  -5   17.82    0.68
   1 -14   5   18.18    0.62
  -1  14   5   18.08    0.63
   1  14  -5   17.99    0.63
  -1  14  -5   18.44    0.68
  -1  14  -5   17.97    0.65
   1  14   5   18.95    0.63
  -1 -14   5   18.51    0.65
   2  14  -5    6.07    0.32
  -2  14   5    5.96    0.30
   2 -14   5    5.73    0.30
  -2 -14   5    5.90    0.32
   2  14   5    6.08    0.30
  -2  14  -5    6.29    0.32
  -2  14  -5    6.32    0.33
   3 -14   5   28.90    0.91
   3  14  -5   28.72    0.92
  -3  14   5   29.35    0.92
  -3  14  -5   29.19    0.97
  -3  14  -5   29.69    0.92
  -3 -14   5   27.83    0.94
   4  14  -5    5.06    0.30
  -4  14   5    5.08    0.29
  -4  14  -5    4.41    0.29
   0  15  -5    1.37    0.17
   0  15  -5    1.29    0.19
   0 -15   5    1.19    0.17
   0  15   5    1.16    0.16
   1  15  -5   13.17    0.53
   1 -15   5   13.23    0.51
  -1  15   5   13.38    0.51
   1  15   5   13.96    0.52
  -1  15  -5   13.64    0.56
  -1  15  -5   13.94    0.54
  -1 -15   5   14.22    0.55
   2 -15   5    0.09    0.12
  -2  15   5    0.24    0.11
   2  15  -5    0.08    0.11
  -2  15  -5    0.11    0.13
  -2 -15   5    0.06    0.11
  -2  15  -5    0.21    0.13
   2  15   5    0.01    0.12
   3  15  -5   23.76    0.81
  -3  15  -5   24.46    0.87
   0   0  -6   45.16    1.21
   0   0  -6   41.88    1.22
   0   0   6   44.91    1.13
   0   0  -6   42.26    1.22
   1   0  -6  105.23    3.03
   1   0   6  108.73    2.79
  -1   0   6  110.39    2.80
   1   0   6  107.02    2.95
   1   0  -6  109.94    3.03
   1   0   6  111.88    2.80
  -1   0   6  112.63    2.79
   1   0  -6  108.63    2.96
  -2   0  -6  130.82    3.55
  -2   0   6  131.40    3.29
  -2   0  -6  127.43    3.30
  -2   0  -6  128.25    3.55
   2   0   6  126.85    3.27
   2   0   6  126.88    3.47
   2   0  -6  128.11    3.48
  -2   0   6  129.47    3.29
   2   0  -6  127.91    3.57
  -3   0  -6   33.03    0.95
  -3   0   6   32.14    0.90
  -3   0  -6   31.95    0.91
  -3   0   6   32.99    0.89
   3   0   6   35.01    0.88
   3   0  -6   33.55    0.98
   3   0   6   33.81    0.97
  -3   0  -6   34.89    0.95
   3   0  -6   32.87    0.99
   4   0  -6   12.01    0.42
   4   0  -6   12.45    0.43
  -4   0   6   12.05    0.38
  -4   0   6   12.39    0.37
  -4   0  -6   12.09    0.39
  -4   0  -6   11.61    0.39
   4   0   6   11.96    0.42
   5   0   6   60.38    1.71
  -5   0   6   64.14    1.59
   5   0  -6   60.83    1.76
  -5   0  -6   57.96    1.62
  -5   0   6   60.13    1.60
   5   0  -6   56.83    1.70
  -5   0  -6   57.99    1.71
   6   0  -6    0.16    0.09
  -6   0   6    0.35    0.08
   6   0   6    0.25    0.10
  -6   0  -6    0.41    0.09
  -6   0  -6    0.09    0.07
  -7   0  -6   39.61    1.14
   7   0   6   38.06    1.20
  -7   0  -6   38.50    1.20
   7   0  -6   39.75    1.21
  -8   0  -6    2.69    0.21
   8   0   6    3.03    0.25
  -8   0  -6    2.77    0.21
   8   0  -6    2.48    0.22
   0  -1  -6  165.51    4.63
   0   1  -6  161.93    4.63
   0   1  -6  160.13    4.63
   0   1   6  170.57    4.27
   0   1   6  173.82    4.27
   0  -1   6  168.80    4.27
   0  -1  -6  179.70    4.62
   0   1  -6  171.39    4.51
   0  -1  -6  160.85    4.52
   0  -1   6  168.64    4.28
   1  -1   6   43.12    1.19
   1  -1   6   42.40    1.13
   1   1  -6   44.62    1.22
  -1  -1  -6   41.65    1.20
  -1  -1  -6   43.52    1.12
  -1   1   6   41.98    1.14
   1   1  -6   42.31    1.21
  -1  -1  -6   44.14    1.20
   1  -1   6   43.03    1.13
  -1   1   6   45.03    1.11
   1   1  -6   41.73    1.20
   1  -1  -6   41.80    1.22
  -1  -1   6   44.72    1.13
   1  -1  -6   42.84    1.23
   1   1   6   42.80    1.13
   1   1   6   43.13    1.21
   1  -1  -6   44.27    1.23
  -1  -1   6   43.21    1.14
  -2   1   6  143.99    3.61
   2  -1   6  143.68    3.82
  -2  -1  -6  139.31    3.90
  -2   1   6  134.36    3.62
   2   1  -6  141.77    3.82
   2  -1   6  142.22    3.63
  -2  -1  -6  144.48    3.63
  -2  -1  -6  144.89    3.90
   2  -1   6  142.68    3.61
   2   1  -6  140.03    3.93
  -2  -1   6  146.41    3.70
   2   1   6  139.97    3.90
  -2  -1   6  149.49    3.70
   2  -1  -6  140.16    4.01
   2   1   6  147.17    3.67
  -3  -1  -6   40.70    1.16
   3  -1   6   40.55    1.16
   3   1  -6   38.69    1.16
   3   1  -6   41.21    1.20
  -3   1   6   40.10    1.09
  -3  -1  -6   40.98    1.10
  -3   1   6   41.05    1.07
  -3  -1  -6   42.40    1.16
   3   1   6   40.00    1.16
   3  -1  -6   39.68    1.17
  -3   1  -6   39.59    1.10
   3   1   6   42.09    1.06
  -3  -1   6   40.29    1.09
  -3   1  -6   42.75    1.15
   3  -1  -6   39.79    1.19
  -3   1  -6   41.35    1.15
  -3  -1   6   40.58    1.09
  -4  -1  -6   11.36    0.38
   4   1  -6   11.72    0.41
  -4   1   6   12.41    0.37
  -4  -1  -6   11.58    0.38
  -4   1   6   11.93    0.36
   4  -1   6   11.90    0.41
  -4   1  -6   10.56    0.38
   4   1   6   11.76    0.41
  -4  -1   6   12.18    0.37
   4  -1  -6   12.12    0.42
  -4  -1   6   11.58    0.37
   4  -1  -6   11.45    0.42
  -4   1  -6   11.98    0.38
  -5   1   6   11.81    0.37
   5   1  -6   11.46    0.44
  -5  -1  -6   11.34    0.40
  -5  -1  -6   11.87    0.40
   5  -1   6   11.76    0.42
   5   1  -6   11.60    0.43
  -5   1   6   11.54    0.37
  -5   1  -6   11.48    0.40
  -5  -1   6   11.52    0.37
   5   1   6   10.83    0.42
   5  -1  -6   11.04    0.43
  -5  -1   6   11.95    0.38
   5  -1  -6   11.21    0.42
  -5   1  -6   11.61    0.39
  -6  -1  -6   13.21    0.47
  -6  -1  -6   12.91    0.46
   6  -1   6   13.23    0.49
   6   1  -6   13.07    0.49
  -6   1  -6   12.82    0.45
   6   1   6   12.83    0.48
   6  -1  -6   12.87    0.49
  -6  -1   6   13.50    0.44
  -6   1  -6   12.91    0.46
   7   1  -6    6.41    0.32
   7  -1   6    5.80    0.31
  -7  -1  -6    5.90    0.29
  -7  -1  -6    6.13    0.29
  -7   1  -6    6.33    0.30
   7   1   6    6.53    0.33
   7  -1  -6    6.79    0.34
  -7   1  -6    6.17    0.29
   8  -1   6    8.02    0.39
  -8  -1  -6    7.91    0.38
   8   1  -6    8.35    0.40
  -8  -1  -6    8.12    0.37
   8   1   6    7.36    0.37
  -8   1  -6    7.21    0.34
   8  -1  -6    7.84    0.39
  -8   1  -6    7.54    0.35
   0   2  -6  204.94    5.51
   0   2  -6  185.86    5.52
   0  -2  -6  202.02    5.39
   0  -2  -6  211.31    5.52
   0  -2  -6  198.23    5.52
   0  -2   6  195.97    5.09
   0  -2  -6  205.40    5.11
   0   2   6  197.28    5.09
   0   2  -6  205.28    5.37
   0  -2   6  199.38    5.11
   1   2  -6  122.92    3.30
  -1  -2  -6  122.50    3.29
  -1  -2  -6  118.60    3.30
  -1   2   6  119.65    3.05
   1   2  -6  114.76    3.29
   1  -2   6  119.65    3.20
  -1  -2  -6  120.01    3.04
   1  -2   6  119.78    3.06
   1   2  -6  116.87    3.21
   1  -2   6  116.35    3.05
  -1  -2   6  117.63    2.99
  -1  -2   6  122.67    3.00
   1  -2  -6  115.01    3.16
   1  -2  -6  113.37    3.23
   1   2   6  117.94    2.98
   1   2   6  112.11    3.15
  -2   2   6   12.60    0.33
   2   2  -6   11.73    0.39
  -2  -2  -6   13.84    0.37
   2  -2   6   12.63    0.36
  -2   2   6   12.04    0.37
  -2  -2  -6   12.22    0.38
  -2  -2  -6   12.54    0.38
   2  -2   6   10.91    0.36
   2  -2   6   11.88    0.38
   2   2  -6   11.98    0.40
   2  -2  -6   12.04    0.41
   2   2   6   12.38    0.40
   2   2   6   12.73    0.36
  -2  -2   6   12.91    0.37
   2  -2  -6   12.29    0.42
  -2  -2   6   12.08    0.38
  -3   2   6  113.32    2.88
   3   2  -6  113.71    3.05
  -3  -2  -6  112.74    3.12
   3   2  -6  106.51    3.14
   3  -2   6  115.25    3.05
  -3  -2  -6  111.77    2.90
   3  -2   6  112.64    2.90
  -3   2   6  110.67    2.87
  -3   2  -6  118.37    3.10
   3  -2  -6  108.81    3.14
  -3  -2   6  111.27    2.90
   3   2   6  111.77    2.85
  -3   2  -6  114.20    2.86
   3  -2  -6  114.09    3.07
  -3  -2   6  110.15    2.89
  -3   2  -6  110.71    3.09
   3   2   6  109.23    3.06
   4  -2   6   32.09    0.93
  -4  -2  -6   31.68    0.93
  -4   2   6   30.83    0.84
   4   2  -6   30.15    0.96
   4   2  -6   31.05    0.93
  -4   2   6   32.63    0.87
  -4  -2  -6   30.86    0.88
  -4  -2   6   32.60    0.87
  -4   2  -6   31.85    0.91
   4  -2  -6   31.77    0.96
  -4   2  -6   31.15    0.89
   4  -2  -6   31.10    0.95
   4   2   6   29.82    0.93
  -4  -2   6   31.20    0.87
  -5  -2  -6   17.88    0.56
  -5   2   6   18.80    0.54
   5  -2   6   17.55    0.59
   5   2  -6   16.84    0.59
   5   2  -6   18.36    0.62
  -5  -2  -6   18.53    0.59
  -5  -2   6   18.35    0.54
   5  -2  -6   17.32    0.60
   5   2   6   18.33    0.60
  -5  -2   6   18.06    0.55
  -5   2  -6   17.25    0.56
  -5   2  -6   17.74    0.56
   6   2  -6   27.23    0.85
  -6  -2  -6   27.47    0.81
  -6  -2  -6   25.79    0.85
   6  -2   6   26.49    0.85
  -6   2  -6   26.69    0.83
   6  -2  -6   26.33    0.87
  -6   2  -6   25.90    0.81
   6   2   6   26.36    0.86
  -6  -2   6   28.72    0.81
   7   2  -6    1.63    0.17
  -7  -2  -6    1.19    0.15
   7  -2   6    1.34    0.16
  -7  -2  -6    1.45    0.15
  -7  -2   6    1.39    0.15
   7  -2  -6    1.35    0.17
   7   2   6    1.43    0.17
  -7   2  -6    1.77    0.15
  -7   2  -6    1.61    0.16
  -8  -2  -6    2.79    0.22
   8  -2   6    2.64    0.23
   8   2  -6    3.09    0.24
  -8  -2  -6    2.89    0.23
  -8   2  -6    2.95    0.22
   8   2   6    2.88    0.24
   8  -2  -6    2.57    0.24
  -8   2  -6    2.86    0.21
   0   3  -6   63.76    1.71
   0   3  -6   65.01    1.75
   0   3   6   60.65    1.63
   0  -3  -6   61.65    1.74
   0  -3   6   62.98    1.64
   0   3  -6   62.26    1.74
   0  -3  -6   62.08    1.77
   0  -3   6   61.40    1.64
   0  -3  -6   62.62    1.60
   0  -3  -6   63.79    1.76
   1   3  -6    5.02    0.19
   1  -3   6    5.30    0.18
  -1  -3  -6    5.01    0.20
   1   3  -6    5.49    0.19
  -1  -3  -6    5.42    0.19
  -1  -3  -6    5.16    0.17
   1   3  -6    4.95    0.19
   1  -3   6    5.09    0.19
   1  -3   6    5.39    0.19
  -1  -3   6    4.68    0.19
   1  -3  -6    4.74    0.20
  -1   3  -6    5.21    0.15
   1   3   6    5.10    0.18
   1   3   6    4.86    0.20
  -1  -3   6    5.29    0.19
   1  -3  -6    4.97    0.21
  -1   3  -6    5.19    0.15
   2  -3   6   12.18    0.36
   2   3  -6   11.54    0.37
  -2   3   6   11.72    0.36
   2   3  -6   11.52    0.39
  -2  -3  -6   10.81    0.38
  -2  -3  -6   12.60    0.38
   2  -3   6   11.78    0.37
  -2  -3  -6   11.66    0.35
  -2   3  -6   11.96    0.36
  -2   3  -6   12.18    0.35
  -2   3  -6   11.98    0.35
   2   3   6   11.88    0.40
  -2  -3   6   12.05    0.37
   2  -3  -6   12.36    0.40
   2  -3  -6   11.13    0.40
  -2  -3   6   11.78    0.37
   2   3   6   12.90    0.36
  -3  -3  -6    5.47    0.22
  -3  -3  -6    5.78    0.21
  -3   3   6    5.64    0.17
   3  -3   6    5.51    0.21
   3   3  -6    5.10    0.23
   3   3  -6    5.48    0.22
   3  -3   6    5.57    0.22
  -3   3   6    5.15    0.21
  -3   3  -6    5.63    0.19
   3  -3  -6    5.56    0.24
   3   3   6    5.65    0.19
  -3   3  -6    5.47    0.19
  -3  -3   6    5.19    0.21
  -3  -3   6    5.69    0.22
  -3   3  -6    5.52    0.20
   3  -3  -6    5.47    0.23
   4   3  -6   16.17    0.52
   4   3  -6   15.91    0.55
   4  -3   6   15.44    0.52
  -4  -3  -6   15.88    0.52
  -4   3   6   16.47    0.48
  -4  -3  -6   16.05    0.49
   4  -3  -6   15.64    0.52
   4  -3  -6   15.16    0.52
   4   3   6   15.52    0.51
  -4  -3   6   15.05    0.47
  -4   3  -6   14.57    0.47
  -4  -3   6   15.68    0.48
  -4   3  -6   15.42    0.49
   5  -3   6   21.46    0.69
  -5   3   6   21.40    0.63
  -5  -3  -6   20.98    0.69
   5   3  -6   21.84    0.69
  -5  -3  -6   21.13    0.65
   5   3  -6   22.17    0.73
  -5  -3   6   20.40    0.63
  -5   3  -6   21.04    0.64
   5  -3  -6   20.52    0.68
  -5   3  -6   20.23    0.64
   5   3   6   20.12    0.67
  -5  -3   6   20.88    0.61
   6  -3   6    2.52    0.18
  -6  -3  -6    2.61    0.18
  -6  -3  -6    2.65    0.18
   6   3  -6    2.72    0.20
   6   3   6    2.63    0.19
  -6   3  -6    2.49    0.16
  -6   3  -6    2.92    0.19
   6  -3  -6    2.53    0.19
  -6  -3   6    3.01    0.19
  -7  -3  -6    6.59    0.31
   7   3  -6    6.52    0.32
   7  -3   6    6.19    0.32
  -7  -3  -6    6.51    0.32
  -7   3  -6    6.26    0.29
  -7  -3   6    6.17    0.30
  -7   3  -6    7.10    0.31
   7  -3  -6    5.91    0.32
   7   3   6    5.80    0.32
  -8  -3  -6    2.47    0.22
   8   3  -6    2.28    0.22
  -8  -3  -6    2.29    0.21
   8  -3   6    2.56    0.22
   8  -3  -6    2.35    0.23
   8   3   6    2.02    0.21
  -8   3  -6    2.42    0.21
  -8   3  -6    2.19    0.19
   0   4  -6   15.73    0.46
   0  -4   6   15.28    0.45
   0   4  -6   14.83    0.45
   0  -4  -6   15.67    0.40
   0   4   6   14.57    0.44
   0  -4  -6   14.49    0.48
   0   4  -6   14.71    0.45
   0   4  -6   15.09    0.44
   0  -4  -6   15.04    0.49
  -1  -4  -6  117.72    3.58
   1  -4   6  124.11    3.31
   1   4  -6  135.55    3.58
   1   4  -6  128.77    3.57
  -1   4   6  128.33    3.30
   1  -4   6  130.06    3.45
  -1  -4  -6  134.43    3.58
  -1  -4  -6  130.91    3.29
   1   4  -6  128.34    3.45
  -1   4  -6  129.98    3.43
  -1  -4   6  123.41    3.21
   1   4   6  126.46    3.37
   1  -4  -6  120.72    3.38
  -1   4  -6  124.14    3.19
   1   4   6  129.31    3.19
  -1  -4   6  123.00    3.20
   1  -4  -6  124.03    3.47
  -1   4  -6  118.75    3.43
   2  -4   6    3.60    0.15
   2   4  -6    3.32    0.16
  -2  -4  -6    3.20    0.16
   2  -4   6    3.36    0.15
  -2   4   6    3.45    0.16
  -2  -4  -6    3.84    0.14
   2   4  -6    3.40    0.15
  -2  -4   6    3.60    0.16
   2   4   6    3.51    0.15
   2  -4  -6    3.34    0.18
  -2   4  -6    3.65    0.13
   2  -4  -6    3.76    0.18
  -2   4  -6    3.71    0.16
   2   4   6    3.76    0.17
  -2  -4   6    3.28    0.16
  -2   4  -6    3.55    0.13
   3   4  -6   77.18    2.27
  -3  -4  -6   78.57    2.26
  -3   4   6   79.29    2.08
   3   4  -6   78.47    2.18
   3  -4   6   80.63    2.10
   3  -4   6   82.01    2.18
  -3  -4  -6   80.81    2.08
  -3   4  -6   79.12    2.03
   3  -4  -6   78.96    2.19
  -3  -4   6   78.13    2.07
   3  -4  -6   78.82    2.23
   3   4   6   77.86    2.17
   3   4   6   80.84    2.02
  -3  -4   6   76.14    2.05
  -3   4  -6   76.68    2.18
   4   4  -6   51.07    1.46
   4  -4   6   52.93    1.47
   4  -4   6   50.63    1.41
  -4   4   6   51.04    1.39
   4   4  -6   53.05    1.54
  -4  -4  -6   52.16    1.40
  -4  -4  -6   51.75    1.52
  -4   4  -6   51.70    1.49
   4  -4  -6   54.22    1.54
  -4  -4   6   52.48    1.43
   4   4   6   51.53    1.50
   4  -4  -6   51.76    1.52
  -5   4   6   52.44    1.41
   5   4  -6   52.29    1.57
  -5  -4  -6   52.80    1.44
   5   4  -6   53.26    1.50
   5  -4   6   52.98    1.51
   5   4  -6   51.78    1.41
  -5  -4  -6   51.22    1.55
  -5  -4   6   53.02    1.45
  -5   4  -6   52.30    1.45
  -5   4  -6   51.59    1.51
   5  -4  -6   52.73    1.54
   5   4   6   52.61    1.52
   6  -4   6    2.04    0.17
  -6  -4  -6    2.36    0.17
  -6  -4  -6    2.39    0.18
   6   4  -6    2.24    0.18
   6   4   6    2.13    0.17
   6  -4  -6    2.04    0.19
  -6   4  -6    2.06    0.17
  -6  -4   6    2.16    0.17
  -6   4  -6    1.83    0.15
  -7  -4  -6   15.25    0.58
   7  -4   6   14.72    0.56
   7   4  -6   14.69    0.55
  -7  -4  -6   14.55    0.53
  -7  -4   6   15.51    0.54
   7  -4  -6   14.44    0.58
  -7   4  -6   15.49    0.54
  -7   4  -6   15.52    0.55
   7   4   6   14.58    0.57
   8   4  -6    2.09    0.21
  -8  -4  -6    2.55    0.24
   8  -4   6    2.52    0.23
  -8  -4   6    2.29    0.21
  -8   4  -6    2.12    0.19
   0   5  -6   37.20    1.04
   0  -5  -6   38.67    1.00
   0  -5   6   39.53    1.05
   0   5  -6   41.91    1.12
   0  -5  -6   37.99    1.13
   0   5  -6   37.34    1.10
   0   5  -6   39.02    1.05
   0  -5  -6   36.49    1.11
   0   5   6   37.23    1.04
   1   5  -6   11.35    0.33
  -1  -5  -6   11.19    0.33
   1  -5   6   12.11    0.34
  -1   5   6   10.65    0.35
   1  -5   6   11.22    0.36
   1   5  -6   10.81    0.36
   1   5  -6   11.14    0.37
  -1  -5  -6   10.90    0.39
  -1   5  -6   11.09    0.35
   1   5   6   11.35    0.35
   1  -5  -6   11.05    0.39
   1  -5  -6   10.93    0.39
  -1   5  -6   11.57    0.36
  -1  -5   6   11.36    0.37
  -1   5  -6   10.71    0.36
   2   5  -6  136.97    3.57
  -2   5   6  138.05    3.57
  -2  -5  -6  141.58    3.88
   2  -5   6  135.48    3.59
   2   5  -6  139.01    3.73
  -2  -5  -6  141.22    3.57
   2  -5   6  141.77    3.73
   2   5  -6  137.58    3.88
  -2   5  -6  144.51    3.88
  -2   5  -6  145.09    3.60
  -2  -5   6  137.98    3.63
   2   5   6  138.75    3.58
  -2   5  -6  141.46    3.88
   2  -5  -6  134.90    3.82
   2   5   6  138.59    3.80
   2  -5  -6  141.37    3.92
   3  -5   6   38.62    1.09
   3  -5   6   39.22    1.12
   3   5  -6   42.14    1.12
   3   5  -6   39.79    1.19
  -3  -5  -6   38.40    1.18
   3   5  -6   41.23    1.09
  -3   5   6   38.07    1.08
  -3  -5  -6   39.75    1.08
  -3  -5   6   39.16    1.10
   3   5   6   40.62    1.05
   3  -5  -6   38.83    1.17
   3   5   6   38.22    1.14
  -3   5  -6   38.98    1.13
  -3   5  -6   40.51    1.07
   3  -5  -6   40.40    1.19
  -4  -5  -6  118.84    3.05
   4  -5   6  117.58    3.05
   4   5  -6  114.75    3.02
  -4  -5  -6  113.14    3.30
   4  -5   6  119.84    3.18
   4   5  -6  118.27    3.18
   4   5  -6  115.56    3.31
  -4   5   6  114.72    3.02
  -4  -5   6  114.62    3.00
  -4   5  -6  116.67    3.19
   4  -5  -6  111.02    3.15
   4  -5  -6  115.79    3.23
   4   5   6  112.79    3.14
   5   5  -6    0.14    0.07
  -5  -5  -6    0.21    0.09
   5   5  -6    0.04    0.07
  -5   5   6    0.06    0.07
  -5  -5  -6    0.15    0.08
   5  -5   6    0.17    0.08
   5  -5  -6    0.11    0.09
  -5  -5   6    0.09    0.08
  -5   5  -6    0.14    0.06
   5   5   6    0.09    0.08
  -5   5  -6    0.06    0.07
  -6  -5  -6   35.92    1.15
  -6  -5  -6   35.56    1.06
   6   5  -6   37.65    1.10
   6  -5   6   36.03    1.10
  -6   5  -6   34.19    1.01
   6  -5  -6   35.27    1.09
   6   5   6   34.43    1.07
  -6   5  -6   34.23    1.05
  -6  -5   6   33.11    1.01
  -7  -5  -6    0.36    0.11
  -7  -5  -6    0.34    0.11
   7  -5   6    0.44    0.11
   7  -5  -6    0.41    0.13
  -7   5  -6    0.14    0.11
   7   5   6    0.43    0.13
  -7   5  -6    0.37    0.10
  -7  -5   6    0.18    0.10
  -8  -5  -6   13.80    0.58
   8  -5   6   12.93    0.54
  -8  -5   6   12.32    0.50
   0  -6  -6   29.97    0.93
   0   6  -6   30.55    0.85
   0   6  -6   30.31    0.89
   0  -6  -6   30.46    0.90
   0   6   6   29.81    0.84
   0  -6   6   31.00    0.86
  -1  -6  -6  109.74    3.10
  -1   6   6  108.28    2.84
   1  -6   6  110.13    2.86
  -1  -6  -6  102.17    3.01
   1   6  -6  112.24    2.85
  -1  -6  -6  116.08    2.83
   1   6  -6  110.09    3.08
   1  -6  -6  119.30    3.18
  -1   6  -6  118.49    3.00
   1  -6  -6  112.98    3.26
   1   6   6  114.07    2.99
  -1   6  -6  114.74    3.23
  -1  -6   6  117.42    3.03
  -2  -6  -6    6.29    0.22
   2  -6   6    5.83    0.24
   2   6  -6    5.79    0.25
   2   6  -6    7.16    0.26
  -2   6   6    5.76    0.23
  -2  -6  -6    6.01    0.27
   2  -6   6    6.22    0.21
  -2   6  -6    6.34    0.23
   2   6   6    6.58    0.23
   2  -6  -6    6.43    0.27
  -2  -6   6    5.74    0.24
   2  -6  -6    5.95    0.27
   2   6   6    6.35    0.25
  -2   6  -6    6.41    0.24
   3   6  -6   40.91    1.14
   3   6  -6   40.78    1.25
   3  -6   6   40.16    1.15
  -3  -6  -6   42.75    1.25
   3  -6   6   42.94    1.17
  -3   6   6   41.10    1.14
  -3  -6  -6   42.06    1.13
  -3   6  -6   45.01    1.27
  -3   6  -6   44.88    1.20
   3   6   6   44.75    1.18
   3   6   6   42.02    1.27
  -3  -6   6   43.38    1.23
   3  -6  -6   45.32    1.32
   3  -6  -6   43.47    1.29
  -4  -6  -6    2.46    0.18
   4   6  -6    2.68    0.18
  -4  -6  -6    2.55    0.16
   4   6  -6    2.30    0.14
   4  -6   6    2.33    0.15
   4  -6   6    2.35    0.15
  -4   6   6    2.36    0.15
   4  -6  -6    2.54    0.18
  -4   6  -6    2.48    0.14
  -4  -6   6    2.34    0.16
   4   6   6    2.35    0.17
   5   6  -6    3.58    0.19
  -5  -6  -6    3.66    0.23
  -5  -6  -6    3.50    0.20
  -5   6   6    3.87    0.19
   5  -6   6    4.10    0.21
   5  -6  -6    3.34    0.22
   5   6   6    3.37    0.21
  -5  -6   6    2.57    0.19
   6  -6   6    0.47    0.11
  -6  -6  -6    0.76    0.12
  -6  -6  -6    0.45    0.11
  -6   6  -6    0.62    0.10
  -6   6  -6    0.80    0.12
  -6  -6   6    0.52    0.12
   6   6   6    0.55    0.11
   6  -6  -6    0.74    0.13
   7  -6   6    7.00    0.34
  -7  -6  -6    6.48    0.33
  -7  -6  -6    7.24    0.37
  -7   6  -6    6.96    0.33
  -7   6  -6    7.71    0.35
  -7  -6   6    6.86    0.34
   7  -6  -6    7.10    0.36
   7   6   6    7.11    0.35
   0  -7  -6    0.01    0.06
   0   7   6    0.02    0.05
   0  -7  -6   -0.02    0.05
   0   7  -6    0.01    0.05
   0  -7   6    0.02    0.06
   0   7  -6    0.06    0.06
  -1  -7  -6   12.82    0.45
  -1  -7  -6   12.76    0.37
  -1   7   6   12.01    0.40
   1  -7   6   12.20    0.41
   1   7  -6   11.71    0.41
   1   7  -6   12.27    0.42
  -1  -7  -6   12.57    0.43
  -1   7  -6   13.43    0.42
   1   7   6   12.29    0.40
  -1  -7   6   12.27    0.42
   1  -7  -6   12.28    0.44
  -1   7  -6   12.85    0.42
   1  -7  -6   12.70    0.45
   2   7  -6   33.05    0.93
  -2  -7  -6   31.61    1.01
  -2   7   6   32.85    0.92
  -2  -7  -6   32.76    0.90
   2  -7   6   32.65    0.93
   2   7  -6   33.89    1.01
  -2  -7   6   31.84    0.92
  -2   7  -6   31.25    0.94
  -2   7  -6   31.59    0.90
   2  -7  -6   33.12    0.98
   2   7   6   31.95    0.94
   2  -7  -6   32.29    0.96
   2   7   6   30.73    0.88
   3   7  -6   17.08    0.54
  -3  -7  -6   16.92    0.52
   3  -7   6   17.15    0.54
  -3   7   6   16.98    0.53
  -3  -7  -6   16.61    0.59
   3   7  -6   17.70    0.59
   3  -7  -6   17.11    0.58
   3   7   6   16.54    0.56
  -3   7  -6   17.65    0.53
   3  -7  -6   18.04    0.59
   3   7   6   17.51    0.51
  -3   7  -6   16.99    0.55
  -3  -7   6   17.00    0.56
  -4  -7  -6    6.19    0.26
   4  -7   6    6.08    0.26
   4   7  -6    5.65    0.28
  -4   7   6    5.56    0.24
   4   7  -6    6.24    0.26
  -4  -7  -6    6.21    0.30
   4   7   6    5.70    0.26
  -4   7  -6    5.60    0.24
  -4  -7   6    5.51    0.26
   4  -7  -6    5.52    0.27
  -5  -7  -6    1.38    0.15
   5  -7   6    1.28    0.13
  -5  -7  -6    1.08    0.13
  -5   7   6    1.25    0.12
   5  -7  -6    1.45    0.15
  -5   7  -6    1.60    0.13
  -5  -7   6    1.41    0.14
   5   7   6    1.45    0.15
  -6  -7  -6    6.32    0.31
  -6  -7  -6    6.39    0.34
   6  -7  -6    6.73    0.34
   6   7   6    6.42    0.32
  -6   7  -6    5.98    0.28
  -6  -7   6    5.80    0.30
  -6   7  -6    6.03    0.29
  -7  -7  -6    2.80    0.22
  -7  -7  -6    3.12    0.26
   7   7   6    2.98    0.23
  -7  -7   6    2.78    0.22
  -7   7  -6    2.88    0.23
  -7   7  -6    2.73    0.20
   7  -7  -6    2.63    0.24
   0   8   6   17.58    0.54
   0  -8  -6   18.77    0.61
   0  -8  -6   17.33    0.58
   0   8  -6   17.76    0.58
   0   8  -6   17.80    0.55
   0  -8   6   17.25    0.56
  -1  -8  -6   14.35    0.50
  -1   8   6   14.64    0.47
  -1  -8  -6   14.67    0.52
   1   8  -6   15.46    0.51
   1   8  -6   14.12    0.47
   1  -8   6   14.11    0.47
  -1   8  -6   14.84    0.49
  -1   8  -6   14.36    0.48
   1   8   6   14.31    0.46
  -1  -8   6   14.27    0.48
   1  -8  -6   14.89    0.51
   1  -8  -6   15.30    0.52
  -2  -8  -6    0.29    0.09
  -2   8   6    0.19    0.08
   2  -8   6    0.28    0.08
   2   8  -6    0.35    0.09
   2   8  -6    0.34    0.08
  -2  -8  -6    0.35    0.07
   2   8   6    0.21    0.06
  -2  -8   6    0.23    0.08
  -2   8  -6    0.25    0.07
  -2   8  -6    0.27    0.07
   2  -8  -6    0.29    0.09
   2   8   6    0.21    0.07
   2  -8  -6    0.30    0.09
   3   8  -6   12.54    0.47
  -3   8   6   12.08    0.42
  -3  -8  -6   13.16    0.42
  -3  -8  -6   12.57    0.48
   3  -8   6   12.64    0.43
   3   8  -6   12.32    0.43
  -3  -8   6   12.61    0.45
   3  -8  -6   13.10    0.48
  -3   8  -6   13.19    0.45
   3   8   6   12.72    0.45
   3   8   6   12.92    0.41
  -3   8  -6   13.36    0.44
  -4  -8  -6   11.08    0.39
  -4  -8  -6   10.09    0.44
   4   8  -6   10.56    0.39
   4  -8   6   10.52    0.39
   4   8  -6   10.94    0.44
  -4   8   6   11.02    0.39
   4  -8  -6   10.84    0.42
  -4  -8   6   10.57    0.41
   4   8   6   10.57    0.41
  -4   8  -6   10.95    0.39
  -5  -8  -6    3.15    0.23
   5  -8   6    3.34    0.20
  -5  -8  -6    3.25    0.21
  -5   8   6    2.86    0.19
  -5   8  -6    2.93    0.18
   5   8   6    3.26    0.21
   5  -8  -6    3.04    0.23
  -5  -8   6    3.02    0.21
  -6  -8  -6    7.26    0.34
  -6  -8  -6    7.31    0.38
  -6   8  -6    7.71    0.34
   6  -8  -6    7.67    0.38
  -6   8  -6    7.71    0.34
   6   8   6    7.97    0.37
  -6  -8   6    7.33    0.35
  -7  -8  -6    2.32    0.25
  -7  -8  -6    2.33    0.22
  -7   8  -6    2.23    0.20
   7  -8  -6    1.82    0.22
  -7  -8   6    1.94    0.21
   7   8   6    2.17    0.21
  -7   8  -6    1.96    0.19
   0  -9  -6    9.27    0.38
   0   9  -6    9.34    0.35
   0  -9  -6    9.30    0.36
   0  -9   6    9.24    0.35
   0   9  -6    9.42    0.36
   0   9   6    9.12    0.34
  -1  -9  -6   18.88    0.65
   1   9  -6   18.90    0.59
   1  -9   6   18.34    0.59
  -1   9   6   18.57    0.58
   1   9  -6   18.78    0.63
  -1  -9  -6   18.76    0.62
  -1   9  -6   18.16    0.60
  -1  -9   6   18.53    0.59
   1  -9  -6   18.58    0.61
   1   9   6   18.27    0.57
  -1   9  -6   18.02    0.58
   1  -9  -6   19.47    0.64
  -2  -9  -6   10.12    0.42
   2  -9   6   10.12    0.38
  -2  -9  -6   10.79    0.41
   2   9  -6   10.47    0.41
   2   9  -6   10.67    0.38
  -2   9   6   10.68    0.38
   2  -9  -6   10.70    0.40
  -2  -9   6   10.54    0.39
  -2   9  -6    9.90    0.38
   2   9   6    9.51    0.35
  -2   9  -6   11.00    0.38
   3   9  -6    5.80    0.30
  -3  -9  -6    6.79    0.27
  -3  -9  -6    6.47    0.32
  -3   9   6    5.77    0.26
   3  -9   6    6.19    0.27
   3   9  -6    6.09    0.27
   3   9   6    6.53    0.28
  -3  -9   6    6.28    0.29
  -3   9  -6    6.33    0.28
  -3   9  -6    5.97    0.27
   3   9   6    6.50    0.25
   3  -9  -6    6.60    0.30
   4  -9   6    1.38    0.14
   4   9  -6    1.36    0.17
   4   9  -6    1.27    0.13
  -4  -9  -6    1.46    0.14
  -4  -9  -6    1.19    0.16
  -4   9   6    1.30    0.13
  -4   9  -6    1.57    0.14
   4  -9  -6    1.22    0.15
   4   9   6    1.44    0.14
  -4  -9   6    1.32    0.14
   5  -9   6    8.27    0.35
  -5  -9  -6    8.93    0.37
  -5   9   6    8.34    0.34
  -5  -9  -6    8.05    0.41
   5  -9  -6    9.01    0.40
   5   9   6    9.07    0.39
  -5  -9   6    9.20    0.39
  -5   9  -6    8.54    0.36
  -6  -9  -6   17.25    0.68
  -6  -9  -6   16.20    0.60
   6   9   6   17.41    0.63
  -6   9  -6   17.63    0.63
  -6   9  -6   17.82    0.62
  -6  -9   6   17.07    0.63
   6  -9  -6   18.13    0.66
   7   9   6    0.77    0.17
   0 -10   6   23.98    0.76
   0  10  -6   23.60    0.80
   0 -10  -6   25.73    0.83
   0  10  -6   25.73    0.77
   0 -10  -6   25.16    0.79
   0  10   6   25.48    0.75
   1  10  -6    6.97    0.31
  -1  10   6    7.80    0.31
   1  10  -6    7.20    0.32
  -1 -10  -6    7.64    0.35
   1 -10   6    7.93    0.32
  -1 -10  -6    7.44    0.32
  -1 -10   6    6.68    0.30
  -1  10  -6    7.13    0.31
   1 -10  -6    7.24    0.31
  -1  10  -6    7.10    0.30
   1  10   6    6.70    0.28
  -2 -10  -6    0.85    0.15
   2  10  -6    1.04    0.12
  -2  10   6    1.01    0.11
  -2 -10  -6    1.11    0.12
   2  10  -6    0.82    0.12
   2 -10   6    0.93    0.12
  -2  10  -6    1.02    0.12
  -2  10  -6    1.07    0.13
   2 -10  -6    1.12    0.13
   2  10   6    1.05    0.11
  -2 -10   6    1.20    0.14
  -3 -10  -6   11.50    0.48
   3  10  -6   11.73    0.47
  -3  10   6   11.14    0.41
   3  10  -6   10.95    0.41
   3 -10   6   11.11    0.41
   3  10   6   12.27    0.44
  -3  10  -6   12.32    0.43
   3  10   6   12.60    0.42
  -3 -10   6   12.36    0.46
   3 -10  -6   11.96    0.46
  -3  10  -6   11.27    0.44
  -4  10   6    1.43    0.14
  -4 -10  -6    1.38    0.15
  -4 -10  -6    1.40    0.18
   4 -10   6    1.50    0.15
   4  10  -6    1.68    0.15
  -4 -10   6    1.33    0.16
  -4  10  -6    1.39    0.14
   4 -10  -6    1.55    0.16
   4  10   6    1.49    0.15
  -5  10   6   17.52    0.57
  -5 -10  -6   17.34    0.59
   5 -10   6   15.82    0.57
  -5 -10  -6   16.69    0.66
   5  10   6   17.23    0.61
  -5 -10   6   16.66    0.62
   5 -10  -6   17.95    0.64
  -5  10  -6   16.82    0.61
  -6 -10  -6    1.03    0.16
   6 -10  -6    0.80    0.15
  -6 -10   6    0.58    0.16
   6  10   6    0.91    0.15
   0  11   6   70.34    1.90
   0 -11  -6   74.13    2.01
   0 -11   6   67.88    1.92
   0  11  -6   68.10    2.05
   0  11  -6   70.85    1.92
   1  11  -6    0.68    0.11
  -1 -11  -6    0.98    0.14
   1 -11   6    0.60    0.11
  -1 -11  -6    1.03    0.12
  -1  11   6    0.71    0.11
   1  11  -6    0.94    0.13
  -1 -11   6    0.80    0.12
  -1  11  -6    0.95    0.12
   1  11   6    0.94    0.12
  -1  11  -6    0.64    0.11
   1 -11  -6    0.88    0.12
  -2 -11  -6   52.57    1.61
   2  11  -6   52.13    1.46
   2  11  -6   52.29    1.59
  -2  11   6   51.15    1.45
  -2 -11  -6   53.65    1.53
   2 -11   6   50.56    1.46
   2 -11  -6   56.44    1.59
  -2  11  -6   53.87    1.52
   2  11   6   53.49    1.49
  -2 -11   6   54.38    1.54
  -2  11  -6   53.39    1.61
   3  11  -6    5.89    0.31
  -3 -11  -6    5.37    0.32
  -3  11   6    6.06    0.27
  -3 -11  -6    5.58    0.29
   3  11  -6    5.29    0.27
   3 -11   6    5.45    0.27
   3 -11  -6    6.36    0.30
  -3 -11   6    5.48    0.30
  -3  11  -6    5.70    0.28
   3  11   6    6.20    0.26
  -3  11  -6    5.72    0.28
  -4 -11  -6   12.85    0.55
   4  11  -6   12.80    0.47
  -4  11   6   13.22    0.47
   4 -11   6   12.73    0.47
  -4  11  -6   12.37    0.48
   4 -11  -6   13.02    0.50
  -4 -11   6   11.70    0.48
  -5  11   6    6.78    0.32
   5 -11   6    6.96    0.33
  -5 -11  -6    6.64    0.33
  -5  11  -6    6.83    0.33
  -5 -11   6    6.48    0.34
   5 -11  -6    6.77    0.35
  -6 -11  -6    8.07    0.40
   6 -11  -6    7.55    0.39
   0  12  -6    0.03    0.08
   0  12   6    0.04    0.08
   0  12  -6    0.08    0.09
   0 -12   6    0.07    0.08
   1  12  -6   11.88    0.45
   1 -12   6   11.08    0.43
  -1  12   6   12.07    0.44
   1  12  -6   11.58    0.47
  -1  12  -6   11.76    0.44
   1  12   6   11.62    0.43
  -1  12  -6   11.70    0.46
  -1 -12   6   11.14    0.45
  -2  12   6    1.44    0.15
   2  12  -6    1.37    0.17
   2  12  -6    1.11    0.14
   2 -12   6    1.43    0.15
  -2  12  -6    1.39    0.15
  -2 -12   6    1.19    0.15
  -2  12  -6    1.24    0.14
   2  12   6    1.45    0.14
  -3  12   6   14.59    0.53
   3  12  -6   14.73    0.54
   3  12  -6   14.91    0.59
   3 -12   6   14.84    0.53
  -3  12  -6   15.41    0.54
  -3  12  -6   15.53    0.56
  -3 -12   6   14.09    0.55
  -4  12   6    4.01    0.24
   4  12  -6    4.62    0.26
   4 -12   6    4.34    0.25
  -4 -12   6    4.46    0.28
  -4  12  -6    4.56    0.26
  -5  12   6   11.14    0.45
   5 -12   6   11.34    0.46
  -5 -12   6   10.40    0.46
  -5  12  -6   10.96    0.46
   0  13  -6    0.62    0.12
   0  13  -6    0.33    0.12
   0  13   6    0.62    0.11
   0 -13   6    0.58    0.12
  -1  13   6    3.15    0.21
   1  13  -6    3.15    0.22
   1 -13   6    2.97    0.20
   1  13  -6    3.18    0.23
  -1 -13   6    3.04    0.21
  -1  13  -6    3.46    0.24
   1  13   6    3.37    0.22
  -1  13  -6    3.57    0.23
   2 -13   6    3.31    0.22
   2  13  -6    3.05    0.22
  -2  13   6    3.12    0.21
   2  13  -6    3.09    0.25
  -2  13  -6    3.32    0.22
  -2  13  -6    3.60    0.24
  -2 -13   6    3.46    0.23
   2  13   6    3.59    0.22
  -3  13   6    0.49    0.13
   3 -13   6    0.57    0.13
   3  13  -6    0.49    0.13
  -3 -13   6    0.57    0.14
  -3  13  -6    0.47    0.13
  -3  13  -6    0.38    0.12
   4 -13   6    1.32    0.16
  -4  13   6    1.09    0.15
   4  13  -6    1.12    0.16
  -4 -13   6    1.00    0.18
  -4  13  -6    1.42    0.17
   0  14  -6    9.32    0.43
   0 -14   6    9.17    0.40
   0  14  -6    9.25    0.41
   0  14   6    9.95    0.41
   1  14  -6    6.90    0.35
   1 -14   6    6.40    0.32
  -1  14   6    7.02    0.33
   1  14  -6    6.59    0.34
  -1  14  -6    6.83    0.34
   1  14   6    6.63    0.32
  -1 -14   6    6.23    0.33
  -1  14  -6    6.33    0.33
  -2  14   6    7.32    0.35
   2  14  -6    7.21    0.35
   2 -14   6    6.26    0.32
  -2  14  -6    6.72    0.34
  -2  14  -6    7.26    0.36
  -2 -14   6    6.45    0.35
   2  14   6    7.09    0.33
   3 -14   6    2.40    0.20
   3  14  -6    2.32    0.21
  -3  14   6    2.29    0.21
  -3  14  -6    1.78    0.19
  -3  14  -6    2.12    0.20
  -3 -14   6    2.28    0.22
   0  15  -6    5.95    0.34
   0 -15   6    5.89    0.32
   0  15   6    5.76    0.31
   0  15  -6    5.96    0.33
  -1  15   6    4.51    0.28
   1  15  -6    5.80    0.33
   1  15  -6    5.36    0.33
   1 -15   6    5.32    0.30
  -1  15  -6    5.50    0.32
   1  15   6    5.43    0.30
  -1 -15   6    5.58    0.31
  -1  15  -6    5.64    0.32
   2  15   6   15.72    0.57
  -2  15  -6   15.16    0.61
   0   0   7    0.05    0.03
   0   0   7    0.11    0.04
   1   0  -7    0.59    0.07
  -1   0   7    0.90    0.06
   1   0  -7    0.79    0.07
   1   0  -7    0.86    0.07
   1   0   7    0.64    0.07
   1   0   7    0.79    0.06
  -1   0   7    0.75    0.07
  -2   0   7    0.12    0.04
   2   0   7    0.06    0.03
   2   0  -7    0.02    0.04
   2   0  -7    0.02    0.05
  -2   0  -7    0.07    0.02
  -2   0  -7    0.06    0.02
   2   0   7    0.03    0.04
  -2   0  -7    0.02    0.03
  -2   0   7    0.01    0.04
   3   0  -7    5.52    0.24
   3   0  -7    5.86    0.25
  -3   0   7    5.78    0.22
   3   0   7    5.85    0.24
  -3   0  -7    6.16    0.20
  -3   0  -7    5.63    0.19
  -3   0   7    5.78    0.20
   3   0   7    5.78    0.19
  -3   0  -7    5.77    0.22
   4   0  -7    9.98    0.38
  -4   0   7    9.94    0.33
  -4   0  -7   10.36    0.35
  -4   0   7   10.56    0.34
   4   0   7   10.41    0.38
   4   0  -7   10.22    0.38
  -4   0  -7   10.33    0.34
   5   0  -7   12.48    0.46
  -5   0  -7   10.84    0.40
   5   0   7   11.33    0.43
  -5   0  -7   11.64    0.40
   5   0  -7   11.95    0.44
  -5   0   7   11.74    0.38
  -6   0  -7   33.15    1.04
   6   0  -7   34.31    1.07
  -6   0  -7   34.20    1.00
   6   0   7   35.58    1.07
  -7   0  -7   11.05    0.43
   7   0  -7   10.23    0.44
   7   0   7   10.62    0.45
  -7   0  -7   10.62    0.42
   8   0   7   14.83    0.57
  -8   0  -7   13.40    0.52
   8   0  -7   13.61    0.56
  -8   0  -7   13.04    0.53
   0   1  -7    1.97    0.08
   0  -1  -7    1.88    0.09
   0   1  -7    1.72    0.11
   0  -1   7    1.82    0.10
   0  -1   7    1.68    0.09
   0   1   7    1.98    0.07
   0   1   7    1.57    0.10
   0  -1  -7    1.94    0.09
   0  -1  -7    1.76    0.13
   0   1  -7    1.65    0.08
  -1   1   7    3.73    0.16
   1   1  -7    3.95    0.15
  -1  -1  -7    4.04    0.13
  -1  -1  -7    3.97    0.14
   1  -1   7    4.07    0.16
   1   1  -7    3.53    0.15
  -1   1   7    3.77    0.12
   1  -1   7    3.81    0.14
   1   1  -7    3.88    0.17
   1  -1   7    3.86    0.15
  -1  -1  -7    4.21    0.14
   1   1   7    3.65    0.17
   1  -1  -7    3.92    0.16
   1  -1  -7    3.72    0.15
  -1  -1   7    3.88    0.16
   1  -1  -7    3.82    0.18
   1   1   7    3.85    0.15
  -1  -1   7    4.01    0.14
   2  -1   7   10.49    0.32
  -2  -1  -7   10.24    0.31
  -2   1   7   10.63    0.29
   2   1  -7   10.07    0.35
  -2   1   7   10.89    0.33
  -2  -1  -7   10.07    0.31
   2  -1   7    9.74    0.34
  -2  -1  -7   10.47    0.32
   2  -1   7   10.70    0.32
   2   1  -7   10.77    0.36
   2  -1  -7   10.95    0.39
   2  -1  -7   11.19    0.37
  -2  -1   7   11.81    0.34
   2   1   7   11.32    0.33
  -2  -1   7   10.70    0.35
  -3  -1  -7    6.96    0.25
   3  -1   7    6.90    0.22
   3   1  -7    6.68    0.27
   3  -1   7    6.85    0.26
  -3   1   7    6.78    0.22
  -3   1   7    6.15    0.24
  -3  -1  -7    6.95    0.23
   3   1  -7    7.17    0.27
  -3   1  -7    6.79    0.25
  -3   1  -7    6.81    0.22
   3  -1  -7    6.65    0.28
   3  -1  -7    7.16    0.27
  -3  -1   7    6.89    0.23
   3   1   7    6.47    0.26
  -3   1  -7    6.69    0.22
  -3  -1   7    7.03    0.25
   3   1   7    6.84    0.22
  -4  -1  -7    3.78    0.17
  -4   1   7    3.17    0.16
   4   1  -7    3.74    0.20
   4   1  -7    3.28    0.19
   4  -1   7    3.57    0.19
  -4  -1  -7    3.20    0.15
   4   1   7    3.54    0.19
   4  -1  -7    3.52    0.20
  -4   1  -7    3.68    0.18
  -4   1  -7    3.68    0.15
  -4  -1   7    3.84    0.18
   4  -1  -7    3.80    0.20
  -4  -1   7    3.55    0.17
  -5  -1  -7   37.06    1.03
  -5   1   7   38.25    1.01
   5   1  -7   36.76    1.10
   5   1  -7   36.00    1.13
  -5  -1  -7   35.44    1.08
   5  -1   7   34.80    1.09
   5  -1  -7   36.48    1.13
  -5  -1   7   36.88    1.01
   5  -1  -7   36.57    1.10
  -5   1  -7   35.87    1.03
   5   1   7   36.37    1.09
  -5  -1   7   36.33    1.01
  -5   1  -7   35.71    1.07
   6   1  -7   15.24    0.57
  -6  -1  -7   15.73    0.54
  -6  -1  -7   16.64    0.54
   6  -1   7   15.87    0.56
   6  -1  -7   15.07    0.56
  -6   1  -7   15.64    0.52
  -6   1  -7   15.56    0.52
   6   1   7   15.12    0.56
   7  -1   7    1.83    0.18
   7   1  -7    1.78    0.19
  -7  -1  -7    1.92    0.16
  -7  -1  -7    1.82    0.16
  -7   1  -7    2.05    0.16
   7  -1  -7    1.71    0.18
  -7   1  -7    1.99    0.18
   7   1   7    2.16    0.19
  -8  -1  -7    3.87    0.26
   8   1  -7    4.33    0.29
  -8  -1  -7    4.30    0.26
   8  -1   7    4.16    0.29
   8   1   7    4.38    0.29
  -8   1  -7    4.27    0.25
   8  -1  -7    4.66    0.31
   0   2  -7   63.37    1.77
   0  -2  -7   60.10    1.80
   0   2   7   64.35    1.67
   0  -2   7   63.69    1.68
   0  -2   7   64.84    1.67
   0   2  -7   64.70    1.76
   0   2  -7   64.49    1.78
   0  -2  -7   64.89    1.64
   0  -2  -7   67.43    1.80
   0  -2  -7   62.40    1.78
  -1   2   7  104.27    2.81
  -1  -2  -7  110.40    2.79
   1   2  -7  109.28    2.96
  -1  -2  -7  114.16    3.02
   1  -2   7  104.65    2.80
   1  -2   7  110.34    2.95
   1   2  -7  104.13    3.02
   1  -2   7  110.08    2.81
  -1  -2  -7  110.19    3.03
   1   2  -7  113.64    3.03
  -1  -2   7  106.97    2.72
   1   2   7  106.57    2.87
   1  -2  -7  103.99    2.94
   1   2   7  107.98    2.71
  -1  -2   7  102.25    2.72
   1  -2  -7  105.70    2.89
   2  -2   7   23.91    0.66
   2   2  -7   22.40    0.71
  -2  -2  -7   24.93    0.69
   2   2  -7   24.14    0.70
  -2  -2  -7   23.86    0.65
  -2  -2  -7   22.51    0.69
   2  -2   7   23.15    0.69
   2  -2   7   24.07    0.66
  -2   2   7   23.23    0.66
   2  -2  -7   23.84    0.74
   2   2   7   24.75    0.67
  -2  -2   7   24.36    0.69
  -2  -2   7   25.45    0.68
   2   2   7   24.47    0.73
   2  -2  -7   23.43    0.74
  -3  -2  -7    5.63    0.21
   3  -2   7    5.48    0.21
   3   2  -7    5.45    0.23
  -3  -2  -7    5.51    0.21
   3   2  -7    5.22    0.22
  -3   2   7    5.29    0.21
   3  -2   7    5.66    0.23
  -3  -2   7    5.27    0.21
  -3   2  -7    5.10    0.17
   3   2   7    4.89    0.22
  -3   2  -7    5.71    0.18
   3  -2  -7    4.82    0.23
   3  -2  -7    5.09    0.22
  -3   2  -7    5.22    0.19
   3   2   7    5.42    0.18
  -3  -2   7    5.48    0.21
   4   2  -7   12.56    0.44
   4  -2   7   12.97    0.44
   4   2  -7   12.66    0.46
  -4   2   7   12.88    0.41
  -4  -2  -7   12.92    0.43
  -4  -2  -7   13.02    0.42
   4  -2  -7   13.18    0.46
   4  -2  -7   12.78    0.47
   4   2   7   12.72    0.45
  -4   2  -7   12.79    0.43
  -4   2  -7   13.28    0.41
  -4  -2   7   13.43    0.42
  -4  -2   7   13.02    0.42
   5   2  -7    7.75    0.33
   5  -2   7    6.96    0.30
  -5  -2  -7    7.77    0.29
   5   2  -7    6.79    0.31
  -5  -2  -7    7.20    0.29
  -5   2   7    7.26    0.27
  -5   2  -7    7.38    0.30
   5   2   7    7.68    0.33
  -5   2  -7    7.31    0.28
  -5  -2   7    7.57    0.28
  -5  -2   7    7.77    0.29
   5  -2  -7    7.56    0.33
  -6  -2  -7    3.25    0.20
   6   2  -7    3.18    0.22
   6  -2   7    3.58    0.22
  -6  -2  -7    3.37    0.20
  -6   2  -7    2.95    0.17
  -6   2  -7    2.92    0.19
   6   2   7    2.64    0.20
   6  -2  -7    3.17    0.22
  -6  -2   7    3.01    0.20
  -7  -2  -7    6.22    0.30
   7  -2   7    5.86    0.31
  -7  -2  -7    6.00    0.29
   7   2  -7    6.20    0.32
   7   2   7    6.23    0.32
  -7   2  -7    5.22    0.27
  -7   2  -7    5.63    0.27
   7  -2  -7    5.29    0.30
  -8  -2  -7   13.20    0.54
   8  -2   7   12.98    0.54
   8   2  -7   13.32    0.55
   0  -3  -7  146.10    4.08
   0   3  -7  155.17    4.15
   0  -3  -7  146.21    3.83
   0   3  -7  150.47    4.15
   0  -3  -7  138.28    4.17
   0  -3   7  148.21    3.87
   0   3   7  149.98    3.85
   0  -3   7  148.71    3.86
   0  -3  -7  162.51    4.17
   0   3  -7  161.07    4.05
   1   3  -7   30.30    0.87
   1  -3   7   28.74    0.81
  -1  -3  -7   29.16    0.87
  -1  -3  -7   29.93    0.79
   1   3  -7   29.44    0.86
  -1   3   7   29.28    0.82
   1  -3   7   29.26    0.82
   1   3  -7   29.83    0.85
  -1  -3  -7   30.13    0.86
   1  -3   7   31.27    0.84
  -1  -3   7   29.02    0.80
   1  -3  -7   28.92    0.86
   1   3   7   28.05    0.84
  -1   3  -7   29.00    0.81
   1   3   7   28.79    0.78
   1  -3  -7   28.30    0.86
  -1  -3   7   29.03    0.79
   2  -3   7   98.61    2.57
   2  -3   7   90.54    2.45
   2   3  -7   95.13    2.57
  -2  -3  -7   90.49    2.64
   2   3  -7   94.69    2.65
  -2  -3  -7   97.18    2.44
  -2   3   7   95.10    2.45
   2   3   7   99.89    2.41
  -2   3  -7   88.89    2.41
   2   3   7   90.78    2.56
   2  -3  -7   92.51    2.63
  -2  -3   7   95.23    2.44
   2  -3  -7   91.51    2.58
  -2  -3   7   96.22    2.44
   3  -3   7   50.25    1.39
  -3  -3  -7   52.44    1.38
   3   3  -7   52.36    1.51
  -3  -3  -7   52.62    1.49
   3  -3   7   53.47    1.45
  -3   3   7   51.44    1.38
   3   3  -7   49.87    1.45
  -3   3  -7   49.44    1.31
  -3  -3   7   49.40    1.34
   3   3   7   52.83    1.30
  -3   3  -7   53.32    1.40
  -3   3  -7   47.40    1.39
   3  -3  -7   47.86    1.43
   3   3   7   49.58    1.42
   3  -3  -7   47.43    1.45
  -3  -3   7   50.75    1.34
   4   3  -7   95.61    2.71
  -4  -3  -7   96.16    2.68
   4   3  -7   93.06    2.61
  -4  -3  -7   93.85    2.49
   4  -3   7   94.27    2.62
  -4   3   7   96.78    2.48
  -4  -3   7   96.84    2.50
   4  -3  -7   91.79    2.65
  -4  -3   7   98.01    2.49
   4   3   7   93.82    2.63
  -4   3  -7   94.63    2.65
   4  -3  -7   95.49    2.71
  -4   3  -7   94.59    2.51
   5   3  -7   11.35    0.42
  -5   3   7   11.87    0.38
  -5  -3  -7   11.22    0.41
  -5  -3  -7   10.46    0.39
   5  -3   7   11.44    0.42
   5   3  -7   10.96    0.44
  -5   3  -7   10.00    0.35
   5   3   7   10.21    0.40
   5  -3  -7   10.48    0.41
  -5  -3   7   10.47    0.36
  -5  -3   7    9.62    0.36
  -5   3  -7   10.05    0.37
   6  -3   7    8.74    0.37
  -6  -3  -7    9.22    0.37
   6   3  -7    9.17    0.37
  -6  -3  -7    8.67    0.35
  -6   3  -7    8.83    0.33
  -6   3  -7    8.82    0.35
  -6  -3   7    8.26    0.34
   6   3   7    8.20    0.37
   6  -3  -7    9.02    0.39
   7  -3   7    5.92    0.31
   7   3  -7    6.47    0.33
  -7  -3  -7    6.19    0.31
  -7  -3  -7    5.65    0.29
  -7   3  -7    5.89    0.30
  -7   3  -7    5.90    0.27
   7   3   7    5.66    0.32
   7  -3  -7    5.90    0.32
   8  -3   7    5.81    0.33
  -8  -3  -7    6.03    0.34
   8   3  -7    6.20    0.35
   0  -4  -7    5.82    0.25
   0  -4   7    5.42    0.22
   0  -4  -7    5.63    0.23
   0  -4   7    5.56    0.21
   0   4  -7    5.78    0.20
   0   4   7    5.76    0.21
   0   4  -7    6.18    0.21
   0   4  -7    5.65    0.20
  -1  -4  -7   14.57    0.40
   1  -4   7   15.64    0.44
  -1   4   7   14.79    0.44
   1   4  -7   14.18    0.46
  -1  -4  -7   13.72    0.47
   1   4  -7   14.75    0.44
   1  -4   7   14.38    0.44
   1  -4  -7   15.36    0.52
   1   4   7   15.74    0.46
  -1   4  -7   15.31    0.46
  -1  -4   7   15.72    0.48
  -1  -4   7   15.67    0.47
  -1   4  -7   16.39    0.46
   1  -4  -7   15.26    0.51
  -1   4  -7   15.53    0.47
   2  -4   7   14.50    0.44
   2   4  -7   14.86    0.44
   2  -4   7   14.08    0.44
  -2  -4  -7   14.51    0.47
  -2  -4  -7   14.39    0.42
  -2   4   7   14.13    0.44
   2   4  -7   13.64    0.47
  -2   4  -7   14.82    0.45
   2  -4  -7   15.07    0.50
  -2  -4   7   15.01    0.47
  -2  -4   7   15.42    0.48
  -2   4  -7   14.82    0.45
   2  -4  -7   15.40    0.51
   2   4   7   15.63    0.45
  -2   4  -7   15.96    0.45
  -3  -4  -7   38.36    1.13
  -3  -4  -7   37.36    1.04
   3   4  -7   38.32    1.14
   3   4  -7   38.13    1.09
  -3   4   7   37.42    1.04
   3  -4   7   37.61    1.05
   3  -4   7   39.62    1.09
   3  -4  -7   37.84    1.12
   3   4   7   38.52    1.01
  -3  -4   7   37.87    1.05
  -3   4  -7   36.84    1.07
   3  -4  -7   37.79    1.13
  -3   4  -7   38.25    1.02
   3   4   7   36.98    1.10
  -3  -4   7   37.84    1.05
  -4  -4  -7   38.67    1.07
  -4  -4  -7   38.67    1.16
   4   4  -7   39.10    1.12
   4  -4   7   39.09    1.13
   4   4  -7   38.93    1.18
  -4   4   7   37.88    1.07
   4  -4   7   38.95    1.09
   4   4   7   37.18    1.14
  -4  -4   7   38.26    1.08
  -4  -4   7   38.56    1.07
   4  -4  -7   40.03    1.17
  -4   4  -7   38.57    1.11
   4  -4  -7   37.93    1.15
  -5  -4  -7   12.92    0.43
   5   4  -7   12.10    0.48
  -5   4   7   12.70    0.41
  -5  -4  -7   11.72    0.45
   5  -4   7   12.41    0.45
   5   4  -7   12.28    0.44
   5   4   7   12.06    0.46
  -5  -4   7   12.10    0.43
  -5   4  -7   12.79    0.44
  -5   4  -7   11.74    0.41
   5  -4  -7   12.47    0.47
  -6  -4  -7    4.80    0.26
   6   4  -7    5.01    0.26
   6  -4   7    5.23    0.27
  -6  -4  -7    4.70    0.25
  -6   4  -7    4.78    0.25
   6  -4  -7    4.55    0.27
   6   4   7    4.66    0.26
  -6  -4   7    4.43    0.24
  -6   4  -7    4.61    0.22
  -7  -4  -7   10.88    0.47
   7  -4   7   11.00    0.45
  -7  -4  -7   10.74    0.43
   7   4  -7   11.37    0.46
   7  -4  -7   10.79    0.46
   7   4   7   10.68    0.45
  -7   4  -7    9.70    0.41
  -7   4  -7   10.44    0.40
  -7  -4   7    9.89    0.41
   8  -4   7    0.50    0.16
   0  -5  -7   24.38    0.78
   0  -5  -7   25.01    0.78
   0   5  -7   23.19    0.72
   0   5  -7   26.24    0.75
   0  -5   7   25.67    0.72
   0   5  -7   26.62    0.72
   0   5   7   25.97    0.72
  -1   5   7   10.09    0.34
   1  -5   7   11.02    0.32
   1  -5   7   10.26    0.34
  -1  -5  -7   10.17    0.30
  -1  -5  -7   10.07    0.38
  -1  -5  -7    9.63    0.36
   1   5  -7    9.85    0.34
   1  -5  -7   10.11    0.37
  -1   5  -7   10.07    0.34
  -1   5  -7   10.32    0.32
   1  -5  -7    9.73    0.36
   1   5   7    9.79    0.33
  -1   5  -7   10.78    0.33
  -1  -5   7   10.48    0.35
   2  -5   7   20.49    0.62
   2   5  -7   21.22    0.67
  -2  -5  -7   21.33    0.59
  -2   5   7   19.74    0.62
   2  -5   7   22.35    0.62
  -2  -5  -7   21.75    0.67
  -2   5  -7   20.64    0.60
   2   5   7   21.00    0.59
  -2  -5   7   21.16    0.61
   2  -5  -7   20.94    0.66
   2  -5  -7   20.04    0.65
   2   5   7   19.49    0.63
  -2   5  -7   20.07    0.60
  -3   5   7    9.02    0.32
   3  -5   7    8.88    0.32
   3  -5   7    9.04    0.32
  -3  -5  -7    8.71    0.34
  -3  -5  -7    9.27    0.31
   3   5  -7    8.90    0.32
   3   5  -7    8.95    0.35
   3  -5  -7    9.29    0.37
  -3  -5   7    9.90    0.35
   3   5   7    9.91    0.31
   3   5   7    9.97    0.36
  -3   5  -7    9.79    0.32
  -3   5  -7   10.16    0.33
   3  -5  -7    8.99    0.37
   4  -5   7    3.90    0.20
  -4   5   7    3.99    0.19
  -4  -5  -7    4.09    0.22
   4   5  -7    3.96    0.20
   4   5  -7    3.91    0.23
   4  -5   7    4.32    0.20
  -4  -5  -7    4.30    0.20
   4  -5  -7    3.95    0.21
  -4  -5   7    3.90    0.20
  -4   5  -7    4.07    0.17
   4   5   7    3.75    0.21
   4  -5  -7    4.16    0.23
   5   5  -7    7.24    0.34
   5   5  -7    7.37    0.29
  -5  -5  -7    7.44    0.30
   5  -5   7    7.46    0.31
  -5  -5  -7    7.63    0.33
  -5   5   7    7.23    0.28
  -5   5  -7    7.44    0.31
  -5  -5   7    7.23    0.31
   5  -5  -7    7.37    0.34
  -5   5  -7    7.16    0.28
   5   5   7    8.20    0.33
  -6  -5  -7    1.32    0.14
   6  -5   7    1.13    0.14
  -6  -5  -7    0.87    0.14
  -6  -5   7    1.09    0.14
  -6   5  -7    0.92    0.13
   6  -5  -7    1.08    0.15
  -6   5  -7    1.16    0.12
   6   5   7    1.23    0.15
  -7  -5  -7    6.04    0.33
   7  -5   7    5.39    0.30
  -7  -5  -7    5.63    0.29
   7   5   7    5.17    0.31
  -7   5  -7    5.41    0.29
   7  -5  -7    5.33    0.31
  -7   5  -7    5.40    0.27
  -7  -5   7    5.49    0.29
   0   6  -7    2.63    0.15
   0  -6  -7    2.74    0.17
   0  -6  -7    2.53    0.16
   0   6   7    2.49    0.14
   0  -6   7    2.38    0.14
   0   6  -7    2.30    0.13
  -1   6   7   42.22    1.14
   1  -6   7   40.95    1.15
  -1  -6  -7   40.65    1.25
   1   6  -7   40.69    1.15
   1   6  -7   43.18    1.23
  -1  -6  -7   43.28    1.23
   1  -6  -7   41.54    1.26
  -1   6  -7   41.58    1.18
  -1   6  -7   43.09    1.24
  -1  -6   7   45.29    1.20
   1  -6  -7   44.32    1.29
   1   6   7   44.05    1.17
  -2  -6  -7   30.67    0.96
   2  -6   7   30.33    0.88
   2   6  -7   31.01    0.95
  -2  -6  -7   31.71    0.85
  -2   6   7   31.55    0.88
   2   6  -7   31.39    0.89
  -2   6  -7   31.93    0.92
   2  -6  -7   30.43    0.96
   2   6   7   30.91    0.94
  -2  -6   7   32.21    0.91
   2   6   7   32.32    0.88
  -2   6  -7   32.38    0.89
   2  -6  -7   31.73    0.97
   3   6  -7   60.22    1.59
  -3  -6  -7   58.93    1.57
  -3  -6  -7   59.57    1.73
   3   6  -7   57.94    1.72
   3  -6   7   58.05    1.59
  -3   6   7   57.56    1.58
  -3  -6   7   58.35    1.64
   3  -6  -7   57.61    1.73
   3  -6  -7   63.18    1.77
   3   6   7   60.63    1.72
  -3   6  -7   60.18    1.71
   3   6   7   63.28    1.60
  -3   6  -7   60.21    1.61
   4   6  -7    9.66    0.35
   4   6  -7   10.14    0.40
  -4  -6  -7    9.03    0.39
  -4   6   7    9.79    0.35
   4  -6   7    9.37    0.35
  -4  -6  -7   10.04    0.35
   4  -6   7   10.12    0.35
  -4  -6   7    9.30    0.36
   4  -6  -7    9.72    0.39
  -4   6  -7    9.44    0.34
   4   6   7    9.67    0.37
  -5  -6  -7   31.35    0.91
  -5  -6  -7   29.68    0.99
   5   6  -7   31.71    0.90
   5  -6   7   30.98    0.94
  -5   6   7   31.12    0.89
   5   6  -7   30.17    1.01
  -5  -6   7   29.67    0.91
   5  -6  -7   30.72    0.98
   5   6   7   31.61    0.96
  -6  -6  -7    0.78    0.14
  -6  -6  -7    1.06    0.13
   6  -6  -7    1.22    0.16
  -6   6  -7    0.83    0.11
  -6   6  -7    0.70    0.12
   6   6   7    0.92    0.14
  -6  -6   7    0.96    0.13
  -7  -6  -7    6.06    0.32
  -7  -6  -7    6.15    0.35
   7  -6  -7    5.66    0.33
  -7  -6   7    5.61    0.30
   7   6   7    5.73    0.32
  -7   6  -7    5.74    0.30
  -7   6  -7    5.87    0.29
   0   7  -7   30.28    0.88
   0  -7  -7   29.97    0.91
   0   7   7   29.10    0.83
   0   7  -7   28.85    0.84
   0  -7   7   28.36    0.84
   0  -7  -7   28.39    0.89
   1  -7   7   30.13    0.86
  -1  -7  -7   28.86    0.91
  -1  -7  -7   30.62    0.94
  -1   7   7   31.10    0.86
   1   7  -7   29.18    0.86
   1   7  -7   30.33    0.91
   1  -7  -7   29.35    0.93
   1   7   7   30.06    0.84
  -1   7  -7   30.01    0.85
   1  -7  -7   28.93    0.91
  -1   7  -7   30.63    0.89
  -1  -7   7   29.59    0.86
   2   7  -7    8.14    0.31
   2   7  -7    8.12    0.33
  -2   7   7    7.98    0.31
  -2  -7  -7    8.73    0.35
   2  -7   7    8.46    0.31
  -2   7  -7    9.26    0.33
   2  -7  -7    9.29    0.36
   2  -7  -7    8.31    0.35
  -2  -7   7    8.85    0.33
   2   7   7    8.60    0.31
   2   7   7    9.39    0.34
  -2   7  -7    9.10    0.32
   3   7  -7   18.96    0.63
  -3  -7  -7   18.84    0.56
   3  -7   7   18.58    0.58
  -3  -7  -7   18.49    0.64
   3   7  -7   18.07    0.58
  -3   7   7   17.77    0.57
  -3   7  -7   19.32    0.59
   3   7   7   18.77    0.56
   3   7   7   18.25    0.62
  -3   7  -7   18.71    0.58
  -3  -7   7   19.25    0.60
   3  -7  -7   19.70    0.64
   3  -7  -7   18.43    0.64
   4   7  -7    2.53    0.19
   4  -7   7    2.48    0.16
  -4  -7  -7    2.55    0.16
  -4  -7  -7    2.22    0.18
  -4   7   7    2.58    0.16
   4   7  -7    2.54    0.17
   4   7   7    3.08    0.19
  -4  -7   7    3.10    0.19
  -4   7  -7    3.00    0.16
   4  -7  -7    2.78    0.21
  -5  -7  -7   13.31    0.52
   5   7  -7   13.35    0.46
  -5  -7  -7   13.65    0.47
  -5   7   7   13.00    0.45
   5  -7   7   12.78    0.47
   5  -7  -7   12.47    0.50
  -5  -7   7   12.15    0.46
  -5   7  -7   13.17    0.45
   5   7   7   12.69    0.48
  -6  -7  -7    0.59    0.13
  -6  -7  -7    0.96    0.14
   6   7   7    0.40    0.13
  -6   7  -7    0.55    0.12
   6  -7  -7    0.74    0.13
  -6  -7   7    0.50    0.12
  -6   7  -7    0.68    0.10
  -7  -7  -7    3.02    0.26
  -7  -7  -7    3.08    0.24
  -7  -7   7    2.32    0.22
  -7   7  -7    2.83    0.22
   7   7   7    2.63    0.23
   7  -7  -7    2.53    0.24
  -7   7  -7    2.38    0.19
   0  -8  -7   30.24    0.94
   0   8  -7   30.16    0.89
   0  -8  -7   31.75    0.97
   0  -8   7   30.55    0.89
   0   8  -7   30.87    0.93
   0   8   7   30.73    0.88
  -1  -8  -7   12.26    0.48
  -1   8   7   12.48    0.43
   1   8  -7   13.19    0.44
  -1  -8  -7   13.50    0.47
   1  -8   7   12.56    0.43
   1   8  -7   13.13    0.46
   1  -8  -7   12.99    0.48
   1   8   7   13.06    0.42
  -1   8  -7   12.92    0.44
  -1  -8   7   13.03    0.45
   1  -8  -7   13.52    0.47
  -1   8  -7   12.67    0.44
  -2  -8  -7   51.76    1.56
   2  -8   7   53.23    1.44
  -2   8   7   52.65    1.43
   2   8  -7   52.57    1.43
   2   8  -7   50.17    1.54
  -2   8  -7   54.37    1.45
   2  -8  -7   55.93    1.58
   2   8   7   51.60    1.42
   2  -8  -7   51.45    1.54
  -2   8  -7   51.44    1.53
  -2  -8   7   53.10    1.47
   3   8  -7   11.02    0.43
   3   8  -7   11.07    0.40
  -3  -8  -7   10.66    0.44
  -3   8   7   10.95    0.39
   3  -8   7   11.14    0.40
  -3  -8  -7   11.23    0.38
   3   8   7   10.61    0.36
   3  -8  -7   10.86    0.43
  -3   8  -7   10.98    0.38
   3   8   7   10.68    0.40
  -3   8  -7   10.60    0.38
  -3  -8   7   10.68    0.40
  -4  -8  -7   23.44    0.70
   4   8  -7   23.46    0.79
  -4  -8  -7   21.29    0.78
   4   8  -7   22.19    0.70
  -4   8   7   23.36    0.70
   4  -8   7   22.65    0.71
  -4  -8   7   21.93    0.71
   4  -8  -7   21.91    0.75
   4   8   7   22.70    0.74
  -4   8  -7   23.26    0.72
  -5   8   7   23.56    0.73
  -5  -8  -7   23.71    0.83
  -5  -8  -7   22.97    0.74
   5  -8   7   24.53    0.75
  -5  -8   7   23.50    0.76
   5   8   7   23.25    0.78
  -5   8  -7   24.22    0.76
   5  -8  -7   22.77    0.79
  -6  -8  -7    5.42    0.29
  -6  -8  -7    4.84    0.32
  -6  -8   7    5.53    0.30
  -6   8  -7    5.62    0.29
  -6   8  -7    5.85    0.28
   6   8   7    5.66    0.31
   6  -8  -7    5.93    0.33
  -7  -8  -7    5.44    0.32
  -7  -8  -7    5.21    0.34
  -7  -8   7    5.37    0.33
   7   8   7    5.96    0.34
   0  -9  -7    1.45    0.15
   0   9  -7    1.55    0.13
   0  -9   7    1.71    0.14
   0   9  -7    1.34    0.13
   0  -9  -7    1.48    0.14
   0   9   7    1.54    0.13
  -1  -9  -7   39.45    1.22
  -1   9   7   39.41    1.11
   1  -9   7   40.58    1.12
   1   9  -7   39.57    1.20
   1   9  -7   38.97    1.12
  -1  -9  -7   38.13    1.18
   1  -9  -7   41.99    1.24
  -1   9  -7   41.27    1.20
   1   9   7   40.28    1.12
  -1  -9   7   36.64    1.13
   1  -9  -7   39.63    1.19
  -1   9  -7   40.02    1.13
  -2   9   7    0.24    0.08
   2  -9   7    0.39    0.09
   2   9  -7    0.28    0.08
  -2  -9  -7    0.31    0.11
  -2  -9  -7    0.44    0.10
   2   9  -7    0.17    0.08
   2  -9  -7    0.23    0.10
  -2  -9   7    0.30    0.09
   2  -9  -7    0.15    0.09
  -2   9  -7    0.34    0.09
  -2   9  -7    0.08    0.07
   2   9   7    0.28    0.08
  -3   9   7   19.89    0.62
  -3  -9  -7   19.53    0.70
   3   9  -7   19.21    0.62
   3  -9   7   18.82    0.62
   3   9  -7   20.07    0.69
  -3   9  -7   20.28    0.62
   3   9   7   18.97    0.59
   3   9   7   19.90    0.64
  -3  -9   7   18.42    0.63
  -3   9  -7   19.28    0.63
   3  -9  -7   19.95    0.67
  -4  -9  -7    3.97    0.26
  -4   9   7    4.11    0.23
   4  -9   7    4.38    0.23
   4   9  -7    4.63    0.27
   4   9  -7    4.22    0.23
  -4  -9   7    4.22    0.25
   4   9   7    4.36    0.24
  -4   9  -7    4.23    0.22
   4  -9  -7    4.18    0.25
  -5  -9  -7   29.65    0.91
  -5   9   7   28.33    0.89
   5  -9   7   29.45    0.91
  -5  -9  -7   31.95    1.03
  -5   9  -7   29.51    0.95
  -5  -9   7   30.64    0.95
   5   9   7   30.99    0.97
   5  -9  -7   30.12    0.99
  -6  -9  -7   21.12    0.83
  -6  -9  -7   23.51    0.75
   6   9   7   23.11    0.79
  -6  -9   7   22.72    0.78
   6  -9  -7   23.40    0.81
  -6   9  -7   22.36    0.75
  -6   9  -7   21.69    0.76
   0 -10  -7    2.47    0.20
   0 -10   7    2.32    0.17
   0  10   7    2.54    0.18
   0  10  -7    2.25    0.17
   0 -10  -7    2.57    0.18
   0  10  -7    2.68    0.18
   1 -10   7   34.95    1.01
  -1 -10  -7   35.21    1.10
  -1 -10  -7   34.09    1.05
   1  10  -7   34.90    1.01
  -1  10   7   33.78    0.99
   1  10  -7   33.01    1.07
  -1 -10   7   34.91    1.03
  -1  10  -7   33.78    1.07
   1 -10  -7   36.86    1.12
  -1  10  -7   34.82    1.02
   1  10   7   33.97    1.00
   1 -10  -7   35.26    1.07
   2  10  -7    4.35    0.24
  -2 -10  -7    3.82    0.25
   2 -10   7    3.68    0.21
  -2  10   7    3.75    0.21
   2  10  -7    4.12    0.22
  -2 -10  -7    3.82    0.24
  -2  10  -7    4.00    0.21
  -2  10  -7    4.14    0.23
   2  10   7    4.46    0.22
  -2 -10   7    4.04    0.23
   2 -10  -7    4.25    0.25
  -3 -10  -7   12.12    0.49
   3 -10   7   11.20    0.42
  -3  10   7   11.37    0.42
   3  10  -7   11.42    0.47
   3  10  -7   11.19    0.43
  -3  10  -7   11.20    0.42
   3  10   7   11.31    0.39
  -3 -10   7   11.36    0.44
  -3  10  -7   12.09    0.43
   3 -10  -7   10.88    0.45
  -4 -10  -7    2.75    0.24
   4  10  -7    3.02    0.23
  -4  10   7    2.92    0.20
   4 -10   7    2.92    0.20
   4  10  -7    2.97    0.21
  -4 -10   7    2.47    0.21
   4 -10  -7    2.85    0.22
   4  10   7    3.01    0.21
  -4  10  -7    2.83    0.19
  -5 -10  -7    0.13    0.13
  -5  10   7    0.16    0.10
   5 -10   7    0.29    0.10
   5  10   7    0.14    0.10
  -5  10  -7    0.29    0.09
  -5 -10   7    0.12    0.11
   5 -10  -7    0.07    0.12
  -6 -10  -7    8.40    0.44
   6  10   7    7.73    0.39
  -6 -10   7    8.29    0.41
   6 -10  -7    8.16    0.41
   0 -11  -7    3.53    0.23
   0 -11   7    3.26    0.20
   0  11   7    3.42    0.21
   0  11  -7    3.45    0.21
   0  11  -7    3.37    0.21
   1 -11   7    2.58    0.18
   1  11  -7    2.39    0.19
   1  11  -7    2.66    0.20
  -1 -11  -7    2.93    0.20
  -1 -11  -7    3.01    0.22
  -1  11   7    2.30    0.17
  -1 -11   7    2.80    0.20
  -1  11  -7    2.77    0.19
   1 -11  -7    2.99    0.21
  -1  11  -7    2.82    0.20
   1  11   7    3.11    0.19
   2  11  -7    0.38    0.10
  -2 -11  -7    0.58    0.14
  -2  11   7    0.34    0.09
   2 -11   7    0.39    0.09
  -2 -11  -7    0.38    0.10
   2  11  -7    0.30    0.11
  -2 -11   7    0.39    0.11
  -2  11  -7    0.38    0.11
   2  11   7    0.43    0.10
   2 -11  -7    0.47    0.12
  -2  11  -7    0.48    0.10
  -3 -11  -7    3.10    0.24
   3  11  -7    2.80    0.20
  -3 -11  -7    3.00    0.23
   3  11  -7    3.09    0.23
  -3  11   7    3.01    0.20
   3 -11   7    3.01    0.20
  -3 -11   7    3.32    0.22
  -3  11  -7    3.23    0.21
  -3  11  -7    3.44    0.21
   3 -11  -7    3.08    0.23
   4  11  -7    6.26    0.32
   4 -11   7    7.21    0.33
  -4 -11  -7    7.06    0.38
  -4  11   7    7.17    0.32
   4  11   7    7.32    0.34
  -4 -11   7    7.30    0.35
   4 -11  -7    7.36    0.37
  -4  11  -7    7.53    0.33
   5 -11   7    8.28    0.37
  -5  11   7    7.98    0.36
  -5 -11   7    8.06    0.39
   5 -11  -7    7.82    0.39
  -5  11  -7    8.21    0.37
   0 -12   7   90.53    2.49
   0  12   7   93.24    2.47
   0  12  -7   90.50    2.48
   0 -12  -7   95.14    2.60
   0  12  -7   89.91    2.66
   1 -12   7   15.98    0.56
   1  12  -7   15.60    0.56
  -1  12   7   16.36    0.56
   1  12  -7   16.02    0.60
  -1 -12   7   16.40    0.57
  -1  12  -7   15.31    0.57
   1  12   7   16.00    0.54
  -1  12  -7   15.71    0.56
   1 -12  -7   16.51    0.58
  -2  12   7    6.56    0.31
   2 -12   7    5.79    0.29
   2  12  -7    6.90    0.34
   2  12  -7    6.92    0.32
  -2 -12   7    6.61    0.33
   2  12   7    6.87    0.31
  -2  12  -7    7.10    0.33
  -2  12  -7    7.21    0.33
   2 -12  -7    6.93    0.34
   3 -12   7    2.17    0.18
   3  12  -7    2.10    0.18
  -3  12   7    2.05    0.17
   3  12  -7    2.42    0.22
  -3  12  -7    2.42    0.19
  -3 -12   7    2.16    0.20
  -3  12  -7    2.08    0.18
   3 -12  -7    2.50    0.21
  -4  12   7    8.99    0.37
   4 -12   7    8.34    0.37
   4  12  -7    7.73    0.37
   4 -12  -7    9.21    0.42
  -4  12  -7    9.14    0.39
  -4 -12   7    8.56    0.41
  -5  12   7    2.47    0.20
   5 -12  -7    2.31    0.23
   0  13  -7    8.78    0.39
   0  13   7    8.76    0.37
   0  13  -7    9.05    0.39
   0 -13   7    8.08    0.37
   1  13  -7    1.65    0.17
   1 -13   7    1.52    0.16
   1  13  -7    1.56    0.17
  -1  13   7    1.75    0.18
  -1 -13   7    1.42    0.17
   1  13   7    1.43    0.16
  -1  13  -7    1.40    0.16
  -1  13  -7    1.38    0.17
  -2  13   7    8.83    0.38
   2 -13   7    8.56    0.37
   2  13  -7    8.36    0.38
   2  13  -7    8.84    0.41
  -2 -13   7    8.32    0.39
  -2  13  -7    8.81    0.39
  -2  13  -7    9.43    0.40
   2  13   7    9.17    0.37
   3  13  -7   10.11    0.44
   3 -13   7   10.46    0.43
  -3  13   7   11.15    0.44
  -3  13  -7   10.90    0.45
  -3  13  -7   11.29    0.46
  -3 -13   7   10.33    0.46
   4  13  -7   26.22    0.85
  -4  13   7   25.29    0.83
  -4  13  -7   27.50    0.93
   0  14  -7    4.09    0.27
   0 -14   7    4.31    0.27
   0  14   7    3.60    0.25
   0  14  -7    4.02    0.27
   1  14  -7    9.15    0.41
  -1  14   7    8.73    0.39
   1  14  -7    8.92    0.42
   1 -14   7    8.10    0.38
  -1 -14   7    8.19    0.39
   1  14   7    9.29    0.39
  -1  14  -7    8.54    0.40
  -1  14  -7    8.83    0.41
   2  14  -7   20.43    0.76
   2 -14   7   19.30    0.69
  -2  14   7   20.11    0.69
   2  14  -7   20.83    0.71
  -2  14  -7   22.03    0.73
  -2  14  -7   20.92    0.74
  -2 -14   7   19.55    0.72
   2  14   7   21.10    0.70
   3  14  -7   11.23    0.47
  -3  14  -7   10.18    0.45
  -3  14  -7   10.29    0.44
   0  15  -7    1.23    0.19
   1  15  -7    2.70    0.25
  -1  15  -7    2.68    0.23
   1  15   7    2.84    0.23
   0   0  -8   10.80    0.34
   0   0  -8   11.19    0.34
   0   0   8   11.11    0.35
   0   0   8   11.08    0.32
   0   0  -8   10.95    0.38
  -1   0  -8   11.91    0.34
  -1   0   8   11.58    0.33
   1   0   8   11.53    0.36
  -1   0  -8   11.54    0.34
  -1   0   8   12.19    0.37
   1   0   8   12.10    0.35
   1   0  -8   11.50    0.37
   1   0   8   12.18    0.38
   1   0  -8   10.97    0.40
   2   0  -8  150.15    4.17
  -2   0   8  155.46    3.84
  -2   0  -8  145.08    4.15
   2   0   8  151.59    3.84
   2   0   8  147.22    4.07
  -2   0   8  151.76    3.86
   2   0  -8  148.11    4.08
  -2   0  -8  154.53    3.87
   3   0  -8   81.91    2.40
  -3   0  -8   87.75    2.35
  -3   0  -8   83.62    2.35
  -3   0  -8   86.68    2.22
  -3   0   8   83.92    2.22
   3   0   8   84.36    2.34
   3   0  -8   85.80    2.36
   3   0   8   84.19    2.19
  -4   0  -8  122.68    3.35
   4   0  -8  118.12    3.41
   4   0   8  120.78    3.31
  -4   0   8  123.79    3.13
  -4   0  -8  120.12    3.15
   4   0  -8  119.02    3.32
  -5   0  -8    4.64    0.22
  -5   0   8    4.83    0.21
  -5   0  -8    4.26    0.19
   5   0  -8    4.84    0.25
   5   0   8    4.23    0.23
   5   0  -8    4.33    0.24
   6   0  -8   22.54    0.75
  -6   0  -8   22.85    0.71
   6   0   8   21.69    0.74
  -6   0  -8   21.88    0.70
   7   0   8    2.27    0.20
   7   0  -8    2.44    0.21
  -7   0  -8    2.53    0.20
  -7   0  -8    2.32    0.18
   0  -1   8    0.13    0.04
   0   1  -8    0.12    0.03
   0  -1  -8    0.12    0.04
   0  -1  -8    0.09    0.04
   0   1  -8    0.11    0.03
   0   1   8    0.18    0.05
   0   1  -8    0.04    0.05
   0   1   8    0.15    0.03
   0  -1  -8    0.06    0.05
   0  -1   8    0.07    0.04
  -1   1   8  101.37    2.56
   1   1  -8  100.57    2.79
  -1  -1  -8   98.84    2.58
   1   1  -8   98.41    2.74
   1  -1   8  101.04    2.59
   1  -1   8  100.78    2.59
   1  -1   8  100.70    2.73
  -1  -1  -8  101.63    2.78
  -1  -1  -8  102.68    2.77
  -1   1   8   97.21    2.59
   1   1   8  101.42    2.76
  -1  -1   8  104.18    2.60
   1   1   8  103.62    2.61
  -1  -1   8   97.75    2.62
   1  -1  -8  101.09    2.78
   1  -1  -8   99.08    2.82
   2  -1   8   14.84    0.45
   2   1  -8   14.92    0.48
  -2   1   8   14.98    0.46
   2  -1   8   15.25    0.45
  -2  -1  -8   14.85    0.45
  -2  -1  -8   15.38    0.44
   2  -1   8   15.55    0.48
  -2  -1  -8   15.44    0.45
   2   1  -8   15.13    0.49
   2   1   8   15.40    0.49
  -2  -1   8   15.49    0.44
   2   1   8   15.05    0.44
   2  -1  -8   15.25    0.49
   2  -1  -8   15.01    0.51
  -2  -1   8   15.93    0.47
  -3  -1  -8    7.58    0.25
  -3  -1  -8    8.17    0.27
   3  -1   8    7.79    0.25
  -3   1   8    7.16    0.27
   3  -1   8    7.81    0.29
   3   1  -8    7.27    0.29
   3   1  -8    7.30    0.29
  -3   1  -8    7.53    0.27
  -3   1  -8    7.82    0.24
   3  -1  -8    7.49    0.30
   3   1   8    7.67    0.25
  -3  -1   8    7.60    0.28
   3  -1  -8    7.68    0.31
  -3   1  -8    7.62    0.24
   3   1   8    7.22    0.29
  -3  -1   8    7.71    0.26
  -4  -1  -8    0.36    0.06
   4   1  -8    0.32    0.08
  -4   1   8    0.35    0.07
  -4  -1  -8    0.49    0.07
   4  -1   8    0.34    0.08
   4   1  -8    0.35    0.08
   4   1   8    0.41    0.08
  -4  -1   8    0.33    0.07
  -4  -1   8    0.25    0.07
   4  -1  -8    0.30    0.08
   4  -1  -8    0.35    0.09
  -4   1  -8    0.44    0.08
  -4   1  -8    0.35    0.05
   5   1  -8    9.17    0.38
   5  -1   8    8.37    0.36
  -5  -1  -8    8.64    0.34
   5   1  -8    9.49    0.38
  -5  -1  -8    8.95    0.33
  -5   1   8    9.46    0.33
  -5   1  -8    8.37    0.33
  -5  -1   8    9.16    0.33
   5   1   8    8.52    0.36
  -5   1  -8    8.90    0.31
   5  -1  -8    9.01    0.37
   5  -1  -8    8.81    0.37
  -6  -1  -8    2.35    0.17
   6  -1   8    2.22    0.18
   6   1  -8    2.25    0.18
  -6  -1  -8    2.26    0.16
   6   1   8    2.21    0.18
  -6   1  -8    2.00    0.14
   6  -1  -8    2.06    0.18
  -6   1  -8    1.99    0.16
   7   1  -8   18.57    0.68
  -7  -1  -8   19.52    0.66
   7  -1   8   18.52    0.67
  -7  -1  -8   18.39    0.63
  -7   1  -8   17.89    0.61
   7  -1  -8   17.43    0.65
   7   1   8   18.12    0.66
  -7   1  -8   17.78    0.61
   8   1  -8    2.09    0.22
   0  -2  -8    7.99    0.28
   0  -2  -8    8.82    0.28
   0  -2   8    8.50    0.29
   0   2   8    7.87    0.28
   0   2  -8    8.13    0.26
   0   2  -8    8.68    0.30
   0  -2  -8    8.57    0.23
   0  -2  -8    8.77    0.32
   0  -2   8    8.30    0.26
   0   2  -8    7.99    0.26
  -1  -2  -8   19.21    0.52
  -1  -2  -8   19.54    0.57
   1   2  -8   19.04    0.57
   1   2  -8   19.15    0.58
   1  -2   8   18.26    0.54
  -1   2   8   20.09    0.56
  -1  -2  -8   19.15    0.57
   1  -2   8   18.67    0.57
   1  -2   8   19.35    0.56
  -1  -2   8   19.16    0.56
   1   2   8   19.45    0.55
  -1  -2   8   19.35    0.54
   1  -2  -8   18.73    0.59
  -2  -2  -8    3.55    0.15
   2  -2   8    3.49    0.17
   2   2  -8    3.52    0.17
  -2  -2  -8    3.96    0.15
  -2  -2  -8    3.36    0.15
   2   2  -8    3.43    0.16
   2  -2   8    3.29    0.15
   2  -2   8    3.59    0.16
  -2   2   8    3.57    0.17
  -2  -2   8    3.31    0.16
   2  -2  -8    3.18    0.16
   2  -2  -8    3.22    0.18
   2   2   8    3.27    0.14
   2   2   8    3.24    0.17
  -2  -2   8    3.30    0.14
  -3  -2  -8   14.10    0.42
  -3  -2  -8   13.82    0.44
   3   2  -8   13.26    0.47
   3  -2   8   13.44    0.45
   3  -2   8   13.91    0.43
   3   2  -8   13.97    0.46
  -3   2   8   13.76    0.43
   3  -2  -8   13.57    0.46
  -3   2  -8   13.88    0.39
  -3  -2   8   13.39    0.42
  -3   2  -8   12.82    0.39
   3   2   8   13.13    0.46
   3  -2  -8   13.41    0.47
   3   2   8   13.77    0.40
  -3   2  -8   13.52    0.40
   4   2  -8    0.67    0.11
  -4   2   8    0.55    0.08
   4   2  -8    0.77    0.10
   4  -2   8    0.72    0.09
  -4  -2  -8    0.58    0.09
  -4  -2  -8    0.64    0.08
  -4  -2   8    0.54    0.09
   4   2   8    0.65    0.09
  -4  -2   8    0.65    0.08
   4  -2  -8    0.52    0.10
  -4   2  -8    0.55    0.06
  -4   2  -8    0.64    0.09
   4  -2  -8    0.57    0.09
   5  -2   8    1.43    0.13
  -5  -2  -8    1.48    0.13
  -5   2   8    1.63    0.12
   5   2  -8    1.65    0.16
  -5  -2  -8    1.38    0.13
   5   2  -8    1.17    0.13
   5   2   8    1.53    0.14
   5  -2  -8    1.53    0.15
  -5   2  -8    1.47    0.11
   5  -2  -8    1.38    0.15
  -5   2  -8    1.41    0.13
  -5  -2   8    1.64    0.13
  -6  -2  -8    2.89    0.18
   6   2  -8    3.15    0.21
  -6  -2  -8    2.97    0.19
   6  -2   8    3.02    0.20
   6  -2  -8    3.12    0.22
  -6   2  -8    2.96    0.19
   6   2   8    2.83    0.21
  -6   2  -8    3.03    0.17
   7  -2   8    2.46    0.21
   7   2  -8    2.20    0.21
  -7  -2  -8    2.52    0.20
  -7  -2  -8    2.52    0.19
   7  -2  -8    2.50    0.21
   7   2   8    2.26    0.20
  -7   2  -8    2.66    0.18
  -7   2  -8    2.53    0.20
   8   2  -8    0.74    0.17
   0   3  -8   61.75    1.67
   0  -3   8   62.82    1.61
   0   3  -8   62.69    1.69
   0  -3  -8   56.80    1.71
   0  -3   8   60.31    1.59
   0  -3  -8   59.99    1.71
   0   3  -8   56.85    1.68
   0   3   8   62.04    1.60
   1  -3   8   17.82    0.52
  -1  -3  -8   19.17    0.49
   1   3  -8   18.02    0.55
   1  -3   8   18.45    0.54
  -1  -3  -8   18.34    0.56
   1   3  -8   17.58    0.55
  -1   3   8   16.76    0.53
   1  -3   8   17.47    0.53
   1  -3  -8   18.09    0.59
   1  -3  -8   17.28    0.57
  -1  -3   8   18.09    0.55
  -1  -3   8   18.52    0.53
   1   3   8   19.27    0.53
   2  -3   8   10.49    0.35
  -2   3   8   10.15    0.35
  -2  -3  -8   11.47    0.33
  -2  -3  -8   11.09    0.36
   2  -3   8   11.10    0.36
   2   3  -8   10.18    0.37
   2   3  -8   11.11    0.37
   2   3   8   10.18    0.37
   2  -3  -8   10.10    0.37
  -2  -3   8   10.36    0.36
   2  -3  -8   10.63    0.39
  -2  -3   8   10.96    0.34
   2   3   8   11.06    0.33
   3  -3   8    3.10    0.16
   3   3  -8    2.89    0.17
   3   3  -8    3.18    0.17
  -3  -3  -8    3.04    0.16
  -3  -3  -8    3.06    0.15
  -3   3   8    3.16    0.16
   3  -3   8    3.23    0.16
  -3   3  -8    3.67    0.15
  -3  -3   8    3.50    0.18
  -3   3  -8    3.25    0.12
   3   3   8    3.28    0.14
   3   3   8    2.91    0.18
   3  -3  -8    3.27    0.20
  -3   3  -8    3.48    0.13
  -3  -3   8    3.46    0.17
   3  -3  -8    3.33    0.18
   4  -3   8   13.73    0.47
  -4  -3  -8   14.33    0.48
   4   3  -8   13.67    0.50
  -4  -3  -8   14.44    0.45
  -4   3   8   13.63    0.45
   4   3  -8   14.45    0.48
  -4  -3   8   12.99    0.44
   4  -3  -8   14.28    0.49
   4   3   8   14.15    0.48
  -4  -3   8   13.85    0.44
  -4   3  -8   13.42    0.42
   4  -3  -8   14.04    0.50
  -4   3  -8   12.64    0.45
  -5   3   8    8.39    0.30
   5  -3   8    8.27    0.34
  -5  -3  -8    7.66    0.32
   5   3  -8    7.94    0.36
  -5  -3  -8    7.82    0.31
   5   3  -8    7.74    0.33
   5   3   8    7.38    0.33
  -5   3  -8    7.45    0.31
   5  -3  -8    7.56    0.34
  -5  -3   8    7.83    0.30
  -5   3  -8    7.20    0.27
  -5  -3   8    7.57    0.30
   6  -3   8    8.69    0.36
   6   3  -8    8.20    0.36
  -6  -3  -8    8.68    0.35
  -6  -3  -8    8.07    0.35
   6  -3  -8    8.07    0.38
  -6   3  -8    7.91    0.31
   6   3   8    8.05    0.36
  -6   3  -8    8.38    0.34
  -7  -3  -8    2.41    0.20
   7  -3   8    2.78    0.23
  -7  -3  -8    2.62    0.20
   7   3  -8    2.64    0.21
  -7   3  -8    2.77    0.18
   7  -3  -8    2.65    0.22
  -7   3  -8    2.73    0.21
   7   3   8    2.61    0.22
   0  -4   8   59.87    1.58
   0   4   8   60.31    1.58
   0  -4  -8   58.50    1.69
   0   4  -8   59.47    1.64
   0  -4  -8   58.31    1.70
   0   4  -8   63.60    1.68
   0  -4   8   56.38    1.58
   0   4  -8   59.48    1.67
  -1  -4  -8    9.41    0.35
   1   4  -8   10.68    0.33
  -1   4   8   10.18    0.34
   1   4  -8   10.32    0.34
  -1  -4  -8   10.02    0.38
   1  -4   8    9.75    0.33
  -1   4  -8   10.24    0.30
  -1   4  -8    9.87    0.33
   1   4   8    9.92    0.32
  -1   4  -8   10.53    0.31
   1  -4  -8    9.97    0.36
   1  -4  -8    9.42    0.37
  -1  -4   8    9.63    0.33
   2   4  -8   13.89    0.44
   2  -4   8   14.15    0.43
   2  -4   8   13.69    0.43
  -2  -4  -8   13.59    0.46
  -2   4   8   12.90    0.43
   2   4  -8   13.46    0.46
  -2  -4  -8   14.15    0.40
  -2   4  -8   12.11    0.40
  -2   4  -8   13.89    0.38
  -2   4  -8   12.25    0.37
  -2  -4   8   12.53    0.40
  -2  -4   8   11.95    0.41
   2   4   8   12.98    0.39
   2  -4  -8   12.58    0.44
   2   4   8   13.02    0.44
  -3  -4  -8   13.75    0.42
  -3   4   8   13.01    0.43
  -3  -4  -8   13.23    0.46
   3  -4   8   12.72    0.43
   3  -4   8   13.08    0.43
   3   4  -8   14.30    0.45
   3   4  -8   13.95    0.47
  -3  -4   8   13.61    0.45
   3  -4  -8   12.42    0.48
  -3  -4   8   13.45    0.44
  -3   4  -8   13.94    0.42
   3   4   8   13.55    0.47
  -3   4  -8   13.96    0.41
   3   4   8   14.12    0.41
   3  -4  -8   13.54    0.48
  -4   4   8    1.57    0.12
   4   4  -8    1.80    0.14
   4   4  -8    1.50    0.14
  -4  -4  -8    1.65    0.14
   4  -4   8    1.50    0.13
  -4  -4  -8    1.66    0.13
   4  -4   8    1.61    0.13
   4  -4  -8    1.41    0.14
  -4  -4   8    1.46    0.12
   4   4   8    1.28    0.13
  -4   4  -8    1.30    0.09
  -4  -4   8    1.46    0.12
   4  -4  -8    0.92    0.13
   5   4  -8   -0.01    0.09
  -5   4   8    0.02    0.07
  -5  -4  -8    0.03    0.07
   5  -4   8    0.03    0.08
  -5  -4  -8    0.09    0.06
   5   4  -8    0.02    0.07
  -5   4  -8    0.05    0.07
  -5   4  -8    0.02    0.05
   5  -4  -8    0.07    0.10
  -5  -4   8    0.04    0.08
   5   4   8    0.03    0.07
  -5  -4   8    0.08    0.08
  -6  -4  -8   10.71    0.40
   6  -4   8   10.68    0.42
  -6  -4  -8    9.78    0.42
   6  -4  -8    9.29    0.42
   6   4   8    8.87    0.40
  -6  -4   8    9.85    0.38
  -6   4  -8    9.33    0.38
  -6   4  -8    9.48    0.35
  -7  -4  -8   11.04    0.44
  -7  -4  -8   11.47    0.47
   7  -4   8   10.81    0.46
   7   4   8   11.14    0.47
  -7   4  -8   10.50    0.41
  -7   4  -8   10.34    0.43
   7  -4  -8   10.78    0.48
   0   5  -8    1.54    0.11
   0   5  -8    1.67    0.10
   0  -5  -8    1.41    0.13
   0  -5   8    1.66    0.12
   0  -5  -8    1.67    0.13
   0   5   8    1.47    0.11
  -1   5   8    0.98    0.09
   1   5  -8    1.21    0.10
   1  -5   8    1.17    0.10
   1   5  -8    1.11    0.10
  -1  -5  -8    1.15    0.12
  -1  -5  -8    1.27    0.11
  -1  -5   8    0.65    0.08
   1   5   8    0.68    0.08
   1  -5  -8    0.62    0.08
  -1   5  -8    0.71    0.08
   1  -5  -8    0.69    0.10
  -1   5  -8    0.81    0.07
  -2   5   8    1.58    0.12
  -2  -5  -8    1.53    0.12
  -2  -5  -8    1.88    0.11
   2  -5   8    1.37    0.11
   2   5  -8    1.45    0.12
   2  -5   8    1.49    0.10
   2   5   8    1.89    0.12
  -2   5  -8    1.50    0.11
  -2   5  -8    1.63    0.09
  -2  -5   8    1.70    0.13
   2  -5  -8    1.78    0.13
   2   5   8    1.66    0.14
   2  -5  -8    1.38    0.13
   3   5  -8   86.63    2.44
  -3  -5  -8   81.36    2.42
   3  -5   8   84.34    2.25
  -3  -5  -8   88.14    2.23
   3  -5   8   86.17    2.33
  -3   5   8   83.53    2.24
   3   5   8   88.32    2.25
  -3   5  -8   86.51    2.41
   3  -5  -8   84.95    2.43
   3   5   8   83.73    2.41
  -3   5  -8   87.95    2.26
   3  -5  -8   86.84    2.48
  -3  -5   8   87.20    2.29
  -4  -5  -8   14.22    0.46
   4  -5   8   14.71    0.48
   4   5  -8   14.29    0.47
   4  -5   8   13.54    0.47
  -4   5   8   13.71    0.46
  -4  -5  -8   14.24    0.51
   4   5  -8   14.49    0.52
   4   5   8   13.94    0.50
  -4  -5   8   14.34    0.48
  -4   5  -8   14.19    0.45
   4  -5  -8   13.63    0.52
   4  -5  -8   15.00    0.52
  -5   5   8   19.32    0.60
  -5  -5  -8   18.90    0.67
   5   5  -8   19.86    0.69
  -5  -5  -8   18.71    0.61
   5  -5   8   20.71    0.65
   5   5  -8   18.95    0.60
  -5  -5   8   18.74    0.61
  -5   5  -8   19.62    0.61
  -5   5  -8   18.86    0.62
   5   5   8   18.88    0.65
   5  -5  -8   19.23    0.67
   6  -5   8    4.08    0.24
  -6  -5  -8    3.77    0.24
  -6  -5  -8    3.90    0.23
  -6  -5   8    4.15    0.23
   6  -5  -8    3.75    0.25
  -6   5  -8    3.51    0.20
  -6   5  -8    3.62    0.23
   6   5   8    3.91    0.25
   7  -5   8    1.53    0.18
  -7  -5  -8    1.40    0.16
  -7  -5  -8    1.38    0.18
   7   5   8    1.52    0.18
  -7   5  -8    1.26    0.17
  -7   5  -8    1.70    0.16
   7  -5  -8    1.56    0.19
   0  -6   8   52.90    1.42
   0   6  -8   52.18    1.42
   0  -6  -8   53.19    1.52
   0   6   8   50.83    1.41
   0  -6  -8   52.56    1.54
   0   6  -8   52.65    1.50
  -1  -6  -8   28.81    0.86
   1  -6   8   27.12    0.79
  -1   6   8   27.26    0.79
   1   6  -8   27.40    0.83
  -1  -6  -8   27.38    0.86
   1  -6  -8   27.72    0.87
  -1   6  -8   28.35    0.81
  -1  -6   8   27.42    0.81
   1   6   8   28.06    0.80
  -1   6  -8   28.83    0.83
   1  -6  -8   28.33    0.88
   2   6  -8  104.16    2.64
   2   6  -8   98.06    2.84
  -2  -6  -8  100.99    2.86
  -2   6   8  100.57    2.63
   2  -6   8   98.60    2.64
  -2   6  -8  101.86    2.63
   2   6   8  101.98    2.62
   2  -6  -8   98.24    2.80
   2   6   8  103.51    2.78
  -2   6  -8   99.28    2.81
   2  -6  -8  100.36    2.87
  -2  -6   8  100.26    2.66
  -3  -6  -8   16.17    0.48
   3  -6   8   15.82    0.50
   3   6  -8   15.42    0.54
  -3   6   8   15.08    0.49
  -3  -6  -8   15.24    0.54
   3   6  -8   14.25    0.49
  -3   6  -8   15.89    0.50
   3   6   8   15.41    0.48
  -3   6  -8   16.28    0.50
  -3  -6   8   15.71    0.52
   3  -6  -8   16.92    0.56
   3  -6  -8   15.73    0.56
   3   6   8   15.48    0.54
   4   6  -8   28.01    0.91
   4   6  -8   27.77    0.83
  -4  -6  -8   27.80    0.90
  -4  -6  -8   29.06    0.82
  -4   6   8   28.30    0.82
   4  -6   8   27.56    0.83
  -4  -6   8   28.38    0.85
   4   6   8   28.94    0.90
  -4   6  -8   28.82    0.86
   4  -6  -8   28.13    0.91
  -5  -6  -8    2.16    0.17
  -5   6   8    2.14    0.16
   5   6  -8    1.95    0.16
  -5  -6  -8    2.54    0.19
   5   6  -8    2.19    0.20
   5  -6  -8    1.84    0.18
   5   6   8    1.80    0.17
  -5  -6   8    1.83    0.16
  -6  -6  -8   10.13    0.41
  -6  -6  -8   11.13    0.47
   6   6   8   10.77    0.45
  -6  -6   8   10.53    0.42
   6  -6  -8   10.48    0.46
  -6   6  -8   10.11    0.41
  -6   6  -8   10.53    0.39
  -7  -6  -8    9.15    0.45
  -7  -6  -8    9.94    0.42
  -7  -6   8    8.95    0.40
  -7   6  -8    8.38    0.39
   7   6   8    9.71    0.43
  -7   6  -8    8.28    0.37
   7  -6  -8    9.33    0.45
   0   7   8   15.78    0.50
   0  -7  -8   16.50    0.56
   0  -7   8   16.31    0.51
   0   7  -8   15.91    0.52
   0   7  -8   16.82    0.52
   0  -7  -8   14.93    0.55
   1   7  -8   37.48    1.12
  -1   7   8   38.66    1.05
  -1  -7  -8   38.16    1.13
   1  -7   8   35.82    1.05
   1   7  -8   37.84    1.06
  -1  -7  -8   37.13    1.15
   1  -7  -8   39.82    1.20
  -1   7  -8   38.72    1.10
  -1   7  -8   37.89    1.14
   1   7   8   40.50    1.09
   1  -7  -8   39.73    1.18
  -1  -7   8   38.95    1.11
   2   7  -8   -0.06    0.05
  -2  -7  -8    0.04    0.07
  -2   7   8    0.04    0.06
   2   7  -8    0.01    0.06
   2  -7   8    0.15    0.07
   2  -7  -8    0.11    0.07
  -2  -7   8   -0.05    0.06
  -2   7  -8   -0.07    0.06
   2   7   8    0.03    0.06
  -2   7  -8   -0.04    0.05
   2  -7  -8    0.04    0.07
   3   7  -8   16.83    0.58
   3  -7   8   16.65    0.53
   3   7  -8   16.45    0.53
  -3  -7  -8   15.47    0.57
  -3   7   8   15.84    0.52
  -3   7  -8   16.97    0.52
   3  -7  -8   15.30    0.57
  -3   7  -8   17.45    0.53
   3  -7  -8   17.88    0.59
   3   7   8   16.54    0.56
   3   7   8   15.44    0.49
  -3  -7   8   15.18    0.53
   4   7  -8    0.50    0.11
  -4   7   8    0.27    0.08
  -4  -7  -8    0.26    0.08
   4  -7   8    0.27    0.09
   4   7  -8    0.17    0.07
  -4  -7  -8    0.29    0.10
   4   7   8    0.29    0.09
   4  -7  -8    0.41    0.10
  -4  -7   8    0.20    0.08
  -4   7  -8    0.19    0.07
   5   7  -8   29.53    0.88
  -5  -7  -8   30.15    0.89
  -5  -7  -8   28.84    0.97
   5  -7   8   28.83    0.89
  -5   7   8   29.67    0.87
  -5  -7   8   28.83    0.89
   5   7   8   28.15    0.92
   5  -7  -8   28.85    0.95
  -5   7  -8   29.42    0.89
  -6  -7  -8    4.03    0.28
  -6  -7  -8    4.61    0.26
  -6  -7   8    4.48    0.26
  -6   7  -8    4.40    0.23
   6  -7  -8    4.41    0.29
  -6   7  -8    4.14    0.25
   6   7   8    4.03    0.26
  -7  -7  -8    8.92    0.42
  -7  -7  -8    9.95    0.47
  -7  -7   8    8.40    0.39
   0  -8   8   27.80    0.82
   0   8  -8   27.61    0.82
   0  -8  -8   28.52    0.89
   0   8  -8   26.11    0.84
   0  -8  -8   27.06    0.86
   0   8   8   27.56    0.80
  -1  -8  -8   12.85    0.49
   1   8  -8   13.08    0.46
   1   8  -8   13.13    0.46
  -1  -8  -8   13.03    0.48
   1  -8   8   13.20    0.45
  -1   8   8   13.80    0.45
   1   8   8   12.73    0.44
   1  -8  -8   13.71    0.50
  -1   8  -8   13.83    0.46
  -1  -8   8   13.40    0.46
  -1   8  -8   13.71    0.45
   1  -8  -8   12.97    0.49
   2   8  -8    2.09    0.16
  -2   8   8    1.95    0.14
   2   8  -8    2.08    0.16
  -2  -8  -8    1.99    0.17
  -2  -8  -8    2.26    0.18
   2  -8   8    2.29    0.16
  -2   8  -8    1.87    0.15
   2  -8  -8    2.23    0.17
  -2   8  -8    1.96    0.14
  -2  -8   8    2.39    0.17
   2  -8  -8    2.13    0.18
   2   8   8    2.23    0.15
  -3  -8  -8    1.21    0.15
  -3   8   8    1.08    0.12
   3  -8   8    1.24    0.12
   3   8  -8    1.18    0.12
   3   8  -8    1.03    0.13
   3   8   8    1.20    0.13
   3  -8  -8    1.23    0.15
   3   8   8    1.33    0.11
  -3   8  -8    1.60    0.13
  -3   8  -8    1.46    0.12
  -3  -8   8    1.31    0.13
   4   8  -8    2.25    0.17
  -4   8   8    1.87    0.15
  -4  -8  -8    1.76    0.18
   4   8  -8    1.75    0.17
   4  -8   8    2.06    0.16
   4  -8  -8    1.77    0.17
  -4   8  -8    1.81    0.14
   4   8   8    1.95    0.16
  -4  -8   8    1.83    0.16
  -5   8   8    5.75    0.28
   5   8  -8    5.98    0.29
   5  -8   8    5.73    0.28
  -5  -8  -8    6.16    0.33
   5  -8  -8    6.26    0.33
  -5  -8   8    6.23    0.31
   5   8   8    6.02    0.31
  -5   8  -8    5.91    0.27
  -6  -8  -8    1.98    0.22
  -6  -8  -8    2.09    0.20
   6  -8  -8    1.93    0.21
  -6  -8   8    1.55    0.18
   6   8   8    2.02    0.19
  -6   8  -8    1.81    0.18
  -6   8  -8    1.86    0.16
   0   9  -8    8.56    0.34
   0  -9  -8    8.33    0.35
   0  -9  -8    8.65    0.37
   0   9  -8    8.16    0.33
   0   9   8    8.12    0.32
   0  -9   8    8.39    0.33
   1   9  -8   57.18    1.58
   1   9  -8   56.48    1.68
   1  -9   8   56.71    1.57
  -1   9   8   54.55    1.56
  -1  -9  -8   57.98    1.72
  -1  -9  -8   59.95    1.67
  -1   9  -8   58.36    1.59
   1  -9  -8   60.57    1.69
   1  -9  -8   58.32    1.73
  -1   9  -8   58.10    1.68
   1   9   8   57.74    1.57
  -1  -9   8   53.96    1.59
  -2  -9  -8    3.03    0.22
  -2  -9  -8    3.46    0.23
   2   9  -8    2.88    0.19
   2   9  -8    2.98    0.20
   2  -9   8    2.83    0.18
  -2   9   8    2.70    0.18
  -2   9  -8    3.34    0.20
   2   9   8    3.15    0.18
  -2  -9   8    3.11    0.20
   2  -9  -8    3.06    0.21
  -2   9  -8    3.04    0.17
   2  -9  -8    3.07    0.21
  -3   9   8   12.30    0.45
   3   9  -8   12.96    0.46
  -3  -9  -8   12.45    0.50
   3   9  -8   12.99    0.49
   3  -9   8   12.81    0.45
   3  -9  -8   12.96    0.51
  -3  -9   8   13.17    0.48
   3   9   8   13.25    0.48
  -3   9  -8   12.95    0.46
  -3   9  -8   13.70    0.47
   4   9  -8    4.49    0.24
  -4   9   8    4.40    0.23
   4  -9   8    4.22    0.23
  -4  -9  -8    4.49    0.27
   4   9  -8    3.95    0.26
  -4   9  -8    4.35    0.22
   4  -9  -8    4.13    0.27
   4   9   8    4.33    0.24
  -4  -9   8    4.45    0.25
  -5   9   8   10.79    0.41
  -5  -9  -8   10.50    0.47
   5  -9   8    9.53    0.40
  -5   9  -8   10.33    0.40
   5   9   8    9.81    0.43
  -5  -9   8   10.34    0.43
   5  -9  -8   10.56    0.46
  -6  -9  -8    1.46    0.21
  -6  -9   8    1.75    0.20
  -6   9  -8    1.62    0.18
   6  -9  -8    1.45    0.20
  -6   9  -8    1.64    0.16
   6   9   8    1.91    0.20
   0  10   8   28.74    0.86
   0 -10  -8   28.63    0.91
   0 -10  -8   29.60    0.96
   0 -10   8   28.96    0.87
   0  10  -8   28.64    0.91
   0  10  -8   28.01    0.87
   1  10  -8    7.02    0.31
   1  10  -8    7.21    0.32
   1 -10   8    7.24    0.31
  -1 -10  -8    6.83    0.33
  -1  10   8    6.76    0.30
  -1 -10  -8    7.26    0.35
  -1 -10   8    7.59    0.32
  -1  10  -8    7.27    0.32
   1 -10  -8    7.53    0.35
   1 -10  -8    7.02    0.33
  -1  10  -8    6.68    0.30
   1  10   8    7.20    0.30
  -2 -10  -8   29.95    0.95
  -2 -10  -8   29.94    0.99
   2  10  -8   30.10    0.90
   2  10  -8   29.50    0.96
   2 -10   8   28.89    0.89
  -2  10   8   29.37    0.89
  -2  10  -8   30.38    0.91
   2  10   8   30.54    0.89
  -2  10  -8   30.46    0.95
  -2 -10   8   31.15    0.93
   2 -10  -8   30.20    0.97
   3 -10   8    1.90    0.16
  -3 -10  -8    1.63    0.19
  -3  10   8    1.58    0.15
   3  10  -8    1.79    0.16
   3  10  -8    1.77    0.18
  -3 -10  -8    1.45    0.17
  -3 -10   8    1.86    0.18
   3 -10  -8    1.67    0.17
  -3  10  -8    1.87    0.16
  -3  10  -8    1.67    0.14
   4  10  -8   22.62    0.81
   4 -10   8   22.12    0.73
   4  10  -8   23.00    0.74
  -4  10   8   22.77    0.73
  -4 -10  -8   23.70    0.83
   4  10   8   23.18    0.77
   4 -10  -8   23.32    0.80
  -4 -10   8   22.90    0.77
  -4  10  -8   23.39    0.76
  -5  10   8    1.07    0.15
  -5 -10  -8    1.23    0.19
   5 -10   8    1.09    0.14
  -5  10  -8    0.89    0.13
   5  10   8    1.04    0.16
  -5 -10   8    0.99    0.17
   5 -10  -8    0.80    0.15
  -6 -10  -8   29.70    1.06
   6  10   8   30.44    1.01
   0  11  -8    2.53    0.18
   0 -11  -8    2.68    0.21
   0  11  -8    2.41    0.19
   0 -11   8    2.37    0.18
   0  11   8    2.51    0.18
   0 -11  -8    2.72    0.21
  -1  11   8   51.70    1.45
   1  11  -8   51.93    1.57
  -1 -11  -8   52.00    1.54
   1  11  -8   52.63    1.47
   1 -11   8   48.88    1.46
  -1 -11  -8   53.39    1.61
  -1 -11   8   52.19    1.48
   1  11   8   52.61    1.44
  -1  11  -8   51.88    1.47
  -1  11  -8   49.30    1.54
   1 -11  -8   53.43    1.54
  -2 -11  -8    5.70    0.30
  -2  11   8    5.32    0.27
   2  11  -8    4.96    0.28
   2  11  -8    4.84    0.28
   2 -11   8    5.41    0.27
  -2 -11  -8    5.56    0.31
  -2  11  -8    5.36    0.26
  -2  11  -8    5.56    0.28
   2 -11  -8    5.23    0.30
  -2 -11   8    5.44    0.28
   2  11   8    5.70    0.26
  -3 -11  -8   12.55    0.51
  -3 -11  -8   12.79    0.54
  -3  11   8   12.49    0.47
   3  11  -8   12.74    0.48
   3 -11   8   12.32    0.46
   3  11  -8   11.49    0.50
  -3  11  -8   11.86    0.46
  -3 -11   8   12.05    0.48
   3 -11  -8   13.53    0.52
  -3  11  -8   12.46    0.47
  -4  11   8    1.00    0.14
   4 -11   8    1.08    0.15
  -4 -11  -8    1.17    0.17
   4  11  -8    1.03    0.14
   4  11   8    1.25    0.16
   4 -11  -8    1.34    0.17
  -4  11  -8    1.30    0.15
  -4 -11   8    1.46    0.18
  -5  11   8    2.94    0.22
   5 -11   8    2.90    0.22
  -5 -11  -8    3.20    0.27
  -5  11  -8    3.21    0.22
  -5 -11   8    2.90    0.24
   5  11   8    3.14    0.25
   5 -11  -8    3.19    0.26
   0  12  -8   -0.04    0.08
   0  12   8    0.05    0.08
   0  12  -8    0.04    0.09
   0 -12   8    0.00    0.08
   0 -12  -8   -0.07    0.09
   1 -12   8    0.04    0.09
   1  12  -8   -0.02    0.08
  -1  12   8    0.21    0.09
  -1 -12  -8    0.01    0.11
   1  12  -8    0.12    0.09
   1  12   8    0.11    0.09
  -1  12  -8   -0.02    0.10
  -1  12  -8    0.13    0.09
   1 -12  -8    0.11    0.10
  -1 -12   8   -0.07    0.10
   2 -12   8    5.48    0.28
  -2 -12  -8    5.25    0.30
  -2  12   8    5.39    0.28
   2  12  -8    5.89    0.32
   2  12  -8    5.47    0.29
   2  12   8    5.35    0.27
  -2  12  -8    5.44    0.29
   2 -12  -8    5.85    0.31
  -2 -12   8    5.23    0.29
  -2  12  -8    5.39    0.27
  -3  12   8    5.87    0.30
   3  12  -8    6.96    0.36
   3 -12   8    6.33    0.31
   3  12  -8    5.80    0.31
  -3 -12   8    6.34    0.33
  -3  12  -8    6.42    0.31
  -3  12  -8    6.73    0.32
   3 -12  -8    6.55    0.35
   4  12  -8   21.92    0.73
  -4  12   8   21.34    0.71
   4 -12   8   20.65    0.71
   4 -12  -8   21.68    0.77
  -4 -12   8   21.35    0.75
  -4  12  -8   21.35    0.74
   0  13   8   -0.03    0.08
   0 -13   8    0.05    0.10
   0  13  -8    0.02    0.09
   0  13  -8    0.09    0.11
   1  13  -8    0.22    0.12
   1  13  -8    0.15    0.12
  -1  13   8    0.13    0.11
   1 -13   8    0.15    0.10
  -1 -13   8    0.25    0.12
  -1  13  -8    0.10    0.10
   1  13   8    0.14    0.11
  -1  13  -8    0.19    0.10
   2  13  -8    1.83    0.19
   2 -13   8    1.68    0.17
   2  13  -8    1.83    0.19
  -2  13   8    1.66    0.17
  -2  13  -8    1.82    0.17
  -2 -13   8    1.60    0.19
  -2  13  -8    1.91    0.20
   2  13   8    1.66    0.17
  -3  13   8    1.77    0.19
   3  13  -8    1.74    0.21
   3  13  -8    1.97    0.20
   3 -13   8    1.87    0.19
  -3 -13   8    1.92    0.21
  -3  13  -8    1.96    0.19
  -3  13  -8    1.93    0.20
   4  13  -8    4.44    0.28
   0 -14   8    1.19    0.17
   0  14   8    1.20    0.16
   0  14  -8    0.96    0.16
   0  14  -8    1.13    0.16
   1  14  -8    1.32    0.18
   1  14  -8    1.10    0.16
  -1  14   8    1.29    0.16
   1 -14   8    0.93    0.14
   1  14   8    1.25    0.15
  -1  14  -8    1.19    0.16
  -1  14  -8    0.92    0.16
  -1 -14   8    1.04    0.15
   2  14  -8    2.43    0.24
   2  14   8    3.12    0.23
  -2  14  -8    2.52    0.21
  -2  14  -8    3.05    0.23
   0   0   9    0.00    0.03
   0   0  -9   -0.01    0.03
   0   0  -9    0.01    0.03
   0   0   9   -0.01    0.04
   0   0  -9    0.06    0.06
   1   0   9   -0.06    0.04
  -1   0   9    0.06    0.03
  -1   0  -9    0.04    0.03
   1   0   9   -0.03    0.04
  -1   0  -9    0.02    0.02
   1   0  -9   -0.02    0.04
  -1   0  -9   -0.05    0.05
   1   0  -9    0.02    0.06
  -1   0   9   -0.04    0.04
   2   0  -9    5.18    0.21
  -2   0  -9    5.13    0.20
  -2   0  -9    5.04    0.16
   2   0   9    5.22    0.20
  -2   0   9    4.86    0.21
   2   0  -9    4.97    0.24
   2   0   9    5.17    0.22
  -2   0  -9    5.26    0.16
  -3   0  -9   11.92    0.36
   3   0   9   12.06    0.42
  -3   0  -9   12.25    0.39
  -3   0   9   11.29    0.39
   3   0  -9   11.91    0.43
   3   0   9   12.04    0.37
   3   0  -9   12.07    0.42
   4   0  -9   36.39    1.13
  -4   0  -9   37.02    1.06
  -4   0   9   36.31    1.03
   4   0   9   37.63    1.10
  -4   0  -9   36.40    1.03
   4   0  -9   36.49    1.11
  -5   0   9   11.81    0.40
   5   0  -9   11.16    0.44
  -5   0  -9   11.37    0.39
   5   0   9   11.73    0.44
  -5   0  -9   11.72    0.41
   5   0  -9   11.21    0.45
  -6   0  -9    2.51    0.16
  -6   0  -9    2.67    0.18
   6   0   9    2.68    0.21
   6   0  -9    2.56    0.21
  -7   0  -9   -0.18    0.08
  -7   0  -9   -0.02    0.10
   7   0  -9    0.05    0.12
   7   0   9    0.12    0.11
   0  -1  -9   24.35    0.76
   0   1  -9   24.17    0.71
   0   1  -9   26.18    0.72
   0  -1   9   24.45    0.68
   0   1   9   25.52    0.66
   0  -1   9   24.97    0.71
   0   1   9   24.47    0.70
   0   1  -9   24.80    0.75
   0  -1  -9   24.67    0.73
   1   1  -9   76.05    2.11
  -1  -1  -9   75.11    2.12
  -1  -1  -9   76.72    2.12
   1   1  -9   74.23    2.12
  -1  -1  -9   78.58    1.97
  -1  -1  -9   78.92    2.11
  -1   1   9   75.37    1.99
   1  -1   9   72.50    1.98
   1  -1   9   75.73    1.97
  -1  -1   9   69.06    1.95
   1   1   9   73.88    1.94
  -1   1  -9   75.54    2.07
   1  -1  -9   75.38    2.08
  -1  -1   9   77.27    1.93
   1  -1  -9   75.32    2.10
  -2  -1  -9   21.33    0.60
  -2  -1  -9   20.73    0.61
   2  -1   9   20.30    0.60
   2   1  -9   20.72    0.65
   2   1  -9   21.39    0.66
  -2   1   9   21.55    0.62
  -2  -1  -9   21.68    0.61
   2  -1   9   20.86    0.64
   2  -1   9   20.52    0.60
   2  -1  -9   20.43    0.63
   2   1   9   20.42    0.58
  -2  -1   9   20.27    0.60
  -2  -1   9   20.84    0.57
   2   1   9   19.18    0.63
   2  -1  -9   20.24    0.65
  -3  -1  -9   25.15    0.73
   3   1  -9   24.45    0.77
  -3  -1  -9   25.53    0.71
   3  -1   9   25.27    0.70
   3  -1   9   24.85    0.76
   3   1  -9   24.26    0.78
  -3   1   9   24.37    0.72
  -3   1  -9   25.58    0.69
   3   1   9   24.54    0.67
   3   1   9   23.22    0.74
  -3  -1   9   23.56    0.71
  -3   1  -9   23.36    0.68
   3  -1  -9   24.07    0.77
   3  -1  -9   24.03    0.76
  -3   1  -9   24.57    0.70
  -4  -1  -9    4.58    0.19
   4   1  -9    4.68    0.24
  -4  -1  -9    4.44    0.21
   4   1  -9    4.45    0.24
   4  -1   9    4.56    0.23
  -4   1   9    3.98    0.20
  -4  -1   9    4.28    0.20
   4  -1  -9    4.53    0.24
  -4   1  -9    4.21    0.16
   4  -1  -9    4.48    0.23
   4   1   9    3.78    0.21
  -4   1  -9    4.52    0.21
   5   1  -9   21.66    0.73
  -5  -1  -9   21.51    0.68
  -5   1   9   22.61    0.67
  -5  -1  -9   23.10    0.69
   5  -1   9   21.66    0.72
   5   1  -9   22.29    0.75
   5  -1  -9   22.50    0.74
  -5  -1   9   22.84    0.68
  -5   1  -9   21.60    0.67
  -5   1  -9   22.05    0.68
   5  -1  -9   22.06    0.75
   5   1   9   21.51    0.72
  -6  -1  -9   10.30    0.38
   6  -1   9    9.36    0.41
  -6  -1  -9    9.74    0.38
   6   1  -9    9.75    0.42
  -6   1  -9    9.18    0.37
  -6   1  -9    9.56    0.35
   6   1   9    8.65    0.39
   6  -1  -9    9.68    0.42
   7  -1   9   19.20    0.69
   7   1  -9   18.52    0.69
  -7  -1  -9   18.79    0.66
  -7  -1  -9   19.24    0.65
  -7   1  -9   17.63    0.61
  -7   1  -9   16.42    0.59
   7   1   9   18.02    0.65
   7  -1  -9   18.43    0.67
   0   2  -9   34.75    0.99
   0  -2  -9   35.10    1.05
   0  -2   9   35.66    0.95
   0   2  -9   35.05    1.02
   0   2   9   35.62    0.97
   0   2  -9   37.21    1.00
   0  -2   9   34.57    0.97
   0  -2  -9   33.53    1.02
   1   2  -9   74.32    2.07
   1  -2   9   77.15    1.94
   1  -2   9   73.83    1.92
  -1   2   9   72.82    1.94
   1   2  -9   72.82    2.04
  -1  -2  -9   73.86    2.07
  -1  -2  -9   70.78    2.07
   1   2   9   73.87    1.96
  -1   2  -9   76.56    2.08
  -1  -2   9   76.41    1.95
  -1  -2   9   74.26    1.98
   1  -2  -9   72.59    2.11
   1  -2  -9   75.70    2.10
   2   2  -9   28.22    0.83
   2  -2   9   28.27    0.77
   2  -2   9   27.38    0.81
  -2   2   9   26.96    0.78
  -2  -2  -9   27.75    0.76
   2   2  -9   27.44    0.83
  -2  -2  -9   27.03    0.81
   2  -2   9   27.04    0.77
   2   2   9   27.67    0.85
   2   2   9   28.03    0.78
  -2  -2   9   28.79    0.78
   2  -2  -9   28.07    0.85
   2  -2  -9   28.08    0.87
  -3   2   9   35.78    1.03
   3   2  -9   37.28    1.12
  -3  -2  -9   37.43    1.02
  -3  -2  -9   37.65    1.08
   3  -2   9   37.31    1.08
   3   2  -9   37.73    1.09
  -3  -2   9   39.39    1.07
   3   2   9   38.82    1.05
  -3   2  -9   39.56    1.09
   3  -2  -9   39.04    1.17
   3  -2  -9   38.41    1.17
  -3  -2   9   38.58    1.09
   3   2   9   39.27    1.15
   4  -2   9   36.58    1.10
  -4  -2  -9   37.10    1.04
  -4   2   9   36.89    1.04
  -4  -2  -9   38.16    1.10
   4   2  -9   37.25    1.15
   4   2  -9   38.22    1.12
   4  -2  -9   38.48    1.16
  -4  -2   9   38.45    1.08
  -4   2  -9   38.26    1.09
   4  -2  -9   40.45    1.18
   4   2   9   37.82    1.15
  -4   2  -9   37.03    1.08
   5   2  -9   13.50    0.48
  -5   2   9   13.04    0.44
   5   2  -9   13.74    0.51
  -5  -2  -9   12.68    0.44
  -5  -2  -9   12.73    0.45
   5  -2   9   12.51    0.47
  -5   2  -9   12.52    0.45
  -5   2  -9   12.61    0.42
   5  -2  -9   13.41    0.50
   5   2   9   13.03    0.48
   5  -2  -9   13.20    0.50
  -5  -2   9   12.75    0.44
   6   2  -9   14.50    0.55
  -6  -2  -9   14.28    0.52
   6  -2   9   14.82    0.55
  -6  -2  -9   15.65    0.52
  -6   2  -9   14.58    0.51
  -6   2  -9   14.76    0.49
   6  -2  -9   14.13    0.56
   6   2   9   14.24    0.54
  -7  -2  -9   31.45    0.94
   7   2  -9   30.60    0.99
   7  -2   9   29.29    0.98
  -7  -2  -9   29.71    0.98
   7  -2  -9   29.63    1.02
  -7   2  -9   31.46    0.97
   7   2   9   31.18    1.02
  -7   2  -9   31.51    0.96
   0   3   9    1.40    0.11
   0   3  -9    1.57    0.12
   0   3  -9    1.48    0.08
   0  -3  -9    1.42    0.13
   0  -3  -9    1.32    0.10
   0  -3   9    1.43    0.10
   0  -3   9    1.64    0.12
  -1  -3  -9   48.38    1.39
   1   3  -9   49.17    1.35
  -1  -3  -9   47.45    1.37
   1  -3   9   46.25    1.28
  -1   3   9   48.81    1.29
   1   3  -9   47.24    1.36
   1  -3   9   46.64    1.29
  -1  -3   9   48.43    1.27
  -1   3  -9   44.67    1.31
  -1   3  -9   49.27    1.34
  -1  -3   9   46.23    1.28
  -1   3  -9   49.35    1.32
   1  -3  -9   45.76    1.37
   1  -3  -9   46.16    1.37
   1   3   9   47.22    1.26
   2   3  -9   64.89    1.91
  -2  -3  -9   69.29    1.75
   2  -3   9   66.69    1.85
  -2   3   9   65.18    1.77
   2  -3   9   66.68    1.77
   2  -3   9   66.04    1.77
   2   3  -9   69.15    1.87
  -2  -3  -9   67.46    1.90
  -2  -3   9   67.50    1.77
   2   3   9   69.31    1.76
   2  -3  -9   68.81    1.92
  -2  -3   9   66.11    1.79
   2   3   9   64.81    1.88
   2  -3  -9   65.18    1.90
   3   3  -9   29.40    0.87
  -3  -3  -9   28.47    0.87
   3  -3   9   29.31    0.86
  -3   3   9   27.72    0.82
   3  -3   9   28.48    0.82
  -3  -3  -9   30.42    0.81
   3   3  -9   28.19    0.89
   3  -3  -9   27.88    0.89
  -3   3  -9   26.99    0.80
   3  -3  -9   28.43    0.88
   3   3   9   28.39    0.87
  -3  -3   9   29.11    0.83
  -3   3  -9   28.11    0.79
  -3   3  -9   28.69    0.80
   3   3   9   29.58    0.78
  -3  -3   9   28.67    0.81
   4  -3   9   10.30    0.37
   4   3  -9    9.65    0.37
  -4  -3  -9    9.82    0.36
   4   3  -9    9.72    0.39
  -4   3   9    9.65    0.35
  -4  -3  -9    9.97    0.35
  -4  -3   9    9.19    0.33
   4  -3  -9    9.25    0.38
  -4   3  -9    9.28    0.30
   4   3   9    9.67    0.37
  -4   3  -9    8.95    0.34
   4  -3  -9    9.33    0.37
  -4  -3   9    8.54    0.34
  -5  -3  -9    8.30    0.32
   5   3  -9    7.94    0.34
  -5   3   9    7.65    0.30
   5  -3   9    7.77    0.33
  -5  -3  -9    7.20    0.31
   5   3  -9    7.92    0.35
  -5  -3   9    7.46    0.31
   5  -3  -9    7.22    0.34
  -5   3  -9    7.26    0.27
  -5   3  -9    7.21    0.30
   5   3   9    7.53    0.33
   6  -3   9    9.89    0.41
  -6  -3  -9   10.00    0.38
   6   3  -9    9.59    0.41
  -6  -3  -9    9.89    0.40
   6  -3  -9    9.81    0.42
  -6   3  -9    9.20    0.35
   6   3   9    9.52    0.41
  -6   3  -9    9.49    0.39
  -7  -3  -9    8.86    0.39
   7   3  -9    8.96    0.42
   7  -3   9    9.26    0.42
  -7  -3  -9    8.78    0.40
  -7   3  -9    8.58    0.36
   7  -3  -9    9.34    0.43
  -7   3  -9    9.48    0.40
   7   3   9    8.72    0.41
   0  -4  -9    2.15    0.16
   0   4   9    2.68    0.15
   0   4  -9    2.49    0.14
   0  -4   9    2.34    0.13
   0  -4   9    2.26    0.14
   0  -4  -9    2.57    0.15
   0   4  -9    2.60    0.12
   1   4  -9   32.49    0.90
   1  -4   9   30.44    0.86
  -1  -4  -9   30.76    0.93
  -1  -4  -9   30.29    0.94
   1  -4   9   30.28    0.87
  -1   4   9   30.80    0.87
   1   4  -9   31.06    0.91
  -1   4  -9   32.99    0.90
  -1   4  -9   32.09    0.92
   1   4   9   32.03    0.88
   1  -4  -9   30.55    0.95
  -1  -4   9   31.29    0.88
  -1   4  -9   30.91    0.89
   1  -4  -9   30.63    0.96
   2   4  -9    1.88    0.13
   2  -4   9    1.64    0.12
  -2   4   9    1.46    0.12
   2  -4   9    1.52    0.11
  -2  -4  -9    1.53    0.12
   2   4  -9    1.51    0.12
  -2  -4   9    1.61    0.13
  -2   4  -9    1.92    0.08
   2  -4  -9    1.77    0.15
  -2  -4   9    2.04    0.13
   2   4   9    1.95    0.13
  -2   4  -9    1.87    0.13
   2   4   9    1.81    0.14
  -2   4  -9    1.82    0.08
   2  -4  -9    2.04    0.14
   3   4  -9   27.06    0.81
  -3  -4  -9   27.15    0.84
   3   4  -9   26.33    0.85
   3  -4   9   27.36    0.79
  -3  -4  -9   27.33    0.77
  -3   4   9   27.34    0.79
   3  -4   9   27.32    0.81
  -3   4  -9   27.05    0.79
  -3  -4   9   27.29    0.81
  -3  -4   9   28.06    0.80
   3  -4  -9   27.13    0.87
  -3   4  -9   27.96    0.78
   3  -4  -9   26.51    0.86
   3   4   9   28.41    0.77
   3   4   9   28.03    0.86
  -4  -4  -9    0.60    0.10
   4  -4   9    0.49    0.09
  -4   4   9    0.42    0.09
   4  -4   9    0.44    0.09
  -4  -4  -9    0.67    0.09
   4   4  -9    0.59    0.11
  -4  -4   9    0.67    0.10
   4  -4  -9    0.51    0.11
  -4   4  -9    0.64    0.07
   4   4   9    0.72    0.11
  -4  -4   9    0.77    0.11
   4  -4  -9    0.78    0.12
   5   4  -9    8.71    0.39
  -5  -4  -9    9.02    0.34
  -5  -4  -9    8.52    0.36
   5  -4   9    8.58    0.36
  -5   4   9    9.14    0.34
   5  -4  -9    9.05    0.40
  -5  -4   9    9.75    0.36
   5   4   9    8.75    0.38
  -5   4  -9    8.70    0.35
  -5   4  -9    8.54    0.31
  -6  -4  -9    8.37    0.36
   6  -4   9    8.11    0.36
  -6  -4  -9    7.71    0.33
   6  -4  -9    8.60    0.39
  -6   4  -9    8.37    0.36
   6   4   9    8.13    0.38
  -6   4  -9    7.79    0.32
   7  -4   9    5.61    0.31
  -7  -4  -9    4.46    0.27
  -7  -4  -9    5.21    0.30
   7   4   9    3.96    0.28
  -7   4  -9    4.49    0.23
  -7   4  -9    4.85    0.28
   7  -4  -9    4.54    0.31
   0  -5  -9    3.34    0.18
   0  -5   9    3.69    0.18
   0   5  -9    3.61    0.15
   0  -5  -9    3.08    0.20
   0   5   9    3.68    0.17
  -1  -5  -9    4.87    0.25
   1   5  -9    5.58    0.22
  -1  -5  -9    5.13    0.24
   1  -5   9    5.40    0.22
  -1   5   9    5.38    0.23
  -1   5  -9    5.49    0.23
   1  -5  -9    5.10    0.24
   1  -5  -9    5.99    0.27
  -1  -5   9    5.29    0.23
   1   5   9    5.54    0.22
  -1   5  -9    5.17    0.19
   2  -5   9   47.92    1.32
  -2   5   9   48.48    1.32
   2   5  -9   48.62    1.42
  -2  -5  -9   48.04    1.42
   2   5   9   50.94    1.33
  -2   5  -9   49.03    1.39
   2   5   9   50.01    1.43
  -2   5  -9   49.92    1.35
   2  -5  -9   48.29    1.46
  -2  -5   9   50.61    1.36
  -2  -5   9   48.35    1.37
   2  -5  -9   49.30    1.46
  -3  -5  -9   51.85    1.56
   3   5  -9   52.66    1.57
  -3   5   9   53.67    1.45
   3  -5   9   53.89    1.45
   3   5   9   55.18    1.44
   3  -5  -9   50.51    1.57
  -3  -5   9   54.92    1.48
   3   5   9   54.89    1.56
  -3   5  -9   54.74    1.52
  -3   5  -9   53.81    1.45
  -3  -5   9   53.84    1.48
   3  -5  -9   52.89    1.59
   4  -5   9    4.61    0.23
  -4   5   9    4.71    0.23
   4  -5   9    5.56    0.24
  -4  -5  -9    5.61    0.26
  -4  -5  -9    5.37    0.23
   4   5  -9    4.99    0.27
   4  -5  -9    5.52    0.27
   4  -5  -9    5.22    0.29
   4   5   9    5.23    0.26
  -4   5  -9    5.47    0.21
  -4  -5   9    5.01    0.24
   5   5  -9    7.07    0.30
   5  -5   9    7.50    0.32
  -5  -5  -9    7.19    0.33
  -5   5   9    7.52    0.30
   5   5  -9    7.04    0.35
  -5  -5  -9    7.66    0.31
  -5  -5   9    7.29    0.31
   5   5   9    7.13    0.33
  -5   5  -9    7.51    0.28
  -5   5  -9    7.57    0.32
   5  -5  -9    6.61    0.34
  -6  -5  -9    1.04    0.15
  -6  -5  -9    1.11    0.13
  -6   5  -9    1.12    0.11
   6  -5  -9    1.09    0.15
  -6   5  -9    1.19    0.14
   6   5   9    1.09    0.15
  -7  -5  -9    1.09    0.16
  -7  -5  -9    0.57    0.15
   0  -6   9    9.46    0.34
   0   6  -9    9.12    0.35
   0  -6  -9   10.18    0.39
   0  -6  -9    9.34    0.37
   0   6   9    9.43    0.34
   0   6  -9    9.76    0.33
  -1  -6  -9    9.64    0.37
   1  -6   9    9.59    0.34
  -1  -6  -9    8.80    0.37
  -1   6   9    9.30    0.34
   1   6  -9    9.61    0.34
   1   6  -9    9.94    0.35
  -1   6  -9    8.65    0.33
   1  -6  -9    8.72    0.35
   1  -6  -9    8.88    0.37
  -1   6  -9    9.46    0.31
  -1  -6   9    9.87    0.34
   1   6   9    9.00    0.32
   2   6  -9   13.05    0.45
  -2   6   9   13.56    0.45
   2  -6   9   13.38    0.44
   2   6  -9   13.60    0.47
  -2  -6  -9   13.53    0.48
  -2   6  -9   12.91    0.43
  -2  -6   9   14.07    0.46
   2  -6  -9   13.21    0.49
   2   6   9   13.74    0.44
   2  -6  -9   14.42    0.51
  -2   6  -9   14.52    0.46
  -3   6   9   11.58    0.42
   3   6  -9   12.21    0.43
   3  -6   9   12.46    0.42
  -3  -6  -9   11.76    0.45
   3   6  -9   12.44    0.45
  -3  -6   9   12.14    0.42
   3  -6  -9   12.74    0.46
   3  -6  -9   11.86    0.47
  -3   6  -9   12.34    0.39
   3   6   9   12.06    0.45
  -3   6  -9   11.97    0.41
   4   6  -9    4.07    0.22
  -4   6   9    4.48    0.22
  -4  -6  -9    4.83    0.25
   4   6  -9    4.30    0.25
   4  -6   9    4.41    0.22
  -4   6  -9    4.71    0.20
   4  -6  -9    4.53    0.26
  -4  -6   9    4.43    0.23
   4  -6  -9    4.70    0.26
   4   6   9    4.98    0.25
   5   6  -9   14.35    0.56
  -5   6   9   14.42    0.49
   5   6  -9   14.61    0.50
  -5  -6  -9   14.20    0.55
  -5  -6  -9   14.64    0.50
  -5  -6   9   14.89    0.52
   5   6   9   14.72    0.55
   5  -6  -9   14.61    0.57
  -6  -6  -9    0.39    0.12
  -6  -6  -9    0.43    0.12
  -6   6  -9    0.29    0.11
  -6   6  -9    0.44    0.10
   6   6   9    0.44    0.13
   6  -6  -9    0.49    0.13
  -6  -6   9    0.40    0.12
  -7  -6  -9    5.57    0.31
   0   7  -9   12.75    0.42
   0  -7  -9   12.57    0.47
   0   7  -9   13.21    0.44
   0  -7   9   12.27    0.43
   0   7   9   12.53    0.42
   0  -7  -9   12.30    0.47
   1   7  -9    0.51    0.09
  -1   7   9    0.39    0.08
   1   7  -9    0.45    0.08
  -1  -7  -9    0.58    0.11
  -1  -7  -9    0.60    0.10
   1  -7   9    0.49    0.09
   1   7   9    0.29    0.07
  -1  -7   9    0.20    0.08
   1  -7  -9    0.34    0.09
  -1   7  -9    0.37    0.07
   1  -7  -9    0.44    0.11
  -1   7  -9    0.38    0.08
  -2  -7  -9   21.41    0.72
   2   7  -9   21.12    0.70
  -2   7   9   21.89    0.66
   2  -7   9   20.70    0.66
   2   7  -9   22.11    0.68
  -2  -7  -9   22.64    0.73
   2  -7  -9   22.04    0.73
   2  -7  -9   22.53    0.74
  -2  -7   9   22.05    0.68
  -2   7  -9   22.10    0.67
   2   7   9   22.71    0.66
  -2   7  -9   21.73    0.68
  -3   7   9   15.00    0.52
   3   7  -9   16.60    0.54
   3   7  -9   16.36    0.57
  -3  -7  -9   16.03    0.58
   3  -7   9   15.91    0.52
   3   7   9   16.13    0.57
   3  -7  -9   16.65    0.59
  -3   7  -9   17.48    0.54
  -3  -7   9   16.35    0.55
   3  -7  -9   16.04    0.60
  -3   7  -9   16.55    0.52
   4   7  -9    3.43    0.23
   4   7  -9    3.54    0.21
  -4  -7  -9    3.25    0.22
   4  -7   9    3.53    0.20
  -4   7   9    3.71    0.21
  -4  -7   9    3.16    0.21
  -4   7  -9    3.58    0.17
   4  -7  -9    3.70    0.25
   4   7   9    3.08    0.21
  -5  -7  -9    6.68    0.34
   5   7  -9    6.93    0.35
  -5   7   9    6.83    0.30
   5  -7   9    6.46    0.30
   5   7  -9    7.00    0.31
   5  -7  -9    7.15    0.35
   5   7   9    6.96    0.33
  -5  -7   9    7.10    0.32
  -5   7  -9    6.52    0.28
  -6  -7  -9   19.40    0.73
  -6   7  -9   17.83    0.64
  -6  -7   9   18.78    0.65
   6  -7  -9   18.66    0.70
   6   7   9   19.11    0.69
  -6   7  -9   18.38    0.62
   0  -8  -9   63.35    1.78
   0  -8   9   63.65    1.68
   0  -8  -9   59.78    1.81
   0   8  -9   58.52    1.76
   0   8   9   58.66    1.65
   0   8  -9   63.32    1.68
  -1  -8  -9    9.31    0.39
  -1  -8  -9    9.63    0.40
   1  -8   9    9.95    0.37
   1   8  -9    9.86    0.37
  -1   8   9    9.19    0.36
   1   8  -9    9.93    0.37
   1  -8  -9   10.02    0.40
  -1   8  -9    9.92    0.37
   1   8   9   10.14    0.36
   1  -8  -9   10.09    0.41
  -1   8  -9    9.87    0.36
  -1  -8   9    9.76    0.38
  -2  -8  -9   49.08    1.45
   2   8  -9   48.39    1.46
   2  -8   9   48.75    1.36
  -2  -8  -9   49.51    1.49
   2   8  -9   48.63    1.37
  -2   8   9   47.50    1.35
  -2   8  -9   49.43    1.38
   2   8   9   50.59    1.36
   2  -8  -9   51.92    1.51
  -2  -8   9   49.82    1.40
  -2   8  -9   48.53    1.44
   2  -8  -9   49.29    1.48
   3   8  -9    7.46    0.34
  -3   8   9    7.77    0.32
  -3  -8  -9    7.39    0.35
   3  -8   9    6.98    0.31
   3   8  -9    7.57    0.32
  -3   8  -9    7.78    0.31
   3   8   9    7.45    0.32
  -3   8  -9    7.31    0.28
  -3  -8   9    7.41    0.32
   3  -8  -9    7.30    0.34
   3  -8  -9    7.21    0.35
  -4  -8  -9   26.67    0.89
   4   8  -9   26.01    0.89
   4   8  -9   27.39    0.82
  -4   8   9   24.97    0.79
   4  -8   9   25.86    0.80
  -4  -8   9   26.28    0.83
   4   8   9   26.45    0.87
   4  -8  -9   27.39    0.90
  -4   8  -9   26.77    0.83
   5   8  -9    0.80    0.13
   5  -8   9    0.83    0.13
  -5  -8  -9    0.69    0.14
  -5   8   9    0.63    0.12
   5   8   9    0.95    0.15
  -5   8  -9    0.86    0.11
  -5  -8   9    0.74    0.13
   5  -8  -9    1.00    0.16
  -6  -8  -9   13.16    0.56
  -6  -8   9   13.46    0.53
   6  -8  -9   13.54    0.57
   6   8   9   13.53    0.54
  -6   8  -9   13.62    0.52
  -6   8  -9   13.76    0.50
   0   9   9    3.62    0.20
   0  -9  -9    3.61    0.23
   0  -9   9    3.34    0.20
   0  -9  -9    3.95    0.24
   0   9  -9    3.60    0.21
   0   9  -9    3.21    0.19
  -1   9   9   13.07    0.47
   1   9  -9   14.76    0.50
   1  -9   9   14.12    0.48
  -1  -9  -9   13.91    0.53
  -1  -9  -9   14.68    0.54
   1   9  -9   13.63    0.50
  -1   9  -9   13.37    0.48
   1   9   9   13.48    0.46
  -1   9  -9   13.79    0.47
   1  -9  -9   12.82    0.51
  -1  -9   9   13.78    0.48
   1  -9  -9   14.54    0.53
   2   9  -9    7.36    0.33
  -2  -9  -9    7.60    0.36
   2  -9   9    7.81    0.32
  -2   9   9    7.34    0.32
   2   9  -9    7.46    0.32
  -2  -9  -9    7.68    0.36
  -2  -9   9    8.26    0.34
   2   9   9    7.99    0.31
   2  -9  -9    7.76    0.36
  -2   9  -9    7.97    0.31
  -2   9  -9    7.05    0.32
   2  -9  -9    8.11    0.36
   3   9  -9    2.43    0.19
  -3  -9  -9    2.37    0.20
   3   9  -9    2.17    0.17
   3  -9   9    2.14    0.17
  -3   9   9    2.39    0.17
  -3   9  -9    2.85    0.17
   3  -9  -9    2.93    0.22
  -3  -9   9    2.86    0.20
  -3   9  -9    2.76    0.19
  -4   9   9    5.08    0.26
  -4  -9  -9    5.21    0.30
   4  -9   9    4.52    0.25
   4   9  -9    5.10    0.30
   4   9  -9    5.25    0.28
   4   9   9    4.90    0.27
  -4   9  -9    5.03    0.24
  -4  -9   9    5.41    0.29
   4  -9  -9    5.24    0.30
  -5   9   9    0.59    0.12
   5  -9   9    0.64    0.13
  -5  -9  -9    0.71    0.15
   5   9  -9    0.68    0.12
   5  -9  -9    0.77    0.16
   5   9   9    0.80    0.14
  -5   9  -9    0.59    0.11
  -5  -9   9    0.64    0.14
  -6  -9  -9    5.03    0.34
   6   9   9    4.81    0.30
  -6  -9   9    4.57    0.29
   0  10   9    0.27    0.10
   0  10  -9    0.40    0.09
   0 -10  -9    0.48    0.12
   0 -10  -9    0.64    0.13
   0  10  -9    0.38    0.10
   0 -10   9    0.43    0.11
   1  10  -9    1.05    0.13
  -1 -10  -9    0.78    0.13
   1 -10   9    1.09    0.13
   1  10  -9    1.15    0.13
  -1  10   9    0.92    0.12
  -1 -10  -9    1.22    0.16
   1 -10  -9    0.71    0.12
   1  10   9    1.13    0.12
   1 -10  -9    0.98    0.15
  -1 -10   9    0.87    0.12
  -1  10  -9    1.07    0.12
  -1  10  -9    1.00    0.13
  -2 -10  -9    3.04    0.23
  -2  10   9    2.83    0.20
  -2 -10  -9    2.78    0.22
   2  10  -9    3.05    0.21
   2  10  -9    3.21    0.21
   2 -10   9    3.05    0.20
   2  10   9    3.05    0.19
  -2  10  -9    3.31    0.21
  -2 -10   9    3.02    0.20
  -2  10  -9    3.18    0.19
   2 -10  -9    3.29    0.23
   3 -10   9    2.65    0.18
   3  10  -9    2.74    0.22
  -3  10   9    2.60    0.19
  -3 -10  -9    2.65    0.22
  -3 -10  -9    2.86    0.23
   3  10  -9    2.67    0.20
  -3 -10   9    2.63    0.20
  -3  10  -9    2.80    0.20
   3 -10  -9    2.66    0.21
  -3  10  -9    2.72    0.18
  -4 -10  -9   10.04    0.46
   4  10  -9   10.01    0.42
   4  10  -9   10.00    0.46
   4 -10   9   10.47    0.41
  -4  10   9    9.61    0.40
  -4 -10   9    9.89    0.43
   4 -10  -9    9.96    0.45
   4  10   9   10.00    0.43
  -4  10  -9   10.40    0.40
  -5 -10  -9    8.70    0.44
  -5  10   9    8.30    0.37
   5 -10   9    8.90    0.39
   5  10   9    8.62    0.40
   5 -10  -9    8.71    0.44
  -5 -10   9    8.60    0.40
  -5  10  -9    8.66    0.37
   0  11  -9    2.17    0.18
   0 -11   9    2.16    0.18
   0  11   9    2.11    0.17
   0 -11  -9    2.15    0.20
   0 -11  -9    2.25    0.20
   0  11  -9    1.89    0.16
  -1 -11  -9   19.70    0.72
  -1 -11  -9   20.48    0.70
   1  11  -9   18.83    0.68
   1 -11   9   19.55    0.65
   1  11  -9   20.12    0.67
  -1  11   9   19.56    0.65
  -1  11  -9   19.31    0.66
   1  11   9   21.50    0.66
  -1 -11   9   19.55    0.67
   1 -11  -9   20.69    0.70
  -1  11  -9   18.93    0.67
   2 -11   9    1.16    0.14
   2  11  -9    1.02    0.14
   2  11  -9    1.11    0.15
  -2 -11  -9    1.08    0.16
  -2  11   9    1.05    0.13
  -2 -11  -9    1.09    0.15
  -2 -11   9    1.01    0.15
   2  11   9    1.06    0.13
  -2  11  -9    1.10    0.13
   2 -11  -9    0.84    0.14
  -2  11  -9    0.95    0.14
   3  11  -9    0.71    0.14
  -3  11   9    0.83    0.13
   3  11  -9    0.79    0.15
  -3 -11  -9    0.64    0.15
  -3 -11  -9    0.94    0.17
   3 -11   9    0.82    0.13
  -3  11  -9    0.98    0.13
  -3  11  -9    0.62    0.13
   3 -11  -9    0.73    0.16
  -3 -11   9    0.98    0.15
   4 -11   9    5.46    0.29
  -4 -11  -9    5.68    0.34
   4  11  -9    4.72    0.28
  -4 -11  -9    4.84    0.32
  -4  11   9    5.94    0.30
   4  11  -9    5.83    0.34
  -4 -11   9    5.67    0.31
   4 -11  -9    6.32    0.35
  -4  11  -9    6.05    0.30
  -5 -11  -9    3.36    0.29
  -5  11   9    3.34    0.24
   5  11   9    3.05    0.25
   5 -11  -9    4.07    0.30
   0  12   9    3.46    0.22
   0  12  -9    3.63    0.23
   0 -12   9    2.93    0.21
   0  12  -9    3.29    0.24
   0 -12  -9    3.17    0.24
   1 -12   9    4.83    0.26
  -1  12   9    4.27    0.25
   1  12  -9    4.59    0.27
   1  12  -9    4.43    0.27
  -1 -12  -9    4.60    0.29
  -1 -12   9    4.99    0.28
   1 -12  -9    5.45    0.31
  -1  12  -9    5.06    0.27
  -1  12  -9    4.83    0.28
   1  12   9    5.08    0.27
   2 -12   9    2.04    0.18
   2  12  -9    2.21    0.21
  -2 -12  -9    2.41    0.21
  -2 -12  -9    1.77    0.20
   2  12  -9    1.91    0.19
  -2  12   9    1.75    0.17
  -2  12  -9    1.94    0.17
  -2  12  -9    1.59    0.17
   2 -12  -9    1.82    0.20
  -2 -12   9    1.79    0.18
   2  12   9    1.76    0.16
   3  12  -9    0.13    0.13
   3 -12   9    0.17    0.10
   3  12  -9    0.22    0.13
  -3  12   9    0.16    0.10
  -3 -12  -9    0.16    0.13
  -3 -12  -9    0.18    0.14
  -3  12  -9    0.21    0.13
  -3  12  -9    0.33    0.11
   3 -12  -9    0.00    0.13
  -3 -12   9    0.23    0.11
  -4 -12  -9    0.67    0.16
   4  12  -9    0.41    0.14
  -4  12   9    0.41    0.13
  -4 -12  -9    0.17    0.15
   4 -12  -9    0.32    0.15
  -4 -12   9    0.17    0.13
   0 -13   9    9.38    0.41
   0  13  -9    9.64    0.43
   0  13   9   10.37    0.42
   0  13  -9   10.12    0.44
   1 -13   9    6.86    0.33
   1  13  -9    6.65    0.35
  -1  13   9    6.46    0.32
   1  13  -9    6.61    0.35
  -1  13  -9    6.26    0.32
  -1  13  -9    6.21    0.33
   1  13   9    6.69    0.32
  -1 -13   9    6.21    0.33
  -2  13   9   22.65    0.76
   2 -13   9   21.94    0.75
   2  13  -9   22.94    0.78
   2  13  -9   22.92    0.82
  -2 -13   9   22.17    0.77
   2  13   9   22.77    0.74
  -2  13  -9   23.62    0.79
  -2  13  -9   22.72    0.77
   3  13  -9    7.94    0.38
   3  13  -9    8.07    0.42
  -3  13  -9    7.50    0.37
   0  14  -9    3.64    0.26
   1  14  -9    0.45    0.14
   1  14   9    0.13    0.11
   0   0 -10    0.91    0.07
   0   0 -10    0.88    0.10
   0   0  10    0.81    0.09
  -1   0  10    4.71    0.21
  -1   0 -10    5.17    0.17
   1   0  10    4.76    0.18
   1   0 -10    5.08    0.20
  -1   0 -10    4.77    0.23
  -1   0 -10    4.77    0.17
   1   0  10    4.65    0.20
   1   0 -10    4.37    0.22
   2   0  10    0.49    0.08
  -2   0 -10    0.55    0.07
   2   0  10    0.57    0.08
  -2   0 -10    0.71    0.05
  -2   0 -10    0.57    0.05
   2   0 -10    0.67    0.10
   2   0 -10    0.57    0.08
  -3   0 -10    9.03    0.32
  -3   0 -10    9.33    0.28
   3   0 -10    9.21    0.35
   3   0  10    8.75    0.30
  -3   0  10    9.11    0.33
   3   0  10    8.59    0.34
   3   0 -10    9.14    0.37
   4   0 -10   17.29    0.61
  -4   0 -10   17.65    0.54
   4   0  10   17.41    0.59
   4   0 -10   18.01    0.61
  -4   0  10   17.90    0.56
  -4   0 -10   17.88    0.56
   5   0 -10    3.77    0.23
   5   0 -10    3.42    0.23
  -5   0 -10    3.60    0.20
  -5   0  10    3.97    0.21
  -5   0 -10    3.66    0.18
   5   0  10    3.64    0.23
   6   0  10    0.22    0.10
  -6   0 -10    0.59    0.12
   6   0 -10    0.46    0.13
  -6   0 -10    0.30    0.09
  -7   0 -10    2.43    0.20
   7   0 -10    2.61    0.23
   7   0  10    2.64    0.23
  -7   0 -10    2.42    0.18
   0   1 -10  115.80    3.24
   0   1 -10  116.61    3.21
   0  -1 -10  117.01    3.26
   0  -1  10  119.38    3.01
   0  -1 -10  118.63    3.22
   0   1  10  119.07    3.03
   0  -1  10  114.22    3.04
   1  -1  10   47.45    1.23
   1   1 -10   45.69    1.32
  -1  -1 -10   46.76    1.35
  -1  -1 -10   45.27    1.31
   1  -1  10   47.39    1.26
   1   1 -10   45.78    1.34
  -1   1  10   46.29    1.26
   1  -1 -10   47.13    1.34
  -1   1 -10   42.87    1.28
  -1   1 -10   47.60    1.28
   1  -1 -10   44.76    1.32
   1   1  10   47.85    1.24
  -1  -1  10   47.31    1.26
  -1   1 -10   44.62    1.33
  -2   1  10   40.15    1.10
   2  -1  10   40.40    1.08
   2   1 -10   40.19    1.17
   2   1 -10   39.28    1.17
  -2  -1 -10   39.98    1.08
   2  -1  10   39.50    1.15
   2  -1  10   40.32    1.09
  -2  -1 -10   39.55    1.14
   2  -1 -10   40.82    1.19
   2   1  10   40.46    1.10
   2   1  10   39.62    1.18
  -2  -1  10   40.58    1.12
   2  -1 -10   40.94    1.20
   3  -1  10   15.45    0.47
  -3   1  10   15.55    0.49
   3  -1  10   15.74    0.52
   3   1 -10   15.13    0.53
  -3  -1 -10   15.82    0.48
  -3  -1 -10   15.57    0.47
   3   1 -10   14.89    0.52
   3  -1 -10   15.10    0.52
  -3   1 -10   15.51    0.48
   3  -1 -10   15.14    0.54
   3   1  10   15.79    0.53
  -3  -1  10   14.76    0.49
  -3   1 -10   15.36    0.45
   3   1  10   16.22    0.47
   4   1 -10   27.12    0.84
  -4   1  10   26.82    0.78
  -4  -1 -10   25.21    0.77
  -4  -1 -10   25.89    0.78
   4  -1  10   25.97    0.82
   4   1 -10   26.88    0.85
   4   1  10   26.40    0.83
   4  -1 -10   25.35    0.84
  -4   1 -10   25.75    0.76
  -4  -1  10   27.17    0.78
   4  -1 -10   25.89    0.84
  -4   1 -10   26.12    0.77
  -5   1  10    1.90    0.15
   5   1 -10    1.97    0.17
  -5  -1 -10    1.86    0.13
   5   1 -10    2.27    0.18
   5  -1  10    1.84    0.17
  -5  -1 -10    2.20    0.16
  -5   1 -10    1.86    0.12
   5  -1 -10    2.31    0.19
  -5   1 -10    2.11    0.16
   5  -1 -10    2.09    0.18
  -5  -1  10    2.11    0.16
   5   1  10    2.06    0.17
   6  -1  10   15.49    0.58
   6   1 -10   15.37    0.59
  -6  -1 -10   16.33    0.55
  -6  -1 -10   16.13    0.55
   6   1  10   15.20    0.57
   6  -1 -10   15.60    0.59
  -6   1 -10   15.52    0.54
  -6   1 -10   14.95    0.51
   7   1 -10    1.60    0.19
  -7  -1 -10    1.67    0.18
  -7  -1 -10    1.57    0.16
   7  -1  10    1.26    0.17
   7  -1 -10    1.19    0.18
  -7   1 -10    1.34    0.14
  -7   1 -10    1.39    0.17
   7   1  10    1.13    0.17
   0  -2 -10    5.16    0.21
   0   2 -10    5.27    0.18
   0  -2  10    5.30    0.20
   0  -2 -10    5.71    0.25
   0   2 -10    4.87    0.23
   0   2  10    5.14    0.21
   0  -2  10    5.22    0.22
  -1  -2 -10    3.44    0.20
   1  -2  10    3.50    0.15
  -1   2  10    3.16    0.16
   1  -2  10    3.10    0.16
   1   2 -10    3.09    0.18
  -1  -2 -10    3.17    0.15
   1   2 -10    3.41    0.15
  -1   2 -10    3.10    0.18
  -1  -2  10    3.06    0.14
   1  -2 -10    3.09    0.19
  -1   2 -10    3.11    0.11
  -1   2 -10    2.94    0.10
   1  -2 -10    3.04    0.15
   1   2  10    3.06    0.16
  -1  -2  10    3.01    0.16
   2   2 -10   11.05    0.41
  -2   2  10   11.75    0.39
   2  -2  10   11.49    0.37
   2  -2  10   11.80    0.38
   2  -2  10   11.18    0.39
  -2  -2 -10   11.52    0.38
   2   2 -10   12.14    0.40
  -2  -2  10   10.81    0.38
   2   2  10   11.56    0.36
   2   2  10   11.31    0.40
   2  -2 -10   11.11    0.39
   2  -2 -10   11.31    0.42
  -3  -2 -10    6.66    0.25
   3  -2  10    7.07    0.26
  -3  -2 -10    6.55    0.25
   3   2 -10    6.36    0.28
   3   2 -10    6.43    0.28
  -3   2  10    6.21    0.26
   3  -2  10    6.73    0.28
   3   2  10    6.76    0.24
   3  -2 -10    6.39    0.28
   3  -2 -10    6.51    0.30
  -3  -2  10    5.99    0.27
   3   2  10    6.57    0.29
  -4  -2 -10    9.24    0.34
  -4  -2 -10   10.00    0.34
   4  -2  10    9.21    0.36
   4   2 -10    9.56    0.38
  -4   2  10    8.47    0.34
   4   2 -10    9.79    0.39
  -4   2 -10    9.34    0.31
   4  -2 -10   10.25    0.39
  -4  -2  10    9.79    0.36
   4   2  10    9.71    0.38
  -4   2 -10    9.30    0.35
   4  -2 -10    9.68    0.40
   5  -2  10   15.29    0.56
   5   2 -10   16.02    0.57
  -5  -2 -10   16.59    0.53
   5   2 -10   15.58    0.59
  -5  -2 -10   15.61    0.54
  -5   2  10   17.18    0.53
  -5  -2  10   16.09    0.53
  -5   2 -10   16.07    0.54
  -5   2 -10   15.09    0.50
   5  -2 -10   16.50    0.59
   5  -2 -10   16.54    0.60
   5   2  10   15.55    0.57
  -6  -2 -10   17.23    0.58
   6  -2  10   17.10    0.62
  -6  -2 -10   17.15    0.60
   6   2 -10   17.81    0.63
   6   2  10   18.28    0.64
  -6   2 -10   16.67    0.59
  -6   2 -10   17.04    0.56
   6  -2 -10   17.67    0.64
   7   2 -10    0.81    0.16
  -7  -2 -10    0.95    0.14
  -7  -2 -10    0.88    0.15
   7  -2  10    0.86    0.15
  -7   2 -10    1.25    0.16
   7   2  10    0.89    0.15
  -7   2 -10    1.16    0.13
   7  -2 -10    1.16    0.18
   0  -3 -10    2.00    0.16
   0   3  10    2.12    0.14
   0  -3 -10    1.96    0.12
   0   3 -10    2.15    0.10
   0  -3  10    1.99    0.14
   0  -3  10    1.83    0.12
   0   3 -10    1.98    0.13
   1  -3  10    2.79    0.16
   1   3 -10    2.68    0.14
  -1  -3 -10    2.72    0.18
  -1   3  10    2.58    0.15
   1   3 -10    2.84    0.16
   1  -3  10    2.87    0.14
  -1  -3 -10    2.72    0.15
  -1   3 -10    2.77    0.16
   1   3  10    2.67    0.15
  -1  -3  10    2.56    0.16
  -1  -3  10    2.55    0.14
   1  -3 -10    2.88    0.16
  -1   3 -10    3.06    0.11
   1  -3 -10    2.63    0.18
  -1   3 -10    2.80    0.10
   2  -3  10   34.88    0.97
  -2   3  10   32.78    0.97
   2   3 -10   33.35    1.04
  -2  -3 -10   34.45    1.03
   2  -3  10   36.48    1.01
   2   3 -10   37.64    1.03
   2  -3  10   33.96    0.97
   2  -3 -10   33.18    1.05
  -2  -3  10   34.59    0.99
   2   3  10   33.75    1.03
   2  -3 -10   34.23    1.04
  -2  -3  10   36.58    0.96
   2   3  10   35.21    0.96
  -3   3  10    7.07    0.28
   3  -3  10    6.90    0.27
   3  -3  10    7.55    0.29
   3   3 -10    6.83    0.30
   3   3 -10    7.37    0.30
  -3  -3 -10    7.19    0.28
   3   3  10    7.58    0.32
  -3   3 -10    6.87    0.27
  -3   3 -10    7.33    0.22
   3  -3 -10    6.78    0.32
  -3  -3  10    7.50    0.30
   3  -3 -10    7.47    0.31
   4   3 -10    0.25    0.09
   4  -3  10    0.07    0.07
  -4   3  10    0.25    0.08
  -4  -3 -10    0.10    0.07
   4   3 -10    0.34    0.09
  -4  -3 -10    0.21    0.07
  -4   3 -10    0.24    0.08
   4   3  10    0.08    0.08
  -4  -3  10    0.18    0.08
   4  -3 -10    0.30    0.09
  -4   3 -10    0.18    0.05
   4  -3 -10    0.16    0.09
  -5  -3 -10    4.67    0.23
   5   3 -10    4.28    0.24
  -5  -3 -10    4.36    0.23
  -5   3  10    4.17    0.22
   5   3 -10    4.16    0.25
   5  -3  10    4.24    0.24
   5  -3 -10    4.08    0.26
  -5   3 -10    4.12    0.22
  -5  -3  10    4.43    0.23
  -5   3 -10    4.33    0.18
   5   3  10    4.07    0.24
  -6  -3 -10    4.65    0.25
  -6  -3 -10    4.43    0.24
   6  -3  10    4.03    0.25
   6   3  10    4.60    0.28
  -6   3 -10    4.13    0.24
  -6   3 -10    4.39    0.21
   6  -3 -10    4.36    0.28
  -7  -3 -10    0.09    0.12
   7  -3  10    0.29    0.14
  -7   3 -10    0.05    0.10
   7  -3 -10    0.23    0.14
   0   4  10   15.88    0.51
   0  -4 -10   16.23    0.57
   0  -4  10   15.78    0.52
   0  -4  10   16.56    0.50
   0  -4 -10   16.79    0.54
   0   4 -10   16.76    0.50
   1  -4  10   82.00    2.14
  -1   4  10   80.22    2.15
   1  -4  10   84.00    2.16
  -1  -4 -10   80.42    2.30
  -1  -4 -10   81.16    2.31
   1   4 -10   80.14    2.29
   1  -4 -10   83.37    2.38
  -1   4 -10   81.89    2.31
   1   4  10   84.14    2.19
  -1  -4  10   83.93    2.22
   1  -4 -10   80.52    2.35
  -1   4 -10   87.89    2.31
  -1  -4  10   82.17    2.19
  -2   4  10   50.79    1.43
   2  -4  10   54.77    1.49
  -2  -4 -10   53.30    1.54
   2  -4  10   54.12    1.43
   2   4 -10   51.34    1.54
  -2   4 -10   54.37    1.45
   2   4  10   55.10    1.44
  -2  -4  10   54.96    1.45
  -2   4 -10   51.61    1.49
   2  -4 -10   54.39    1.57
   2  -4 -10   52.13    1.57
   2   4  10   52.76    1.54
   3  -4  10   19.53    0.60
  -3   4  10   18.69    0.61
  -3  -4 -10   20.14    0.64
   3  -4  10   21.38    0.63
   3   4 -10   18.50    0.65
  -3   4 -10   19.94    0.56
   3  -4 -10   19.62    0.65
   3   4  10   19.32    0.64
  -3   4 -10   19.15    0.58
  -3  -4  10   18.90    0.61
  -3  -4  10   19.53    0.59
   3  -4 -10   19.18    0.67
  -4   4  10    0.48    0.09
   4   4 -10    0.54    0.11
  -4  -4 -10    0.61    0.10
   4  -4  10    0.47    0.09
   4  -4 -10    0.54    0.11
   4  -4 -10    0.37    0.11
  -4  -4  10    0.51    0.10
   4   4  10    0.49    0.10
  -5   4  10   15.79    0.52
  -5  -4 -10   15.39    0.52
  -5  -4 -10   15.59    0.56
   5  -4  10   15.34    0.55
   5   4 -10   16.31    0.60
   5   4  10   14.79    0.55
   5  -4 -10   14.93    0.57
  -5   4 -10   14.27    0.51
  -5   4 -10   14.91    0.47
  -5  -4  10   14.89    0.51
  -6  -4 -10    1.02    0.13
  -6  -4 -10    0.79    0.13
   6  -4  10    0.95    0.15
  -6   4 -10    1.03    0.14
   6  -4 -10    1.05    0.17
  -6   4 -10    0.99    0.11
   6   4  10    0.82    0.14
  -7  -4 -10    3.71    0.25
   7  -4  10    2.83    0.23
   0   5  10   15.76    0.49
   0  -5 -10   15.61    0.55
   0  -5  10   15.97    0.49
   0   5 -10   14.88    0.48
   0  -5 -10   15.82    0.53
   1  -5  10    6.82    0.26
   1   5 -10    6.75    0.26
  -1  -5 -10    6.51    0.30
  -1   5  10    6.29    0.26
  -1  -5 -10    6.63    0.28
  -1   5 -10    6.67    0.27
   1  -5 -10    6.83    0.29
   1   5  10    7.01    0.26
  -1  -5  10    6.64    0.28
   1  -5 -10    6.81    0.32
  -1   5 -10    6.52    0.23
  -1  -5  10    6.76    0.27
  -2   5  10   63.83    1.68
   2   5 -10   62.05    1.80
  -2  -5 -10   59.75    1.80
   2  -5  10   62.64    1.67
   2   5  10   66.67    1.70
  -2  -5  10   68.50    1.73
   2  -5 -10   64.91    1.86
   2  -5 -10   59.18    1.84
  -2   5 -10   62.01    1.78
  -2   5 -10   64.63    1.71
  -2  -5  10   61.33    1.73
  -3   5  10    2.23    0.15
   3   5 -10    2.31    0.17
   3  -5  10    2.56    0.16
  -3  -5 -10    2.41    0.17
  -3   5 -10    2.43    0.16
   3  -5 -10    2.32    0.17
   3   5  10    2.49    0.18
  -3  -5  10    2.61    0.18
   3  -5 -10    2.07    0.18
  -3  -5  10    2.53    0.17
  -3   5 -10    2.72    0.12
  -4  -5 -10   71.81    2.11
   4   5 -10   72.86    2.13
  -4   5  10   72.59    1.95
   4  -5  10   72.58    1.96
   4   5  10   72.53    2.13
  -4  -5  10   74.57    2.01
  -4   5 -10   74.89    2.09
   4  -5 -10   77.31    2.19
   4  -5 -10   73.79    2.16
   5   5 -10    4.09    0.26
  -5  -5 -10    3.60    0.23
  -5   5  10    4.13    0.22
   5   5 -10    3.88    0.22
   5   5  10    3.18    0.23
  -5   5 -10    3.98    0.23
   5  -5 -10    3.53    0.26
  -5   5 -10    3.77    0.17
  -6  -5 -10    0.49    0.13
  -6  -5 -10    0.47    0.12
   6   5  10    0.28    0.12
   6  -5 -10    0.48    0.13
  -6   5 -10    0.40    0.11
  -6   5 -10    0.42    0.09
  -7  -5 -10    0.72    0.16
   0   6 -10    5.28    0.24
   0   6  10    5.04    0.23
   0  -6 -10    5.34    0.28
   0   6 -10    5.74    0.22
   0  -6 -10    5.50    0.26
   0  -6  10    5.29    0.24
  -1  -6 -10   23.23    0.76
   1  -6  10   23.55    0.69
  -1   6  10   23.31    0.69
   1   6 -10   21.81    0.71
  -1  -6 -10   22.30    0.74
   1   6 -10   22.87    0.70
  -1   6 -10   23.08    0.69
   1  -6 -10   21.80    0.73
  -1   6 -10   22.51    0.68
   1  -6 -10   23.07    0.75
  -1  -6  10   23.08    0.69
   1   6  10   22.45    0.67
   2  -6  10   17.28    0.54
   2   6 -10   17.15    0.57
  -2  -6 -10   17.68    0.59
  -2   6  10   17.34    0.55
  -2  -6 -10   15.90    0.60
   2   6 -10   16.49    0.55
  -2   6 -10   17.37    0.54
   2   6  10   17.86    0.54
   2  -6 -10   16.88    0.62
  -2   6 -10   17.70    0.56
   2  -6 -10   17.78    0.61
  -2  -6  10   18.25    0.56
   3   6 -10   25.02    0.84
  -3  -6 -10   26.57    0.84
   3   6 -10   25.72    0.79
   3  -6  10   27.38    0.78
  -3   6  10   25.19    0.78
   3  -6 -10   28.15    0.93
  -3  -6  10   29.20    0.86
   3   6  10   28.41    0.91
   3  -6 -10   28.40    0.92
  -3   6 -10   29.03    0.85
  -3   6 -10   29.83    0.85
  -4  -6 -10   11.45    0.44
   4   6 -10   11.04    0.45
  -4   6  10   11.27    0.41
   4  -6  10    9.99    0.40
   4   6 -10   11.43    0.42
  -4   6 -10   11.11    0.37
   4  -6 -10   11.76    0.46
  -4  -6  10   11.02    0.42
   4   6  10   11.21    0.45
   4  -6 -10   11.34    0.48
   5   6 -10   14.95    0.58
  -5   6  10   14.70    0.51
   5   6 -10   14.94    0.52
  -5  -6 -10   15.16    0.57
   5  -6 -10   14.82    0.57
  -5   6 -10   14.00    0.48
   5   6  10   14.36    0.55
  -5   6 -10   14.91    0.52
  -6  -6 -10    4.71    0.29
  -6   6 -10    4.69    0.23
   6   6  10    4.92    0.30
  -6   6 -10    4.22    0.25
   6  -6 -10    4.67    0.30
   0   7  10   34.33    1.00
   0  -7 -10   34.82    1.09
   0  -7  10   35.46    1.01
   0  -7 -10   36.17    1.09
   0   7 -10   34.00    1.04
   0   7 -10   36.24    1.02
   1  -7  10    8.39    0.32
   1   7 -10    7.41    0.31
  -1   7  10    7.64    0.31
  -1  -7 -10    7.75    0.34
  -1  -7 -10    7.99    0.35
   1   7 -10    8.09    0.32
   1   7  10    8.44    0.31
   1  -7 -10    7.94    0.34
   1  -7 -10    7.28    0.35
  -1   7 -10    7.48    0.29
  -1  -7  10    8.07    0.31
  -1   7 -10    7.98    0.32
  -2   7  10    0.59    0.09
  -2  -7 -10    0.40    0.10
   2   7 -10    0.43    0.09
   2  -7  10    0.49    0.09
   2   7 -10    0.49    0.10
  -2  -7 -10    0.30    0.11
  -2  -7  10    0.34    0.09
  -2   7 -10    0.33    0.09
   2   7  10    0.34    0.08
   2  -7 -10    0.28    0.08
   2  -7 -10    0.40    0.11
  -2   7 -10    0.40    0.07
  -3   7  10    1.83    0.15
  -3  -7 -10    2.20    0.17
   3   7 -10    1.72    0.16
   3  -7  10    1.93    0.15
   3   7 -10    1.62    0.15
   3   7  10    1.98    0.16
  -3   7 -10    1.51    0.14
   3  -7 -10    1.96    0.19
  -3  -7  10    2.01    0.16
   3  -7 -10    1.70    0.16
  -3   7 -10    1.78    0.12
   4   7 -10    1.87    0.18
   4   7 -10    1.85    0.16
  -4  -7 -10    1.85    0.18
   4  -7  10    1.80    0.16
  -4   7  10    1.77    0.15
   4  -7 -10    1.79    0.19
  -4   7 -10    1.71    0.12
   4   7  10    1.44    0.16
  -4  -7  10    1.83    0.17
   5   7 -10    5.14    0.27
   5  -7  10    4.77    0.26
  -5  -7 -10    5.03    0.29
   5   7 -10    4.71    0.29
  -5   7  10    4.74    0.25
  -5   7 -10    4.99    0.23
   5   7  10    5.32    0.29
   5  -7 -10    4.77    0.30
  -5  -7  10    5.34    0.28
  -6  -7 -10    8.43    0.41
  -6   7 -10    8.62    0.34
  -6   7 -10    8.78    0.39
   6  -7 -10    9.03    0.44
   6   7  10    8.20    0.40
   0  -8  10    2.70    0.18
   0  -8 -10    3.08    0.22
   0   8 -10    2.61    0.16
   0   8  10    2.62    0.17
   0   8 -10    2.13    0.17
   0  -8 -10    2.59    0.19
  -1   8  10    1.35    0.13
   1   8 -10    1.50    0.13
  -1  -8 -10    1.26    0.15
   1   8 -10    1.43    0.14
  -1  -8 -10    1.68    0.15
   1  -8  10    1.47    0.13
  -1   8 -10    1.50    0.12
   1  -8 -10    1.29    0.15
  -1  -8  10    1.53    0.14
   1  -8 -10    1.33    0.16
  -1   8 -10    1.49    0.15
   1   8  10    1.59    0.14
   2   8 -10    0.19    0.08
   2  -8  10    0.16    0.07
  -2   8  10    0.08    0.08
   2   8 -10    0.15    0.08
  -2  -8 -10    0.18    0.10
  -2  -8 -10    0.05    0.09
   2  -8 -10    0.15    0.08
   2   8  10    0.16    0.08
   2  -8 -10    0.08    0.09
  -2   8 -10    0.16    0.06
  -2   8 -10    0.11    0.09
  -2  -8  10    0.14    0.09
  -3  -8 -10    4.86    0.27
   3   8 -10    4.88    0.27
  -3   8  10    4.67    0.25
   3   8 -10    5.07    0.26
   3  -8  10    5.04    0.24
   3  -8 -10    4.65    0.28
  -3   8 -10    5.48    0.26
  -3  -8  10    5.26    0.26
   3  -8 -10    5.07    0.28
  -3   8 -10    5.37    0.23
  -4  -8 -10   15.27    0.59
  -4   8  10   15.44    0.53
   4   8 -10   16.48    0.60
   4  -8  10   14.45    0.53
   4   8 -10   15.46    0.55
   4   8  10   15.33    0.58
  -4  -8  10   16.08    0.55
  -4   8 -10   15.26    0.52
   4  -8 -10   16.12    0.61
   5  -8  10    0.74    0.13
   5   8 -10    0.74    0.17
  -5   8  10    0.71    0.13
  -5  -8 -10    0.73    0.15
   5   8 -10    0.67    0.14
  -5   8 -10    0.74    0.10
   5  -8 -10    1.07    0.17
  -5  -8  10    0.75    0.14
   5   8  10    0.91    0.15
   0   9 -10   55.12    1.53
   0  -9 -10   55.84    1.65
   0  -9  10   54.49    1.52
   0   9  10   52.89    1.50
   0  -9 -10   53.43    1.61
   0   9 -10   54.17    1.60
  -1  -9 -10    2.50    0.20
   1  -9  10    2.36    0.17
   1   9 -10    1.85    0.17
   1   9 -10    2.04    0.16
  -1  -9 -10    2.22    0.19
  -1   9  10    1.51    0.15
   1   9  10    2.09    0.16
  -1   9 -10    2.16    0.15
   1  -9 -10    2.08    0.19
  -1   9 -10    1.65    0.16
  -1  -9  10    2.15    0.17
   1  -9 -10    2.23    0.19
  -2   9  10    0.20    0.09
   2   9 -10    0.20    0.09
   2  -9  10    0.22    0.08
   2   9 -10    0.19    0.08
  -2  -9 -10    0.27    0.11
  -2  -9 -10    0.28    0.10
  -2   9 -10    0.15    0.07
  -2  -9  10    0.04    0.09
   2  -9 -10    0.16    0.10
   2  -9 -10    0.32    0.11
   2   9  10    0.12    0.08
  -2   9 -10    0.13    0.09
   3   9 -10    7.51    0.34
  -3  -9 -10    8.09    0.37
  -3  -9 -10    7.34    0.37
   3  -9  10    7.11    0.32
  -3   9  10    7.20    0.33
   3   9 -10    7.63    0.35
   3  -9 -10    7.37    0.37
  -3   9 -10    7.25    0.29
  -3   9 -10    7.40    0.32
  -3  -9  10    7.32    0.33
   4   9 -10    0.45    0.12
  -4   9  10    0.33    0.10
  -4  -9 -10    0.37    0.13
   4   9 -10    0.68    0.14
   4  -9  10    0.32    0.11
   4  -9 -10    0.53    0.14
  -4  -9  10    0.49    0.12
   4   9  10    0.51    0.12
  -4   9 -10    0.29    0.09
  -5   9  10    8.83    0.37
   5  -9  10    8.96    0.39
  -5  -9 -10    9.12    0.44
   5   9 -10    8.14    0.38
  -5   9 -10    9.04    0.37
   5   9  10    9.48    0.42
   5  -9 -10    9.12    0.45
  -5  -9  10    9.28    0.41
   0 -10  10    0.21    0.10
   0  10 -10   -0.02    0.08
   0  10  10    0.02    0.08
   0  10 -10    0.08    0.08
   0 -10 -10    0.08    0.10
   0 -10 -10    0.16    0.11
  -1 -10 -10   17.59    0.64
   1  10 -10   17.13    0.59
   1 -10  10   17.06    0.58
  -1  10  10   16.84    0.57
  -1 -10 -10   16.29    0.62
   1  10 -10   17.12    0.60
  -1 -10  10   18.11    0.60
   1  10  10   17.66    0.58
   1 -10 -10   17.66    0.64
  -1  10 -10   16.80    0.59
   1 -10 -10   18.02    0.65
  -1  10 -10   17.04    0.59
  -2 -10 -10    3.74    0.26
   2  10 -10    3.91    0.24
   2  10 -10    3.74    0.23
   2 -10  10    4.32    0.24
  -2  10  10    4.14    0.23
  -2 -10 -10    3.36    0.25
   2 -10 -10    4.02    0.27
   2  10  10    3.80    0.22
  -2  10 -10    3.79    0.21
  -2 -10  10    3.86    0.23
  -2  10 -10    4.12    0.24
   3  10 -10   22.85    0.76
   3  10 -10   22.60    0.81
  -3 -10 -10   23.36    0.82
  -3  10  10   23.99    0.75
   3 -10  10   24.06    0.75
  -3 -10 -10   23.37    0.83
   3 -10 -10   23.97    0.85
  -3  10 -10   25.49    0.79
  -3  10 -10   24.72    0.78
  -3 -10  10   24.13    0.80
  -4 -10 -10    4.37    0.29
   4  10 -10    4.42    0.27
   4 -10  10    4.36    0.25
  -4  10  10    4.58    0.26
   4  10 -10    4.51    0.30
  -4  10 -10    4.74    0.25
  -4 -10  10    4.58    0.28
   4 -10 -10    5.25    0.32
  -5  10  10   26.30    0.85
  -5 -10 -10   27.96    0.97
   5  10 -10   26.16    0.86
  -5 -10  10   25.99    0.89
   5  10  10   28.80    0.93
   0  11  10   15.40    0.53
   0  11 -10   14.25    0.54
   0 -11  10   14.78    0.54
   0 -11 -10   15.53    0.60
   0  11 -10   14.00    0.54
   0 -11 -10   15.86    0.59
  -1 -11 -10    1.01    0.17
  -1  11  10    1.36    0.15
   1  11 -10    1.10    0.16
  -1 -11 -10    1.22    0.17
   1  11 -10    1.09    0.14
   1 -11  10    1.58    0.16
   1  11  10    1.40    0.15
  -1  11 -10    0.81    0.15
   1 -11 -10    1.03    0.16
  -1 -11  10    1.23    0.15
  -1  11 -10    1.24    0.13
   2  11 -10   16.42    0.60
  -2 -11 -10   17.05    0.65
  -2 -11 -10   16.87    0.64
   2 -11  10   16.19    0.58
   2  11 -10   17.26    0.63
  -2  11  10   15.61    0.57
   2 -11 -10   16.39    0.63
  -2  11 -10   15.61    0.57
   2  11  10   17.18    0.56
  -2  11 -10   17.20    0.59
  -2 -11  10   16.27    0.59
  -3  11  10    2.92    0.22
   3  11 -10    3.10    0.24
  -3 -11 -10    2.94    0.25
   3  11 -10    2.84    0.22
   3 -11  10    2.81    0.20
  -3 -11 -10    2.77    0.24
  -3  11 -10    3.23    0.23
  -3  11 -10    3.09    0.20
   3 -11 -10    3.17    0.26
  -3 -11  10    3.16    0.25
  -4 -11 -10   23.75    0.83
  -4 -11 -10   23.01    0.84
  -4  11  10   21.71    0.74
   4  11 -10   20.94    0.74
   4  11 -10   22.25    0.83
  -4 -11  10   22.03    0.77
   4 -11 -10   23.28    0.82
   0  12  10    9.86    0.40
   0  12 -10    9.74    0.42
   0 -12 -10    9.33    0.43
   0 -12  10    8.71    0.39
   0  12 -10    8.61    0.39
  -1 -12 -10   32.40    1.10
  -1  12  10   32.19    1.00
   1  12 -10   31.85    1.01
   1 -12  10   32.06    1.00
   1  12 -10   32.91    1.07
  -1 -12 -10   33.80    1.07
  -1  12 -10   32.69    1.05
   1 -12 -10   34.04    1.08
   1  12  10   32.79    0.99
  -1 -12  10   32.18    1.02
  -1  12 -10   32.85    1.02
  -2 -12 -10    2.63    0.24
  -2  12  10    2.95    0.22
   2 -12  10    2.74    0.22
  -2 -12 -10    3.64    0.27
   2  12 -10    3.34    0.25
   2  12 -10    3.20    0.24
  -2  12 -10    3.31    0.21
   2 -12 -10    3.19    0.26
  -2  12 -10    3.43    0.25
   2  12  10    3.14    0.22
  -2 -12  10    3.33    0.25
  -3 -12 -10   11.80    0.53
   3  12 -10   10.34    0.46
  -3 -12 -10   10.92    0.50
   3  12 -10   11.73    0.51
   3 -12  10   11.06    0.45
  -3  12  10   10.92    0.45
  -3 -12  10   11.41    0.48
  -3  12 -10   11.03    0.46
  -3  12 -10   12.06    0.46
   3 -12 -10   11.39    0.51
   0 -13 -10    0.16    0.14
   0  13  10    0.27    0.11
   0  13 -10    0.11    0.13
   0 -13  10    0.04    0.10
   0  13 -10   -0.12    0.09
   1 -13  10    2.53    0.21
  -1  13  10    2.30    0.21
   1  13 -10    2.69    0.23
   1  13 -10    2.43    0.23
  -1 -13  10    2.26    0.21
   1 -13 -10    2.31    0.23
   1  13  10    2.50    0.20
  -1  13 -10    2.48    0.20
  -1  13 -10    2.50    0.23
   2  13 -10    1.11    0.18
   2  13  10    1.05    0.16
  -2  13 -10    1.26    0.17
   2 -13 -10    0.89    0.18
   0   0  11    0.03    0.06
   0   0 -11   -0.01    0.04
   0   0 -11    0.00    0.07
  -1   0  11    0.92    0.10
   1   0 -11    1.02    0.12
   1   0  11    1.26    0.10
  -1   0 -11    1.23    0.13
  -1   0 -11    1.07    0.08
   1   0 -11    1.17    0.10
   2   0  11    5.83    0.26
   2   0 -11    5.76    0.24
   2   0  11    6.61    0.24
   2   0 -11    5.44    0.27
  -2   0  11    5.94    0.25
  -2   0 -11    5.40    0.19
  -3   0 -11    2.23    0.14
   3   0 -11    2.23    0.16
   3   0 -11    2.28    0.18
  -3   0 -11    2.30    0.10
  -3   0  11    2.05    0.15
   3   0  11    2.18    0.16
  -4   0 -11   27.76    0.80
   4   0  11   26.37    0.86
  -4   0  11   27.19    0.81
   4   0 -11   26.82    0.88
   4   0 -11   27.35    0.88
  -4   0 -11   27.77    0.80
   5   0  11    1.31    0.15
  -5   0 -11    1.02    0.10
  -5   0 -11    1.05    0.12
  -5   0  11    1.00    0.13
   5   0 -11    0.96    0.14
   5   0 -11    1.11    0.14
   6   0  11   -0.01    0.10
   6   0 -11    0.01    0.11
  -6   0 -11   -0.08    0.07
  -6   0 -11    0.11    0.10
  -7   0 -11    4.00    0.26
   7   0 -11    4.67    0.31
   0  -1  11    4.27    0.20
   0   1 -11    4.48    0.17
   0   1  11    4.76    0.21
   0  -1 -11    4.25    0.18
   0  -1 -11    4.53    0.24
   0   1 -11    4.81    0.23
   1   1 -11   21.34    0.66
   1  -1  11   21.56    0.65
  -1   1  11   20.44    0.65
  -1  -1 -11   21.82    0.65
   1   1 -11   22.69    0.70
   1  -1  11   23.07    0.62
  -1  -1 -11   22.32    0.72
  -1   1 -11   20.26    0.61
   1   1  11   21.30    0.63
  -1  -1  11   21.49    0.64
   1  -1 -11   21.06    0.65
  -1   1 -11   21.65    0.69
   1  -1 -11   21.08    0.69
  -2  -1 -11    0.93    0.08
  -2   1  11    0.86    0.10
   2   1 -11    0.92    0.12
   2  -1  11    1.07    0.11
   2   1 -11    1.01    0.10
   2  -1  11    0.90    0.09
   2  -1 -11    1.08    0.10
   2   1  11    1.15    0.11
   2  -1 -11    1.28    0.13
  -2  -1  11    1.00    0.11
   2   1  11    0.86    0.09
  -3   1  11    0.16    0.07
   3   1 -11    0.18    0.08
  -3  -1 -11    0.22    0.07
   3  -1  11    0.17    0.08
  -3  -1 -11    0.20    0.05
   3  -1  11    0.21    0.06
   3   1 -11    0.17    0.07
   3   1  11    0.06    0.07
  -3  -1  11   -0.05    0.06
  -3   1 -11    0.10    0.03
   3  -1 -11    0.08    0.08
  -3   1 -11    0.40    0.07
   3  -1 -11    0.10    0.07
  -4  -1 -11    1.00    0.11
   4   1 -11    0.80    0.12
  -4   1  11    0.86    0.11
  -4  -1 -11    1.00    0.09
   4  -1  11    0.90    0.12
   4   1 -11    0.89    0.13
  -4   1 -11    0.87    0.11
   4  -1 -11    0.74    0.12
  -4   1 -11    0.76    0.07
   4  -1 -11    0.84    0.12
  -4  -1  11    0.74    0.10
   4   1  11    0.84    0.12
  -5  -1 -11    9.46    0.36
   5   1 -11    9.32    0.40
  -5  -1 -11    9.14    0.34
   5  -1  11    9.48    0.40
   5   1 -11    9.96    0.42
  -5   1  11    9.14    0.36
   5  -1 -11    9.02    0.41
  -5  -1  11    9.44    0.37
  -5   1 -11    9.19    0.36
   5   1  11    8.77    0.39
  -5   1 -11    9.22    0.32
   5  -1 -11    8.79    0.40
   6   1 -11    7.76    0.38
  -6  -1 -11    7.61    0.34
  -6  -1 -11    7.57    0.32
   6  -1  11    7.19    0.36
   6  -1 -11    7.32    0.37
  -6   1 -11    6.80    0.29
   6   1  11    7.55    0.36
  -6   1 -11    7.30    0.33
   7   1 -11    4.39    0.29
   7  -1  11    4.14    0.29
  -7  -1 -11    3.87    0.26
  -7   1 -11    4.19    0.27
   0  -2  11   36.77    0.98
   0  -2 -11   35.36    1.09
   0   2  11   34.08    1.00
   0   2 -11   35.39    1.06
   0  -2  11   37.26    1.02
   0   2 -11   36.76    1.03
   0  -2 -11   35.86    1.05
  -1   2  11    6.87    0.27
   1   2 -11    6.63    0.25
   1  -2  11    6.80    0.27
  -1  -2 -11    5.94    0.30
   1   2 -11    6.73    0.29
   1  -2  11    6.63    0.24
  -1  -2 -11    6.80    0.25
  -1   2 -11    6.49    0.21
   1   2  11    7.07    0.27
  -1   2 -11    6.89    0.29
   1  -2 -11    6.57    0.30
   1  -2 -11    6.73    0.26
  -1  -2  11    6.64    0.28
   2  -2  11   10.28    0.34
   2   2 -11   10.64    0.39
  -2  -2 -11   10.09    0.35
   2   2 -11   10.15    0.37
   2  -2  11   10.00    0.37
   2  -2  11   10.21    0.36
   2   2  11   10.09    0.38
   2   2  11   10.19    0.34
   2  -2 -11    9.87    0.40
   2  -2 -11   10.07    0.37
  -3   2  11    6.40    0.28
   3  -2  11    7.11    0.29
   3   2 -11    7.40    0.31
  -3  -2 -11    7.27    0.26
   3   2 -11    6.72    0.29
   3  -2  11    6.66    0.27
   3  -2 -11    7.72    0.35
  -3   2 -11    7.94    0.30
   3  -2 -11    7.83    0.32
   3   2  11    7.57    0.32
   4  -2  11   22.97    0.74
   4   2 -11   24.28    0.76
  -4   2  11   22.92    0.70
   4   2 -11   21.26    0.75
  -4  -2 -11   22.81    0.71
  -4   2 -11   21.22    0.66
   4   2  11   21.79    0.72
   4  -2 -11   20.97    0.74
   4  -2 -11   21.58    0.73
  -4  -2  11   22.51    0.69
  -4   2 -11   22.07    0.63
   5   2 -11    2.45    0.21
  -5  -2 -11    2.60    0.17
  -5  -2 -11    2.51    0.18
   5  -2  11    2.49    0.19
   5   2 -11    2.66    0.21
  -5   2  11    2.72    0.18
   5  -2 -11    2.45    0.20
   5  -2 -11    2.62    0.22
  -5   2 -11    2.35    0.17
   5   2  11    1.85    0.19
  -5  -2  11    2.33    0.18
  -5   2 -11    2.19    0.12
   6  -2  11    3.89    0.25
  -6  -2 -11    3.52    0.22
  -6  -2 -11    3.99    0.24
   6   2 -11    3.76    0.25
   6  -2 -11    3.60    0.26
  -6   2 -11    3.51    0.23
  -6   2 -11    3.72    0.19
   6   2  11    3.68    0.26
  -7  -2 -11   14.32    0.53
   7  -2  11   14.04    0.56
   0   3 -11    7.16    0.25
   0   3 -11    7.66    0.30
   0  -3 -11    7.43    0.33
   0   3  11    7.31    0.28
   0  -3 -11    7.23    0.28
   0  -3  11    7.44    0.29
   0  -3  11    7.74    0.27
   1  -3  11    5.20    0.24
  -1  -3 -11    5.19    0.27
   1   3 -11    5.25    0.22
   1  -3  11    5.27    0.21
  -1  -3 -11    5.08    0.22
   1   3 -11    5.52    0.24
  -1   3  11    5.50    0.23
   1  -3 -11    4.89    0.26
   1   3  11    5.00    0.21
  -1   3 -11    5.45    0.24
  -1  -3  11    4.68    0.23
  -1  -3  11    5.33    0.21
   1  -3 -11    5.13    0.22
  -1   3 -11    5.03    0.17
  -2  -3 -11   62.45    1.87
  -2   3  11   64.16    1.76
   2  -3  11   67.15    1.75
   2   3 -11   64.10    1.88
   2  -3  11   65.77    1.83
   2   3 -11   71.89    1.86
   2  -3  11   63.50    1.75
  -2  -3  11   66.23    1.79
   2  -3 -11   65.44    1.91
   2   3  11   66.90    1.76
   2  -3 -11   66.08    1.91
   3   3 -11   18.96    0.68
  -3  -3 -11   20.98    0.65
   3  -3  11   21.53    0.63
  -3   3  11   20.38    0.64
   3  -3  11   21.08    0.66
   3   3 -11   21.19    0.67
   3   3  11   18.92    0.65
   3  -3 -11   20.34    0.69
   3  -3 -11   20.09    0.66
   4  -3  11   21.63    0.70
  -4   3  11   21.35    0.67
  -4  -3 -11   21.73    0.69
   4   3 -11   21.03    0.73
   4  -3 -11   20.69    0.70
   4   3  11   19.43    0.69
   4  -3 -11   20.35    0.71
  -4   3 -11   20.13    0.59
  -4   3 -11   20.51    0.64
  -4  -3  11   20.82    0.65
   5   3 -11    3.41    0.23
  -5   3  11    3.18    0.20
   5  -3  11    3.06    0.21
  -5  -3 -11    4.30    0.22
   5  -3 -11    2.79    0.24
   5  -3 -11    3.80    0.24
  -5  -3  11    3.52    0.22
   5   3  11    3.09    0.22
  -5   3 -11    3.31    0.15
  -5   3 -11    3.58    0.21
   6  -3  11    6.78    0.33
  -6  -3 -11    7.35    0.32
  -6  -3 -11    7.04    0.32
  -6   3 -11    7.23    0.34
   6  -3 -11    7.49    0.38
  -6   3 -11    7.48    0.29
   6   3  11    7.09    0.36
   0  -4  11   15.19    0.49
   0  -4 -11   14.58    0.50
   0  -4 -11   14.23    0.53
   0   4 -11   14.67    0.46
   0   4  11   14.34    0.47
   0  -4  11   15.40    0.46
   1   4 -11   20.71    0.64
  -1  -4 -11   20.08    0.70
  -1   4  11   20.75    0.63
  -1  -4 -11   20.54    0.66
   1  -4  11   20.88    0.64
   1  -4  11   21.32    0.62
   1  -4 -11   20.61    0.70
  -1  -4  11   20.59    0.65
   1   4  11   20.29    0.62
   1  -4 -11   19.97    0.66
  -1   4 -11   20.26    0.60
  -1  -4  11   22.11    0.62
   2   4 -11   10.25    0.38
  -2  -4 -11   10.89    0.38
  -2   4  11   10.30    0.37
  -2  -4 -11   10.00    0.42
   2  -4  11   10.37    0.36
   2   4  11   11.42    0.38
   2  -4 -11   11.07    0.45
  -2  -4  11   11.51    0.38
  -2   4 -11   11.37    0.39
   2  -4 -11   11.52    0.42
  -2  -4  11   10.80    0.41
   3  -4  11   38.69    1.11
   3   4 -11   39.68    1.21
  -3  -4 -11   39.79    1.19
  -3   4  11   40.45    1.13
   3  -4 -11   38.04    1.21
   3  -4 -11   41.14    1.23
  -3   4 -11   41.03    1.11
   3   4  11   39.32    1.20
  -3   4 -11   38.59    1.10
  -3  -4  11   39.93    1.14
   4   4 -11   12.31    0.48
  -4   4  11   12.38    0.43
  -4  -4 -11   11.90    0.45
  -4  -4  11   12.74    0.46
   4  -4 -11   12.53    0.48
   4   4  11   13.28    0.49
  -4   4 -11   12.06    0.38
   4  -4 -11   12.85    0.51
  -4   4 -11   11.20    0.43
  -5  -4 -11   16.28    0.59
   5   4 -11   16.96    0.64
  -5   4  11   17.42    0.57
   5   4  11   15.71    0.60
  -5  -4  11   16.81    0.57
   5  -4 -11   17.28    0.64
  -5   4 -11   16.22    0.56
  -5   4 -11   16.45    0.52
  -6  -4 -11    2.57    0.21
  -6   4 -11    2.24    0.15
   6   4  11    2.44    0.22
   6  -4 -11    2.12    0.23
  -6   4 -11    2.42    0.19
   0  -5 -11    9.66    0.39
   0  -5  11    9.38    0.33
   0  -5 -11    9.53    0.36
   0   5  11    8.58    0.33
   0   5 -11    9.22    0.32
  -1   5  11    0.77    0.10
   1  -5  11    0.97    0.10
  -1  -5 -11    0.87    0.13
  -1  -5 -11    0.99    0.11
   1   5 -11    0.88    0.09
  -1  -5  11    0.73    0.10
  -1   5 -11    0.85    0.10
  -1   5 -11    0.90    0.07
  -1  -5  11    0.67    0.11
   1  -5 -11    0.83    0.13
   1  -5 -11    0.95    0.11
   1   5  11    0.64    0.09
  -2  -5 -11    5.89    0.30
  -2  -5 -11    6.05    0.27
   2   5 -11    5.99    0.26
   2  -5  11    6.25    0.26
  -2   5  11    6.15    0.27
  -2  -5  11    6.49    0.27
   2  -5 -11    6.49    0.32
  -2  -5  11    6.04    0.28
   2  -5 -11    6.46    0.29
  -2   5 -11    6.36    0.27
   2   5  11    5.96    0.25
  -2   5 -11    6.39    0.21
  -3  -5 -11   10.55    0.40
   3  -5  11   10.51    0.38
  -3   5  11   10.16    0.38
   3   5 -11   10.55    0.41
   3   5  11   10.77    0.42
  -3   5 -11   10.79    0.33
   3  -5 -11   10.54    0.44
  -3  -5  11    9.78    0.40
   3  -5 -11    9.87    0.41
  -3   5 -11   10.49    0.38
  -4   5  11    2.34    0.17
  -4  -5 -11    2.51    0.18
   4  -5  11    2.58    0.18
   4   5 -11    2.69    0.20
   4  -5 -11    2.61    0.20
   4  -5 -11    2.59    0.21
  -4  -5  11    2.36    0.18
  -4   5 -11    2.51    0.12
   4   5  11    2.37    0.19
  -5   5  11    1.43    0.14
   5   5 -11    1.39    0.15
   5   5 -11    1.29    0.16
  -5  -5 -11    1.71    0.17
  -5   5 -11    1.71    0.16
   5   5  11    1.74    0.17
  -5   5 -11    1.42    0.11
   5  -5 -11    1.46    0.18
  -6  -5 -11    5.61    0.31
   6   5  11    5.75    0.32
  -6   5 -11    5.69    0.25
   6  -5 -11    5.78    0.34
  -6   5 -11    5.79    0.30
   0   6  11    0.99    0.11
   0   6 -11    1.12    0.12
   0  -6 -11    1.33    0.13
   0  -6  11    1.33    0.12
   0  -6 -11    1.13    0.15
   0   6 -11    1.16    0.10
   1  -6  11    2.98    0.17
   1   6 -11    2.88    0.16
   1   6 -11    2.99    0.19
  -1  -6 -11    3.22    0.22
  -1   6  11    3.27    0.19
  -1  -6 -11    3.04    0.19
   1  -6 -11    2.68    0.18
  -1   6 -11    2.79    0.14
   1  -6 -11    2.78    0.20
   1   6  11    3.19    0.18
  -1  -6  11    2.90    0.17
  -1   6 -11    2.72    0.18
  -2  -6 -11    0.08    0.08
  -2  -6 -11    0.05    0.09
  -2   6  11    0.04    0.07
   2   6 -11    0.06    0.07
   2  -6  11   -0.09    0.06
   2   6 -11   -0.01    0.06
  -2   6 -11   -0.01    0.04
   2  -6 -11   -0.07    0.06
   2  -6 -11   -0.04    0.08
   2   6  11   -0.03    0.07
  -2   6 -11    0.09    0.08
  -2  -6  11   -0.01    0.07
   3  -6  11   18.64    0.58
  -3  -6 -11   18.41    0.63
  -3   6  11   17.83    0.59
   3   6 -11   17.60    0.59
   3   6 -11   17.23    0.62
   3  -6 -11   20.21    0.68
  -3  -6  11   19.73    0.62
  -3   6 -11   19.06    0.61
  -3   6 -11   19.58    0.58
   3   6  11   18.03    0.65
   3  -6 -11   18.85    0.69
   4   6 -11    6.25    0.29
   4  -6  11    5.58    0.27
   4   6 -11    5.54    0.30
  -4  -6 -11    5.82    0.30
  -4   6  11    5.94    0.27
   4  -6 -11    5.54    0.33
   4   6  11    6.24    0.31
   4  -6 -11    5.81    0.30
  -4   6 -11    6.14    0.23
   5   6 -11    7.85    0.38
  -5   6  11    8.13    0.34
  -5  -6 -11    8.08    0.37
   5   6 -11    8.03    0.35
  -5   6 -11    8.37    0.37
   5   6  11    8.63    0.39
  -5   6 -11    8.04    0.30
   5  -6 -11    8.46    0.42
  -6   6 -11    0.15    0.07
  -6   6 -11    0.06    0.11
   0   7 -11   10.90    0.39
   0  -7  11   11.28    0.40
   0  -7 -11   10.82    0.43
   0   7  11   11.05    0.40
   0   7 -11   11.04    0.41
   0  -7 -11   11.15    0.45
   1  -7  11   12.72    0.44
  -1  -7 -11   12.97    0.48
  -1   7  11   12.57    0.44
   1   7 -11   12.31    0.45
  -1  -7 -11   12.78    0.50
   1   7  11   12.83    0.44
   1  -7 -11   12.69    0.49
  -1   7 -11   12.55    0.43
   1  -7 -11   12.67    0.50
  -1  -7  11   13.54    0.46
  -1   7 -11   13.62    0.47
   2   7 -11    4.74    0.24
  -2  -7 -11    4.76    0.26
   2   7 -11    4.52    0.25
   2  -7  11    5.02    0.24
  -2  -7 -11    4.95    0.28
  -2   7  11    4.93    0.24
   2  -7 -11    5.36    0.27
   2   7  11    5.28    0.24
  -2  -7  11    5.01    0.25
  -2   7 -11    4.89    0.20
  -2   7 -11    4.66    0.25
   2  -7 -11    5.68    0.30
   3  -7  11   12.09    0.43
  -3  -7 -11   11.96    0.47
   3   7 -11   11.16    0.46
  -3   7  11   11.90    0.43
   3   7 -11   11.60    0.44
   3  -7 -11   13.08    0.50
  -3   7 -11   13.01    0.42
   3  -7 -11   12.48    0.52
  -3   7 -11   13.17    0.46
  -3  -7  11   12.47    0.46
  -4  -7 -11    0.35    0.11
   4  -7  11    0.15    0.09
  -4   7  11    0.11    0.08
   4   7 -11   -0.06    0.09
   4   7 -11    0.11    0.10
  -4  -7  11    0.13    0.10
   4   7  11    0.20    0.11
  -4   7 -11    0.21    0.07
   4  -7 -11    0.13    0.11
   5   7 -11   14.81    0.60
  -5   7  11   14.42    0.52
  -5  -7 -11   15.19    0.58
   5   7 -11   14.56    0.54
   5   7  11   15.34    0.60
   5  -7 -11   16.09    0.63
   0   8  11   29.28    0.89
   0  -8 -11   29.15    0.97
   0   8 -11   29.65    0.92
   0   8 -11   29.71    0.91
   0  -8 -11   32.06    0.98
   0  -8  11   30.87    0.90
   1   8 -11   24.69    0.79
  -1  -8 -11   25.90    0.84
  -1  -8 -11   24.08    0.83
   1   8 -11   23.84    0.78
  -1   8  11   25.04    0.77
   1  -8  11   25.44    0.77
   1   8  11   25.64    0.76
  -1   8 -11   25.60    0.78
  -1   8 -11   24.74    0.78
  -1  -8  11   24.34    0.77
   1  -8 -11   25.68    0.84
   1  -8 -11   25.14    0.85
  -2  -8 -11   17.88    0.63
  -2   8  11   16.63    0.57
   2   8 -11   16.71    0.60
  -2  -8 -11   16.97    0.63
   2   8 -11   17.03    0.58
   2  -8  11   17.18    0.57
  -2   8 -11   16.89    0.55
  -2  -8  11   16.98    0.57
   2  -8 -11   16.52    0.62
   2   8  11   17.17    0.55
  -2   8 -11   16.69    0.57
   2  -8 -11   17.19    0.62
  -3  -8 -11   18.48    0.68
   3   8 -11   18.57    0.64
   3   8 -11   19.68    0.68
  -3   8  11   19.51    0.63
   3  -8  11   18.65    0.62
  -3  -8 -11   18.41    0.69
  -3   8 -11   19.52    0.61
  -3  -8  11   19.46    0.64
  -3   8 -11   19.38    0.63
   3  -8 -11   18.80    0.70
   3  -8 -11   19.83    0.70
  -4  -8 -11    6.10    0.33
  -4   8  11    5.68    0.29
   4   8 -11    5.52    0.32
   4   8 -11    6.31    0.31
   4  -8  11    5.93    0.29
   4   8  11    5.78    0.31
  -4   8 -11    6.20    0.26
  -4  -8  11    5.92    0.30
   4  -8 -11    6.28    0.35
  -5  -8 -11    4.36    0.29
   5   8 -11    4.66    0.27
   5  -8  11    4.38    0.27
  -5   8  11    4.26    0.26
   5   8 -11    4.70    0.30
   5  -8 -11    4.43    0.30
  -5   8 -11    4.44    0.22
   5   8  11    4.27    0.28
   0  -9 -11    1.63    0.17
   0  -9  11    2.04    0.16
   0   9  11    1.46    0.14
   0   9 -11    1.57    0.16
   0   9 -11    1.67    0.14
   0  -9 -11    1.61    0.17
  -1  -9 -11    4.45    0.27
   1  -9  11    4.94    0.25
  -1  -9 -11    4.41    0.27
  -1   9  11    4.43    0.24
   1   9 -11    4.46    0.24
   1   9 -11    4.57    0.26
  -1  -9  11    4.78    0.26
   1  -9 -11    4.40    0.28
   1  -9 -11    4.94    0.28
  -1   9 -11    4.77    0.23
   1   9  11    4.76    0.24
  -1   9 -11    4.97    0.26
  -2  -9 -11    6.02    0.33
   2   9 -11    6.25    0.30
   2  -9  11    6.16    0.29
   2   9 -11    5.61    0.29
  -2   9  11    6.07    0.29
  -2  -9 -11    6.34    0.32
  -2   9 -11    6.34    0.27
   2   9  11    6.60    0.29
  -2   9 -11    6.62    0.31
  -2  -9  11    6.53    0.31
   2  -9 -11    6.69    0.35
   2  -9 -11    6.66    0.33
   3  -9  11    5.95    0.29
  -3  -9 -11    6.32    0.33
   3   9 -11    6.06    0.31
  -3   9  11    5.64    0.29
  -3  -9 -11    6.23    0.35
   3   9 -11    6.14    0.32
  -3  -9  11    6.38    0.32
  -3   9 -11    6.37    0.27
   3  -9 -11    6.29    0.34
  -3   9 -11    6.69    0.31
   4   9 -11    9.75    0.42
   4  -9  11    9.55    0.40
   4   9 -11    9.18    0.44
  -4   9  11    9.73    0.40
  -4  -9 -11    9.08    0.43
  -4  -9  11    8.71    0.39
  -4   9 -11    9.60    0.36
   4  -9 -11    9.23    0.45
  -5   9  11    8.88    0.39
   5   9 -11    9.31    0.41
  -5  -9  11    8.61    0.39
   0  10 -11    0.59    0.12
   0 -10 -11    0.56    0.13
   0  10 -11    0.29    0.09
   0 -10  11    0.51    0.11
   0  10  11    0.49    0.11
   0 -10 -11    0.70    0.14
  -1 -10 -11   16.33    0.62
   1  10 -11   15.30    0.57
  -1  10  11   15.22    0.55
   1 -10  11   16.10    0.56
  -1 -10 -11   16.96    0.62
   1  10 -11   16.20    0.58
   1 -10 -11   15.72    0.61
   1  10  11   16.29    0.55
  -1 -10  11   16.29    0.56
  -1  10 -11   15.61    0.55
  -1  10 -11   15.80    0.56
   1 -10 -11   15.83    0.61
   2  10 -11    0.88    0.14
   2  10 -11    0.74    0.13
  -2 -10 -11    0.66    0.14
  -2 -10 -11    0.79    0.16
   2 -10  11    0.84    0.13
  -2  10  11    0.74    0.13
  -2 -10  11    0.61    0.14
  -2  10 -11    0.61    0.10
   2  10  11    0.64    0.12
  -2  10 -11    0.45    0.13
   2 -10 -11    0.69    0.14
  -3  10  11    6.40    0.31
  -3 -10 -11    6.81    0.37
   3  10 -11    6.95    0.34
  -3 -10 -11    6.27    0.36
   3  10 -11    6.50    0.34
   3 -10  11    6.75    0.32
  -3  10 -11    6.42    0.32
   3 -10 -11    6.67    0.36
  -3  10 -11    6.69    0.29
  -3 -10  11    6.39    0.33
  -4 -10 -11   12.93    0.56
   4  10 -11   13.04    0.52
   4 -10  11   13.53    0.51
  -4 -10 -11   12.99    0.57
   4  10 -11   13.55    0.56
  -4  10  11   12.33    0.49
  -4 -10  11   12.18    0.50
   4 -10 -11   13.69    0.56
  -4  10 -11   13.12    0.48
   0 -11 -11    0.21    0.13
   0  11  11    0.08    0.09
   0 -11  11    0.02    0.10
   0  11 -11   -0.04    0.09
   0 -11 -11   -0.05    0.11
   0  11 -11    0.03    0.11
   1 -11  11    4.16    0.25
  -1 -11 -11    3.60    0.27
  -1  11  11    3.86    0.24
  -1 -11 -11    4.22    0.29
   1  11 -11    3.65    0.25
   1  11 -11    4.00    0.24
  -1 -11  11    3.48    0.23
   1  11  11    3.74    0.23
  -1  11 -11    4.12    0.25
   1 -11 -11    4.01    0.27
  -1  11 -11    3.71    0.22
  -2  11  11    3.14    0.22
  -2 -11 -11    3.31    0.26
   2  11 -11    3.41    0.24
   2  11 -11    3.48    0.24
   2 -11  11    3.37    0.22
  -2 -11 -11    3.35    0.26
  -2  11 -11    3.70    0.25
   2 -11 -11    3.81    0.27
  -2 -11  11    3.12    0.24
   2  11  11    3.64    0.23
  -2  11 -11    3.75    0.22
  -3  11  11    0.99    0.15
   3  11 -11    1.40    0.17
   3  11 -11    1.34    0.19
  -3 -11 -11    1.26    0.19
  -3 -11 -11    0.98    0.18
   3 -11  11    1.11    0.16
  -3  11 -11    1.07    0.14
   3 -11 -11    1.04    0.17
  -3 -11  11    1.06    0.16
   0  12 -11    6.12    0.33
   0 -12 -11    6.04    0.35
   0  12  11    6.18    0.31
   0 -12  11    6.08    0.32
   0  12 -11    5.81    0.31
  -1 -12 -11    9.88    0.46
   1  12 -11    8.88    0.41
  -1  12  11    9.60    0.40
  -1 -12 -11    9.25    0.45
   1 -12  11    8.77    0.39
   1  12 -11    9.02    0.41
   1  12  11    9.10    0.38
   1 -12 -11    9.11    0.44
  -1  12 -11    8.70    0.38
  -1  12 -11    9.11    0.41
  -1 -12  11    9.02    0.40
   2  12 -11    4.03    0.27
  -2 -12 -11    3.42    0.28
  -2 -12 -11    3.28    0.28
   2 -12  11    3.60    0.25
  -2 -12  11    3.84    0.26
  -2  12 -11    4.37    0.29
   2  12  11    3.96    0.25
   2 -12 -11    4.18    0.30
   0 -13 -11   36.28    1.19
  -1 -13 -11   20.68    0.77
   1  13  11   19.77    0.68
   0   0 -12    9.67    0.32
   0   0  12    9.47    0.35
   0   0 -12    9.60    0.38
   1   0 -12    7.18    0.27
   1   0  12    7.32    0.28
  -1   0 -12    7.17    0.32
  -1   0  12    6.88    0.29
  -1   0 -12    7.06    0.24
   1   0 -12    7.67    0.33
  -2   0 -12   71.93    1.98
   2   0 -12   70.63    2.03
   2   0  12   72.56    1.89
  -2   0  12   70.87    1.91
  -2   0 -12   69.15    2.03
   2   0 -12   70.42    2.03
  -3   0  12    2.86    0.18
   3   0 -12    2.75    0.21
   3   0 -12    2.85    0.18
  -3   0 -12    3.16    0.13
   3   0  12    2.87    0.19
   4   0  12   30.26    0.98
   4   0 -12   31.74    1.01
  -4   0 -12   32.25    0.93
  -4   0  12   32.08    0.94
   4   0 -12   31.75    1.01
  -4   0 -12   31.91    0.92
   5   0 -12    2.10    0.20
  -5   0 -12    1.92    0.16
  -5   0  12    1.65    0.16
  -5   0 -12    1.88    0.13
   5   0  12    1.94    0.19
   5   0 -12    1.63    0.18
   6   0 -12   24.52    0.84
  -6   0 -12   23.61    0.76
  -6   0 -12   24.31    0.76
   6   0  12   23.08    0.82
   0  -1 -12    8.85    0.37
   0   1  12    9.53    0.34
   0  -1  12    8.52    0.33
   0  -1 -12    9.39    0.32
   0   1 -12    9.59    0.31
   0   1 -12    9.34    0.37
   1   1 -12   96.12    2.68
  -1  -1 -12   95.47    2.68
  -1   1  12   93.93    2.53
  -1  -1 -12   95.03    2.70
   1  -1  12   97.39    2.53
   1   1 -12   98.95    2.70
   1   1  12   93.96    2.49
  -1  -1  12   94.50    2.51
   1  -1 -12   95.07    2.67
  -1   1 -12   94.75    2.65
  -1   1 -12   92.08    2.63
   1  -1 -12   99.26    2.68
  -2  -1 -12    2.52    0.19
  -2   1  12    2.56    0.17
   2  -1  12    2.58    0.16
   2   1 -12    2.60    0.19
  -2  -1 -12    2.65    0.13
   2   1 -12    2.48    0.16
   2  -1 -12    2.32    0.18
   2   1  12    2.39    0.15
  -2   1 -12    2.51    0.18
   2  -1 -12    2.55    0.15
  -2  -1  12    2.19    0.16
   3  -1  12   39.87    1.17
  -3  -1 -12   39.16    1.13
  -3   1  12   38.05    1.12
   3   1 -12   41.72    1.20
   3   1 -12   37.39    1.19
  -3  -1  12   37.90    1.09
   3  -1 -12   37.44    1.17
   3  -1 -12   37.52    1.16
  -3   1 -12   38.29    1.07
  -3   1 -12   39.07    1.07
   3   1  12   38.27    1.15
  -4   1  12    0.32    0.09
   4   1 -12    0.47    0.10
   4   1 -12    0.59    0.11
   4  -1  12    0.40    0.11
  -4  -1 -12    0.38    0.07
   4  -1 -12    0.47    0.12
  -4   1 -12    0.40    0.09
  -4   1 -12    0.49    0.06
  -4  -1  12    0.52    0.11
   4   1  12    0.37    0.10
   4  -1 -12    0.36    0.11
   5  -1  12   20.83    0.71
  -5  -1 -12   20.99    0.65
   5   1 -12   20.10    0.71
   5   1 -12   19.85    0.73
  -5   1  12   19.78    0.66
  -5  -1  12   20.65    0.67
   5   1  12   19.47    0.70
   5  -1 -12   21.09    0.74
  -5   1 -12   20.34    0.63
   5  -1 -12   20.23    0.73
  -5   1 -12   20.24    0.65
  -6  -1 -12    0.94    0.12
   6   1 -12    0.61    0.14
   6  -1  12    0.86    0.15
  -6  -1 -12    0.82    0.14
  -6   1 -12    0.62    0.13
   6   1  12    0.56    0.13
   6  -1 -12    0.66    0.16
  -6   1 -12    0.80    0.11
   0   2 -12    0.26    0.05
   0  -2 -12    0.33    0.10
   0  -2 -12    0.36    0.07
   0   2  12    0.32    0.08
   0  -2  12    0.23    0.08
   0   2 -12    0.33    0.09
  -1  -2 -12   10.65    0.43
   1   2 -12   10.78    0.37
  -1  -2 -12   10.29    0.36
  -1   2  12   10.39    0.38
   1   2 -12   11.73    0.42
   1  -2  12   11.11    0.39
  -1   2 -12   10.83    0.33
  -1   2 -12   11.09    0.41
  -1  -2  12   10.41    0.39
   1   2  12   11.03    0.38
   1  -2 -12   10.49    0.38
   1  -2 -12   11.26    0.44
  -2  -2 -12    3.65    0.17
   2   2 -12    3.82    0.22
   2  -2  12    3.70    0.18
  -2   2  12    3.60    0.20
   2   2 -12    3.75    0.19
  -2  -2 -12    3.71    0.24
   2  -2  12    3.87    0.19
   2   2  12    3.86    0.19
  -2   2 -12    3.68    0.22
   2  -2 -12    3.91    0.24
   2  -2 -12    3.76    0.19
  -2  -2  12    3.54    0.20
   3  -2  12    7.65    0.31
  -3  -2 -12    7.33    0.28
   3   2 -12    7.23    0.33
  -3   2  12    7.17    0.30
   3   2 -12    6.82    0.31
   3  -2 -12    7.28    0.35
  -3   2 -12    7.31    0.29
   3   2  12    7.22    0.32
   3  -2 -12    7.02    0.31
  -3  -2  12    7.15    0.31
   4   2 -12    2.77    0.20
   4   2 -12    2.77    0.22
  -4  -2 -12    2.80    0.16
  -4   2  12    2.69    0.18
   4  -2  12    2.97    0.19
  -4  -2  12    2.79    0.19
   4  -2 -12    2.98    0.22
   4  -2 -12    2.75    0.20
   4   2  12    2.51    0.19
  -4   2 -12    2.56    0.11
  -4   2 -12    2.93    0.18
  -5  -2 -12    6.53    0.28
  -5   2  12    6.24    0.29
   5   2 -12    6.85    0.34
   5  -2  12    6.35    0.32
   5   2 -12    6.19    0.33
  -5  -2  12    6.35    0.30
   5  -2 -12    6.49    0.33
   5  -2 -12    6.49    0.35
  -5   2 -12    6.25    0.23
  -5   2 -12    5.91    0.29
   5   2  12    6.20    0.32
  -6  -2 -12    0.73    0.12
   6  -2  12    0.63    0.14
   6   2  12    0.23    0.13
  -6   2 -12    0.64    0.10
   6  -2 -12    0.86    0.18
  -6   2 -12    0.48    0.13
   0   3  12   10.91    0.39
   0  -3 -12   11.18    0.45
   0   3 -12   11.99    0.37
   0  -3  12   10.81    0.40
   0  -3 -12   11.51    0.40
  -1  -3 -12   14.62    0.54
   1   3 -12   14.46    0.48
  -1   3  12   14.60    0.48
   1  -3  12   14.88    0.49
   1  -3  12   14.45    0.45
  -1  -3 -12   14.21    0.48
  -1  -3  12   13.46    0.48
   1   3  12   14.66    0.47
   1  -3 -12   13.06    0.52
   1  -3 -12   14.43    0.49
  -1   3 -12   14.65    0.50
  -1   3 -12   14.91    0.43
   2  -3  12   10.06    0.35
  -2  -3 -12    8.66    0.33
   2  -3  12    9.50    0.33
   2   3 -12    8.93    0.34
  -2   3  12    8.45    0.34
  -2  -3 -12    8.54    0.39
   2  -3 -12    8.83    0.38
   2  -3 -12    8.54    0.34
  -2   3 -12    8.40    0.35
   2   3  12    8.44    0.31
  -2  -3  12    8.43    0.34
   3  -3  12    7.27    0.29
  -3   3  12    7.10    0.30
   3   3 -12    7.21    0.32
   3  -3  12    7.43    0.31
  -3  -3 -12    7.42    0.29
   3  -3 -12    7.51    0.36
  -3  -3  12    6.91    0.31
   3  -3 -12    6.79    0.31
   3   3  12    7.28    0.32
  -4   3  12    4.94    0.25
   4  -3  12    4.93    0.26
  -4  -3 -12    4.97    0.24
   4   3 -12    4.59    0.26
   4   3  12    4.96    0.27
   4  -3 -12    4.64    0.29
  -4  -3  12    4.90    0.25
  -4   3 -12    4.84    0.17
   4  -3 -12    4.72    0.27
  -4   3 -12    4.52    0.23
   5   3 -12    1.39    0.17
  -5   3  12    1.45    0.15
   5  -3  12    1.38    0.16
  -5  -3 -12    1.43    0.14
   5  -3 -12    1.30    0.17
  -5  -3  12    1.25    0.15
   5   3  12    1.43    0.16
  -5   3 -12    1.54    0.15
  -5   3 -12    1.29    0.10
   5  -3 -12    1.44    0.16
   6  -3  12    2.76    0.22
  -6  -3 -12    2.56    0.20
  -6   3 -12    2.75    0.16
  -6   3 -12    2.99    0.22
   6  -3 -12    2.97    0.25
   6   3  12    2.77    0.23
   0  -4 -12   35.38    1.06
   0   4 -12   34.37    1.02
   0  -4  12   33.67    1.01
   0  -4 -12   36.27    1.10
   0  -4  12   35.50    0.98
   0   4  12   35.90    1.00
  -1   4  12   10.33    0.39
   1  -4  12   11.48    0.37
  -1  -4 -12   10.21    0.44
   1   4 -12   11.17    0.38
  -1  -4 -12   10.58    0.39
   1  -4  12   11.50    0.40
   1  -4 -12   10.17    0.40
   1  -4 -12   11.19    0.45
   1   4  12   11.57    0.39
  -1  -4  12   11.93    0.42
  -1   4 -12   10.69    0.34
  -2   4  12   37.76    1.12
  -2  -4 -12   39.51    1.18
   2  -4  12   40.85    1.11
  -2  -4 -12   39.89    1.23
   2   4 -12   39.75    1.19
  -2  -4  12   37.00    1.14
   2  -4 -12   39.88    1.21
   2   4  12   41.44    1.11
   2  -4 -12   40.53    1.23
  -2   4 -12   39.77    1.12
   3  -4  12   10.82    0.39
   3   4 -12   11.38    0.43
  -3   4  12   10.43    0.40
  -3  -4 -12   11.50    0.41
   3   4  12   11.13    0.44
  -3  -4  12   11.66    0.43
   3  -4 -12   11.46    0.44
   3  -4 -12   10.91    0.47
  -4  -4 -12   11.36    0.43
  -4   4  12   10.67    0.41
   4   4 -12   11.44    0.46
  -4  -4  12   11.31    0.43
   4   4  12   10.32    0.44
   4  -4 -12   11.05    0.48
   4  -4 -12   11.03    0.45
  -4   4 -12   10.97    0.34
  -4   4 -12   10.81    0.41
   5   4 -12    1.17    0.16
  -5  -4 -12    0.69    0.13
  -5   4  12    0.96    0.13
  -5   4 -12    1.10    0.14
   5   4  12    1.05    0.15
  -5   4 -12    0.92    0.09
  -5  -4  12    0.92    0.14
   5  -4 -12    0.73    0.15
  -6   4 -12   12.68    0.43
  -6   4 -12   12.51    0.49
   0  -5 -12    1.04    0.15
   0   5 -12    1.22    0.09
   0   5  12    1.07    0.11
   0  -5 -12    1.23    0.12
   0  -5  12    1.35    0.12
  -1   5  12    2.19    0.15
  -1  -5 -12    2.34    0.16
   1   5 -12    2.10    0.14
  -1  -5 -12    1.98    0.18
   1  -5  12    2.14    0.15
  -1   5 -12    2.44    0.17
   1  -5 -12    2.30    0.16
   1   5  12    2.70    0.17
  -1  -5  12    2.58    0.16
  -1  -5  12    2.29    0.17
   1  -5 -12    2.51    0.21
  -1   5 -12    2.17    0.11
   2  -5  12    2.74    0.16
  -2   5  12    2.72    0.17
  -2  -5 -12    2.73    0.21
   2   5 -12    2.38    0.16
  -2  -5 -12    2.44    0.17
   2  -5 -12    3.20    0.22
   2  -5 -12    2.53    0.18
  -2  -5  12    2.75    0.20
  -2   5 -12    2.40    0.11
  -2   5 -12    2.72    0.18
   2   5  12    2.42    0.16
   3  -5  12   56.96    1.54
   3   5 -12   52.86    1.66
  -3   5  12   55.37    1.54
  -3  -5 -12   57.62    1.65
  -3   5 -12   61.22    1.62
   3  -5 -12   58.33    1.72
   3  -5 -12   57.68    1.73
   3   5  12   55.13    1.69
  -3  -5  12   55.60    1.61
   4  -5  12   14.30    0.50
  -4   5  12   14.13    0.50
  -4  -5 -12   14.37    0.53
   4   5 -12   14.37    0.55
   4  -5 -12   15.15    0.56
  -4   5 -12   14.42    0.45
  -4  -5  12   14.82    0.54
   4  -5 -12   15.16    0.59
   4   5  12   13.50    0.54
  -5   5  12   10.72    0.42
  -5  -5 -12   10.83    0.45
   5   5 -12   10.82    0.48
   5   5 -12   11.20    0.43
  -5   5 -12    9.99    0.41
   5  -5 -12   10.80    0.48
  -5   5 -12   10.26    0.35
   5   5  12   10.02    0.44
   0  -6 -12   15.73    0.56
   0   6 -12   16.20    0.55
   0   6 -12   16.68    0.52
   0  -6 -12   15.52    0.59
   0   6  12   16.54    0.54
   0  -6  12   16.68    0.53
   1   6 -12    5.00    0.23
   1  -6  12    5.35    0.24
  -1   6  12    4.64    0.24
   1   6 -12    5.08    0.25
  -1  -6 -12    4.90    0.28
  -1  -6 -12    5.31    0.26
   1  -6 -12    5.19    0.26
  -1   6 -12    4.95    0.20
   1   6  12    5.55    0.25
  -1   6 -12    5.47    0.26
   1  -6 -12    5.02    0.29
  -1  -6  12    5.06    0.24
   2  -6  12   32.65    0.96
  -2  -6 -12   34.21    1.04
  -2   6  12   31.91    0.97
   2   6 -12   32.95    1.02
  -2  -6 -12   33.53    1.07
  -2   6 -12   34.12    0.99
   2   6  12   34.79    0.98
   2  -6 -12   33.37    1.09
  -2   6 -12   33.68    0.99
   2  -6 -12   34.55    1.08
  -3  -6 -12    4.42    0.25
  -3   6  12    4.22    0.24
   3  -6  12    4.68    0.24
   3   6 -12    4.44    0.24
   3   6 -12    4.45    0.25
   3  -6 -12    4.37    0.25
   3  -6 -12    4.75    0.29
  -3   6 -12    4.87    0.19
   4  -6  12    7.45    0.32
  -4  -6 -12    7.39    0.35
  -4   6  12    7.53    0.33
   4   6 -12    7.46    0.33
   4   6 -12    7.55    0.36
   4  -6 -12    8.42    0.38
  -4   6 -12    7.85    0.28
   4   6  12    7.57    0.36
   4  -6 -12    8.83    0.42
  -5   6  12    2.27    0.19
  -5  -6 -12    2.35    0.20
   5   6 -12    2.38    0.22
   5   6 -12    2.45    0.20
   5  -6 -12    2.48    0.23
  -5   6 -12    2.17    0.18
   5   6  12    2.69    0.23
  -5   6 -12    2.57    0.14
   0   7 -12    0.03    0.06
   0  -7  12    0.06    0.07
   0   7  12   -0.10    0.06
   0  -7 -12   -0.08    0.08
   0  -7 -12   -0.05    0.09
   0   7 -12    0.19    0.09
   1  -7  12   23.14    0.71
  -1   7  12   23.02    0.71
  -1  -7 -12   22.60    0.76
  -1  -7 -12   23.19    0.79
   1   7 -12   22.92    0.73
   1   7 -12   21.89    0.72
  -1   7 -12   24.55    0.74
   1  -7 -12   22.97    0.80
   1   7  12   21.79    0.71
   1  -7 -12   23.70    0.78
  -1  -7  12   24.21    0.73
  -1   7 -12   23.20    0.72
  -2  -7 -12    5.86    0.32
  -2  -7 -12    5.71    0.29
  -2   7  12    5.61    0.27
   2   7 -12    5.27    0.27
   2   7 -12    5.36    0.28
   2  -7  12    5.42    0.26
  -2   7 -12    6.00    0.28
   2   7  12    5.58    0.26
  -2   7 -12    5.94    0.23
   2  -7 -12    6.19    0.33
  -2  -7  12    5.47    0.27
   2  -7 -12    5.74    0.30
  -3  -7 -12    0.13    0.09
   3  -7  12    0.21    0.09
  -3  -7 -12   -0.04    0.11
  -3   7  12    0.17    0.10
   3   7 -12    0.08    0.10
   3   7 -12    0.06    0.09
   3  -7 -12    0.03    0.10
  -3   7 -12    0.16    0.06
   3  -7 -12    0.22    0.11
   4   7 -12    0.49    0.12
   4   7 -12    0.53    0.13
   4  -7  12    0.49    0.11
  -4  -7 -12    0.44    0.12
  -4   7  12    0.38    0.11
   4   7  12    0.47    0.12
  -4   7 -12    0.60    0.08
   4  -7 -12    0.43    0.13
   5   7 -12    4.28    0.26
  -5  -7 -12    3.79    0.27
   5   7 -12    4.31    0.29
  -5   7  12    3.95    0.24
   5   7  12    4.08    0.28
  -5   7 -12    4.06    0.26
  -5   7 -12    4.29    0.20
   5  -7 -12    3.53    0.28
   0  -8  12    0.60    0.11
   0   8  12    0.84    0.12
   0   8 -12    0.66    0.13
   0   8 -12    0.76    0.10
   0  -8 -12    0.60    0.12
   0  -8 -12    0.49    0.14
  -1  -8 -12   11.02    0.47
   1  -8  12   10.92    0.41
  -1   8  12   10.61    0.41
   1   8 -12   10.48    0.41
   1   8 -12   10.65    0.42
  -1  -8 -12   10.57    0.44
  -1   8 -12   11.22    0.39
   1  -8 -12   11.08    0.48
  -1   8 -12   11.38    0.44
   1  -8 -12   11.37    0.46
   1   8  12   10.62    0.41
  -1  -8  12   10.90    0.42
   2  -8  12    2.83    0.19
  -2   8  12    2.72    0.19
   2   8 -12    2.51    0.20
  -2  -8 -12    2.40    0.20
  -2  -8 -12    2.60    0.22
   2   8 -12    3.03    0.20
  -2   8 -12    2.38    0.19
  -2  -8  12    2.77    0.20
   2  -8 -12    3.07    0.22
   2   8  12    2.81    0.19
  -2   8 -12    2.92    0.16
   2  -8 -12    2.59    0.23
   3  -8  12    0.10    0.09
  -3  -8 -12    0.26    0.12
   3   8 -12    0.13    0.10
  -3   8  12    0.10    0.10
   3   8 -12    0.07    0.10
  -3  -8 -12    0.20    0.14
  -3   8 -12    0.22    0.07
  -3  -8  12    0.24    0.11
   3  -8 -12    0.17    0.11
   3  -8 -12    0.05    0.12
  -4   8  12    2.29    0.20
   4   8 -12    2.64    0.23
   4  -8  12    2.55    0.20
   4   8 -12    2.58    0.20
  -4  -8 -12    2.37    0.21
   4  -8 -12    2.51    0.24
  -4   8 -12    2.60    0.16
  -5   8  12    0.76    0.14
   5   8 -12    0.65    0.15
   5   8 -12    0.87    0.16
   0   9 -12    1.69    0.14
   0   9  12    1.44    0.15
   0  -9 -12    1.74    0.20
   0  -9  12    1.61    0.16
   0  -9 -12    1.54    0.17
   0   9 -12    1.72    0.18
  -1  -9 -12   15.73    0.61
  -1  -9 -12   16.66    0.63
   1  -9  12   16.46    0.56
   1   9 -12   15.83    0.58
   1   9 -12   15.72    0.57
  -1   9  12   16.04    0.56
  -1  -9  12   16.64    0.57
   1  -9 -12   16.13    0.63
  -1   9 -12   16.30    0.56
   1   9  12   17.00    0.56
   1  -9 -12   17.06    0.62
  -1   9 -12   16.08    0.58
   2  -9  12    1.26    0.15
   2   9 -12    1.04    0.14
   2   9 -12    1.24    0.15
  -2  -9 -12    1.06    0.15
  -2   9  12    0.89    0.13
  -2  -9 -12    1.11    0.16
   2  -9 -12    1.27    0.16
   2  -9 -12    0.98    0.17
  -2  -9  12    1.25    0.15
   2   9  12    1.08    0.12
  -2   9 -12    1.18    0.12
  -2   9 -12    1.09    0.15
   3   9 -12    3.27    0.24
  -3  -9 -12    3.57    0.25
   3   9 -12    3.14    0.23
   3  -9  12    3.42    0.23
  -3  -9 -12    3.15    0.26
  -3   9  12    3.53    0.23
   3  -9 -12    3.53    0.27
  -3   9 -12    3.62    0.19
  -3  -9  12    3.32    0.24
   4   9 -12   10.52    0.49
   4   9 -12   11.88    0.48
  -4   9  12   10.57    0.44
  -4  -9 -12   11.43    0.51
   4  -9  12   11.00    0.44
  -4  -9 -12   11.11    0.49
  -4   9 -12   10.85    0.40
   4  -9 -12   11.53    0.52
   0 -10  12    6.21    0.31
   0  10  12    6.00    0.30
   0 -10 -12    6.76    0.36
   0  10 -12    6.33    0.30
   0  10 -12    7.10    0.34
   0 -10 -12    6.71    0.34
  -1 -10 -12    2.80    0.23
   1  10 -12    2.55    0.19
   1 -10  12    2.33    0.20
  -1 -10 -12    2.90    0.24
   1  10 -12    2.36    0.21
  -1  10  12    2.49    0.20
  -1  10 -12    2.42    0.17
  -1 -10  12    2.53    0.20
   1  10  12    2.50    0.18
  -1  10 -12    2.45    0.20
   1 -10 -12    2.11    0.22
   1 -10 -12    2.32    0.22
  -2 -10 -12   21.51    0.80
  -2 -10 -12   23.65    0.81
  -2  10  12   22.06    0.73
   2 -10  12   21.18    0.72
   2  10 -12   22.12    0.77
   2  10 -12   21.59    0.75
   2 -10 -12   22.46    0.80
  -2 -10  12   21.34    0.73
  -2  10 -12   21.57    0.71
  -2  10 -12   21.75    0.73
   2  10  12   22.63    0.70
  -3 -10 -12    3.56    0.27
   3  10 -12    2.99    0.24
   3 -10  12    3.35    0.22
   3  10 -12    3.41    0.25
  -3  10  12    3.68    0.24
  -3 -10 -12    3.60    0.26
  -3 -10  12    3.45    0.25
   3 -10 -12    3.91    0.28
  -3  10 -12    3.66    0.21
   0  11 -12   -0.09    0.10
   0 -11 -12   -0.03    0.12
   0  11 -12    0.00    0.08
   0 -11 -12   -0.11    0.13
   0  11  12    0.04    0.09
   0 -11  12   -0.08    0.11
  -1  11  12    4.16    0.25
  -1 -11 -12    3.89    0.28
   1  11 -12    4.11    0.25
  -1 -11 -12    4.04    0.29
   1  11 -12    3.68    0.26
   1 -11  12    3.87    0.25
   1 -11 -12    4.28    0.29
   1 -11 -12    4.09    0.29
  -1  11 -12    4.20    0.24
  -1 -11  12    4.53    0.27
  -1  11 -12    4.57    0.28
   1  11  12    4.33    0.25
  -2 -11 -12    0.17    0.14
  -2 -11 -12    0.32    0.14
   2  11 -12    0.23    0.11
   2 -11  12    0.15    0.11
   2  11 -12    0.21    0.12
  -2  11  12    0.17    0.10
  -2  11 -12    0.30    0.13
   2  11  12    0.16    0.11
   2 -11 -12    0.21    0.13
  -2  11 -12    0.11    0.09
  -2 -11  12    0.17    0.12
  -3 -11 -12    2.15    0.22
  -3 -11  12    2.05    0.21
   0 -12  12   10.44    0.45
   0 -12 -12   11.68    0.51
  -1 -12 -12    4.64    0.31
  -1 -12 -12    4.15    0.30
   1 -12 -12    4.15    0.32
   1  12  12    4.33    0.26
   0   0  13   -0.01    0.07
   0   0 -13   -0.02    0.05
   0   0 -13   -0.10    0.08
   1   0 -13    0.43    0.11
   1   0 -13    0.50    0.08
   1   0  13    0.36    0.09
  -1   0  13    0.56    0.10
  -1   0 -13    0.55    0.07
  -1   0 -13    0.57    0.12
  -2   0 -13   10.53    0.44
   2   0  13   11.90    0.40
  -2   0 -13   10.76    0.35
   2   0 -13   11.07    0.45
   2   0 -13   11.01    0.40
  -2   0  13   11.46    0.41
  -3   0 -13    6.33    0.22
   3   0 -13    6.37    0.32
   3   0  13    5.85    0.29
  -3   0  13    5.91    0.28
   3   0 -13    6.48    0.29
  -4   0 -13    4.70    0.19
   4   0 -13    4.52    0.26
  -4   0  13    4.63    0.25
   4   0 -13    5.00    0.29
   4   0  13    4.75    0.26
  -5   0  13    4.86    0.27
   5   0 -13    4.89    0.30
   5   0  13    4.26    0.28
   5   0 -13    4.82    0.29
  -5   0 -13    4.88    0.22
   6   0 -13   11.51    0.50
   6   0  13   11.36    0.48
   0  -1  13    1.38    0.14
   0  -1 -13    1.46    0.11
   0   1 -13    1.57    0.10
   0   1  13    1.37    0.13
   0   1 -13    1.23    0.14
   0  -1 -13    1.33    0.15
   1  -1  13   34.73    1.01
  -1   1  13   35.51    1.01
   1   1 -13   35.59    1.04
  -1  -1 -13   33.53    1.08
  -1  -1 -13   33.77    1.02
   1   1 -13   37.04    1.08
  -1   1 -13   35.21    1.01
   1  -1 -13   36.40    1.10
  -1   1 -13   35.71    1.09
   1  -1 -13   33.72    1.05
   1   1  13   36.06    1.01
  -1  -1  13   34.52    1.02
   2   1 -13    1.74    0.14
   2  -1  13    2.20    0.16
   2   1 -13    2.11    0.18
  -2   1  13    2.25    0.16
  -2  -1 -13    2.20    0.18
  -2  -1 -13    2.15    0.12
   2   1  13    1.80    0.14
   2  -1 -13    1.78    0.14
   2  -1 -13    2.34    0.19
  -2  -1  13    1.93    0.15
  -2   1 -13    2.01    0.18
  -2   1 -13    1.92    0.09
  -3  -1 -13    6.07    0.23
   3   1 -13    6.17    0.29
   3   1 -13    5.93    0.31
  -3   1  13    6.16    0.28
   3  -1  13    6.04    0.29
   3   1  13    5.93    0.29
   3  -1 -13    6.18    0.28
  -3  -1  13    5.78    0.27
   3  -1 -13    5.68    0.31
   4   1 -13    8.45    0.37
   4   1 -13    9.03    0.40
   4  -1  13    8.68    0.37
  -4   1  13    8.15    0.35
  -4  -1 -13    8.48    0.31
   4  -1 -13    8.39    0.37
  -4  -1  13    8.43    0.36
   4  -1 -13    7.98    0.39
   4   1  13    8.45    0.38
  -4   1 -13    8.50    0.28
   5   1 -13   19.89    0.71
  -5  -1 -13   19.64    0.63
  -5   1  13   19.43    0.66
   5   1 -13   20.27    0.72
   5  -1  13   19.00    0.69
  -5  -1  13   20.05    0.67
  -5   1 -13   19.64    0.62
   5  -1 -13   21.01    0.74
   5  -1 -13   19.37    0.72
   5   1  13   19.60    0.70
   6  -1  13    6.52    0.35
   6   1 -13    6.42    0.37
  -6   1 -13    5.90    0.31
   6  -1 -13    6.72    0.37
   0  -2 -13   38.73    1.14
   0  -2  13   38.03    1.10
   0   2 -13   38.52    1.16
   0   2  13   39.02    1.10
   0   2 -13   39.11    1.11
   0  -2 -13   37.68    1.18
   1  -2  13   11.10    0.40
   1   2 -13   11.95    0.44
   1   2 -13   10.42    0.38
  -1  -2 -13   10.64    0.38
  -1  -2 -13   10.67    0.45
  -1   2  13   11.60    0.41
   1  -2 -13   11.31    0.47
  -1   2 -13   11.48    0.44
  -1  -2  13   11.73    0.43
  -1   2 -13   11.60    0.35
   1   2  13   11.69    0.40
   1  -2 -13   11.22    0.41
   2   2 -13   15.74    0.54
   2  -2  13   16.53    0.53
  -2  -2 -13   14.72    0.58
   2   2 -13   17.53    0.57
  -2  -2 -13   15.31    0.51
  -2   2  13   15.04    0.52
  -2  -2  13   15.35    0.53
  -2   2 -13   14.81    0.56
   2   2  13   16.16    0.51
   2  -2 -13   16.37    0.59
   2  -2 -13   15.31    0.53
   3  -2  13    1.07    0.13
  -3   2  13    0.84    0.11
   3   2 -13    0.98    0.13
  -3  -2 -13    1.08    0.10
   3   2 -13    0.93    0.14
  -3  -2  13    0.85    0.13
   3  -2 -13    1.14    0.16
   3   2  13    0.92    0.13
   3  -2 -13    0.87    0.12
  -4  -2 -13   16.72    0.55
   4   2 -13   16.72    0.61
   4  -2  13   17.17    0.59
  -4   2  13   16.25    0.57
  -4  -2  13   16.34    0.58
   4   2  13   16.61    0.61
   4  -2 -13   17.76    0.62
  -4   2 -13   16.66    0.55
   4  -2 -13   16.45    0.63
  -4   2 -13   17.22    0.50
  -5  -2 -13    0.32    0.09
  -5   2  13    0.40    0.11
   5   2 -13    0.25    0.11
   5  -2  13    0.39    0.12
   5  -2 -13    0.35    0.14
  -5   2 -13    0.31    0.11
   5   2  13    0.42    0.13
  -5   2 -13    0.46    0.07
   5  -2 -13    0.36    0.13
  -5  -2  13    0.14    0.12
   6  -2  13    9.44    0.43
  -6   2 -13    8.80    0.39
   0   3 -13   30.86    0.88
   0   3  13   29.53    0.88
   0  -3  13   29.06    0.89
   0  -3 -13   29.56    0.91
   0  -3 -13   30.01    0.96
  -1  -3 -13    6.86    0.28
  -1  -3 -13    7.18    0.35
  -1   3  13    6.97    0.30
   1   3 -13    7.27    0.28
   1  -3  13    7.63    0.31
  -1   3 -13    7.16    0.24
  -1  -3  13    7.31    0.31
   1  -3 -13    7.14    0.29
   1  -3 -13    7.27    0.35
   1   3  13    6.99    0.29
   2  -3  13   28.61    0.84
  -2  -3 -13   27.94    0.93
  -2  -3 -13   27.63    0.86
   2   3 -13   28.48    0.88
  -2   3  13   27.75    0.84
  -2  -3  13   28.46    0.89
   2  -3 -13   29.99    0.97
   2  -3 -13   28.88    0.93
   2   3  13   31.24    0.87
  -3  -3 -13   16.59    0.55
  -3   3  13   16.80    0.56
   3   3 -13   16.84    0.59
   3  -3 -13   18.39    0.65
   3   3  13   16.58    0.60
  -3  -3  13   16.17    0.57
   3  -3 -13   17.03    0.60
  -4  -3 -13    1.71    0.15
  -4   3  13    1.90    0.16
   4   3 -13    1.66    0.17
   4  -3 -13    1.92    0.20
   4   3  13    1.98    0.18
  -4   3 -13    1.56    0.15
  -4  -3  13    1.75    0.18
   4  -3 -13    1.75    0.17
  -4   3 -13    1.84    0.09
  -5  -3 -13    4.00    0.23
  -5   3  13    4.21    0.24
   5   3 -13    3.86    0.26
  -5  -3  13    4.30    0.27
   5  -3 -13    4.62    0.28
  -5   3 -13    4.18    0.18
   5   3  13    4.40    0.28
  -5   3 -13    4.28    0.24
   5  -3 -13    4.58    0.31
  -6   3 -13    7.20    0.35
   0   4  13    2.87    0.18
   0  -4  13    2.68    0.19
   0  -4 -13    2.81    0.17
   0  -4 -13    2.84    0.21
   0   4 -13    2.75    0.14
  -1  -4 -13    4.28    0.22
   1   4 -13    4.60    0.21
   1  -4  13    4.74    0.25
  -1  -4 -13    4.73    0.28
  -1   4  13    4.91    0.24
  -1  -4  13    4.47    0.24
   1   4  13    4.46    0.22
  -1   4 -13    4.14    0.16
   1  -4 -13    4.40    0.27
   1  -4 -13    4.00    0.21
   2  -4  13    4.17    0.21
   2   4 -13    4.37    0.22
  -2   4  13    3.88    0.22
  -2  -4 -13    4.23    0.21
  -2  -4 -13    4.21    0.27
  -2   4 -13    4.37    0.23
   2   4  13    4.70    0.23
   2  -4 -13    4.45    0.23
  -2  -4  13    4.58    0.25
   2  -4 -13    4.71    0.28
  -3  -4 -13    8.32    0.33
  -3   4  13    7.52    0.33
   3  -4  13    8.28    0.32
   3   4 -13    8.20    0.35
  -3  -4  13    8.01    0.35
   3  -4 -13    8.36    0.35
   3  -4 -13    8.30    0.40
   4   4 -13    4.68    0.27
  -4  -4 -13    4.76    0.25
  -4   4  13    4.76    0.26
  -4  -4  13    4.37    0.26
   4   4  13    4.31    0.27
  -4   4 -13    4.30    0.24
   4  -4 -13    4.82    0.27
  -4   4 -13    4.51    0.16
   4  -4 -13    4.78    0.30
  -5   4  13   10.13    0.41
   5   4 -13    9.85    0.45
  -5  -4 -13   10.23    0.41
  -5   4 -13    9.88    0.40
  -5  -4  13    9.94    0.42
  -5   4 -13    9.43    0.33
   5  -4 -13   10.82    0.48
   5   4  13    9.40    0.43
   0  -5 -13   10.42    0.41
   0   5  13   11.17    0.40
   0  -5 -13   10.63    0.45
   0   5 -13   10.35    0.36
   1  -5  13    1.87    0.14
  -1  -5 -13    1.54    0.14
  -1  -5 -13    1.41    0.17
   1   5 -13    1.64    0.13
  -1   5  13    1.37    0.13
  -1  -5  13    1.38    0.15
  -1   5 -13    1.40    0.14
   1  -5 -13    1.51    0.17
   1  -5 -13    1.45    0.14
  -1   5 -13    1.47    0.09
   1   5  13    1.41    0.13
  -2  -5 -13   30.89    0.96
   2  -5  13   30.84    0.90
   2   5 -13   31.15    0.96
  -2   5  13   30.18    0.92
  -2  -5  13   31.25    0.97
   2  -5 -13   31.54    1.01
   2   5  13   32.33    0.93
  -2   5 -13   32.24    0.91
  -2   5 -13   33.17    0.95
   2  -5 -13   30.70    1.03
  -3  -5 -13    0.58    0.11
  -3  -5 -13    0.48    0.14
   3   5 -13    0.63    0.11
  -3   5  13    0.71    0.12
   3  -5  13    0.64    0.11
  -3   5 -13    0.62    0.06
   3  -5 -13    0.45    0.13
  -3  -5  13    0.49    0.12
   3  -5 -13    0.67    0.12
  -4  -5 -13   13.12    0.48
  -4   5  13   12.08    0.46
   4   5 -13   11.74    0.49
   4  -5 -13   13.61    0.53
   4   5  13   12.28    0.51
   4  -5 -13   13.02    0.55
  -4  -5  13   13.27    0.51
   5   5 -13    5.26    0.29
   5   5 -13    5.09    0.32
  -5  -5 -13    4.95    0.28
  -5   5  13    5.03    0.28
   5   5  13    5.08    0.31
  -5   5 -13    5.14    0.20
  -5   5 -13    4.82    0.27
   5  -5 -13    5.45    0.34
   0   6 -13    1.01    0.10
   0  -6  13    0.89    0.11
   0   6 -13    0.83    0.12
   0   6  13    0.87    0.12
   0  -6 -13    0.74    0.15
   0  -6 -13    0.91    0.12
  -1  -6 -13    3.00    0.22
   1   6 -13    2.86    0.20
   1  -6  13    2.79    0.18
  -1   6  13    2.77    0.18
  -1  -6 -13    2.80    0.19
   1   6 -13    2.74    0.17
  -1   6 -13    2.85    0.19
   1   6  13    2.62    0.18
   1  -6 -13    2.48    0.18
  -1   6 -13    2.53    0.14
   1  -6 -13    2.91    0.23
   2   6 -13    3.52    0.21
   2  -6  13    4.17    0.22
  -2   6  13    3.41    0.21
  -2  -6 -13    4.03    0.23
  -2  -6 -13    3.89    0.26
   2   6 -13    3.76    0.23
  -2   6 -13    3.89    0.16
   2  -6 -13    3.10    0.24
   2   6  13    3.78    0.21
   2  -6 -13    3.40    0.22
  -2   6 -13    3.49    0.22
   3  -6  13   11.04    0.41
  -3  -6 -13   10.72    0.44
   3   6 -13   10.03    0.43
  -3  -6 -13   11.35    0.49
  -3   6  13   10.65    0.42
   3   6 -13   10.62    0.43
   3  -6 -13   11.07    0.45
  -3   6 -13   10.89    0.35
   3  -6 -13   10.12    0.47
  -4  -6 -13   12.44    0.49
   4  -6  13   11.98    0.45
  -4   6  13   11.18    0.45
   4   6 -13   12.50    0.48
   4   6 -13   11.66    0.49
   4   6  13   12.33    0.51
   4  -6 -13   12.73    0.54
   4  -6 -13   11.97    0.50
  -4   6 -13   12.40    0.39
  -5   6  13    2.39    0.20
   5   6 -13    2.62    0.23
   5   6 -13    2.44    0.21
  -5   6 -13    2.28    0.14
  -5   6 -13    2.32    0.19
   0   7 -13    0.85    0.10
   0  -7  13    0.77    0.11
   0  -7 -13    0.84    0.13
   0   7 -13    0.79    0.12
   0   7  13    0.50    0.10
   0  -7 -13    0.75    0.15
   1   7 -13    4.21    0.25
  -1  -7 -13    4.30    0.25
   1   7 -13    4.50    0.23
   1  -7  13    4.29    0.23
  -1   7  13    4.18    0.23
  -1  -7 -13    4.69    0.29
  -1  -7  13    4.49    0.24
  -1   7 -13    4.50    0.25
   1  -7 -13    5.16    0.26
   1  -7 -13    4.15    0.28
  -1   7 -13    4.52    0.20
   1   7  13    4.91    0.25
  -2   7  13    6.61    0.32
   2   7 -13    7.38    0.34
   2   7 -13    7.32    0.32
   2  -7  13    7.11    0.31
  -2  -7 -13    7.34    0.34
  -2  -7 -13    7.23    0.37
  -2   7 -13    7.00    0.26
   2   7  13    6.94    0.30
   2  -7 -13    6.99    0.34
  -2   7 -13    7.76    0.33
   2  -7 -13    6.62    0.37
  -3   7  13    4.52    0.25
   3   7 -13    4.19    0.26
  -3  -7 -13    4.33    0.26
   3  -7  13    4.43    0.25
   3   7 -13    4.37    0.26
  -3  -7 -13    4.16    0.30
   3  -7 -13    4.60    0.30
   3  -7 -13    4.81    0.28
  -3   7 -13    4.93    0.20
  -4   7  13    1.10    0.15
  -4  -7 -13    1.27    0.17
   4  -7  13    1.07    0.15
   4   7 -13    1.12    0.16
   4   7 -13    1.17    0.15
  -4   7 -13    1.33    0.11
   4  -7 -13    1.53    0.21
   0   8 -13   42.13    1.30
   0  -8 -13   43.14    1.37
   0  -8  13   46.21    1.26
   0   8 -13   44.12    1.28
   0   8  13   43.59    1.25
   0  -8 -13   42.87    1.35
  -1  -8 -13   16.59    0.65
   1   8 -13   17.06    0.60
  -1   8  13   17.38    0.58
   1   8 -13   17.01    0.59
  -1  -8 -13   16.99    0.63
   1  -8  13   17.06    0.58
  -1  -8  13   18.16    0.59
  -1   8 -13   16.94    0.60
   1   8  13   17.48    0.57
  -1   8 -13   16.62    0.56
   1  -8 -13   17.37    0.63
   1  -8 -13   16.90    0.66
  -2  -8 -13   24.49    0.86
  -2   8  13   24.27    0.77
   2   8 -13   24.88    0.80
  -2  -8 -13   24.25    0.83
   2  -8  13   23.23    0.76
   2   8 -13   24.45    0.81
   2   8  13   24.59    0.76
   2  -8 -13   24.72    0.87
  -2   8 -13   24.87    0.76
   2  -8 -13   24.48    0.84
  -2   8 -13   25.05    0.79
  -3  -8 -13   14.03    0.56
  -3   8  13   14.59    0.53
   3  -8  13   14.95    0.53
   3   8 -13   14.95    0.57
   3   8 -13   14.02    0.54
  -3  -8 -13   14.92    0.61
   3  -8 -13   15.15    0.61
   3  -8 -13   15.42    0.64
  -3   8 -13   16.61    0.52
   4  -8  13   12.17    0.47
  -4   8  13   12.03    0.47
   4   8 -13   12.13    0.52
   4   8 -13   12.37    0.50
  -4   8 -13   12.60    0.43
   0  -9 -13    5.41    0.30
   0   9 -13    4.90    0.29
   0  -9  13    5.10    0.27
   0   9  13    5.15    0.27
   0  -9 -13    4.81    0.32
   0   9 -13    4.93    0.25
   1   9 -13    4.94    0.26
  -1   9  13    5.07    0.27
   1   9 -13    4.72    0.29
  -1  -9 -13    5.29    0.30
   1  -9  13    5.60    0.28
  -1  -9 -13    5.25    0.33
  -1  -9  13    5.82    0.29
   1  -9 -13    5.77    0.34
   1   9  13    5.42    0.28
  -1   9 -13    4.72    0.24
  -1   9 -13    5.43    0.29
   1  -9 -13    5.05    0.29
  -2  -9 -13    3.77    0.26
  -2   9  13    3.34    0.23
   2   9 -13    3.53    0.25
   2   9 -13    3.44    0.23
   2  -9  13    3.48    0.22
  -2  -9 -13    3.03    0.26
  -2   9 -13    3.86    0.25
   2  -9 -13    3.97    0.27
   2   9  13    4.01    0.23
  -2  -9  13    3.79    0.25
  -2   9 -13    3.93    0.21
   2  -9 -13    4.24    0.29
  -3   9  13    1.54    0.16
   3  -9  13    1.80    0.17
  -3  -9 -13    1.70    0.19
  -3  -9 -13    1.72    0.22
   3   9 -13    1.70    0.19
   3   9 -13    1.88    0.19
  -3   9 -13    1.88    0.15
   3  -9 -13    1.99    0.23
   0 -10  13    0.32    0.12
   0 -10 -13    0.02    0.14
   0  10 -13    0.17    0.09
   0  10  13    0.12    0.10
   0  10 -13    0.21    0.12
   0 -10 -13    0.23    0.12
   1 -10  13   11.46    0.45
  -1 -10 -13   11.53    0.51
   1  10 -13   11.69    0.46
  -1 -10 -13   11.89    0.50
   1  10 -13   11.26    0.48
  -1  10  13   11.21    0.45
  -1  10 -13   11.52    0.43
  -1  10 -13   11.82    0.47
   1 -10 -13   11.50    0.49
  -1 -10  13   11.46    0.45
   1 -10 -13   11.25    0.51
   1  10  13   11.29    0.44
   2  10 -13    0.22    0.13
  -2  10  13    0.16    0.10
  -2 -10 -13    0.23    0.13
   2 -10  13    0.25    0.10
   2  10 -13    0.02    0.11
  -2 -10 -13    0.31    0.13
  -2 -10  13    0.25    0.12
  -2  10 -13    0.07    0.12
   2 -10 -13    0.10    0.13
  -2  10 -13    0.19    0.09
   2 -10 -13   -0.03    0.12
   0 -11 -13    5.82    0.36
   0 -11 -13    6.11    0.34
   0 -11  13    5.93    0.32
   0  11  13    5.38    0.31
   1 -11  13    5.20    0.29
  -1 -11 -13    4.54    0.31
  -1 -11  13    4.38    0.28
   1 -11 -13    4.22    0.29
   1  11  13    5.08    0.28
   0   0 -14    3.66    0.24
   0   0 -14    3.91    0.17
   0   0  14    3.53    0.21
  -1   0 -14    5.53    0.21
  -1   0 -14    5.16    0.28
  -1   0  14    5.28    0.26
   1   0  14    5.12    0.25
   1   0 -14    5.13    0.23
   1   0 -14    5.92    0.30
  -2   0 -14    3.00    0.14
  -2   0 -14    2.92    0.23
   2   0  14    3.39    0.20
   2   0 -14    3.04    0.18
   2   0 -14    3.12    0.22
  -2   0  14    2.66    0.19
  -3   0  14    3.82    0.22
   3   0 -14    3.49    0.22
  -3   0 -14    3.87    0.16
   3   0 -14    3.83    0.26
  -4   0 -14    1.17    0.10
   4   0 -14    0.81    0.15
   4   0  14    1.16    0.15
  -4   0  14    1.09    0.15
   4   0 -14    1.37    0.17
  -5   0 -14    4.17    0.21
   5   0  14    4.24    0.27
   5   0 -14    4.38    0.28
  -5   0  14    4.14    0.26
   5   0 -14    3.58    0.28
   0   1 -14   23.63    0.70
   0  -1 -14   22.21    0.77
   0   1  14   22.85    0.71
   0  -1 -14   22.85    0.71
   0  -1  14   22.78    0.72
   0   1 -14   23.50    0.77
   1  -1  14    1.16    0.13
  -1  -1 -14    1.21    0.10
   1   1 -14    1.34    0.12
  -1   1  14    1.34    0.14
   1   1 -14    1.23    0.15
  -1  -1 -14    1.22    0.16
  -1  -1  14    1.01    0.13
  -1   1 -14    1.10    0.15
   1  -1 -14    1.47    0.16
   1  -1 -14    1.39    0.12
   1   1  14    1.07    0.13
  -1   1 -14    1.28    0.09
   2   1 -14   11.19    0.42
   2   1 -14   11.78    0.46
  -2  -1 -14   10.93    0.37
   2  -1  14   11.66    0.42
  -2   1  14   10.93    0.42
  -2  -1 -14   10.99    0.47
  -2  -1  14   10.99    0.42
   2  -1 -14   10.54    0.40
   2   1  14   11.17    0.40
   2  -1 -14   10.58    0.45
  -2   1 -14   10.80    0.45
  -2   1 -14   10.68    0.33
  -3   1  14    0.20    0.09
   3   1 -14    0.37    0.12
  -3  -1 -14    0.32    0.13
  -3  -1 -14    0.50    0.08
   3   1 -14    0.29    0.09
   3  -1 -14    0.42    0.12
  -3  -1  14    0.41    0.11
   3  -1 -14    0.38    0.10
  -4   1  14   18.97    0.65
  -4  -1 -14   19.49    0.61
   4   1 -14   18.75    0.69
   4  -1  14   20.01    0.68
   4   1 -14   19.70    0.70
   4   1  14   18.89    0.68
  -4   1 -14   20.00    0.58
   4  -1 -14   19.55    0.69
  -4  -1  14   19.06    0.66
   4  -1 -14   18.87    0.71
   5   1 -14    4.41    0.29
  -5  -1 -14    4.19    0.22
  -5   1  14    4.30    0.26
   5  -1  14    4.55    0.28
   5  -1 -14    4.62    0.31
   5  -1 -14    4.34    0.28
   5   1  14    3.85    0.27
  -5   1 -14    4.54    0.20
  -5  -1  14    4.22    0.27
   0  -2 -14    0.83    0.09
   0  -2 -14    0.79    0.13
   0  -2  14    0.64    0.11
   0   2  14    0.47    0.10
   0   2 -14    0.62    0.08
  -1   2  14   19.55    0.63
   1  -2  14   20.11    0.63
  -1  -2 -14   18.40    0.68
  -1  -2 -14   19.48    0.61
   1   2 -14   19.19    0.62
  -1  -2  14   19.57    0.66
   1  -2 -14   21.44    0.73
   1  -2 -14   20.15    0.66
   1   2  14   19.93    0.64
  -1   2 -14   20.58    0.60
   2  -2  14    4.08    0.23
  -2  -2 -14    3.84    0.19
  -2  -2 -14    3.88    0.26
   2   2 -14    3.64    0.21
  -2   2  14    3.67    0.22
   2  -2 -14    3.60    0.26
   2  -2 -14    3.93    0.21
   2   2  14    3.89    0.21
  -2  -2  14    3.77    0.23
  -2   2 -14    3.65    0.24
   3   2 -14    1.49    0.15
  -3  -2 -14    2.11    0.21
  -3  -2 -14    2.13    0.14
  -3   2  14    1.56    0.16
  -3  -2  14    1.73    0.16
  -3   2 -14    2.08    0.18
   3  -2 -14    1.99    0.20
   3  -2 -14    2.01    0.17
   4  -2  14    3.12    0.22
  -4  -2 -14    2.88    0.17
   4   2 -14    3.12    0.22
  -4   2  14    3.02    0.21
   4   2  14    2.91    0.22
  -4  -2  14    3.27    0.23
   4  -2 -14    3.08    0.25
  -4   2 -14    3.12    0.13
   4  -2 -14    2.99    0.22
   5  -2  14    0.41    0.13
  -5   2  14    0.24    0.12
   5   2 -14    0.30    0.12
  -5  -2 -14    0.42    0.10
  -5  -2  14    0.40    0.14
   5   2  14    0.35    0.13
   5  -2 -14    0.45    0.16
   5  -2 -14    0.56    0.14
  -5   2 -14    0.34    0.08
   0   3  14    3.98    0.22
   0  -3 -14    3.19    0.23
   0  -3  14    3.50    0.22
   0  -3 -14    3.40    0.18
   0   3 -14    3.36    0.16
  -1  -3 -14    3.79    0.26
  -1  -3 -14    3.16    0.18
  -1   3  14    3.63    0.21
   1   3 -14    3.45    0.18
   1  -3  14    3.68    0.22
   1   3  14    3.90    0.21
   1  -3 -14    3.88    0.20
  -1  -3  14    3.30    0.22
  -1   3 -14    3.61    0.15
   1  -3 -14    3.46    0.24
  -2  -3 -14    3.45    0.19
   2   3 -14    3.52    0.20
  -2   3  14    3.19    0.21
   2  -3  14    3.70    0.22
  -2  -3 -14    3.79    0.25
   2  -3 -14    3.98    0.22
   2  -3 -14    3.39    0.26
   2   3  14    3.84    0.21
  -2  -3  14    3.52    0.23
  -3  -3 -14    0.38    0.13
   3   3 -14    0.50    0.11
  -3   3  14    0.35    0.11
  -3  -3 -14    0.34    0.09
  -3  -3  14    0.25    0.10
   3  -3 -14    0.42    0.11
   3  -3 -14    0.70    0.16
  -4  -3 -14    2.62    0.18
   4   3 -14    2.82    0.22
  -4   3  14    2.55    0.20
  -4  -3  14    2.72    0.21
   4  -3 -14    2.53    0.24
   4   3  14    2.86    0.23
   4  -3 -14    2.86    0.22
   5   3 -14    2.64    0.24
  -5   3  14    2.46    0.20
   5  -3 -14    2.85    0.23
  -5   3 -14    2.82    0.14
  -5  -3  14    2.76    0.23
   5  -3 -14    2.24    0.24
   0  -4  14    1.80    0.17
   0  -4 -14    2.19    0.16
   0   4  14    2.17    0.16
   0  -4 -14    2.35    0.20
   0   4 -14    2.25    0.13
   1  -4  14   28.70    0.86
  -1   4  14   28.15    0.84
  -1  -4 -14   27.12    0.87
   1   4 -14   27.99    0.86
  -1  -4 -14   27.19    0.93
   1   4  14   29.47    0.85
  -1   4 -14   27.89    0.82
  -1  -4  14   27.53    0.87
   1  -4 -14   28.42    0.95
   1  -4 -14   28.32    0.89
   2   4 -14    9.37    0.37
  -2   4  14    8.92    0.37
  -2  -4 -14    9.42    0.36
  -2  -4 -14    8.90    0.42
   2  -4 -14    9.67    0.39
  -2  -4  14    9.52    0.40
  -2   4 -14    9.89    0.38
  -2   4 -14    9.37    0.29
   2  -4 -14    9.10    0.43
   2   4  14   10.28    0.38
  -3  -4 -14   13.17    0.49
  -3  -4 -14   14.30    0.57
   3   4 -14   13.92    0.52
  -3   4  14   13.65    0.50
   3  -4 -14   14.65    0.59
  -3  -4  14   14.82    0.55
   3  -4 -14   14.77    0.55
  -4  -4 -14   10.12    0.40
  -4   4  14   10.33    0.41
   4   4 -14    9.80    0.44
   4  -4 -14    9.58    0.46
   4   4  14   10.11    0.45
   4  -4 -14    9.97    0.44
  -4  -4  14   10.16    0.43
  -5   4  14   10.76    0.44
   5   4 -14   11.15    0.50
  -5  -4  14   10.92    0.46
  -5   4 -14   10.91    0.44
  -5   4 -14   10.60    0.35
   0  -5 -14   14.24    0.51
   0  -5 -14   13.82    0.57
   0   5  14   15.18    0.50
   0   5 -14   14.03    0.47
  -1  -5 -14    2.01    0.20
  -1  -5 -14    1.97    0.16
   1   5 -14    1.96    0.14
  -1   5  14    2.00    0.16
  -1   5 -14    2.02    0.12
   1  -5 -14    2.14    0.20
   1  -5 -14    2.02    0.16
  -1   5 -14    1.84    0.17
   1   5  14    2.05    0.16
  -1  -5  14    1.73    0.17
  -2   5  14   15.77    0.55
  -2  -5 -14   16.41    0.63
   2   5 -14   16.09    0.56
  -2  -5 -14   15.92    0.56
   2  -5 -14   15.84    0.58
  -2   5 -14   16.21    0.49
  -2  -5  14   15.81    0.58
   2   5  14   16.64    0.54
  -2   5 -14   17.22    0.56
  -3  -5 -14    2.06    0.17
   3   5 -14    1.80    0.17
   3  -5  14    1.95    0.16
  -3   5  14    2.01    0.18
  -3  -5 -14    1.78    0.21
   3  -5 -14    2.11    0.19
  -3  -5  14    1.87    0.18
   3  -5 -14    1.85    0.21
   4   5 -14   18.79    0.70
  -4  -5 -14   19.05    0.67
  -4   5  14   19.48    0.65
   4  -5 -14   18.32    0.69
  -4   5 -14   18.67    0.55
   4  -5 -14   18.08    0.72
  -4  -5  14   19.61    0.67
  -4   5 -14   18.67    0.63
   0  -6 -14    0.67    0.15
   0  -6 -14    0.77    0.12
   0   6 -14    0.95    0.13
   0   6  14    0.90    0.12
   0   6 -14    0.98    0.10
   1   6 -14   17.26    0.59
  -1  -6 -14   17.95    0.68
  -1  -6 -14   18.08    0.63
  -1   6  14   17.96    0.60
   1   6 -14   18.34    0.62
  -1   6 -14   18.25    0.56
   1  -6 -14   17.55    0.63
   1  -6 -14   17.06    0.67
  -1   6 -14   18.36    0.61
   1   6  14   18.21    0.59
   2   6 -14    7.43    0.34
  -2  -6 -14    6.05    0.31
  -2  -6 -14    6.46    0.36
  -2   6  14    6.21    0.30
   2  -6  14    6.62    0.29
   2   6 -14    7.14    0.31
  -2   6 -14    7.15    0.25
   2   6  14    6.62    0.30
   2  -6 -14    7.13    0.33
  -2   6 -14    7.27    0.32
   2  -6 -14    6.97    0.38
  -3  -6 -14   44.60    1.44
   3   6 -14   47.56    1.41
   3  -6  14   46.91    1.31
  -3  -6 -14   43.72    1.39
   3   6 -14   46.03    1.34
  -3   6  14   44.75    1.32
   3  -6 -14   47.26    1.48
  -3   6 -14   48.51    1.36
  -4   6  14    2.70    0.21
   4   6 -14    3.48    0.25
   4   6 -14    3.10    0.24
   4  -6 -14    3.18    0.25
   0  -7 -14   11.92    0.51
   0  -7 -14   11.16    0.46
   0   7 -14   11.90    0.46
   0   7 -14   11.71    0.42
   0   7  14   11.51    0.43
  -1  -7 -14    6.83    0.33
   1   7 -14    7.02    0.30
  -1  -7 -14    6.80    0.37
   1   7 -14    7.22    0.34
  -1   7  14    6.65    0.32
   1  -7  14    6.68    0.30
  -1   7 -14    7.03    0.33
   1  -7 -14    6.63    0.32
   1  -7 -14    6.50    0.36
   1   7  14    7.06    0.31
  -1   7 -14    6.54    0.27
  -2  -7 -14    2.82    0.21
  -2  -7 -14    2.96    0.26
   2   7 -14    2.93    0.20
   2  -7  14    3.14    0.21
   2   7 -14    2.70    0.21
  -2   7  14    2.75    0.21
   2  -7 -14    3.27    0.26
  -2   7 -14    3.16    0.23
   2  -7 -14    2.91    0.22
   2   7  14    3.40    0.22
  -2   7 -14    3.03    0.16
  -3  -7 -14    0.94    0.18
  -3   7  14    0.89    0.13
   3   7 -14    0.74    0.15
  -3  -7 -14    0.84    0.14
   3   7 -14    1.20    0.15
   3  -7  14    0.86    0.13
  -3   7 -14    0.88    0.09
   3  -7 -14    0.86    0.15
   3  -7 -14    0.63    0.16
   4  -7  14    0.17    0.11
  -4   7 -14    0.35    0.07
   0  -8 -14    7.12    0.35
   0  -8 -14    6.97    0.38
   0   8 -14    7.00    0.30
   0   8  14    7.32    0.32
   0   8 -14    6.31    0.33
   1   8 -14    3.96    0.23
  -1   8  14    4.64    0.25
  -1  -8 -14    4.46    0.31
   1  -8  14    4.56    0.25
   1   8 -14    4.28    0.26
  -1  -8 -14    4.21    0.26
  -1   8 -14    4.67    0.22
   1  -8 -14    4.61    0.27
  -1   8 -14    4.39    0.27
   1  -8 -14    4.24    0.30
   1   8  14    4.26    0.25
   2   8 -14    0.76    0.13
  -2  -8 -14    0.85    0.17
  -2   8  14    0.66    0.13
   2   8 -14    0.62    0.14
  -2  -8 -14    0.99    0.15
   2  -8  14    0.75    0.13
  -2   8 -14    0.57    0.14
   2  -8 -14    0.72    0.17
  -2   8 -14    1.00    0.11
   2  -8 -14    1.02    0.15
   3   8 -14    0.47    0.12
   3  -8  14    0.63    0.14
   3  -8 -14    0.57    0.13
  -3   8 -14    0.50    0.09
   0   9  14   12.08    0.47
   0   9 -14   11.48    0.45
   0   9 -14   11.99    0.49
   0  -9 -14   13.38    0.56
   0  -9 -14   12.26    0.51
   0  -9  14   12.46    0.47
  -1  -9 -14    8.67    0.44
   1   9 -14    8.35    0.36
   1  -9  14    8.41    0.37
  -1   9  14    8.79    0.38
  -1  -9 -14    8.44    0.40
  -1   9 -14    8.67    0.39
  -1   9 -14    7.87    0.33
   1   9  14    8.07    0.36
   1  -9 -14    8.43    0.40
   1  -9 -14    7.49    0.42
  -2  -9 -14    2.60    0.22
   2  -9  14    2.61    0.21
   2  -9 -14    3.02    0.24
  -2   9 -14    2.73    0.18
  -2   9 -14    2.94    0.23
   0 -10 -14    0.05    0.12
   0 -10  14    0.12    0.11
   1 -10  14   17.55    0.62
   1  10  14   16.07    0.58
  -1 -10  14   17.34    0.60
   1 -10 -14   16.57    0.64
   0   0 -15    0.02    0.11
   0   0  15    0.04    0.09
   0   0 -15    0.04    0.05
  -1   0  15    0.28    0.09
   1   0  15    0.39    0.10
   1   0 -15    0.30    0.08
  -1   0 -15    0.30    0.12
   1   0 -15    0.24    0.11
  -1   0 -15    0.33    0.06
  -2   0 -15    0.22    0.06
   2   0 -15    0.15    0.08
   2   0 -15    0.11    0.12
  -2   0 -15    0.15    0.10
  -2   0  15    0.17    0.10
   2   0  15    0.09    0.09
  -3   0 -15    0.52    0.07
  -3   0  15    0.51    0.12
   3   0 -15    0.57    0.11
   3   0 -15    0.50    0.15
  -3   0 -15    0.52    0.13
   4   0 -15   20.80    0.74
  -4   0  15   20.83    0.70
   4   0  15   20.79    0.72
  -4   0 -15   20.01    0.63
   4   0 -15   20.76    0.75
   0  -1 -15    0.35    0.13
   0   1  15    0.67    0.12
   0   1 -15    0.41    0.12
   0   1 -15    0.78    0.08
   0  -1  15    0.56    0.11
   0  -1 -15    0.71    0.09
  -1   1  15   12.51    0.47
   1   1 -15   12.94    0.45
   1   1 -15   13.59    0.52
  -1  -1 -15   12.82    0.52
   1  -1  15   13.15    0.47
  -1  -1 -15   12.79    0.43
   1   1  15   12.88    0.47
  -1  -1  15   12.67    0.48
  -1   1 -15   13.21    0.51
  -1   1 -15   13.21    0.41
   1  -1 -15   12.96    0.53
   1  -1 -15   13.22    0.46
  -2  -1 -15    1.26    0.16
   2  -1  15    1.08    0.14
   2   1 -15    1.30    0.18
   2   1 -15    1.13    0.13
  -2  -1 -15    1.05    0.10
  -2   1  15    0.94    0.13
  -2   1 -15    1.03    0.16
  -2   1 -15    1.01    0.08
  -2  -1  15    1.09    0.15
   2   1  15    0.94    0.13
   2  -1 -15    0.99    0.12
   2  -1 -15    0.92    0.15
  -3  -1 -15    1.26    0.19
   3   1 -15    1.11    0.14
  -3  -1 -15    1.12    0.10
  -3   1  15    1.02    0.14
   3  -1 -15    1.22    0.17
  -3   1 -15    1.18    0.17
  -3  -1  15    0.93    0.14
   3  -1 -15    1.07    0.14
   4  -1  15    3.75    0.25
  -4   1  15    3.41    0.24
  -4  -1 -15    3.25    0.18
   4   1 -15    3.26    0.24
   4  -1 -15    3.44    0.28
   4   1  15    3.67    0.25
   4  -1 -15    2.84    0.23
  -4  -1  15    3.63    0.24
  -4   1 -15    3.55    0.15
   0   2  15   12.55    0.47
   0   2 -15   13.60    0.43
   0  -2 -15   12.27    0.44
   0  -2 -15   12.56    0.52
   0  -2  15   12.79    0.47
  -1   2  15   10.41    0.40
  -1  -2 -15    9.88    0.36
   1   2 -15   10.08    0.37
  -1  -2 -15    9.73    0.44
   1  -2  15   10.02    0.40
  -1   2 -15   10.22    0.34
  -1  -2  15   10.24    0.42
   1   2  15   10.96    0.41
   1  -2 -15   10.54    0.39
   1  -2 -15   10.39    0.46
  -2  -2 -15   11.31    0.39
  -2   2  15   11.28    0.44
   2   2 -15   11.15    0.43
   2  -2  15   11.36    0.43
  -2  -2 -15   10.96    0.49
  -2  -2  15   11.36    0.45
   2  -2 -15   11.45    0.44
  -2   2 -15   11.63    0.34
   2   2  15   10.85    0.42
   2  -2 -15   11.77    0.50
  -3   2  15    2.95    0.21
  -3  -2 -15    3.52    0.27
  -3  -2 -15    3.52    0.18
   3   2 -15    2.98    0.21
   3  -2 -15    3.66    0.27
   3  -2 -15    3.42    0.22
  -3  -2  15    3.14    0.23
  -4  -2 -15   10.57    0.38
   4   2 -15   10.20    0.45
  -4   2  15   10.23    0.43
   4  -2 -15    9.39    0.47
  -4  -2  15   10.34    0.43
   4  -2 -15    9.86    0.43
   0  -3  15   24.75    0.78
   0   3  15   24.46    0.76
   0  -3 -15   23.91    0.84
   0   3 -15   24.74    0.74
   0  -3 -15   23.73    0.77
   1   3 -15   12.33    0.44
  -1  -3 -15   11.80    0.51
  -1  -3 -15   12.43    0.44
  -1   3  15   12.40    0.46
   1  -3  15   12.69    0.47
   1  -3 -15   12.91    0.47
  -1  -3  15   12.94    0.49
   1  -3 -15   12.84    0.54
  -1   3 -15   13.02    0.41
   1   3  15   13.47    0.47
   2  -3  15   53.21    1.43
  -2  -3 -15   48.55    1.55
  -2  -3 -15   49.84    1.47
   2   3 -15   50.94    1.50
  -2   3  15   48.44    1.42
   2  -3 -15   52.15    1.58
   2  -3 -15   50.87    1.54
  -2  -3  15   50.31    1.48
   2   3  15   52.39    1.44
   3   3 -15   18.65    0.64
  -3  -3 -15   16.44    0.67
  -3   3  15   17.15    0.61
  -3  -3 -15   18.46    0.60
   3  -3 -15   19.05    0.71
  -3  -3  15   17.39    0.63
   3  -3 -15   18.12    0.65
  -4   3  15   10.31    0.43
  -4  -3 -15   10.55    0.40
   4   3 -15   10.01    0.45
   4  -3 -15   10.43    0.46
   4  -3 -15   10.98    0.50
  -4  -3  15   10.83    0.46
   0  -4 -15    0.01    0.07
   0   4  15   -0.05    0.09
   0  -4  15   -0.01    0.10
   0  -4 -15    0.12    0.12
   0   4 -15    0.07    0.06
  -1  -4 -15    0.29    0.09
   1  -4  15    0.04    0.11
  -1   4  15    0.10    0.09
  -1  -4 -15    0.21    0.12
   1   4 -15    0.17    0.08
  -1   4 -15    0.11    0.05
  -1  -4  15    0.16    0.10
   1   4  15    0.07    0.10
   1  -4 -15    0.26    0.14
   1  -4 -15    0.13    0.08
   2   4 -15    1.91    0.16
  -2  -4 -15    2.06    0.22
  -2  -4 -15    2.03    0.16
  -2   4  15    1.66    0.16
   2   4  15    1.55    0.16
   2  -4 -15    2.05    0.21
  -2   4 -15    1.62    0.16
   2  -4 -15    1.96    0.17
  -2  -4  15    1.61    0.18
  -3  -4 -15    7.42    0.40
  -3  -4 -15    7.69    0.32
   3   4 -15    7.21    0.35
  -3   4  15    7.68    0.35
   3  -4 -15    8.05    0.37
  -3  -4  15    7.76    0.37
   3  -4 -15    7.76    0.41
   4   4 -15    0.85    0.15
   4  -4 -15    1.19    0.17
  -4  -4  15    0.94    0.16
   0  -5 -15    1.09    0.18
   0   5  15    0.85    0.13
   0  -5 -15    1.08    0.13
   0   5 -15    0.91    0.10
  -1  -5 -15    2.06    0.17
  -1   5  15    2.12    0.17
   1   5 -15    2.27    0.16
  -1  -5 -15    2.51    0.24
   1   5  15    2.17    0.17
  -1  -5  15    2.16    0.20
   1  -5 -15    2.33    0.18
   1  -5 -15    2.59    0.23
  -1   5 -15    2.16    0.19
  -1   5 -15    2.43    0.13
  -2  -5 -15    0.42    0.14
   2   5 -15    0.42    0.11
  -2  -5 -15    0.37    0.11
  -2   5  15    0.23    0.11
   2  -5 -15    0.34    0.10
  -2  -5  15    0.14    0.11
  -2   5 -15    0.31    0.06
  -2   5 -15    0.06    0.10
   2  -5 -15    0.33    0.13
  -3  -5 -15    3.15    0.27
  -3   5  15    3.15    0.23
   3   5 -15    3.19    0.22
  -3  -5 -15    3.18    0.21
  -3  -5  15    2.63    0.23
   3  -5 -15    3.22    0.26
   3  -5 -15    2.72    0.22
   4  -5 -15    1.26    0.17
   0   6 -15    7.68    0.36
   0   6  15    7.92    0.34
   0   6 -15    7.44    0.30
   0  -6 -15    8.10    0.41
   0  -6 -15    7.56    0.35
  -1   6  15   11.04    0.43
   1   6 -15   11.04    0.45
  -1  -6 -15   11.57    0.44
   1   6 -15   10.87    0.41
  -1  -6 -15   11.24    0.51
   1  -6 -15   11.37    0.51
  -1   6 -15   10.87    0.38
  -1   6 -15   11.20    0.45
   1  -6 -15   11.64    0.46
   1   6  15   11.30    0.43
  -2   6  15    9.04    0.39
  -2  -6 -15    9.33    0.46
  -2  -6 -15    8.91    0.39
   2   6 -15    9.50    0.41
   2   6 -15    9.26    0.38
  -2   6 -15    9.26    0.39
   2  -6 -15    9.34    0.41
  -2   6 -15    9.57    0.32
   2  -6 -15    8.87    0.45
   3   6 -15   18.94    0.68
   3  -6 -15   18.59    0.68
   0   7 -15   -0.08    0.09
   0   7  15   -0.05    0.09
   0  -7 -15    0.02    0.10
   0  -7 -15    0.05    0.12
   0   7 -15    0.04    0.07
   1   7 -15    2.55    0.18
  -1  -7 -15    2.62    0.25
   1   7 -15    2.31    0.20
  -1   7  15    2.79    0.21
  -1  -7 -15    2.49    0.20
  -1   7 -15    2.53    0.21
   1  -7 -15    2.36    0.19
   1  -7 -15    2.39    0.23
   1   7  15    2.54    0.19
  -1   7 -15    2.40    0.15
   2   7 -15    7.19    0.34
  -2  -7 -15    7.26    0.40
  -2   7  15    7.36    0.34
   2   7 -15    7.80    0.37
  -2  -7 -15    7.59    0.36
   2  -7 -15    8.02    0.44
   2  -7 -15    8.65    0.40
  -2   7 -15    9.25    0.32
  -2   7 -15    8.80    0.39
  -3   7 -15    4.69    0.19
   3  -7 -15    4.52    0.29
   0   8 -15   11.39    0.49
   0  -8 -15   13.12    0.57
   0   8  15   13.25    0.49
   0  -8 -15   13.42    0.52
   0   8 -15   12.50    0.46
  -1   8  15    5.22    0.28
  -1  -8 -15    5.43    0.30
   1   8  15    6.05    0.31
   1  -8 -15    5.77    0.32
  -1   8 -15    6.59    0.27
  -1   8 -15    6.64    0.34
   2  -8 -15    6.26    0.34
  -2   8 -15    7.12    0.34
  -2   8 -15    6.40    0.27
   0   0  16   25.27    0.81
   0   0 -16   25.93    0.87
   0   0 -16   25.01    0.78
   1   0 -16    0.07    0.08
  -1   0  16   -0.04    0.10
   1   0  16    0.07    0.11
  -1   0 -16    0.12    0.06
   1   0 -16   -0.02    0.11
  -1   0 -16    0.11    0.10
   2   0  16    9.23    0.39
  -2   0 -16    8.81    0.44
  -2   0 -16    9.67    0.32
  -2   0  16    9.37    0.40
   2   0 -16    9.87    0.39
   2   0 -16    8.98    0.44
  -3   0 -16   11.84    0.52
  -3   0 -16   11.44    0.37
   3   0 -16   11.75    0.52
   3   0 -16   11.64    0.47
  -3   0  16   11.76    0.47
  -4   0 -16    1.24    0.11
  -4   0 -16    1.36    0.21
   0   1 -16    1.34    0.11
   0   1  16    0.96    0.14
   0  -1 -16    1.07    0.11
   0  -1 -16    1.16    0.17
   0  -1  16    0.70    0.13
   1   1 -16   21.82    0.68
   1  -1  16   21.01    0.69
  -1   1  16   19.87    0.69
  -1  -1 -16   21.19    0.65
  -1  -1 -16   20.39    0.75
   1  -1 -16   21.39    0.76
  -1   1 -16   20.75    0.63
   1   1  16   20.61    0.68
  -1  -1  16   21.42    0.70
   1  -1 -16   20.69    0.68
  -2  -1 -16    2.27    0.22
  -2  -1 -16    2.31    0.14
   2  -1  16    2.07    0.19
   2   1 -16    2.31    0.18
  -2   1  16    2.54    0.20
  -2   1 -16    2.29    0.11
   2  -1 -16    2.81    0.24
   2  -1 -16    2.27    0.18
  -2  -1  16    2.27    0.21
   3   1 -16   17.08    0.61
  -3  -1 -16   16.14    0.52
  -3   1  16   16.24    0.59
  -3  -1 -16   15.43    0.65
   3  -1 -16   17.18    0.65
   3  -1 -16   15.59    0.59
  -3  -1  16   16.15    0.59
   4  -1 -16    0.11    0.17
   0  -2 -16    0.10    0.12
   0   2  16    0.08    0.10
   0   2 -16    0.09    0.06
   0  -2  16    0.08    0.09
   0  -2 -16    0.25    0.08
   1  -2  16   12.34    0.47
  -1   2  16   12.74    0.48
  -1  -2 -16   11.84    0.43
  -1  -2 -16   11.96    0.52
   1   2 -16   12.82    0.45
   1   2  16   11.87    0.46
   1  -2 -16   12.29    0.52
  -1  -2  16   12.07    0.47
   1  -2 -16   12.21    0.45
  -1   2 -16   12.38    0.39
  -2  -2 -16    1.59    0.13
   2  -2  16    1.50    0.17
   2   2 -16    1.57    0.15
  -2   2  16    1.67    0.17
  -2  -2 -16    1.31    0.19
  -2   2 -16    1.48    0.09
  -2  -2  16    1.73    0.17
   2  -2 -16    1.39    0.20
   2  -2 -16    1.76    0.16
   3   2 -16    4.21    0.25
  -3   2  16    4.03    0.26
  -3  -2 -16    4.21    0.21
  -3  -2 -16    3.87    0.30
   3  -2 -16    4.75    0.32
   3  -2 -16    4.13    0.25
  -3  -2  16    3.89    0.26
   0  -3  16   16.32    0.58
   0  -3 -16   16.07    0.64
   0   3  16   15.65    0.56
   0   3 -16   16.09    0.52
   0  -3 -16   16.00    0.55
   1   3 -16    8.54    0.34
   1  -3  16    9.14    0.39
  -1  -3 -16    8.52    0.42
  -1  -3 -16    8.93    0.35
  -1   3  16    9.02    0.38
   1  -3 -16    8.55    0.42
   1   3  16    8.37    0.36
   1  -3 -16    8.33    0.35
  -1   3 -16    8.99    0.30
  -1  -3  16    8.35    0.38
  -2   3  16    0.16    0.10
   2  -3  16    0.31    0.12
   2   3 -16    0.21    0.10
  -2  -3 -16    0.36    0.09
  -2  -3 -16    0.25    0.15
  -2  -3  16    0.55    0.12
   2  -3 -16    0.28    0.11
   2  -3 -16    0.60    0.16
   3   3 -16    1.77    0.17
  -3  -3 -16    1.25    0.21
  -3  -3 -16    1.54    0.14
   3  -3 -16    1.63    0.17
   3  -3 -16    1.84    0.22
   0   4 -16    0.03    0.06
   0  -4  16    0.11    0.12
   0  -4 -16   -0.07    0.11
   0   4  16    0.06    0.09
   0  -4 -16   -0.01    0.08
  -1  -4 -16    3.47    0.20
  -1   4  16    3.38    0.22
  -1  -4 -16    3.24    0.26
   1   4 -16    3.58    0.20
  -1   4 -16    3.14    0.15
   1   4  16    3.17    0.22
   1  -4 -16    3.52    0.21
  -1  -4  16    3.28    0.24
   1  -4 -16    3.47    0.27
  -2   4  16    8.88    0.39
  -2  -4 -16    8.64    0.44
   2   4 -16    9.92    0.39
  -2  -4 -16    9.23    0.37
   2  -4 -16    9.46    0.47
  -2  -4  16    9.52    0.42
  -2   4 -16    9.21    0.40
   2  -4 -16    9.16    0.39
   3  -4 -16    0.13    0.11
   0   5 -16    0.53    0.14
   0   5  16    0.66    0.12
   0   5 -16    0.68    0.10
   0  -5 -16    0.52    0.15
   0  -5 -16    0.69    0.12
   1   5 -16    3.12    0.18
  -1  -5 -16    2.68    0.19
  -1   5  16    2.88    0.22
  -1  -5 -16    2.57    0.25
  -1   5 -16    3.73    0.25
   1  -5 -16    3.27    0.21
   1  -5 -16    3.47    0.28
  -1   5 -16    3.28    0.16
   1   5  16    3.12    0.23
  -2  -5 -16    3.29    0.27
   2  -5 -16    3.38    0.29
  -2   5 -16    4.11    0.26
  -2   5 -16    3.63    0.15
   2  -5 -16    3.38    0.23
   0  -6 -16   21.81    0.78
   0  -6 -16   22.14    0.85
   0   6 -16   24.29    0.79
   0   6 -16   24.38    0.74
   0   6  16   23.84    0.76
  -1   6  16    0.04    0.10
   1   6  16   -0.03    0.11
  -1   6 -16    0.24    0.13
  -1   6 -16    0.02    0.07
   1  -6 -16    0.12    0.10
  -2   6 -16   29.02    0.84
  -2   6 -16   28.49    0.91
   1   7  16   12.39    0.47
   0   0  17    0.14    0.11
   0   0 -17    0.25    0.08
  -1   0 -17    0.41    0.08
  -1   0  17    0.38    0.13
   1   0  17    0.45    0.13
  -1   0 -17    0.62    0.16
   1   0 -17    0.50    0.10
  -2   0 -17    2.37    0.13
  -2   0 -17    2.47    0.24
   0   1 -17    1.66    0.14
   0  -1 -17    1.63    0.21
   0   1  17    1.80    0.17
   0  -1 -17    1.70    0.14
   0  -1  17    1.57    0.18
   1   1 -17    4.31    0.23
   1  -1  17    4.51    0.27
  -1   1  17    4.35    0.27
  -1  -1 -17    4.25    0.30
  -1  -1 -17    4.64    0.21
  -1  -1  17    4.41    0.28
  -1   1 -17    4.75    0.20
   1   1  17    4.72    0.27
   1  -1 -17    4.55    0.24
   1  -1 -17    4.49    0.32
  -2  -1 -17    2.63    0.15
  -2  -1 -17    2.26    0.23
  -2   1 -17    2.46    0.13
   2  -1 -17    2.61    0.26
   0   2 -17   23.61    0.73
   0  -2 -17   22.27    0.83
   0   2  17   23.36    0.77
   0  -2 -17   22.95    0.74
   0  -2  17   23.57    0.78
   1  -2  17    9.06    0.39
   1   2 -17    7.65    0.33
  -1  -2 -17    7.50    0.41
  -1  -2 -17    8.06    0.31
  -1   2  17    7.83    0.37
  -1  -2  17    8.42    0.39
  -1   2 -17    8.49    0.30
   1   2  17    8.63    0.37
   1  -2 -17    7.79    0.41
   1  -2 -17    8.37    0.35
  -2  -2 -17    2.82    0.25
   2  -2 -17    3.06    0.28
   0   3 -17    6.42    0.26
   0  -3 -17    6.06    0.28
   0   3  17    6.78    0.32
   0  -3 -17    5.38    0.36
   0  -3  17    6.20    0.33
  -1  -3 -17    1.37    0.19
   1  -3  17    1.72    0.18
   1   3  17    1.64    0.18
   1  -3 -17    1.74    0.21
  -1   3 -17    1.52    0.11
   0   4 -17    1.53    0.13
   0  -4  17    1.50    0.18
   0   4  17    1.32    0.17
   1   4  17    1.76    0.18
  -1   4 -17    1.74    0.12
   0   0   0    0.00    0.00
;
_shelx_hkl_checksum              15846
#END Tags that were not found in dictionaries
loop_
_space_group_symop_operation_xyz
'x, y, z'
'-x+1/2, -y, z+1/2'
'-x, y+1/2, -z+1/2'
'x+1/2, -y+1/2, -z'
loop_
_atom_site_label
_atom_site_type_symbol
_atom_site_fract_x
_atom_site_fract_y
_atom_site_fract_z
_atom_site_U_iso_or_equiv
_atom_site_adp_type
_atom_site_occupancy
_atom_site_site_symmetry_order
_atom_site_calc_flag
_atom_site_refinement_flags_posn
_atom_site_refinement_flags_adp
S1 S 0.73754(5) 0.40558(2) 0.62581(2) 0.01569(9) Uani 1 1 d . .
O1 O 0.77602(16) 0.28461(8) 0.86669(7) 0.01719(19) Uani 1 1 d . .
O3 O 0.77396(17) -0.02671(8) 0.58882(8) 0.0189(2) Uani 1 1 d . .
H3 H 0.6948 -0.0818 0.5986 0.028 Uiso 1 1 calc R U
O2 O 0.43366(16) 0.27791(8) 0.82871(8) 0.0191(2) Uani 1 1 d . .
N1 N 0.87331(17) 0.20235(9) 0.67022(9) 0.0130(2) Uani 1 1 d . .
C2 C 0.91452(19) 0.30212(10) 0.62808(9) 0.0128(2) Uani 1 1 d . .
C3 C 0.6734(2) 0.17499(11) 0.71992(10) 0.0142(2) Uani 1 1 d . .
H3A H 0.5614 0.1740 0.6653 0.017 Uiso 1 1 calc R U
C6 C 1.01240(19) 0.10325(10) 0.66629(11) 0.0160(2) Uani 1 1 d . .
H6A H 1.1211 0.1079 0.7213 0.019 Uiso 1 1 calc R U
H6B H 1.0798 0.0966 0.5965 0.019 Uiso 1 1 calc R U
C4 C 0.7082(2) 0.05509(11) 0.76268(11) 0.0183(3) Uani 1 1 d . .
H4A H 0.7634 0.0570 0.8355 0.022 Uiso 1 1 calc R U
H4B H 0.5774 0.0114 0.7620 0.022 Uiso 1 1 calc R U
C8 C 0.7319(3) 0.35788(12) 0.95544(10) 0.0215(3) Uani 1 1 d . .
H8A H 0.6614 0.4258 0.9303 0.032 Uiso 1 1 calc R U
H8B H 0.8623 0.3788 0.9901 0.032 Uiso 1 1 calc R U
H8C H 0.6422 0.3185 1.0058 0.032 Uiso 1 1 calc R U
C5 C 0.8672(2) 0.00507(11) 0.68644(10) 0.0157(3) Uani 1 1 d . .
H5 H 0.9428 -0.0595 0.7192 0.019 Uiso 1 1 calc R U
C7 C 0.6130(2) 0.25413(11) 0.80879(9) 0.0150(2) Uani 1 1 d . .
C1 C 1.1283(2) 0.31791(11) 0.58307(11) 0.0174(2) Uani 1 1 d . .
H1A H 1.2317 0.3100 0.6393 0.026 Uiso 1 1 calc R U
H1B H 1.1392 0.3930 0.5519 0.026 Uiso 1 1 calc R U
H1C H 1.1536 0.2611 0.5287 0.026 Uiso 1 1 calc R U
loop_
_atom_site_aniso_label
_atom_site_aniso_U_11
_atom_site_aniso_U_22
_atom_site_aniso_U_33
_atom_site_aniso_U_23
_atom_site_aniso_U_13
_atom_site_aniso_U_12
S1 0.01865(15) 0.01234(14) 0.01609(14) 0.00067(10) -0.00041(12) 0.00236(11)
O1 0.0170(4) 0.0185(4) 0.0161(4) -0.0015(3) -0.0001(4) 0.0007(3)
O3 0.0214(5) 0.0157(4) 0.0195(4) 0.0003(3) -0.0016(4) -0.0016(4)
O2 0.0159(5) 0.0193(5) 0.0219(4) -0.0005(4) 0.0040(4) 0.0017(4)
N1 0.0118(5) 0.0124(5) 0.0150(4) 0.0009(4) 0.0019(4) 0.0010(4)
C2 0.0150(5) 0.0130(5) 0.0106(4) -0.0013(4) -0.0005(4) -0.0002(4)
C3 0.0133(5) 0.0130(5) 0.0162(5) 0.0000(4) 0.0027(4) -0.0003(4)
C6 0.0143(5) 0.0126(5) 0.0212(6) 0.0017(5) 0.0010(4) 0.0020(5)
C4 0.0216(7) 0.0127(5) 0.0205(6) 0.0032(4) 0.0062(5) -0.0004(5)
C8 0.0249(7) 0.0222(6) 0.0173(5) -0.0044(5) 0.0011(5) -0.0007(6)
C5 0.0168(6) 0.0130(5) 0.0174(6) 0.0016(4) 0.0003(5) 0.0012(4)
C7 0.0167(6) 0.0129(5) 0.0154(5) 0.0022(4) 0.0023(4) -0.0002(5)
C1 0.0179(6) 0.0155(5) 0.0189(5) -0.0024(4) 0.0065(5) -0.0026(5)
loop_
_atom_type_symbol
_atom_type_description
_atom_type_scat_dispersion_real
_atom_type_scat_dispersion_imag
_atom_type_scat_source
C C 0.0033 0.0016 'International Tables Vol C Tables 4.2.6.8 and 6.1.1.4'
H H 0.0000 0.0000 'International Tables Vol C Tables 4.2.6.8 and 6.1.1.4'
N N 0.0061 0.0033 'International Tables Vol C Tables 4.2.6.8 and 6.1.1.4'
O O 0.0106 0.0060 'International Tables Vol C Tables 4.2.6.8 and 6.1.1.4'
S S 0.1246 0.1234 'International Tables Vol C Tables 4.2.6.8 and 6.1.1.4'
loop_
_geom_angle_atom_site_label_1
_geom_angle_atom_site_label_2
_geom_angle_atom_site_label_3
_geom_angle
C7 O1 C8 115.94(11)
C2 N1 C3 123.05(11)
C2 N1 C6 125.24(11)
C3 N1 C6 111.55(10)
N1 C2 C1 116.60(11)
N1 C2 S1 121.80(10)
C1 C2 S1 121.60(9)
N1 C3 C7 113.89(11)
N1 C3 C4 103.22(10)
C7 C3 C4 110.44(10)
N1 C6 C5 103.58(10)
C5 C4 C3 103.58(10)
O3 C5 C6 108.46(10)
O3 C5 C4 111.76(11)
C6 C5 C4 102.66(10)
O2 C7 O1 124.80(12)
O2 C7 C3 122.78(12)
O1 C7 C3 112.14(11)
loop_
_geom_bond_atom_site_label_1
_geom_bond_atom_site_label_2
_geom_bond_distance
S1 C2 1.6777(12)
O1 C7 1.3312(16)
O1 C8 1.4522(15)
O3 C5 1.4274(16)
O2 C7 1.2155(17)
N1 C2 1.3288(16)
N1 C3 1.4696(16)
N1 C6 1.4815(15)
C2 C1 1.5019(17)
C3 C7 1.5198(17)
C3 C4 1.5427(18)
C6 C5 1.5179(18)
C4 C5 1.5289(19)
loop_
_geom_torsion_atom_site_label_1
_geom_torsion_atom_site_label_2
_geom_torsion_atom_site_label_3
_geom_torsion_atom_site_label_4
_geom_torsion
C3 N1 C2 C1 178.29(11)
C6 N1 C2 C1 -6.67(18)
C3 N1 C2 S1 -1.36(16)
C6 N1 C2 S1 173.68(9)
C2 N1 C3 C7 -56.32(15)
C6 N1 C3 C7 128.04(12)
C2 N1 C3 C4 -176.08(11)
C6 N1 C3 C4 8.27(13)
C2 N1 C6 C5 -159.35(12)
C3 N1 C6 C5 16.18(13)
N1 C3 C4 C5 -29.32(13)
C7 C3 C4 C5 -151.43(11)
N1 C6 C5 O3 84.50(12)
N1 C6 C5 C4 -33.89(13)
C3 C4 C5 O3 -76.67(13)
C3 C4 C5 C6 39.38(13)
C8 O1 C7 O2 -4.36(18)
C8 O1 C7 C3 -178.33(10)
N1 C3 C7 O2 147.77(12)
C4 C3 C7 O2 -96.64(15)
N1 C3 C7 O1 -38.12(14)
C4 C3 C7 O1 77.48(13)
