#------------------------------------------------------------------------------
#$Date: 2016-02-18 17:37:37 +0200 (Thu, 18 Feb 2016) $
#$Revision: 176729 $
#$URL: svn://www.crystallography.net/cod/cif/1/51/61/1516148.cif $
#------------------------------------------------------------------------------
#
# This file is available in the Crystallography Open Database (COD),
# http://www.crystallography.net/
#
# All data on this site have been placed in the public domain by the
# contributors.
#
data_1516148
loop_
_publ_author_name
'Zipfel, Hannes F.'
'Carreira, Erick M.'
_publ_section_title
;
 An efficient synthesis strategy to the core structure of
 6-5-6-5-6-membered epipolythiodiketopiperazines.
;
_journal_issue                   11
_journal_name_full               'Organic letters'
_journal_page_first              2854
_journal_page_last               2857
_journal_paper_doi               10.1021/ol500990f
_journal_volume                  16
_journal_year                    2014
_chemical_absolute_configuration ad
_chemical_formula_moiety         'C21 H24 N2 O4 S'
_chemical_formula_sum            'C21 H24 N2 O4 S'
_chemical_formula_weight         400.48
_chemical_name_systematic
'(2R,3S)-ethyl 3-(1H-indol-3-yl)-2-(4-methylphenylsulfonamido)butanoate'
_space_group_crystal_system      monoclinic
_space_group_IT_number           4
_space_group_name_Hall           'P 2yb'
_space_group_name_H-M_alt        'P 1 21 1'
_symmetry_cell_setting           monoclinic
_symmetry_Int_Tables_number      4
_symmetry_space_group_name_Hall  'P 2yb'
_symmetry_space_group_name_H-M   'P 1 21 1'
_atom_sites_solution_hydrogens   mixed
_atom_sites_solution_primary     direct
_audit_creation_date             2013-12-16
_audit_creation_method
;
Olex2 1.2
(compiled 2013.12.10 svn.r2850 for OlexSys, GUI svn.r4736)
;
_cell_angle_alpha                90
_cell_angle_beta                 106.278(3)
_cell_angle_gamma                90
_cell_formula_units_Z            2
_cell_length_a                   11.6390(7)
_cell_length_b                   5.5765(3)
_cell_length_c                   15.5447(10)
_cell_measurement_reflns_used    5959
_cell_measurement_temperature    100
_cell_measurement_theta_max      27.53
_cell_measurement_theta_min      2.57
_cell_volume                     968.48(10)
_computing_cell_refinement       'Bruker SAINT'
_computing_data_collection       'Bruker APEX2'
_computing_data_reduction        'Bruker SAINT'
_computing_molecular_graphics    OLEX2
_computing_publication_material  OLEX2
_computing_structure_refinement  'SHELXL-97 (Sheldrick, 2008)'
_computing_structure_solution    'XS (Sheldrick, 2008)'
_diffrn_ambient_temperature      100.0(2)
_diffrn_detector                 'Bruker APEX2 area detector'
_diffrn_detector_area_resol_mean 8.33
_diffrn_detector_type            'CCD area detector'
_diffrn_measured_fraction_theta_full 0.998
_diffrn_measured_fraction_theta_max 0.998
_diffrn_measurement_device       'kappa-stage diffractometer'
_diffrn_measurement_device_type  'Bruker/Nonius Kappa Apex2'
_diffrn_measurement_method       '\w and \f scans'
_diffrn_radiation_monochromator  graphite
_diffrn_radiation_probe          x-ray
_diffrn_radiation_type           MoK\a
_diffrn_radiation_wavelength     0.71073
_diffrn_reflns_av_R_equivalents  0.0442
_diffrn_reflns_av_unetI/netI     0.0471
_diffrn_reflns_Laue_measured_fraction_full 0.998
_diffrn_reflns_Laue_measured_fraction_max 0.998
_diffrn_reflns_limit_h_max       15
_diffrn_reflns_limit_h_min       -15
_diffrn_reflns_limit_k_max       7
_diffrn_reflns_limit_k_min       -7
_diffrn_reflns_limit_l_max       20
_diffrn_reflns_limit_l_min       -20
_diffrn_reflns_number            22103
_diffrn_reflns_point_group_measured_fraction_full 0.999
_diffrn_reflns_point_group_measured_fraction_max 0.998
_diffrn_reflns_theta_full        25.242
_diffrn_reflns_theta_max         27.594
_diffrn_reflns_theta_min         2.565
_diffrn_source                   'sealed tube'
_diffrn_standards_number         0
_exptl_absorpt_coefficient_mu    0.198
_exptl_absorpt_correction_T_max  0.7456
_exptl_absorpt_correction_T_min  0.6831
_exptl_absorpt_correction_type   multi-scan
_exptl_absorpt_process_details
;
SADABS-2008/1 (Bruker,2008) was used for absorption correction.
wR2(int) was 0.0560 before and 0.0501 after correction.
The Ratio of minimum to maximum transmission is 0.9162.
The \l/2 correction factor is 0.0000.
;
_exptl_crystal_colour            'clear colourless'
_exptl_crystal_colour_lustre     clear
_exptl_crystal_colour_primary    colourless
_exptl_crystal_density_diffrn    1.373
_exptl_crystal_description       needle
_exptl_crystal_F_000             424
_exptl_crystal_recrystallization_method 'Crystallized form CDCl3'
_exptl_crystal_size_max          0.24
_exptl_crystal_size_mid          0.045
_exptl_crystal_size_min          0.015
_refine_diff_density_max         0.234
_refine_diff_density_min         -0.312
_refine_diff_density_rms         0.047
_refine_ls_abs_structure_details
;
 Flack x determined using 1555 quotients [(I+)-(I-)]/[(I+)+(I-)]
 (Parsons and Flack (2004), Acta Cryst. A60, s61).
;
_refine_ls_abs_structure_Flack   0.04(3)
_refine_ls_extinction_method     none
_refine_ls_goodness_of_fit_ref   1.028
_refine_ls_hydrogen_treatment    mixed
_refine_ls_matrix_type           full
_refine_ls_number_parameters     262
_refine_ls_number_reflns         4487
_refine_ls_number_restraints     3
_refine_ls_restrained_S_all      1.029
_refine_ls_R_factor_all          0.0465
_refine_ls_R_factor_gt           0.0341
_refine_ls_shift/su_max          0.000
_refine_ls_shift/su_mean         0.000
_refine_ls_structure_factor_coef Fsqd
_refine_ls_weighting_details
'w=1/[\s^2^(Fo^2^)+(0.0365P)^2^+0.0450P] where P=(Fo^2^+2Fc^2^)/3'
_refine_ls_weighting_scheme      calc
_refine_ls_wR_factor_gt          0.0678
_refine_ls_wR_factor_ref         0.0720
_reflns_Friedel_coverage         0.811
_reflns_Friedel_fraction_full    1.000
_reflns_Friedel_fraction_max     0.997
_reflns_number_gt                3847
_reflns_number_total             4487
_reflns_threshold_expression     'I > 2\s(I)'
_cod_data_source_file            ol500990f_si_003.cif
_cod_data_source_block           ca101213_0ma
_cod_depositor_comments
'Adding full bibliography for 1516147--1516149.cif.'
_cod_original_sg_symbol_H-M      'P 21'
_cod_database_code               1516148
#BEGIN Tags that were not found in dictionaries:
_shelxl_version_number           2013-4
_shelx_space_group_comment
;
The symmetry employed for this shelxl refinement is uniquely defined
by the following loop, which should always be used as a source of
symmetry information in preference to the above space-group names.
They are only intended as comments.
;
_shelx_estimated_absorpt_t_max   0.997
_shelx_estimated_absorpt_t_min   0.954
_olex2_refinement_description
;
1. Fixed Uiso
 At 1.2 times of:
  All C(H) groups, All C(H,H) groups, All N(H) groups
 At 1.5 times of:
  All C(H,H,H) groups
2. Restrained distances
 N2-H2
 0.91 with sigma of 0.02
 N1-H1
 0.91 with sigma of 0.02
3.a Ternary CH refined with riding coordinates:
 C6(H6), C7(H7)
3.b Secondary CH2 refined with riding coordinates:
 C18(H18A,H18B)
3.c Aromatic/amide H refined with riding coordinates:
 C3(H3), C4(H4), C11(H11), C12(H12), C14(H14), C15(H15), C16(H16), C20(H20),
 C21(H21)
3.d Idealised Me refined as rotating group:
 C1(H1A,H1B,H1C), C13(H13A,H13B,H13C), C19(H19A,H19B,H19C)
;
_shelx_res_file
;
TITL ca101213_0ma in P2(1)
CELL 0.71073 11.639 5.5765 15.5447 90 106.278 90
ZERR 2 0.0007 0.0003 0.001 0 0.003 0
LATT -1
SYMM -X,0.5+Y,-Z
 
SFAC C H N O S
UNIT 42 48 4 8 2
DFIX 0.91 N2 H2
DFIX 0.91 N1 H1
 
L.S. 8
PLAN  -5 0 0
SIZE 0.015 0.045 0.24
TEMP -173.16
HTAB
BOND $H
fmap 2
acta
MORE -1
CONF
OMIT 0 0 1
OMIT 1 0 0
OMIT -1 0 1
REM <HKL>D:/SMoCC_Strukturen/ca101213/work/ca101213_0ma.hkl</HKL>
 
WGHT    0.036500    0.045000
FVAR       0.26100
S1    5    0.004163    0.658499    0.229322    11.00000    0.01140    0.01519 =
         0.01224    0.00090    0.00390   -0.00153
O1    4   -0.081804    0.836642    0.187284    11.00000    0.01144    0.02460 =
         0.01656    0.00285    0.00255    0.00169
O2    4    0.322098    0.839028    0.286392    11.00000    0.01472    0.01475 =
         0.01190   -0.00027    0.00005    0.00045
O3    4    0.250201    1.212012    0.256266    11.00000    0.02024    0.01194 =
         0.02051   -0.00465    0.00583   -0.00139
O4    4   -0.030632    0.413151    0.230858    11.00000    0.01972    0.01958 =
         0.01670   -0.00097    0.00647   -0.00731
N1    3    0.108937    0.661192    0.179325    11.00000    0.01333    0.01030 =
         0.01301    0.00133    0.00511   -0.00125
H1    2    0.159577    0.542729    0.198565    11.00000   -1.20000
N2    3    0.378085    1.356376    0.025803    11.00000    0.01723    0.01159 =
         0.01497    0.00282    0.00709    0.00166
H2    2    0.384991    1.476219   -0.009731    11.00000   -1.20000
C1    1    0.218403    0.947819    0.615686    11.00000    0.02694    0.03009 =
         0.01942   -0.00354    0.00881   -0.00367
AFIX 137
H1A   2    0.160297    0.908907    0.648609    11.00000   -1.50000
H1B   2    0.234886    1.120413    0.619904    11.00000   -1.50000
H1C   2    0.292808    0.859298    0.641612    11.00000   -1.50000
AFIX   0
C2    1    0.168259    0.878742    0.519220    11.00000    0.01644    0.02156 =
         0.01497   -0.00334    0.00862   -0.00597
C3    1    0.086002    1.026586    0.460603    11.00000    0.02290    0.01602 =
         0.01964   -0.00459    0.01039   -0.00180
AFIX  43
H3    2    0.063437    1.173935    0.481900    11.00000   -1.20000
AFIX   0
C4    1    0.036496    0.962893    0.371887    11.00000    0.01856    0.01591 =
         0.01795    0.00386    0.00670    0.00148
AFIX  43
H4    2   -0.018897    1.066176    0.332386    11.00000   -1.20000
AFIX   0
C5    1    0.068472    0.748180    0.341588    11.00000    0.01162    0.01694 =
         0.01273   -0.00084    0.00590   -0.00307
C6    1    0.160146    0.885831    0.157843    11.00000    0.01145    0.00987 =
         0.01294    0.00115    0.00345   -0.00052
AFIX  13
H6    2    0.093252    1.000899    0.132721    11.00000   -1.20000
AFIX   0
C7    1    0.222270    0.829571    0.084287    11.00000    0.01274    0.01305 =
         0.01163    0.00132    0.00439    0.00116
AFIX  13
H7    2    0.271695    0.682011    0.103282    11.00000   -1.20000
AFIX   0
C8    1    0.305290    1.025755    0.073117    11.00000    0.01285    0.01324 =
         0.01070   -0.00168    0.00570    0.00127
C9    1    0.431985    1.037894    0.115716    11.00000    0.01214    0.01176 =
         0.01081   -0.00234    0.00659   -0.00007
C10   1    0.474165    1.247684    0.084582    11.00000    0.01423    0.01368 =
         0.01108   -0.00265    0.00660    0.00013
C11   1    0.594594    1.314146    0.111489    11.00000    0.02007    0.01173 =
         0.01490   -0.00422    0.01004   -0.00428
AFIX  43
H11   2    0.621160    1.458941    0.091137    11.00000   -1.20000
AFIX   0
C12   1    0.673716    1.161238    0.168875    11.00000    0.01527    0.02181 =
         0.01476   -0.00550    0.00721   -0.00658
AFIX  43
H12   2    0.756309    1.201331    0.188259    11.00000   -1.20000
AFIX   0
C13   1    0.128103    0.771242   -0.003443    11.00000    0.01499    0.01810 =
         0.01482   -0.00115    0.00526   -0.00203
AFIX 137
H13A  2    0.081532    0.915704   -0.026195    11.00000   -1.50000
H13B  2    0.074588    0.645940    0.007111    11.00000   -1.50000
H13C  2    0.167718    0.714626   -0.047583    11.00000   -1.50000
AFIX   0
C14   1    0.278068    1.220362    0.018836    11.00000    0.01337    0.01663 =
         0.01285   -0.00181    0.00411    0.00228
AFIX  43
H14   2    0.200485    1.257025   -0.018723    11.00000   -1.20000
AFIX   0
C15   1    0.514593    0.885324    0.173830    11.00000    0.01545    0.01459 =
         0.01468    0.00216    0.00669    0.00098
AFIX  43
H15   2    0.488809    0.741599    0.195494    11.00000   -1.20000
AFIX   0
C16   1    0.634413    0.949270    0.198787    11.00000    0.01343    0.02211 =
         0.01439    0.00059    0.00219    0.00254
AFIX  43
H16   2    0.691147    0.846140    0.237215    11.00000   -1.20000
AFIX   0
C17   1    0.246752    1.001157    0.238190    11.00000    0.01217    0.01549 =
         0.01164    0.00130    0.00728    0.00066
C18   1    0.410756    0.927538    0.364852    11.00000    0.01862    0.02607 =
         0.01620   -0.00303   -0.00147   -0.00325
AFIX  23
H18A  2    0.371488    0.997943    0.407812    11.00000   -1.20000
H18B  2    0.460870    1.052236    0.347845    11.00000   -1.20000
AFIX   0
C19   1    0.485679    0.716582    0.405796    11.00000    0.02221    0.03680 =
         0.02111    0.00468   -0.00265    0.00580
AFIX 137
H19A  2    0.434830    0.594573    0.422014    11.00000   -1.50000
H19B  2    0.547301    0.767934    0.459639    11.00000   -1.50000
H19C  2    0.523985    0.649056    0.362554    11.00000   -1.50000
AFIX   0
C20   1    0.150881    0.597724    0.398162    11.00000    0.01658    0.01745 =
         0.01715   -0.00085    0.00612    0.00194
AFIX  43
H20   2    0.173329    0.450622    0.376609    11.00000   -1.20000
AFIX   0
C21   1    0.199824    0.665456    0.486480    11.00000    0.01505    0.02122 =
         0.01703    0.00479    0.00373    0.00284
AFIX  43
H21   2    0.256370    0.563221    0.525515    11.00000   -1.20000
AFIX   0
HKLF 4
 
REM  ca101213_0ma in P2(1)
REM R1 =  0.0341 for    3847 Fo > 4sig(Fo)  and  0.0465 for all    4487 data
REM    262 parameters refined using      3 restraints
 
END  
     
WGHT      0.0365      0.0449 

REM Instructions for potential hydrogen bonds
EQIV $1 x, y-1, z
HTAB N1 O3_$1
EQIV $2 x, y+1, z
HTAB C4 O4_$2
HTAB C7 N2_$1
EQIV $3 -x, y+1/2, -z
HTAB C14 O1_$3
HTAB C20 O3_$1

REM Highest difference peak  0.234,  deepest hole -0.312,  1-sigma level  0.047
Q1    1   0.1888  0.8479  0.1174  11.00000  0.05    0.23
Q2    1   0.0485  0.7200  0.2852  11.00000  0.05    0.20
Q3    1   0.4539  1.1695  0.1179  11.00000  0.05    0.19
Q4    1   0.2056  0.9314  0.1935  11.00000  0.05    0.19
Q5    1   0.1219  1.2848 -0.0226  11.00000  0.05    0.19

REM The information below was added by Olex2.
REM
REM R1 = 0.0341 for 3847 Fo > 4sig(Fo) and 0.0465 for all 22145 data
REM n/a parameters refined using n/a restraints
REM Highest difference peak 0.23, deepest hole -0.31
REM Mean Shift 0, Max Shift 0.

REM +++ Tabular Listing of Refinement Information +++
REM R1_all = 0.0465
REM R1_gt = 0.0341
REM wR_ref = 0.0720
REM GOOF = 1.028
REM Shift_max = 0
REM Shift_mean = 0
REM Reflections_all = 22145
REM Reflections_gt = 3847
REM Parameters = n/a
REM Hole = -0.31
REM Peak = 0.23
REM Flack = 0.04(3)

;
#END Tags that were not found in dictionaries
loop_
_space_group_symop_operation_xyz
'x, y, z'
'-x, y+1/2, -z'
loop_
_atom_site_label
_atom_site_type_symbol
_atom_site_fract_x
_atom_site_fract_y
_atom_site_fract_z
_atom_site_U_iso_or_equiv
_atom_site_adp_type
_atom_site_occupancy
_atom_site_site_symmetry_order
_atom_site_calc_flag
_atom_site_refinement_flags_posn
S1 S 0.00416(5) 0.65850(11) 0.22932(4) 0.01282(14) Uani 1 1 d .
O1 O -0.08180(14) 0.8366(3) 0.18728(11) 0.0178(4) Uani 1 1 d .
O2 O 0.32210(14) 0.8390(3) 0.28639(10) 0.0145(4) Uani 1 1 d .
O3 O 0.25020(15) 1.2120(3) 0.25627(12) 0.0175(4) Uani 1 1 d .
O4 O -0.03063(15) 0.4132(3) 0.23086(11) 0.0184(4) Uani 1 1 d .
N1 N 0.10894(16) 0.6612(4) 0.17932(12) 0.0119(4) Uani 1 1 d D
H1 H 0.160(2) 0.543(4) 0.1986(16) 0.014 Uiso 1 1 d DR
N2 N 0.37808(18) 1.3564(4) 0.02580(14) 0.0141(4) Uani 1 1 d D
H2 H 0.385(2) 1.476(4) -0.0097(16) 0.017 Uiso 1 1 d DR
C1 C 0.2184(3) 0.9478(5) 0.61569(18) 0.0250(6) Uani 1 1 d .
H1A H 0.1603 0.9089 0.6486 0.038 Uiso 1 1 calc GR
H1B H 0.2349 1.1204 0.6199 0.038 Uiso 1 1 calc GR
H1C H 0.2928 0.8593 0.6416 0.038 Uiso 1 1 calc GR
C2 C 0.1683(2) 0.8787(5) 0.51922(16) 0.0168(6) Uani 1 1 d .
C3 C 0.0860(2) 1.0266(5) 0.46060(17) 0.0186(6) Uani 1 1 d .
H3 H 0.0634 1.1739 0.4819 0.022 Uiso 1 1 calc R
C4 C 0.0365(2) 0.9629(4) 0.37189(17) 0.0172(6) Uani 1 1 d .
H4 H -0.0189 1.0662 0.3324 0.021 Uiso 1 1 calc R
C5 C 0.0685(2) 0.7482(4) 0.34159(16) 0.0133(5) Uani 1 1 d .
C6 C 0.1601(2) 0.8858(4) 0.15784(15) 0.0114(5) Uani 1 1 d .
H6 H 0.0933 1.0009 0.1327 0.014 Uiso 1 1 calc R
C7 C 0.2223(2) 0.8296(4) 0.08429(15) 0.0123(5) Uani 1 1 d .
H7 H 0.2717 0.6820 0.1033 0.015 Uiso 1 1 calc R
C8 C 0.3053(2) 1.0258(5) 0.07312(15) 0.0118(5) Uani 1 1 d .
C9 C 0.4320(2) 1.0379(4) 0.11572(15) 0.0109(5) Uani 1 1 d .
C10 C 0.4742(2) 1.2477(4) 0.08458(16) 0.0124(5) Uani 1 1 d .
C11 C 0.5946(2) 1.3141(4) 0.11149(16) 0.0145(5) Uani 1 1 d .
H11 H 0.6212 1.4589 0.0911 0.017 Uiso 1 1 calc R
C12 C 0.6737(2) 1.1612(5) 0.16887(15) 0.0167(5) Uani 1 1 d .
H12 H 0.7563 1.2013 0.1883 0.020 Uiso 1 1 calc R
C13 C 0.1281(2) 0.7712(5) -0.00344(16) 0.0157(5) Uani 1 1 d .
H13A H 0.0815 0.9157 -0.0262 0.024 Uiso 1 1 calc GR
H13B H 0.0746 0.6459 0.0071 0.024 Uiso 1 1 calc GR
H13C H 0.1677 0.7146 -0.0476 0.024 Uiso 1 1 calc GR
C14 C 0.2781(2) 1.2204(4) 0.01884(16) 0.0142(5) Uani 1 1 d .
H14 H 0.2005 1.2570 -0.0187 0.017 Uiso 1 1 calc R
C15 C 0.5146(2) 0.8853(5) 0.17383(16) 0.0144(5) Uani 1 1 d .
H15 H 0.4888 0.7416 0.1955 0.017 Uiso 1 1 calc R
C16 C 0.6344(2) 0.9493(5) 0.19879(17) 0.0170(5) Uani 1 1 d .
H16 H 0.6911 0.8461 0.2372 0.020 Uiso 1 1 calc R
C17 C 0.2468(2) 1.0012(4) 0.23819(15) 0.0123(5) Uani 1 1 d .
C18 C 0.4108(2) 0.9275(5) 0.36485(17) 0.0216(6) Uani 1 1 d .
H18A H 0.3715 0.9979 0.4078 0.026 Uiso 1 1 calc R
H18B H 0.4609 1.0522 0.3478 0.026 Uiso 1 1 calc R
C19 C 0.4857(2) 0.7166(5) 0.40580(19) 0.0285(7) Uani 1 1 d .
H19A H 0.4348 0.5946 0.4220 0.043 Uiso 1 1 calc GR
H19B H 0.5473 0.7679 0.4596 0.043 Uiso 1 1 calc GR
H19C H 0.5240 0.6491 0.3626 0.043 Uiso 1 1 calc GR
C20 C 0.1509(2) 0.5977(4) 0.39816(16) 0.0168(6) Uani 1 1 d .
H20 H 0.1733 0.4506 0.3766 0.020 Uiso 1 1 calc R
C21 C 0.1998(2) 0.6655(5) 0.48648(15) 0.0179(5) Uani 1 1 d .
H21 H 0.2564 0.5632 0.5255 0.022 Uiso 1 1 calc R
loop_
_atom_site_aniso_label
_atom_site_aniso_U_11
_atom_site_aniso_U_22
_atom_site_aniso_U_33
_atom_site_aniso_U_23
_atom_site_aniso_U_13
_atom_site_aniso_U_12
S1 0.0114(3) 0.0152(3) 0.0122(3) 0.0009(3) 0.0039(2) -0.0015(3)
O1 0.0114(9) 0.0246(10) 0.0166(9) 0.0029(8) 0.0026(7) 0.0017(8)
O2 0.0147(9) 0.0147(9) 0.0119(8) -0.0003(7) 0.0001(7) 0.0004(7)
O3 0.0202(9) 0.0119(11) 0.0205(9) -0.0047(7) 0.0058(7) -0.0014(7)
O4 0.0197(9) 0.0196(10) 0.0167(9) -0.0010(8) 0.0065(7) -0.0073(8)
N1 0.0133(10) 0.0103(10) 0.0130(9) 0.0013(10) 0.0051(8) -0.0012(10)
N2 0.0172(11) 0.0116(11) 0.0150(11) 0.0028(9) 0.0071(9) 0.0017(9)
C1 0.0269(15) 0.0301(16) 0.0194(14) -0.0035(12) 0.0088(12) -0.0037(13)
C2 0.0164(13) 0.0216(14) 0.0150(13) -0.0033(11) 0.0086(10) -0.0060(11)
C3 0.0229(14) 0.0160(12) 0.0196(13) -0.0046(11) 0.0104(11) -0.0018(11)
C4 0.0186(13) 0.0159(13) 0.0180(13) 0.0039(11) 0.0067(11) 0.0015(11)
C5 0.0116(12) 0.0169(12) 0.0127(12) -0.0008(10) 0.0059(10) -0.0031(10)
C6 0.0114(11) 0.0099(12) 0.0129(12) 0.0012(10) 0.0035(9) -0.0005(10)
C7 0.0127(12) 0.0131(12) 0.0116(12) 0.0013(10) 0.0044(10) 0.0012(10)
C8 0.0128(12) 0.0132(12) 0.0107(11) -0.0017(10) 0.0057(10) 0.0013(10)
C9 0.0121(12) 0.0118(11) 0.0108(11) -0.0023(10) 0.0066(10) -0.0001(10)
C10 0.0142(12) 0.0137(12) 0.0111(12) -0.0026(9) 0.0066(10) 0.0001(10)
C11 0.0201(13) 0.0117(12) 0.0149(13) -0.0042(10) 0.0100(10) -0.0043(10)
C12 0.0153(12) 0.0218(13) 0.0148(12) -0.0055(13) 0.0072(9) -0.0066(13)
C13 0.0150(13) 0.0181(13) 0.0148(13) -0.0012(10) 0.0053(10) -0.0020(10)
C14 0.0134(12) 0.0166(14) 0.0129(12) -0.0018(10) 0.0041(9) 0.0023(10)
C15 0.0154(12) 0.0146(13) 0.0147(12) 0.0022(10) 0.0067(10) 0.0010(10)
C16 0.0134(12) 0.0221(14) 0.0144(13) 0.0006(10) 0.0022(10) 0.0025(11)
C17 0.0122(12) 0.0155(14) 0.0116(12) 0.0013(10) 0.0073(10) 0.0007(10)
C18 0.0186(13) 0.0261(15) 0.0162(13) -0.0030(11) -0.0015(11) -0.0032(12)
C19 0.0222(14) 0.037(2) 0.0211(14) 0.0047(12) -0.0026(11) 0.0058(13)
C20 0.0166(13) 0.0174(14) 0.0171(13) -0.0009(10) 0.0061(11) 0.0019(10)
C21 0.0151(12) 0.0212(13) 0.0170(12) 0.0048(13) 0.0037(9) 0.0028(13)
loop_
_atom_type_symbol
_atom_type_description
_atom_type_scat_dispersion_real
_atom_type_scat_dispersion_imag
_atom_type_scat_source
C C 0.0033 0.0016 'International Tables Vol C Tables 4.2.6.8 and 6.1.1.4'
H H 0.0000 0.0000 'International Tables Vol C Tables 4.2.6.8 and 6.1.1.4'
N N 0.0061 0.0033 'International Tables Vol C Tables 4.2.6.8 and 6.1.1.4'
O O 0.0106 0.0060 'International Tables Vol C Tables 4.2.6.8 and 6.1.1.4'
S S 0.1246 0.1234 'International Tables Vol C Tables 4.2.6.8 and 6.1.1.4'
loop_
_geom_angle_atom_site_label_1
_geom_angle_atom_site_label_2
_geom_angle_atom_site_label_3
_geom_angle
O1 S1 N1 107.37(11)
O1 S1 C5 107.63(11)
O4 S1 O1 120.47(11)
O4 S1 N1 105.78(11)
O4 S1 C5 107.34(11)
N1 S1 C5 107.69(10)
C17 O2 C18 116.35(19)
S1 N1 H1 110.6(17)
C6 N1 S1 121.76(17)
C6 N1 H1 116.3(17)
C10 N2 H2 123.4(17)
C14 N2 H2 126.4(17)
C14 N2 C10 108.9(2)
H1A C1 H1B 109.5
H1A C1 H1C 109.5
H1B C1 H1C 109.5
C2 C1 H1A 109.5
C2 C1 H1B 109.5
C2 C1 H1C 109.5
C3 C2 C1 120.4(2)
C21 C2 C1 121.3(2)
C21 C2 C3 118.2(2)
C2 C3 H3 119.4
C4 C3 C2 121.2(2)
C4 C3 H3 119.4
C3 C4 H4 120.4
C5 C4 C3 119.2(2)
C5 C4 H4 120.4
C4 C5 S1 120.27(19)
C4 C5 C20 121.0(2)
C20 C5 S1 118.75(19)
N1 C6 H6 108.4
N1 C6 C7 107.42(18)
N1 C6 C17 113.27(19)
C7 C6 H6 108.4
C17 C6 H6 108.4
C17 C6 C7 110.83(19)
C6 C7 H7 107.3
C8 C7 C6 112.8(2)
C8 C7 H7 107.3
C8 C7 C13 112.10(19)
C13 C7 C6 109.66(18)
C13 C7 H7 107.3
C9 C8 C7 126.2(2)
C14 C8 C7 127.5(2)
C14 C8 C9 106.2(2)
C10 C9 C8 107.0(2)
C10 C9 C15 118.9(2)
C15 C9 C8 134.0(2)
N2 C10 C9 107.4(2)
N2 C10 C11 130.2(2)
C11 C10 C9 122.4(2)
C10 C11 H11 121.3
C12 C11 C10 117.5(2)
C12 C11 H11 121.3
C11 C12 H12 119.4
C11 C12 C16 121.1(2)
C16 C12 H12 119.4
C7 C13 H13A 109.5
C7 C13 H13B 109.5
C7 C13 H13C 109.5
H13A C13 H13B 109.5
H13A C13 H13C 109.5
H13B C13 H13C 109.5
N2 C14 H14 124.8
C8 C14 N2 110.4(2)
C8 C14 H14 124.8
C9 C15 H15 120.7
C16 C15 C9 118.5(2)
C16 C15 H15 120.7
C12 C16 H16 119.2
C15 C16 C12 121.6(2)
C15 C16 H16 119.2
O2 C17 C6 110.9(2)
O3 C17 O2 123.8(2)
O3 C17 C6 125.3(2)
O2 C18 H18A 110.4
O2 C18 H18B 110.4
O2 C18 C19 106.5(2)
H18A C18 H18B 108.6
C19 C18 H18A 110.4
C19 C18 H18B 110.4
C18 C19 H19A 109.5
C18 C19 H19B 109.5
C18 C19 H19C 109.5
H19A C19 H19B 109.5
H19A C19 H19C 109.5
H19B C19 H19C 109.5
C5 C20 H20 120.6
C21 C20 C5 118.9(2)
C21 C20 H20 120.6
C2 C21 C20 121.5(2)
C2 C21 H21 119.3
C20 C21 H21 119.3
loop_
_geom_bond_atom_site_label_1
_geom_bond_atom_site_label_2
_geom_bond_distance
S1 O1 1.4313(19)
S1 O4 1.4290(18)
S1 N1 1.6195(19)
S1 C5 1.767(2)
O2 C17 1.334(3)
O2 C18 1.446(3)
O3 C17 1.207(3)
N1 H1 0.88(2)
N1 C6 1.465(3)
N2 H2 0.88(2)
N2 C10 1.371(3)
N2 C14 1.368(3)
C1 H1A 0.9800
C1 H1B 0.9800
C1 H1C 0.9800
C1 C2 1.499(3)
C2 C3 1.392(4)
C2 C21 1.383(4)
C3 H3 0.9500
C3 C4 1.384(4)
C4 H4 0.9500
C4 C5 1.376(3)
C5 C20 1.387(3)
C6 H6 1.0000
C6 C7 1.547(3)
C6 C17 1.511(3)
C7 H7 1.0000
C7 C8 1.502(3)
C7 C13 1.526(3)
C8 C9 1.439(3)
C8 C14 1.357(3)
C9 C10 1.406(3)
C9 C15 1.406(3)
C10 C11 1.396(3)
C11 H11 0.9500
C11 C12 1.382(4)
C12 H12 0.9500
C12 C16 1.394(4)
C13 H13A 0.9800
C13 H13B 0.9800
C13 H13C 0.9800
C14 H14 0.9500
C15 H15 0.9500
C15 C16 1.385(3)
C16 H16 0.9500
C18 H18A 0.9900
C18 H18B 0.9900
C18 C19 1.496(4)
C19 H19A 0.9800
C19 H19B 0.9800
C19 H19C 0.9800
C20 H20 0.9500
C20 C21 1.383(3)
C21 H21 0.9500
loop_
_geom_torsion_atom_site_label_1
_geom_torsion_atom_site_label_2
_geom_torsion_atom_site_label_3
_geom_torsion_atom_site_label_4
_geom_torsion
S1 N1 C6 C7 -160.83(15)
S1 N1 C6 C17 76.4(2)
S1 C5 C20 C21 -178.89(19)
O1 S1 N1 C6 44.62(19)
O1 S1 C5 C4 -2.9(2)
O1 S1 C5 C20 176.77(19)
O4 S1 N1 C6 174.45(17)
O4 S1 C5 C4 -133.96(19)
O4 S1 C5 C20 45.7(2)
N1 S1 C5 C4 112.5(2)
N1 S1 C5 C20 -67.8(2)
N1 C6 C7 C8 -164.87(19)
N1 C6 C7 C13 69.5(2)
N1 C6 C17 O2 45.3(3)
N1 C6 C17 O3 -136.1(2)
N2 C10 C11 C12 -176.6(2)
C1 C2 C3 C4 -178.4(2)
C1 C2 C21 C20 178.0(2)
C2 C3 C4 C5 0.7(4)
C3 C2 C21 C20 -0.5(4)
C3 C4 C5 S1 178.5(2)
C3 C4 C5 C20 -1.2(4)
C4 C5 C20 C21 0.8(4)
C5 S1 N1 C6 -71.0(2)
C5 C20 C21 C2 0.1(4)
C6 C7 C8 C9 94.1(3)
C6 C7 C8 C14 -88.9(3)
C7 C6 C17 O2 -75.5(2)
C7 C6 C17 O3 103.1(3)
C7 C8 C9 C10 178.5(2)
C7 C8 C9 C15 2.2(4)
C7 C8 C14 N2 -178.8(2)
C8 C9 C10 N2 -0.3(2)
C8 C9 C10 C11 -179.1(2)
C8 C9 C15 C16 176.5(2)
C9 C8 C14 N2 -1.3(3)
C9 C10 C11 C12 1.9(3)
C9 C15 C16 C12 1.0(4)
C10 N2 C14 C8 1.2(3)
C10 C9 C15 C16 0.6(3)
C10 C11 C12 C16 -0.2(3)
C11 C12 C16 C15 -1.3(4)
C13 C7 C8 C9 -141.6(2)
C13 C7 C8 C14 35.5(3)
C14 N2 C10 C9 -0.5(3)
C14 N2 C10 C11 178.1(2)
C14 C8 C9 C10 1.0(2)
C14 C8 C9 C15 -175.3(3)
C15 C9 C10 N2 176.7(2)
C15 C9 C10 C11 -2.1(3)
C17 O2 C18 C19 -178.5(2)
C17 C6 C7 C8 -40.6(3)
C17 C6 C7 C13 -166.32(19)
C18 O2 C17 O3 0.8(3)
C18 O2 C17 C6 179.30(19)
C21 C2 C3 C4 0.2(4)
loop_
_refln_index_h
_refln_index_k
_refln_index_l
_refln_F_squared_meas
_refln_F_squared_sigma
0 -1 0 0.11 0.27
0 -1 0 -0.16 0.23
0 -1 0 0 0.2
0 1 0 0.04 0.23
0 1 0 0.04 0.25
0 1 0 0.15 0.18
0 1 0 -0.14 0.18
0 1 0 -0.12 0.23
0 -2 0 73.49 1.57
0 -2 0 72.65 2.08
0 -2 0 70.55 1.81
0 2 0 72.2 1.81
0 2 0 71.02 1.71
0 2 0 72.7 1.7
0 2 0 74.22 1.79
0 2 0 72.35 1.7
0 2 0 76.16 2.1
0 -3 0 -0.48 0.42
0 -3 0 0.39 0.41
0 -3 0 0.1 0.25
0 -3 0 -0.45 0.46
0 3 0 -1.16 0.37
0 3 0 0.27 0.38
0 3 0 0.04 0.41
0 3 0 0.17 0.36
0 3 0 -0.17 0.39
0 -4 0 39.57 1.58
0 -4 0 38.55 1.54
0 4 0 41.6 1.51
0 4 0 37.52 1.49
0 4 0 37.79 1.34
0 4 0 38.1 1.51
0 -5 0 -0.14 0.55
0 5 0 0.05 0.57
0 5 0 0.14 0.57
0 5 0 -0.25 0.58
0 -6 0 21.11 1.41
0 6 0 20.12 1.44
0 -7 0 -0.12 0.66
0 7 0 -0.44 0.68
-1 7 0 1.27 0.85
1 -7 0 1 0.89
-1 6 0 7.9 1.12
1 -6 0 9.48 1.19
-1 5 0 22.02 1.64
-1 5 0 19.32 1.43
-1 5 0 24.83 1.46
1 -5 0 22.39 1.52
-1 4 0 29.99 1.45
-1 4 0 31.24 1.52
-1 4 0 28.85 1.39
1 -4 0 26.19 1.45
1 -4 0 27.42 1.06
1 -4 0 29.01 1.48
-1 3 0 28.3 1.22
-1 3 0 27.27 0.92
-1 3 0 26.56 0.84
-1 3 0 26.59 1.24
-1 3 0 24.69 1.23
-1 3 0 26.33 1.31
1 -3 0 26.27 1.35
1 -3 0 24.96 1.03
-1 2 0 31.76 1.17
-1 2 0 32.02 1.18
-1 2 0 32.82 1.22
-1 2 0 33.17 0.9
-1 2 0 33.11 1.19
1 -2 0 33.49 1.1
1 -2 0 31.81 1.29
1 -2 0 33.64 1.08
-1 1 0 230.84 4.57
-1 1 0 226.97 4.54
-1 1 0 229.78 4.55
-1 1 0 224.07 4.54
-1 1 0 235.55 4.43
-1 1 0 235.17 4.06
-1 1 0 229.91 4.6
1 -1 0 236.03 4.52
1 -1 0 233.04 4.43
1 -1 0 226.05 4.59
1 -1 0 235.83 4
-1 0 0 0.04 0.08
-1 0 0 0.23 0.14
-1 0 0 0 0.08
1 0 0 0.05 0.11
1 0 0 -0.03 0.11
1 0 0 0.11 0.09
1 0 0 -0.01 0.09
-1 -1 0 235.67 4.91
-1 -1 0 231.64 4.8
1 1 0 228.27 4.89
1 1 0 231.56 4.79
-1 -2 0 33.37 0.94
-1 -2 0 32.95 1.42
1 2 0 33.72 0.82
1 2 0 33.5 1.37
1 2 0 33.65 1.28
1 2 0 32.89 0.83
-1 -3 0 26.18 1.5
-1 -3 0 26.31 1.04
1 3 0 24.99 1.21
1 3 0 26.81 0.91
1 3 0 26.18 1.42
1 3 0 25.2 0.89
1 3 0 26.58 0.94
-1 -4 0 31.3 1.74
-1 -4 0 32.36 1.26
1 4 0 29.49 1.19
1 4 0 29.52 1.38
1 4 0 28.1 1.19
1 4 0 31.45 1.22
1 4 0 31.93 0.99
-1 -5 0 23.62 1.24
1 5 0 23.37 1.21
1 5 0 22.33 1.33
1 5 0 22.68 1.23
-1 -6 0 9.94 0.92
1 6 0 9.37 1.1
1 6 0 7.69 0.96
1 7 0 0.62 0.72
-2 7 0 3.32 1
2 -7 0 4.19 1.1
-2 6 0 1.79 0.87
2 -6 0 1.18 0.87
-2 5 0 7.82 1.11
-2 5 0 7.84 1.06
-2 5 0 5.01 0.97
2 -5 0 6.57 0.75
2 -5 0 6.76 1.1
-2 4 0 9.69 1
-2 4 0 10.91 1.09
-2 4 0 11.9 1.06
-2 4 0 14.13 1
-2 4 0 8.45 0.99
2 -4 0 11.29 0.88
2 -4 0 9.56 1.1
-2 3 0 22.85 1.25
-2 3 0 22.81 1.17
-2 3 0 21.66 1.27
-2 3 0 24.53 1.31
-2 3 0 24.34 1.04
2 -3 0 21.31 1.11
2 -3 0 25.37 1.41
2 -3 0 22.94 1.14
-2 2 0 1.64 0.32
-2 2 0 0.16 0.46
-2 2 0 1.26 0.47
-2 2 0 1.52 0.57
-2 2 0 0.94 0.42
-2 2 0 1.02 0.35
2 -2 0 1.17 0.57
2 -2 0 1.2 0.53
2 -2 0 1.02 0.34
2 -2 0 1.63 0.47
-2 1 0 101.07 2.41
-2 1 0 107.88 2.42
-2 1 0 100.77 2.5
-2 1 0 100.38 2.34
-2 1 0 100.27 2.09
-2 1 0 95.19 2.38
2 -1 0 100.57 2.33
2 -1 0 102.08 2.08
2 -1 0 97.78 2.35
2 -1 0 99.57 2.45
2 -1 0 100.93 2.39
-2 0 0 22.3 0.63
-2 0 0 23.05 0.89
-2 0 0 21.44 0.72
-2 0 0 21.22 0.81
-2 0 0 22.36 0.97
2 0 0 21.95 0.83
2 0 0 20.98 0.72
2 0 0 21.47 0.8
2 0 0 20.93 0.65
2 0 0 21.17 0.77
2 0 0 22.52 0.88
2 0 0 20.79 0.95
-2 -1 0 98.8 2.48
-2 -1 0 97.21 2.6
2 1 0 98.48 2.59
2 1 0 98.57 2.46
2 1 0 100.72 1.96
2 1 0 101.27 1.88
-2 -2 0 1.14 0.51
2 2 0 1.44 0.46
2 2 0 1.87 0.52
-2 -3 0 23.01 0.73
-2 -3 0 23.2 1.42
-2 -3 0 23.04 0.73
2 3 0 23.7 0.72
2 3 0 22.22 1.29
-2 -4 0 10.17 0.69
-2 -4 0 11.47 0.7
-2 -4 0 10.87 1.24
2 4 0 10.56 0.68
2 4 0 10.67 0.66
2 4 0 10.51 1.05
2 4 0 11.07 0.67
-2 -5 0 7.17 0.61
2 5 0 6.3 0.69
2 5 0 7.12 0.77
2 5 0 7.59 0.75
2 6 0 2.22 0.71
2 6 0 2.17 0.65
2 7 0 2.7 0.76
-3 7 0 2.71 1.11
3 -7 0 2.24 1.07
-3 6 0 19.43 1.77
3 -6 0 22.4 1.95
-3 5 0 7.56 1.14
-3 5 0 7.12 1.11
3 -5 0 9.46 1.02
3 -5 0 8.44 1.25
-3 4 0 11.59 0.97
-3 4 0 9.45 1.09
-3 4 0 8.47 1.1
-3 4 0 10.28 0.95
-3 4 0 10.27 1.14
3 -4 0 10.21 1.19
3 -4 0 7.69 0.91
-3 3 0 56.02 2.09
-3 3 0 57.52 1.75
-3 3 0 53.56 1.74
-3 3 0 56.9 2.03
-3 3 0 57.3 1.39
-3 3 0 54.88 2.07
3 -3 0 56.57 1.18
3 -3 0 53.35 2.14
3 -3 0 55.44 1.88
3 -3 0 53.75 1.89
-3 2 0 8.25 0.87
-3 2 0 7.33 0.71
-3 2 0 7.92 0.7
-3 2 0 7.71 0.87
-3 2 0 7.64 0.86
-3 2 0 7.86 0.62
3 -2 0 8.02 0.96
3 -2 0 8.97 0.89
3 -2 0 7.9 0.67
-3 1 0 26.07 1.17
-3 1 0 27.37 1.17
-3 1 0 24.89 1.26
-3 1 0 28.12 1.06
-3 1 0 24.03 1.14
3 -1 0 26.79 1.15
3 -1 0 25.42 1.23
3 -1 0 26.96 1.34
3 -1 0 26.54 1.14
-3 0 0 7.64 0.68
-3 0 0 6.85 0.52
-3 0 0 5.47 0.5
-3 0 0 6.23 0.74
-3 0 0 6.84 0.58
3 0 0 6.9 0.5
3 0 0 6.85 0.58
3 0 0 7.25 0.74
3 0 0 7.27 0.65
3 0 0 5.2 0.57
3 0 0 6.84 0.61
3 0 0 7.38 0.62
-3 -1 0 28.97 1.26
-3 -1 0 26.63 0.73
-3 -1 0 26.22 1.38
3 1 0 24.79 0.89
3 1 0 26.21 0.81
3 1 0 26.03 0.84
3 1 0 26.38 0.83
3 1 0 24.29 1.32
3 1 0 27.61 1.2
-3 -2 0 7.01 0.97
-3 -2 0 5.96 0.81
3 2 0 8.84 0.94
3 2 0 7.62 0.86
-3 -3 0 57.47 2.29
3 3 0 56.11 2.16
-3 -4 0 8.6 1.19
3 4 0 11.09 1.16
3 4 0 10.62 0.53
3 5 0 9.05 0.69
3 5 0 9.69 0.71
3 5 0 8.78 0.7
3 6 0 20.31 1.13
3 6 0 22.47 1.29
3 7 0 5.33 0.82
-4 6 0 1.37 0.96
4 -6 0 2.7 1.11
-4 5 0 -0.6 0.78
4 -5 0 -0.14 0.84
-4 4 0 41.84 1.6
-4 4 0 41.31 1.72
-4 4 0 41.29 2.06
-4 4 0 40.97 1.98
-4 4 0 44.39 2.19
4 -4 0 40.6 2.16
4 -4 0 41.47 1.85
4 -4 0 43.68 1.95
-4 3 0 15.59 1.2
-4 3 0 14 1.01
-4 3 0 15.26 0.83
-4 3 0 14.94 1.22
-4 3 0 13.76 0.81
-4 3 0 15.28 1.26
4 -3 0 15.56 1.2
4 -3 0 11.41 1.2
4 -3 0 15.83 0.83
4 -3 0 14.36 1.12
-4 2 0 63.31 2.2
-4 2 0 66.65 1.93
-4 2 0 68.46 2.3
-4 2 0 63.46 2.25
-4 2 0 64.58 1.97
4 -2 0 64.58 2.2
4 -2 0 66.96 2.21
4 -2 0 63.1 2.31
4 -2 0 67.12 1.83
4 -2 0 63.85 1.97
-4 1 0 1.94 0.54
-4 1 0 1.36 0.32
-4 1 0 0.94 0.51
-4 1 0 1.89 0.62
-4 1 0 1.48 0.57
-4 1 0 1.84 0.63
4 -1 0 1.44 0.63
4 -1 0 1.59 0.55
4 -1 0 1.82 0.54
4 -1 0 1.86 0.51
4 -1 0 1.73 0.56
4 -1 0 1.28 0.57
-4 0 0 33.15 1.18
-4 0 0 32.09 1.55
-4 0 0 32.46 1.42
-4 0 0 32.11 0.98
-4 0 0 32.2 1.27
4 0 0 31.21 1.33
4 0 0 33.67 1.52
4 0 0 30.82 1.25
4 0 0 29.03 1.37
4 0 0 32.79 1.29
4 0 0 32.64 1.16
4 0 0 32.18 1.06
-4 -1 0 1.83 0.4
-4 -1 0 2.26 0.74
-4 -1 0 1.41 0.51
-4 -1 0 1.44 0.46
-4 -1 0 1.84 0.25
4 1 0 1.69 0.42
4 1 0 2.35 0.46
4 1 0 1.75 0.17
4 1 0 2.08 0.4
4 1 0 1.98 0.47
4 1 0 1.76 0.67
4 1 0 1.66 0.52
-4 -2 0 62.13 2.28
-4 -2 0 68.04 2.49
4 2 0 54.78 2.19
4 2 0 64.84 1.38
4 2 0 64.87 1.38
4 2 0 66.86 1.51
4 2 0 65.6 2.45
-4 -3 0 15.39 1.4
4 3 0 16.91 1.42
-4 -4 0 40.92 2.2
-4 -5 0 0.88 0.8
4 5 0 0.27 0.31
4 6 0 3.49 0.59
4 6 0 2.22 0.49
-5 6 0 7.78 1.42
5 -6 0 8.81 1.53
-5 5 0 4.25 1.09
5 -5 0 5.51 1.28
-5 4 0 34.6 1.36
-5 4 0 34.8 1.68
-5 4 0 37.12 2.09
-5 4 0 31.37 1.87
-5 4 0 33.92 2.09
5 -4 0 30.74 2.12
5 -4 0 32.46 0.98
5 -4 0 39.1 1.94
-5 3 0 15.59 1.35
-5 3 0 12.8 0.73
-5 3 0 15.31 0.98
-5 3 0 12.68 1.07
-5 3 0 11.47 1.24
-5 3 0 13.02 1.26
5 -3 0 14.06 1.4
5 -3 0 11.99 0.9
5 -3 0 13.59 1.25
-5 2 0 20.77 1.36
-5 2 0 22.33 1.54
-5 2 0 22.25 1.42
-5 2 0 19.93 1.16
-5 2 0 18.3 1.16
5 -2 0 18.35 1.39
5 -2 0 18.92 1.54
5 -2 0 21.2 1.39
5 -2 0 19.55 1.07
5 -2 0 21.05 1.21
-5 1 0 105.17 2.53
-5 1 0 97.31 2.86
-5 1 0 99.75 2.88
-5 1 0 102.14 2.35
-5 1 0 101.09 3.04
5 -1 0 105.03 2.99
5 -1 0 100.14 2.5
5 -1 0 100.63 2.86
5 -1 0 102.56 3
5 -1 0 109.51 3.11
-5 0 0 3.48 0.55
-5 0 0 2.06 0.46
-5 0 0 2.72 0.86
-5 0 0 2.4 0.55
5 0 0 2.68 0.64
5 0 0 3.85 0.8
5 0 0 2.43 0.66
5 0 0 2.62 0.61
5 0 0 2.75 0.52
5 0 0 2.03 0.51
5 0 0 1.58 0.61
-5 -1 0 101.44 2.91
-5 -1 0 101.99 2.4
-5 -1 0 101.55 2.68
-5 -1 0 103.04 2.28
-5 -1 0 102.61 3.35
5 1 0 108.06 2.95
5 1 0 104.96 2.66
5 1 0 107.35 2.57
5 1 0 107.78 2.13
5 1 0 102.17 2.58
5 1 0 105.36 3.35
5 1 0 99.37 2.63
-5 -2 0 21.92 1.41
-5 -2 0 22.33 1.58
5 2 0 18.72 0.88
5 2 0 19.83 0.84
5 2 0 20.02 1.56
5 2 0 20.34 0.89
5 2 0 20.96 0.88
-5 -3 0 12.41 1.29
5 3 0 14.88 0.64
-5 -4 0 36.17 2.15
-5 -5 0 5.63 1.23
-6 6 0 1.43 1.07
6 -6 0 -0.35 1.02
-6 5 0 8.82 1.44
6 -5 0 7.36 1.45
-6 4 0 49.05 2.54
-6 4 0 47.17 2.38
6 -4 0 51.47 2.64
6 -4 0 50.95 2.36
6 -4 0 51.04 1.61
-6 3 0 1.07 0.64
-6 3 0 0.48 0.58
-6 3 0 0.2 0.67
-6 3 0 0.83 0.27
-6 3 0 1.62 0.75
-6 3 0 0.03 0.67
6 -3 0 0.31 0.79
6 -3 0 0.29 0.68
6 -3 0 0.97 0.56
-6 2 0 3.8 0.84
-6 2 0 4.09 0.83
-6 2 0 4.48 0.75
-6 2 0 6.1 0.49
-6 2 0 5.87 0.92
6 -2 0 4.77 0.69
6 -2 0 5.02 0.96
6 -2 0 5.13 0.84
6 -2 0 4.68 0.92
6 -2 0 4.41 0.85
-6 1 0 6.11 0.76
-6 1 0 5.43 0.99
-6 1 0 5.14 0.53
-6 1 0 4.47 0.82
-6 1 0 4.35 0.76
6 -1 0 4.21 0.88
6 -1 0 4.18 0.8
6 -1 0 4.81 0.88
6 -1 0 6.39 0.89
6 -1 0 5.36 0.71
6 -1 0 4.63 0.92
-6 0 0 6.59 0.73
-6 0 0 5.93 1.06
-6 0 0 7.35 0.8
-6 0 0 6.39 0.6
6 0 0 7.88 0.74
6 0 0 6.78 1.02
6 0 0 7 0.82
6 0 0 7.66 0.91
6 0 0 7.43 0.96
6 0 0 6.73 0.84
-6 -1 0 4.27 0.72
-6 -1 0 4.48 1
-6 -1 0 4.28 0.71
-6 -1 0 4.27 0.61
6 1 0 5.58 0.79
6 1 0 5.22 0.75
6 1 0 4.57 0.71
6 1 0 6.32 1.03
6 1 0 5.01 0.68
6 1 0 5.59 0.73
-6 -2 0 4.34 0.61
-6 -2 0 5.91 1.09
-6 -2 0 5.48 0.89
6 2 0 4.52 0.6
6 2 0 3.92 0.58
6 2 0 5.99 0.59
6 2 0 4.98 0.59
-6 -3 0 0.9 0.38
-6 -3 0 1.59 0.77
-6 -3 0 0.66 0.35
6 3 0 1.29 0.4
6 3 0 0.67 0.4
6 3 0 0.91 0.35
-6 -4 0 49.81 2.6
6 4 0 51.87 1.31
-6 -5 0 6.9 1.37
-7 6 0 -0.45 1
7 -6 0 2.37 1.23
-7 5 0 9.17 1.53
7 -5 0 10.81 1.69
-7 4 0 4.63 1.18
-7 4 0 5.91 1.22
7 -4 0 4.88 0.76
7 -4 0 6.48 1.21
7 -4 0 6.22 1.32
-7 3 0 6.46 0.96
-7 3 0 7.43 1.21
-7 3 0 7.58 0.99
-7 3 0 6.34 1.14
7 -3 0 4.02 0.99
7 -3 0 9.49 1.26
7 -3 0 7.1 0.88
7 -3 0 7.2 1.34
-7 2 0 38.61 1.96
-7 2 0 32.96 1.57
-7 2 0 27.26 1.79
-7 2 0 32.97 1.82
-7 2 0 34.6 1.04
7 -2 0 32.46 1.94
7 -2 0 33.27 2.02
7 -2 0 34.58 1.85
7 -2 0 36.94 1.92
-7 1 0 28.66 1.58
-7 1 0 32.36 1.2
-7 1 0 29.15 1.86
-7 1 0 27.93 1.31
-7 1 0 32.03 1.62
7 -1 0 27.24 1.85
7 -1 0 31.48 1.76
7 -1 0 27.78 1.64
7 -1 0 33.75 1.93
7 -1 0 31.91 1.42
7 -1 0 31.5 1.79
-7 0 0 0.67 0.76
-7 0 0 0.64 0.46
-7 0 0 0.3 0.38
-7 0 0 0.74 0.48
7 0 0 0.88 0.64
7 0 0 0.1 0.49
7 0 0 1.03 0.65
7 0 0 0.73 0.49
7 0 0 0.8 0.6
-7 -1 0 31.72 1.59
-7 -1 0 29.79 1.61
-7 -1 0 30.26 1.3
-7 -1 0 31.19 2.02
7 1 0 30.46 1.5
7 1 0 33.64 1.6
7 1 0 31.58 1.55
7 1 0 30.94 1.45
-7 -2 0 35.67 1.9
-7 -2 0 32.81 2.15
-7 -2 0 34.69 1.5
7 2 0 35.58 1.41
7 2 0 34.88 1.52
7 2 0 35.26 1.43
7 2 0 33.09 1.43
-7 -3 0 7.15 0.71
-7 -3 0 5.14 1.06
7 3 0 7.11 0.7
7 3 0 7.18 0.74
7 3 0 5.12 0.69
-7 -4 0 4.67 1.11
7 4 0 5.58 0.58
7 4 0 6.52 0.63
7 4 0 5.88 0.62
-7 -5 0 11.51 1.69
-8 6 0 1.2 1.16
8 -6 0 1.32 1.27
-8 5 0 1.51 1.01
8 -5 0 1.09 0.46
8 -5 0 -0.25 1.02
-8 4 0 20.93 2.01
-8 4 0 20.79 2.05
8 -4 0 18.89 2.07
8 -4 0 18.77 1.91
8 -4 0 19.73 1.3
-8 3 0 24.68 1.96
-8 3 0 23.1 1.84
-8 3 0 23.97 1.6
-8 3 0 24.1 1.67
8 -3 0 23.41 1.43
8 -3 0 28.97 2.39
8 -3 0 28.92 2.04
8 -3 0 21.16 1.9
-8 2 0 17.14 1.58
-8 2 0 18.17 1.33
-8 2 0 18.78 1.6
-8 2 0 19.7 1.59
-8 2 0 19.44 0.8
8 -2 0 19.88 1.89
8 -2 0 16.57 1.58
8 -2 0 17.82 1.67
-8 1 0 16.3 1.13
-8 1 0 15.59 1.56
-8 1 0 18.82 1.48
-8 1 0 17.03 1.39
-8 1 0 16.35 0.96
8 -1 0 19.25 1.71
8 -1 0 14.7 1.1
8 -1 0 16.36 1.43
8 -1 0 15.2 1.45
8 -1 0 18.23 1.52
-8 0 0 18.31 1.3
-8 0 0 16.08 0.83
-8 0 0 18.33 1.76
-8 0 0 16.83 1.15
8 0 0 15.95 1.35
8 0 0 15.96 1.25
8 0 0 16.6 1.37
8 0 0 17.42 1.13
8 0 0 18.65 1.46
-8 -1 0 16.71 1.74
-8 -1 0 17.76 1.11
-8 -1 0 17.75 1.35
8 1 0 17.09 1.37
8 1 0 16.01 1.3
8 1 0 16.65 1.24
8 1 0 17.67 1.34
-8 -2 0 20.18 1.6
-8 -2 0 19.28 0.79
-8 -2 0 15.86 1.82
-8 -2 0 20.21 1.35
8 2 0 19.13 1.28
8 2 0 20.61 1.32
8 2 0 19.51 1.21
8 2 0 18.73 1.31
-8 -3 0 23.03 1.23
-8 -3 0 22.61 2.01
8 3 0 23.4 1.27
8 3 0 25.5 1.28
8 3 0 24.62 1.33
-8 -4 0 22.11 2.17
8 4 0 18.93 1.09
8 4 0 20.43 1.1
8 4 0 21.63 1.11
-8 -5 0 1.59 1.05
8 5 0 0.54 0.43
8 5 0 1.04 0.42
-9 5 0 1.35 1.11
9 -5 0 0.95 0.61
9 -5 0 1.72 1.32
-9 4 0 2.21 1.08
-9 4 0 2.09 1.15
9 -4 0 2.75 1.25
9 -4 0 2.41 0.81
-9 3 0 5.74 1.11
-9 3 0 4.85 1.22
-9 3 0 6.04 1.08
-9 3 0 5.26 1.19
9 -3 0 5.22 1.4
9 -3 0 6.57 1.31
-9 2 0 34.02 1.73
-9 2 0 33.64 2.07
-9 2 0 32.68 2.07
-9 2 0 35.79 1.13
-9 2 0 33.05 2.01
9 -2 0 30.36 2.22
9 -2 0 34.33 2.3
9 -2 0 31.11 2.01
-9 1 0 3.48 1.01
-9 1 0 4.47 1.15
-9 1 0 5.78 0.71
-9 1 0 5.09 0.83
9 -1 0 3.39 1.04
9 -1 0 2.99 0.94
9 -1 0 3.76 0.99
9 -1 0 6.79 1.14
9 -1 0 7.02 0.92
-9 0 0 3.8 0.49
-9 0 0 3.75 0.76
-9 0 0 2.75 1.13
-9 0 0 4.29 0.77
9 0 0 1.92 0.79
9 0 0 4.57 0.81
9 0 0 3.23 0.82
9 0 0 4.53 1.06
9 0 0 3.28 0.94
-9 -1 0 5.1 0.81
-9 -1 0 4.06 1.21
-9 -1 0 6.01 0.99
9 1 0 5.75 0.98
9 1 0 5.04 0.96
9 1 0 6.56 0.98
9 1 0 4.57 0.95
-9 -2 0 32.61 1.16
-9 -2 0 31.99 1.97
-9 -2 0 33.66 2.59
9 2 0 36.34 1.7
9 2 0 31.66 1.67
9 2 0 33.96 1.78
9 2 0 34.09 1.74
-9 -3 0 5.82 0.85
-9 -3 0 7.3 1.3
9 3 0 6.2 0.9
9 3 0 6.91 0.94
9 3 0 8.18 0.96
-9 -4 0 3.05 1.09
-9 -4 0 3.43 0.49
9 4 0 3.44 0.73
9 4 0 3.12 0.69
-9 -5 0 1.32 1.07
9 5 0 1.92 0.58
9 5 0 1.52 0.57
10 -5 0 1.89 1.37
10 -5 0 4.55 0.86
10 -4 0 10.33 1.81
-10 3 0 2.73 1.09
-10 3 0 1.77 0.94
10 -3 0 1.95 1.24
10 -3 0 4.87 1.26
-10 2 0 10.7 1.57
-10 2 0 10.79 1.51
-10 2 0 9.75 1.18
10 -2 0 9.85 1.47
10 -2 0 10.61 1.59
10 -2 0 17.08 1.91
-10 1 0 53.01 1.94
-10 1 0 53.6 2.48
-10 1 0 53.65 2.86
-10 1 0 54.72 1.93
10 -1 0 54.76 2.85
10 -1 0 57.63 2.85
-10 0 0 11.83 1.31
-10 0 0 12.13 1.77
-10 0 0 13.3 1.22
-10 0 0 13.14 0.55
10 0 0 12.24 1.46
10 0 0 12.22 1.5
10 0 0 14.37 1.52
-10 -1 0 55.9 2.12
-10 -1 0 50.69 3.01
-10 -1 0 56.64 2.47
10 1 0 53.59 2.42
10 1 0 55.66 2.35
10 1 0 53.33 2.48
-10 -2 0 8.9 1.68
-10 -2 0 13.14 1.56
-10 -2 0 11.15 0.84
10 2 0 10.7 1.28
-10 -3 0 0.69 0.9
-10 -3 0 0.96 0.71
10 3 0 2.28 0.8
10 3 0 1.16 0.7
-10 -4 0 9.45 1.64
10 4 0 10.16 1.09
10 4 0 9.59 1.06
-10 -5 0 2.38 1.24
10 5 0 2.37 0.69
11 -4 0 6.1 1.65
-11 3 0 3.05 1.05
-11 3 0 3.94 1.22
11 -3 0 3.44 1.41
11 -3 0 8.44 1.51
-11 2 0 16.61 1.43
-11 2 0 15.1 1.86
11 -2 0 17.96 1.93
11 -2 0 16.05 1.99
11 -2 0 15.72 1.95
-11 1 0 3.82 1.24
-11 1 0 4.7 0.73
-11 1 0 4.2 0.8
11 -1 0 6.64 1.44
11 -1 0 3.85 1.14
-11 0 0 -0.23 0.56
-11 0 0 0.53 1.15
11 0 0 1.23 0.94
11 0 0 0.45 0.87
-11 -1 0 4.43 0.99
-11 -1 0 4.42 1.41
11 1 0 5.04 1.15
11 1 0 4.72 1.09
-11 -2 0 11.12 1.94
-11 -2 0 15.96 1.76
-11 -2 0 18.45 1.06
11 2 0 16.3 1.64
-11 -3 0 3.02 0.91
-11 -3 0 4.99 1.22
11 3 0 6.08 1.09
-11 -4 0 7.79 1.53
11 4 0 6.81 1.06
12 -4 0 6.96 1.78
-12 3 0 2.71 1.07
12 -3 0 1.67 1.35
-12 2 0 1.81 0.82
-12 2 0 4.57 1.44
12 -2 0 3.36 1.43
-12 1 0 2.32 1.25
-12 1 0 0.81 0.67
12 -1 0 2.71 1.19
12 -1 0 2.69 1.16
-12 0 0 23.07 1.65
-12 0 0 20.28 2.34
12 0 0 24.26 2.26
12 0 0 24.23 2.2
-12 -1 0 2.19 1.28
-12 -1 0 1.86 0.9
12 1 0 1.95 1.04
-12 -2 0 6.36 1.3
12 2 0 3.13 1.07
-12 -3 0 1.55 1.07
-12 -3 0 2.46 0.94
12 3 0 1.63 0.89
-12 -4 0 5.1 1.52
12 4 0 5.91 1.08
-13 3 0 5.82 1.23
13 -3 0 5.49 1.68
-13 2 0 0.54 0.82
13 -2 0 0.78 1.26
-13 1 0 2.17 1.39
-13 1 0 3.01 0.67
13 -1 0 2.7 1.31
13 -1 0 2.22 1.19
-13 0 0 12.98 2.11
13 0 0 20 2.18
-13 -1 0 3.39 1.03
-13 -1 0 1.55 1.34
13 1 0 5.31 1.31
-13 -2 0 0.03 0.92
13 2 0 -0.05 0.99
-13 -3 0 6.73 1.5
-13 -3 0 6.48 1.23
13 3 0 8.11 1.42
-14 1 0 0.83 0.41
14 -1 0 1.01 1.22
14 -1 0 0.07 1.28
14 0 0 3.22 1.29
14 1 0 0.74 1.13
14 1 1 17.33 2.13
-14 -1 -1 14.69 2.02
14 0 1 0.71 1.18
14 -1 1 14.3 2.15
13 3 1 3.68 1.16
-13 -3 -1 2.64 1.19
-13 -3 -1 1.54 0.98
13 2 1 3.63 1.21
-13 -2 -1 3.99 1.25
-13 -2 -1 1.82 1.07
13 1 1 12.4 1.81
-13 -1 -1 13.55 1.65
13 0 1 0.26 1.11
13 -1 1 11.42 1.89
13 -1 1 13.58 1.97
-13 1 -1 9.44 0.91
13 -2 1 7.24 1.69
-13 2 -1 2.18 0.92
13 -3 1 5.16 1.66
-13 3 -1 2.45 1.13
12 3 1 3.46 1.01
-12 -3 -1 3.24 1.2
-12 -3 -1 1.9 0.93
12 2 1 3.07 1.09
-12 -2 -1 2 1.02
-12 -2 -1 3.15 1.1
12 1 1 9.36 1.51
-12 -1 -1 10.12 1.42
12 0 1 1.61 1.1
12 0 1 2.8 1.17
-12 0 -1 1 0.77
12 -1 1 9.26 1.64
12 -1 1 10.48 1.62
-12 1 -1 11.63 1.07
12 -2 1 -0.29 1.08
-12 2 -1 -0.05 0.81
12 -3 1 3.1 1.46
-12 3 -1 1.8 1.01
11 4 1 2.92 0.88
-11 -4 -1 2.43 1.12
11 3 1 5.73 1.1
-11 -3 -1 7.29 1.12
-11 -3 -1 6.03 1.34
11 2 1 5.12 1.14
-11 -2 -1 7.91 1.25
-11 -2 -1 4.94 1.13
11 1 1 6.12 1.25
-11 -1 -1 7.64 1.24
11 0 1 7.9 1.42
11 0 1 2.62 1.11
-11 0 -1 5.59 0.98
-11 0 -1 3.17 1.31
11 -1 1 6.12 1.4
11 -1 1 9.2 1.47
-11 1 -1 7.22 0.93
-11 1 -1 7.91 1.54
-11 1 -1 6.51 0.89
11 -2 1 2.93 1.32
11 -2 1 5.19 1.38
-11 2 -1 8.72 1.2
11 -3 1 8.33 1.68
-11 3 -1 7.71 1.26
11 -4 1 2.25 1.4
10 5 1 21.91 1.36
-10 -5 -1 24.77 2.61
10 4 1 -0.02 0.61
-10 -4 -1 0.84 0.57
-10 -4 -1 1.49 1.03
10 3 1 13.25 1.34
-10 -3 -1 12.45 1.23
-10 -3 -1 8.69 1.44
10 2 1 1.63 0.86
-10 -2 -1 2.58 0.93
-10 -2 -1 2.4 0.56
-10 -2 -1 1.46 0.89
10 1 1 71.31 2.9
10 1 1 75.09 3.02
-10 -1 -1 70.36 3.59
-10 -1 -1 69.89 2.87
-10 -1 -1 78.65 2.59
10 0 1 0.54 0.87
10 0 1 1.15 0.91
10 0 1 0.49 0.87
-10 0 -1 0.99 0.63
-10 0 -1 0.2 1.03
-10 0 -1 -0.35 0.67
-10 0 -1 1.17 0.3
10 -1 1 69.11 2.97
10 -1 1 75.61 3.22
10 -1 1 69.54 3.23
-10 1 -1 73.38 2.33
-10 1 -1 78.42 2.5
-10 1 -1 72.71 3.46
-10 1 -1 73.72 2.96
10 -2 1 5.22 1.21
10 -2 1 3.26 1.22
10 -2 1 2.01 1.02
-10 2 -1 1.88 1.07
-10 2 -1 0.86 0.76
10 -3 1 12.31 1.7
10 -3 1 17.56 2.13
-10 3 -1 10.58 1.35
10 -4 1 0.49 1.23
10 -5 1 22.8 2.61
10 -5 1 23.62 1.44
9 5 1 15.57 1.09
9 5 1 16.97 1.15
-9 -5 -1 15.61 2.05
9 4 1 0.34 0.57
9 4 1 0.2 0.59
-9 -4 -1 1.3 1.05
-9 -4 -1 0 0.46
9 3 1 4.04 0.83
9 3 1 4.89 0.84
-9 -3 -1 3.52 0.81
-9 -3 -1 4.08 1.06
9 2 1 4.94 0.89
9 2 1 6.44 1.04
9 2 1 4.39 0.87
-9 -2 -1 5.74 0.65
-9 -2 -1 6.48 1.16
9 1 1 11.44 1.23
9 1 1 10.55 1.31
9 1 1 12.76 1.29
9 1 1 11.33 1.29
-9 -1 -1 9.97 1.58
-9 -1 -1 12.21 1.32
-9 -1 -1 11.07 1.05
9 0 1 0.16 0.65
9 0 1 -0.23 0.66
9 0 1 1.11 0.8
9 0 1 -0.26 0.63
-9 0 -1 -0.38 0.49
-9 0 -1 1.26 0.96
-9 0 -1 -0.09 0.38
9 -1 1 11.04 1.47
9 -1 1 12.4 1.2
9 -1 1 10.47 1.34
9 -1 1 11.19 1.45
-9 1 -1 11.01 0.98
-9 1 -1 10.6 1.02
-9 1 -1 12.61 1.4
-9 1 -1 10.12 1.45
9 -2 1 5.67 1.18
9 -2 1 3.95 1.12
9 -2 1 5.25 1.29
-9 2 -1 5.38 1.13
-9 2 -1 4.39 1.13
-9 2 -1 6.17 0.65
-9 2 -1 6.13 1.21
-9 2 -1 4.55 0.94
9 -3 1 5.84 1.39
9 -3 1 3.83 1.16
-9 3 -1 4.43 1.21
-9 3 -1 5.8 1.29
-9 3 -1 5.01 1.05
9 -4 1 0.39 1.13
9 -4 1 0.37 0.68
-9 4 -1 0.65 1.12
-9 4 -1 -0.56 0.89
9 -5 1 12.54 2
9 -5 1 15.21 1.1
-9 5 -1 15.82 2.06
8 5 1 4.76 0.65
8 5 1 4.81 0.65
-8 -5 -1 7.45 1.49
8 4 1 0.1 0.54
8 4 1 -0.18 0.47
8 4 1 -0.04 0.49
-8 -4 -1 0.15 0.37
-8 -4 -1 -0.7 0.72
8 3 1 31.86 1.54
8 3 1 30.57 1.45
8 3 1 29.31 1.43
-8 -3 -1 30.26 1.43
-8 -3 -1 28.99 2.06
8 2 1 21.98 1.44
8 2 1 23.99 1.41
8 2 1 23.4 1.41
8 2 1 24.63 1.4
-8 -2 -1 22.71 1.67
8 1 1 3.07 0.78
8 1 1 3.42 0.78
8 1 1 3.47 0.79
8 1 1 4.68 0.87
-8 -1 -1 3.2 0.81
-8 -1 -1 2.85 0.68
-8 -1 -1 2.36 1.02
8 0 1 6.06 1.02
8 0 1 5.75 0.98
8 0 1 5.64 0.81
8 0 1 5.38 0.93
8 0 1 4.33 0.85
-8 0 -1 6.54 0.9
-8 0 -1 5.68 0.82
-8 0 -1 4.93 0.56
-8 0 -1 5.51 1.16
8 -1 1 2.6 0.82
8 -1 1 2.34 0.84
8 -1 1 2.62 0.84
8 -1 1 3.6 0.73
8 -1 1 2.68 0.95
-8 1 -1 2.42 0.74
-8 1 -1 2.01 0.88
-8 1 -1 3.05 0.69
-8 1 -1 2.13 0.54
-8 1 -1 3.42 0.91
8 -2 1 26.97 2.17
8 -2 1 22.65 1.69
8 -2 1 24.76 1.9
-8 2 -1 23.05 1.76
-8 2 -1 23.72 1.74
-8 2 -1 25.02 1.08
-8 2 -1 23.09 1.46
-8 2 -1 25.82 1.77
8 -3 1 28.93 1.96
8 -3 1 35.22 2.39
8 -3 1 30.12 1.6
8 -3 1 28.28 2.09
-8 3 -1 34.43 2.21
-8 3 -1 30.44 1.04
-8 3 -1 34.24 2.13
-8 3 -1 26.63 1.7
8 -4 1 0.06 0.64
8 -4 1 -0.13 1.06
-8 4 -1 0.34 0.9
-8 4 -1 0.47 0.97
8 -5 1 4.28 0.58
8 -5 1 4.63 0.61
8 -5 1 7.05 1.64
-8 5 -1 5.06 1.32
-7 -6 -1 4.64 1.36
7 5 1 12.22 0.72
7 5 1 12.02 0.79
7 5 1 11.73 0.79
-7 -5 -1 12.34 1.8
7 4 1 28.83 1.18
7 4 1 27.08 1.18
7 4 1 27 1.17
-7 -4 -1 29.97 2.13
7 3 1 39.42 1.51
7 3 1 39.09 1.52
7 3 1 38.76 1.46
-7 -3 -1 39.1 1.47
-7 -3 -1 37.62 2.17
7 2 1 30.67 1.37
7 2 1 29.35 1.4
7 2 1 30.07 1.43
7 2 1 28.96 1.4
-7 -2 -1 29.5 1.77
-7 -2 -1 30.19 1.5
-7 -2 -1 26.47 2.04
7 1 1 9.88 0.99
7 1 1 10.15 0.99
7 1 1 10.93 1.05
7 1 1 12.55 1.12
-7 -1 -1 13.05 0.96
-7 -1 -1 9.81 1.03
-7 -1 -1 10.76 1.4
7 0 1 14.79 1.25
7 0 1 10.81 1.14
7 0 1 11.16 1.09
7 0 1 13.21 1.01
7 0 1 13.25 1.26
-7 0 -1 12.28 1.08
-7 0 -1 10.63 1.34
-7 0 -1 12.26 0.76
-7 0 -1 13.19 1.04
7 -1 1 13.35 1.33
7 -1 1 12.96 1.34
7 -1 1 13.31 1.06
7 -1 1 13.71 1.3
7 -1 1 13.07 1.23
7 -1 1 10.81 1.23
-7 1 -1 9.07 1.18
-7 1 -1 11.56 0.87
-7 1 -1 11.24 1.14
-7 1 -1 11.19 0.97
-7 1 -1 9.91 1.12
7 -2 1 31.55 1.79
7 -2 1 28.07 1.72
7 -2 1 29.87 1.94
7 -2 1 29.97 1.88
-7 2 -1 29.01 1.73
-7 2 -1 30.63 1.53
-7 2 -1 25.55 1.77
-7 2 -1 30.16 1.14
-7 2 -1 33.52 1.85
7 -3 1 36.08 2.33
7 -3 1 36.34 1.66
7 -3 1 35.52 2.01
7 -3 1 32.19 2.07
-7 3 -1 36.72 1.76
-7 3 -1 39.13 2.16
-7 3 -1 37.95 2.11
7 -4 1 28.48 1.4
7 -4 1 27.32 1.92
7 -4 1 26.67 2.22
-7 4 -1 31.83 2.13
-7 4 -1 32.15 2.18
7 -5 1 14.62 1.97
-7 5 -1 12.95 1.77
7 -6 1 1.61 1.22
-7 6 -1 0.76 1.06
-6 -6 -1 2.37 1.24
-6 -5 -1 8.05 1.51
6 4 1 6.24 0.57
6 4 1 7.56 0.62
6 4 1 6.73 0.57
-6 -4 -1 6.82 1.24
6 3 1 1.18 0.42
6 3 1 0.41 0.38
6 3 1 0.15 0.42
-6 -3 -1 1 0.72
-6 -3 -1 -0.65 0.34
-6 -3 -1 0.72 0.42
6 2 1 10.4 0.85
6 2 1 9.94 0.8
6 2 1 11.37 0.84
6 2 1 9.8 0.77
-6 -2 -1 9.23 1.08
-6 -2 -1 10.75 0.87
-6 -2 -1 9.63 0.86
-6 -2 -1 8.64 1.27
6 1 1 71.14 2.21
6 1 1 71.39 2.3
6 1 1 71.91 2.28
6 1 1 74.25 2.47
6 1 1 72.8 2.22
-6 -1 -1 72.89 2.31
-6 -1 -1 76.71 2.09
-6 -1 -1 74.81 2.52
-6 -1 -1 78.53 2.99
6 0 1 6.98 1.08
6 0 1 10.49 1.08
6 0 1 11.3 1.1
6 0 1 10.8 0.86
6 0 1 12.06 1.05
6 0 1 9.89 0.97
-6 0 -1 10.41 0.94
-6 0 -1 11.13 0.75
-6 0 -1 11.22 0.95
-6 0 -1 9.86 1.22
6 -1 1 69.62 2.62
6 -1 1 71.83 2.43
6 -1 1 70.34 2.46
6 -1 1 68.56 2.05
6 -1 1 68.15 2.48
6 -1 1 72.96 2.65
-6 1 -1 68.26 2.39
-6 1 -1 74.16 2.09
-6 1 -1 71.7 2.43
-6 1 -1 69.87 1.98
-6 1 -1 69.57 2.59
6 -2 1 10.55 1.12
6 -2 1 9.27 1.07
6 -2 1 12.37 1.13
6 -2 1 10.46 0.92
6 -2 1 8.61 1.16
-6 2 -1 10.05 0.99
-6 2 -1 8.39 1.07
-6 2 -1 9.96 1.11
-6 2 -1 9.36 1.05
6 -3 1 0.61 0.52
6 -3 1 1.41 0.78
6 -3 1 1.17 0.84
-6 3 -1 0.79 0.75
-6 3 -1 -0.51 0.58
-6 3 -1 0.6 0.72
-6 3 -1 0.98 0.76
6 -4 1 7.12 1.22
6 -4 1 6.92 0.76
6 -4 1 7.38 1.35
-6 4 -1 6.23 1.21
-6 4 -1 6.64 1.21
6 -5 1 7.48 1.48
-6 5 -1 5.64 1.3
6 -6 1 3.64 1.28
-6 6 -1 5.27 1.35
5 6 1 0.51 0.44
5 6 1 0.24 0.39
-5 -6 -1 1.4 1
-5 -5 -1 14.38 1.78
5 4 1 60.55 1.49
-5 -4 -1 59.73 2.8
5 3 1 26.34 0.93
5 3 1 27.15 0.91
5 3 1 28.12 0.98
-5 -3 -1 27.85 1.76
-5 -3 -1 26.2 0.92
-5 -3 -1 27.96 0.97
5 2 1 51.64 2.35
5 2 1 50.66 1.54
5 2 1 49.09 1.47
5 2 1 50.74 1.5
5 2 1 51.36 1.51
-5 -2 -1 49.73 1.58
5 1 1 41.9 1.77
5 1 1 42.14 1.52
5 1 1 43.07 1.5
5 1 1 40.18 1.6
5 1 1 43.43 2.07
5 1 1 42.92 1.58
5 1 1 41.19 1.2
-5 -1 -1 42.86 1.4
-5 -1 -1 40.27 2.04
-5 -1 -1 42.85 1.75
-5 -1 -1 43.08 1.28
-5 -1 -1 41.02 1.66
5 0 1 35.92 1.49
5 0 1 37.37 1.73
5 0 1 34.21 1.27
5 0 1 34.52 1.55
5 0 1 36.49 1.92
5 0 1 34.18 1.47
-5 0 -1 36.39 1.87
-5 0 -1 36.44 1.43
-5 0 -1 36.28 1.15
-5 0 -1 34.68 1.45
5 -1 1 42.13 1.89
5 -1 1 44.49 1.79
5 -1 1 43.69 1.96
5 -1 1 43.47 1.82
5 -1 1 43.11 1.52
5 -1 1 40.4 1.73
-5 1 -1 40.39 1.44
-5 1 -1 39.92 1.73
-5 1 -1 41.36 1.37
-5 1 -1 39.55 1.87
-5 1 -1 44.02 1.81
5 -2 1 44.84 1.59
5 -2 1 48.54 1.99
5 -2 1 48.88 2.14
5 -2 1 47.53 1.82
5 -2 1 45.3 1.9
-5 2 -1 45.13 1.95
-5 2 -1 51.29 2.06
-5 2 -1 49.75 1.85
-5 2 -1 48.74 1.72
5 -3 1 26.4 1.55
5 -3 1 23.91 1.72
5 -3 1 27.74 1.21
-5 3 -1 26.6 1.77
-5 3 -1 28.07 1.11
-5 3 -1 26.76 1.39
-5 3 -1 25.77 1.61
-5 3 -1 22.95 1.65
5 -4 1 57.58 2.73
5 -4 1 57.68 1.43
5 -4 1 57.19 1.43
5 -4 1 54.44 2.33
-5 4 -1 59.54 1.93
-5 4 -1 59.19 2.62
-5 4 -1 61.32 2.64
-5 4 -1 55.94 2.16
5 -5 1 9.51 1.5
-5 5 -1 10.3 1.43
5 -6 1 0.39 1.01
-5 6 -1 0.23 0.91
4 6 1 6.79 0.7
4 6 1 6.48 0.72
4 5 1 15.7 0.76
4 5 1 14.81 0.73
4 5 1 16.02 0.82
-4 -5 -1 16.9 1.77
4 4 1 1.93 0.35
-4 -4 -1 2.73 0.86
4 3 1 39.73 1.95
4 3 1 35.19 1.01
-4 -3 -1 37.61 1.95
4 2 1 7.95 1.05
4 2 1 7.66 0.62
4 2 1 7.54 0.89
4 2 1 8.89 0.64
4 2 1 7.69 0.61
4 2 1 8.34 0.59
-4 -2 -1 7.52 0.91
-4 -2 -1 7.9 0.64
4 1 1 31.26 1.31
4 1 1 33.27 1.46
4 1 1 32.57 1.22
4 1 1 35.97 1.75
4 1 1 32.09 1.2
4 1 1 32.61 1.21
4 1 1 34.4 0.86
-4 -1 -1 34.17 1
-4 -1 -1 34.51 1.81
-4 -1 -1 34.86 1.48
-4 -1 -1 34.92 1.11
-4 -1 -1 33.6 1.34
4 0 1 0.72 0.49
4 0 1 0.78 0.42
4 0 1 0.21 0.37
4 0 1 0.41 0.45
4 0 1 1.18 0.52
4 0 1 0.9 0.56
-4 0 -1 0.61 0.49
-4 0 -1 0.67 0.66
-4 0 -1 0.87 0.41
-4 0 -1 1.16 0.4
4 -1 1 38.05 1.65
4 -1 1 34.16 1.54
4 -1 1 34.65 1.74
4 -1 1 33.51 1.54
4 -1 1 34.95 1.47
4 -1 1 34.61 1.28
-4 1 -1 33.11 1.52
-4 1 -1 34.03 1.59
-4 1 -1 33.62 1.29
-4 1 -1 34.88 1.53
-4 1 -1 35.8 1.58
4 -2 1 7.37 0.72
4 -2 1 7.66 0.89
4 -2 1 8.97 1.1
4 -2 1 10.68 1.06
4 -2 1 7.67 0.73
-4 2 -1 8.42 0.79
-4 2 -1 8.46 0.95
-4 2 -1 7.19 0.95
-4 2 -1 7.94 0.95
-4 2 -1 6.66 0.72
4 -3 1 36.04 1.68
4 -3 1 35.5 1.93
4 -3 1 35.45 1.21
4 -3 1 30.73 1.56
-4 3 -1 34.86 1.46
-4 3 -1 35.2 1.33
-4 3 -1 34.28 1.81
-4 3 -1 35.78 1.79
-4 3 -1 33 1.67
4 -4 1 2.19 0.7
4 -4 1 2.61 0.79
4 -4 1 2.62 0.92
-4 4 -1 1.54 0.67
-4 4 -1 2.04 0.54
-4 4 -1 1.84 0.82
-4 4 -1 3.4 0.86
-4 4 -1 2.18 0.78
4 -5 1 17 1.78
-4 5 -1 15.73 1.61
4 -6 1 6.52 1.33
-4 6 -1 5.61 1.25
3 7 1 12.52 1.11
3 6 1 10.3 0.94
3 6 1 8.61 0.85
3 5 1 1.18 0.46
3 5 1 0.85 0.45
3 5 1 1.38 0.45
-3 -5 -1 0.41 0.79
3 4 1 3.5 0.42
3 4 1 4.75 0.95
-3 -4 -1 3.46 0.88
3 3 1 35.33 1.67
-3 -3 -1 31.87 1.72
3 2 1 4.89 0.73
3 2 1 5.01 0.42
3 2 1 5.63 0.86
3 2 1 5.15 0.42
-3 -2 -1 5.2 0.81
-3 -2 -1 4.65 0.46
3 1 1 20.67 0.88
3 1 1 20.28 0.84
3 1 1 19.47 0.81
3 1 1 20.16 1.09
3 1 1 20.57 0.81
3 1 1 20.84 1.27
-3 -1 -1 21.51 0.76
-3 -1 -1 20.11 1.12
-3 -1 -1 20.49 0.55
-3 -1 -1 20.23 0.94
-3 -1 -1 20.49 1.29
3 0 1 84.38 1.85
3 0 1 86.13 2.19
3 0 1 83.74 2.42
3 0 1 81.09 2.1
3 0 1 81.33 2.22
3 0 1 83.24 2.1
-3 0 -1 84.92 2.49
-3 0 -1 82.42 2.12
-3 0 -1 84.14 1.78
-3 0 -1 85.33 2.11
-3 0 -1 82.86 2.2
3 -1 1 20.41 1.12
3 -1 1 19.41 1.18
3 -1 1 20.35 1.15
3 -1 1 20.84 1.05
3 -1 1 20.52 1.06
-3 1 -1 21.77 1.06
-3 1 -1 19.12 1.12
-3 1 -1 19.97 1.08
-3 1 -1 19.14 0.88
-3 1 -1 18.32 1.06
3 -2 1 4.32 0.52
3 -2 1 4.1 0.73
3 -2 1 4.86 0.57
3 -2 1 5.39 0.85
-3 2 -1 4.82 0.72
-3 2 -1 5.42 0.78
-3 2 -1 6.05 0.69
-3 2 -1 4.48 0.53
-3 2 -1 3.35 0.72
3 -3 1 33.97 0.91
3 -3 1 31.68 1.65
3 -3 1 33.53 1.48
3 -3 1 32.82 0.89
3 -3 1 32.41 1.51
-3 3 -1 33.2 1.61
-3 3 -1 33.23 1.57
-3 3 -1 34.68 1.36
-3 3 -1 33.37 1.34
-3 3 -1 34.5 1.64
3 -4 1 3.36 0.9
3 -4 1 4.87 0.79
-3 4 -1 3.86 0.67
-3 4 -1 3.93 0.82
-3 4 -1 3.83 0.83
-3 4 -1 3.14 0.81
-3 4 -1 5.43 0.8
3 -5 1 1.79 0.91
-3 5 -1 -0.14 0.71
3 -6 1 8.67 1.35
-3 6 -1 9.53 1.35
3 -7 1 15.02 1.77
-3 7 -1 13.63 1.71
2 7 1 6.12 0.92
2 6 1 0.84 0.61
2 6 1 0.75 0.56
2 5 1 27.51 1.31
2 5 1 26.02 1.21
2 5 1 28.5 1.21
-2 -5 -1 23.98 1.07
-2 -5 -1 25.19 1.84
2 4 1 14.57 0.77
2 4 1 15.1 0.82
2 4 1 15.75 0.8
2 4 1 17.22 1.28
-2 -4 -1 15.13 0.82
-2 -4 -1 16.91 1.45
-2 -4 -1 14.9 0.79
2 3 1 25.7 0.82
2 3 1 24.06 1.42
-2 -3 -1 24.46 1.45
-2 -3 -1 26.45 0.86
-2 -3 -1 24.61 0.87
2 2 1 56.52 1.89
2 2 1 53.81 1.92
-2 -2 -1 53.75 1.29
-2 -2 -1 54.05 1.93
-2 -2 -1 53.38 1.28
2 1 1 223.48 4.26
2 1 1 217.55 4.81
2 1 1 222.49 5.08
2 1 1 221.27 4.25
2 1 1 232.97 4.2
2 1 1 225.52 4.34
-2 -1 -1 225.34 4.87
-2 -1 -1 227.4 4.37
2 0 1 20.38 0.7
2 0 1 20.58 0.95
2 0 1 19.82 0.85
2 0 1 19.44 0.99
2 0 1 20.32 0.88
2 0 1 20.21 0.86
-2 0 -1 19.53 0.88
-2 0 -1 20.23 0.84
-2 0 -1 21.26 0.68
-2 0 -1 21.6 1.03
-2 0 -1 20.17 0.85
2 -1 1 218.7 4.52
2 -1 1 225.52 4.71
2 -1 1 217.71 4.71
2 -1 1 225.18 4.62
2 -1 1 221.11 4.66
-2 1 -1 222.27 4.67
-2 1 -1 228.77 4.72
-2 1 -1 226.99 4.72
-2 1 -1 221.98 4.55
-2 1 -1 223.71 4.66
-2 1 -1 224 4.16
2 -2 1 54.63 1.89
2 -2 1 52.16 1.71
2 -2 1 54.98 1.32
2 -2 1 51.35 1.68
-2 2 -1 54.02 1.73
-2 2 -1 55.48 1.49
-2 2 -1 52.02 1.77
-2 2 -1 54.79 1.79
2 -3 1 23.94 1.21
2 -3 1 25.67 1.25
2 -3 1 24.96 1.44
-2 3 -1 25.69 1.33
-2 3 -1 25.65 1.25
-2 3 -1 27.22 1.39
-2 3 -1 25.51 1.09
-2 3 -1 26.58 1.35
2 -4 1 14.76 1
2 -4 1 14.85 1.31
-2 4 -1 15.44 1.28
-2 4 -1 16.02 1.24
-2 4 -1 14.86 0.99
-2 4 -1 18.39 1.26
2 -5 1 27.18 1.27
2 -5 1 26.51 1.8
-2 5 -1 29.79 1.68
-2 5 -1 24.49 1.66
-2 5 -1 28.81 1.86
2 -6 1 -0.7 0.76
-2 6 -1 1.21 0.82
2 -7 1 9.49 1.39
-2 7 -1 6.01 1.2
1 7 1 10.55 1.2
1 6 1 8.55 1.01
1 6 1 11.43 1.18
-1 -6 -1 13.09 1.08
1 5 1 31.7 1.56
1 5 1 31.75 1.44
1 5 1 31.11 1.41
-1 -5 -1 31.77 1.4
1 4 1 12.4 1.05
1 4 1 11.86 0.84
1 4 1 11.44 0.8
1 4 1 11.17 0.9
-1 -4 -1 11.23 0.88
-1 -4 -1 11.68 1.28
1 3 1 57.57 2.11
1 3 1 58.84 1.95
1 3 1 53.54 1.45
1 3 1 58.72 1.52
1 3 1 59.31 1.48
-1 -3 -1 54.08 1.56
-1 -3 -1 58.84 2.17
1 2 1 8.73 0.49
1 2 1 6.87 0.69
1 2 1 7.21 0.72
1 2 1 7.89 0.48
-1 -2 -1 7.58 0.59
-1 -2 -1 7.54 0.76
1 1 1 168.09 3.19
1 1 1 174.52 3.32
1 1 1 168.38 3.73
1 1 1 174.37 3.32
-1 -1 -1 178.75 3.79
-1 -1 -1 176.3 3.35
1 0 1 445.32 7.5
1 0 1 437.63 8.27
1 0 1 443.23 8.01
1 0 1 452.68 8.3
1 0 1 455.39 8.29
-1 0 -1 466.16 7.5
-1 0 -1 427.82 8.28
1 -1 1 168.02 3.46
1 -1 1 177.56 3.5
1 -1 1 170.48 3.62
1 -1 1 177.38 3.55
1 -1 1 176.24 3.12
-1 1 -1 169.39 3.58
-1 1 -1 169.38 3.58
-1 1 -1 175.18 3.5
-1 1 -1 173.96 3.17
-1 1 -1 174.5 3.57
1 -2 1 8.82 0.68
1 -2 1 7.48 0.74
1 -2 1 8.75 0.73
-1 2 -1 7.6 0.52
-1 2 -1 8.47 0.69
-1 2 -1 8.5 0.71
-1 2 -1 7.87 0.68
-1 2 -1 9.86 0.78
1 -3 1 51.38 1.59
1 -3 1 51.26 1.85
-1 3 -1 53.22 1.8
-1 3 -1 52.04 1.79
-1 3 -1 57.96 1.43
-1 3 -1 53.15 1.75
-1 3 -1 58.99 1.94
1 -4 1 11.62 0.77
1 -4 1 13.03 1.11
-1 4 -1 10.67 1
-1 4 -1 11.85 1.06
-1 4 -1 10.81 0.99
1 -5 1 31.77 1.74
-1 5 -1 28.52 1.61
-1 5 -1 30.16 1.63
-1 5 -1 31.32 1.75
1 -6 1 13.25 1.36
-1 6 -1 11.85 1.3
1 -7 1 9.09 1.29
-1 7 -1 11.27 1.39
0 7 1 -0.22 0.72
0 -7 -1 1.38 0.74
0 6 1 2.63 0.79
0 -6 -1 4 0.84
0 5 1 35.55 1.74
0 5 1 42.42 1.73
0 5 1 35.84 1.66
0 -5 -1 33.52 1.67
0 4 1 9.68 0.87
0 4 1 8.4 0.83
0 4 1 8.71 0.8
0 4 1 7.61 0.79
0 -4 -1 9.44 0.87
0 -4 -1 7.92 1.02
0 -4 -1 10.33 0.88
0 3 1 22.44 1.02
0 3 1 22.4 1.33
0 3 1 23.39 1.04
0 3 1 23.46 1.09
0 3 1 23.58 1.06
0 -3 -1 24.34 1.36
0 -3 -1 23.85 1.11
0 -3 -1 22.04 1.14
0 2 1 80.96 1.87
0 2 1 80.13 1.87
0 2 1 83.41 2.26
0 2 1 80.66 1.88
0 -2 -1 82.71 1.73
0 -2 -1 82.29 1.99
0 -2 -1 79.48 1.97
0 -2 -1 80.7 2.25
0 1 1 242.05 4.48
0 1 1 232.47 4.52
0 1 1 245.97 4.38
0 1 1 235.18 4.48
0 1 1 236.83 4.52
0 1 1 237.73 4.78
0 -1 -1 233.86 4.52
0 -1 -1 235.63 4.79
0 -1 -1 236.87 4.33
0 -1 -1 236.49 4.39
0 -1 -1 237.51 4.4
0 -1 -1 235.97 4.54
0 0 1 0.09 0.07
0 0 -1 -0.07 0.06
0 -1 1 229.47 4.51
0 -1 1 234.43 4.4
0 -1 1 237.36 4.32
0 -1 1 233.86 4.4
0 1 -1 237.4 4.5
0 1 -1 233.69 4.47
0 1 -1 234.53 4.45
0 1 -1 231.44 4.51
0 1 -1 239.54 4.35
0 -2 1 80.76 2.03
0 -2 1 82.13 1.79
0 2 -1 83.74 2.28
0 2 -1 82.96 1.93
0 2 -1 80.43 1.91
0 2 -1 83.61 1.92
0 2 -1 82.8 1.85
0 -3 1 22.77 0.77
0 -3 1 22.94 1.17
0 3 -1 23.78 1.08
0 3 -1 23.91 0.87
0 3 -1 22.48 1.03
0 3 -1 23.58 1.12
0 3 -1 23.88 1.35
0 -4 1 9.2 0.9
0 -4 1 9.21 0.87
0 4 -1 9.22 0.85
0 4 -1 8.97 0.83
0 4 -1 9.16 0.81
0 4 -1 6.33 0.74
0 4 -1 7.84 0.59
0 -5 1 37.72 1.72
0 5 -1 39.25 1.68
0 5 -1 37.78 1.78
0 5 -1 36.66 1.69
0 -6 1 4.21 0.88
0 6 -1 4.92 0.9
0 -7 1 1.94 0.82
0 7 -1 0.86 0.77
-1 7 1 4.62 1.01
1 -7 -1 5.49 1.08
-1 6 1 1.93 0.81
1 -6 -1 3.48 0.89
-1 5 1 7.96 1.03
-1 5 1 5.71 0.92
-1 5 1 7.9 1.01
1 -5 -1 6.18 0.97
-1 4 1 0.91 0.55
-1 4 1 1 0.41
-1 4 1 0.95 0.56
-1 4 1 1.12 0.58
1 -4 -1 1.04 0.6
1 -4 -1 1.25 0.58
1 -4 -1 0.7 0.39
-1 3 1 19.38 1.06
-1 3 1 18.89 1.12
-1 3 1 19.92 0.79
-1 3 1 20.2 1.13
-1 3 1 20.12 1.16
1 -3 -1 20.23 1.19
1 -3 -1 19.05 0.93
1 -3 -1 19.15 1.15
1 -3 -1 21.37 1.25
-1 2 1 42.37 1.37
-1 2 1 42.84 1.05
-1 2 1 44.87 1.41
-1 2 1 44.11 1.41
-1 2 1 42.46 1.4
1 -2 -1 42.8 1.27
1 -2 -1 42.32 1.4
1 -2 -1 44.74 1.48
1 -2 -1 41.28 1.44
1 -2 -1 43.75 1.31
-1 1 1 308.06 6.02
-1 1 1 311.51 6
-1 1 1 307.84 6
-1 1 1 309.83 5.83
-1 1 1 311.84 5.37
-1 1 1 311.02 6.03
1 -1 -1 309.75 6.03
1 -1 -1 310.25 6.05
1 -1 -1 317.06 5.97
1 -1 -1 317.81 5.31
1 -1 -1 316.17 6.03
1 -1 -1 314.14 5.81
-1 0 1 -0.2 0.15
-1 0 1 0.15 0.1
-1 0 1 -0.13 0.09
-1 0 1 0.09 0.09
-1 0 1 0.01 0.12
1 0 -1 -0.02 0.13
1 0 -1 0.03 0.11
1 0 -1 0 0.12
1 0 -1 -0.01 0.09
1 0 -1 -0.11 0.1
-1 -1 1 299.72 5.68
-1 -1 1 313.61 6.25
-1 -1 1 315.79 6.37
1 1 -1 313.98 5.44
1 1 -1 309.09 6.35
1 1 -1 319.41 5.45
1 1 -1 314 5.66
1 1 -1 302.87 6.22
1 1 -1 300.82 5.65
-1 -2 1 43.76 1.37
-1 -2 1 42.38 1.13
-1 -2 1 41.41 1.57
1 2 -1 43.03 1.04
1 2 -1 42.39 1.06
1 2 -1 44.22 1.06
1 2 -1 43.12 1.59
1 2 -1 42.32 1.38
-1 -3 1 19.06 0.93
1 3 -1 19.7 0.84
1 3 -1 18.31 0.79
1 3 -1 19.5 1.01
1 3 -1 19.73 1.33
1 3 -1 18.78 0.78
1 3 -1 18.69 0.82
-1 -4 1 0.51 0.43
1 4 -1 1.03 0.48
1 4 -1 1.65 0.39
1 4 -1 0.85 0.44
1 4 -1 1.42 0.44
1 4 -1 1.76 0.5
-1 -5 1 9 0.85
1 5 -1 6.26 0.79
1 5 -1 8.85 0.9
1 5 -1 7.26 0.84
-1 -6 1 2.83 0.68
1 6 -1 1.99 0.76
1 6 -1 2 0.66
1 7 -1 3.99 0.92
-2 7 1 3.15 1.01
2 -7 -1 1.65 0.95
-2 6 1 3.65 0.97
2 -6 -1 3.98 1.02
-2 5 1 10.66 1.22
-2 5 1 13.11 1.22
-2 5 1 14.96 1.4
2 -5 -1 13.02 1.34
2 -5 -1 12.62 0.91
-2 4 1 17.13 1.05
-2 4 1 20.04 1.28
-2 4 1 18.56 1.3
-2 4 1 20.2 1.3
-2 4 1 18.55 0.78
-2 4 1 18.04 1.37
2 -4 -1 19.88 1.39
2 -4 -1 18.72 1.07
2 -4 -1 17.36 1.34
-2 3 1 141.25 3.53
-2 3 1 144.02 3.5
-2 3 1 141.25 2.99
-2 3 1 141.84 3.57
-2 3 1 140.71 3.43
2 -3 -1 140.06 3.57
2 -3 -1 141.71 3.34
2 -3 -1 142.23 3.62
2 -3 -1 136.07 3.22
-2 2 1 22.46 1.14
-2 2 1 19.88 0.91
-2 2 1 20.98 0.91
-2 2 1 20.62 1.14
-2 2 1 22.11 1.13
2 -2 -1 21.51 1.27
2 -2 -1 21.88 1.03
2 -2 -1 21.87 0.72
2 -2 -1 21.79 1.16
2 -2 -1 20.74 1.04
-2 1 1 69.77 1.9
-2 1 1 71.61 1.46
-2 1 1 71.75 1.86
-2 1 1 70.19 1.84
-2 1 1 71.72 1.63
-2 1 1 72.71 1.99
-2 1 1 73.51 1.91
2 -1 -1 72.92 1.6
2 -1 -1 74.53 1.86
2 -1 -1 72.22 1.86
2 -1 -1 71.45 1.94
2 -1 -1 72.85 1.94
-2 0 1 10.04 0.46
-2 0 1 8.53 0.72
-2 0 1 9.15 0.62
-2 0 1 9.09 0.58
-2 0 1 10.23 0.69
-2 0 1 9.36 0.48
2 0 -1 8.8 0.61
2 0 -1 8.45 0.58
2 0 -1 8.35 0.61
2 0 -1 8.98 0.66
2 0 -1 7.83 0.7
2 0 -1 9.88 0.6
2 0 -1 9.22 0.47
2 0 -1 10 0.49
-2 -1 1 74.86 2.05
-2 -1 1 71.35 1.51
2 1 -1 71.31 1.48
2 1 -1 72.29 1.48
2 1 -1 73.69 1.41
2 1 -1 73.58 2.03
2 1 -1 71.89 1.97
-2 -2 1 20.96 1.25
-2 -2 1 22.13 1.17
2 2 -1 20.39 1.1
2 2 -1 21.49 1.16
-2 -3 1 138.76 2.77
-2 -3 1 135.67 3.81
-2 -3 1 133.51 2.75
2 3 -1 143.36 2.71
2 3 -1 138.93 3.56
-2 -4 1 18.53 0.83
-2 -4 1 17.82 0.84
2 4 -1 19.4 0.84
2 4 -1 19.49 1.29
2 4 -1 20.7 0.84
2 4 -1 18.94 0.83
-2 -5 1 12.09 0.83
2 5 -1 11.85 0.9
2 5 -1 11.79 0.94
2 5 -1 13.23 0.9
-2 -6 1 2.78 0.48
2 6 -1 3.42 0.76
2 6 -1 2.9 0.68
2 7 -1 2.43 0.74
-3 7 1 3.61 1.11
3 -7 -1 4.99 1.23
-3 6 1 -0.64 0.74
3 -6 -1 1.07 0.91
-3 5 1 6.94 1.11
-3 5 1 7.11 1.12
3 -5 -1 9.06 1.26
3 -5 -1 7.37 0.93
-3 4 1 13.18 1.06
-3 4 1 12.35 1.25
-3 4 1 16.19 1.28
-3 4 1 13.43 1.01
-3 4 1 17.19 1.42
3 -4 -1 12.73 1.08
3 -4 -1 12.52 1.29
-3 3 1 3.22 0.69
-3 3 1 2.82 0.74
-3 3 1 3.03 0.47
-3 3 1 3.09 0.5
-3 3 1 3.07 0.69
-3 3 1 3.66 0.59
3 -3 -1 4.73 0.7
3 -3 -1 2.63 0.67
3 -3 -1 3.46 0.79
-3 2 1 108.61 2.67
-3 2 1 108.99 2.37
-3 2 1 105.52 2.88
-3 2 1 111.15 2.9
-3 2 1 105.16 2.9
-3 2 1 108.28 2.49
3 -2 -1 108.38 3
3 -2 -1 109.95 2.37
3 -2 -1 106.95 2.84
-3 1 1 38.1 1.39
-3 1 1 39.05 1.21
-3 1 1 35.87 1.36
-3 1 1 36.33 1.43
3 -1 -1 36.5 1.46
3 -1 -1 37.82 1.38
3 -1 -1 35.78 1.4
3 -1 -1 37.05 1.36
-3 0 1 18.79 0.69
-3 0 1 19.43 0.77
-3 0 1 17.78 0.93
-3 0 1 17.18 0.87
-3 0 1 19.76 1.1
3 0 -1 18.12 1.09
3 0 -1 12.79 0.86
3 0 -1 18.43 1.03
3 0 -1 20.19 0.92
3 0 -1 17.32 0.93
3 0 -1 18.72 0.73
3 0 -1 17.18 0.89
3 0 -1 18.38 0.71
-3 -1 1 36.63 1.43
-3 -1 1 37.5 0.86
-3 -1 1 35.39 1.53
3 1 -1 37.69 0.96
3 1 -1 38.91 1.57
3 1 -1 37.7 1.01
3 1 -1 37.16 1.38
3 1 -1 38.76 1.08
3 1 -1 37.27 0.98
3 1 -1 38.42 1.08
-3 -2 1 105.77 3.03
-3 -2 1 107.34 3.1
3 2 -1 107.26 3.05
3 2 -1 106.17 3.01
-3 -3 1 2.95 0.72
-3 -3 1 2.78 0.74
3 3 -1 4.35 0.76
-3 -4 1 12.07 1.33
3 4 -1 14.93 1.28
3 4 -1 14.21 0.6
3 5 -1 6.81 0.62
3 5 -1 7.7 0.63
3 5 -1 6.31 0.59
3 6 -1 0 0.51
3 6 -1 0.07 0.46
3 7 -1 3.07 0.72
-4 7 1 4.07 1.21
4 -7 -1 4.79 1.3
-4 6 1 -1.65 0.69
4 -6 -1 0.53 0.87
-4 5 1 20.88 1.79
4 -5 -1 23.92 1.89
-4 4 1 3.22 0.58
-4 4 1 3.32 0.82
-4 4 1 2.73 0.83
-4 4 1 4.3 0.91
-4 4 1 3.1 0.75
4 -4 -1 3.6 0.95
4 -4 -1 2.36 0.76
-4 3 1 17.09 1.34
-4 3 1 15.61 1.05
-4 3 1 16.01 1.33
-4 3 1 16.11 0.94
-4 3 1 15.19 0.82
-4 3 1 15.08 1.19
4 -3 -1 16.59 0.83
4 -3 -1 15.25 1.19
4 -3 -1 15.33 1.36
4 -3 -1 17.57 1.2
-4 2 1 7.75 0.94
-4 2 1 8.81 0.45
-4 2 1 8.24 0.79
-4 2 1 8.75 0.98
-4 2 1 10.27 1.03
-4 2 1 11.96 1
4 -2 -1 9.71 0.77
4 -2 -1 9.93 1.07
4 -2 -1 9.42 0.98
-4 1 1 4.96 0.75
-4 1 1 5.17 0.69
-4 1 1 4.57 0.71
-4 1 1 4.12 0.56
-4 1 1 4.97 0.69
4 -1 -1 4.29 0.68
4 -1 -1 5.53 0.72
4 -1 -1 4.46 0.74
4 -1 -1 5.46 0.62
4 -1 -1 5.6 0.74
4 -1 -1 4.94 0.69
-4 0 1 38.2 1.3
-4 0 1 33.28 1.53
-4 0 1 31.7 1.4
-4 0 1 31.59 0.97
-4 0 1 34.08 1.16
4 0 -1 32.94 1.05
4 0 -1 31.99 1.26
4 0 -1 32.43 1.37
4 0 -1 34.31 1.34
4 0 -1 33.91 1.54
4 0 -1 34.76 1.13
4 0 -1 31.22 1.23
-4 -1 1 5.28 0.56
-4 -1 1 5.19 0.68
-4 -1 1 4.74 0.46
-4 -1 1 5.47 0.87
4 1 -1 5.66 0.55
4 1 -1 4.62 0.8
4 1 -1 5.08 0.53
4 1 -1 5.65 0.66
4 1 -1 5.17 0.51
4 1 -1 5.45 0.5
-4 -2 1 8.59 0.95
-4 -2 1 9.73 0.64
-4 -2 1 8.19 1.07
4 2 -1 8.64 0.54
4 2 -1 11.18 1.11
4 2 -1 10.04 1.02
-4 -3 1 16.72 1.34
-4 -3 1 15.64 1.34
4 3 -1 15.22 1.29
-4 -4 1 3.3 0.9
4 4 -1 2.64 0.8
4 5 -1 22.24 0.76
4 6 -1 0.24 0.39
4 6 -1 0.18 0.44
4 7 -1 4.95 0.73
-5 6 1 2.86 1.11
5 -6 -1 2.23 1.12
-5 5 1 4.53 1.13
5 -5 -1 6.94 1.33
-5 4 1 24.9 1.76
-5 4 1 22.09 1.41
-5 4 1 23.27 1.83
-5 4 1 23.98 1.1
-5 4 1 23.73 1.04
-5 4 1 26.3 1.69
5 -4 -1 24.33 1.91
5 -4 -1 23.62 1.6
-5 3 1 70.83 2.57
-5 3 1 72.93 2.21
-5 3 1 71.58 1.73
-5 3 1 72.45 2.21
-5 3 1 71.74 2.63
-5 3 1 73.44 2.71
5 -3 -1 72.21 2.52
5 -3 -1 70.35 2.76
5 -3 -1 70.09 1.96
-5 2 1 15.33 1.26
-5 2 1 13.93 1.22
-5 2 1 16.35 1.07
-5 2 1 13.21 1.18
-5 2 1 15.62 1.14
5 -2 -1 13.22 1.18
5 -2 -1 15.98 0.99
5 -2 -1 18.61 1.47
5 -2 -1 14.5 1.23
-5 1 1 31.49 0.93
-5 1 1 30.71 1.52
-5 1 1 32.22 1.63
-5 1 1 33.87 1.65
-5 1 1 33.42 1.54
-5 1 1 31.22 1.31
5 -1 -1 34.09 1.77
5 -1 -1 34.64 1.69
5 -1 -1 32.87 1.61
5 -1 -1 31.46 1.52
5 -1 -1 31.1 1.6
5 -1 -1 33.15 1.31
-5 0 1 0.47 0.39
-5 0 1 0.3 0.54
-5 0 1 0.07 0.37
-5 0 1 0.18 0.42
-5 0 1 -0.63 0.65
5 0 -1 0 0.53
5 0 -1 0.47 0.37
5 0 -1 0.29 0.46
5 0 -1 -0.91 0.57
5 0 -1 0.28 0.51
5 0 -1 -0.34 0.38
5 0 -1 0.36 0.52
-5 -1 1 30.27 1.79
-5 -1 1 33.59 1.16
-5 -1 1 33.12 0.99
-5 -1 1 33.29 1.42
-5 -1 1 33.39 1.5
5 1 -1 30.9 1.22
5 1 -1 31.33 1.34
5 1 -1 31.25 1.78
5 1 -1 32.54 0.93
5 1 -1 30.75 1.26
5 1 -1 29.52 1.32
5 1 -1 32.24 1.51
-5 -2 1 18.13 1.32
-5 -2 1 13.43 1.36
5 2 -1 15.73 0.73
5 2 -1 14.42 1.34
5 2 -1 15.21 0.77
5 2 -1 14.43 0.75
5 2 -1 14.79 0.72
-5 -3 1 68.02 2.78
-5 -3 1 68.75 2.73
5 3 -1 72.79 1.56
-5 -4 1 22.17 1.8
-6 6 1 0.06 0.98
6 -6 -1 0.45 1.05
-6 5 1 11.36 1.55
6 -5 -1 11.03 1.66
-6 4 1 3.06 0.85
-6 4 1 2.36 0.92
-6 4 1 2.92 0.63
-6 4 1 2.62 0.94
6 -4 -1 2.15 0.91
6 -4 -1 1.28 0.95
6 -4 -1 2.04 0.54
-6 3 1 12.49 1.09
-6 3 1 14.7 1.16
-6 3 1 14.01 1.37
-6 3 1 17.76 1.56
-6 3 1 12.1 1.3
6 -3 -1 14.97 1.05
6 -3 -1 11.51 1.37
6 -3 -1 15.22 1.46
-6 2 1 2.69 0.78
-6 2 1 2.48 0.71
-6 2 1 3.06 0.63
-6 2 1 2.57 0.73
6 -2 -1 2.21 0.56
6 -2 -1 2.35 0.85
6 -2 -1 2.84 0.76
6 -2 -1 2.99 0.77
6 -2 -1 2.13 0.68
-6 1 1 33.76 1.37
-6 1 1 34.21 1.76
-6 1 1 34.69 1.07
-6 1 1 33.81 1.66
-6 1 1 34.09 1.63
6 -1 -1 31.75 1.69
6 -1 -1 34.84 1.66
6 -1 -1 33.53 1.38
6 -1 -1 29.1 1.79
6 -1 -1 36.56 1.79
-6 0 1 49.81 1.68
-6 0 1 49.26 1.79
-6 0 1 52.11 1.4
-6 0 1 52.83 2.36
6 0 -1 50.94 1.99
6 0 -1 48.32 1.82
6 0 -1 50.26 1.84
6 0 -1 51.23 1.59
6 0 -1 48.47 2.01
6 0 -1 53.64 1.69
6 0 -1 49.75 2.24
-6 -1 1 31.31 1.46
-6 -1 1 35.29 1.6
-6 -1 1 33.03 1.93
-6 -1 1 33.38 1.26
6 1 -1 30.42 1.38
6 1 -1 39.33 2
6 1 -1 33.84 1.59
6 1 -1 32.91 1.49
6 1 -1 32.54 1.37
6 1 -1 34.35 1.48
-6 -2 1 2.61 0.5
-6 -2 1 3 0.74
-6 -2 1 3.2 0.94
6 2 -1 2.62 0.46
6 2 -1 2.36 0.46
6 2 -1 2.09 0.5
6 2 -1 3.54 0.53
-6 -3 1 15.82 1.5
-6 -3 1 14.19 0.67
-6 -3 1 13.6 1.58
-6 -3 1 15.42 0.75
6 3 -1 13.23 0.67
6 3 -1 13.93 0.73
6 3 -1 14.42 0.75
-6 -4 1 3.1 0.94
-7 6 1 0.97 1.06
7 -6 -1 -0.63 0.98
-7 5 1 4.4 1.25
7 -5 -1 2.75 1.2
-7 4 1 12.95 1.55
-7 4 1 16.49 1.22
-7 4 1 15.61 1.71
7 -4 -1 15.3 1.77
7 -4 -1 15.9 1.66
7 -4 -1 13.36 1.08
-7 3 1 22.08 1.47
-7 3 1 20.66 1.79
-7 3 1 22.88 1.69
-7 3 1 24.99 1.49
7 -3 -1 21.79 1.9
7 -3 -1 20.36 1.57
7 -3 -1 19.66 1.28
7 -3 -1 21.32 1.62
-7 2 1 4.43 0.94
-7 2 1 4.67 0.8
-7 2 1 3.79 0.84
-7 2 1 4.86 0.94
7 -2 -1 5.12 0.97
7 -2 -1 6.51 0.99
7 -2 -1 3.73 0.97
7 -2 -1 6.49 1.05
-7 1 1 38.54 1.49
-7 1 1 38.74 1.83
-7 1 1 38.61 1.82
-7 1 1 36.24 1.93
-7 1 1 36.94 1.21
7 -1 -1 35.25 1.89
7 -1 -1 37.71 1.81
7 -1 -1 37.08 1.95
7 -1 -1 36.17 1.9
7 -1 -1 39.8 1.56
-7 0 1 3.34 0.58
-7 0 1 2.81 0.47
-7 0 1 3.92 0.68
-7 0 1 3.89 0.96
7 0 -1 3.95 0.81
7 0 -1 2.45 0.66
7 0 -1 2.9 0.69
7 0 -1 2.99 0.56
7 0 -1 4.11 0.83
7 0 -1 3.24 0.59
-7 -1 1 36.89 1.74
-7 -1 1 41.73 2.25
-7 -1 1 37.53 1.78
-7 -1 1 38 1.44
7 1 -1 40.95 1.62
7 1 -1 37.77 1.59
7 1 -1 40.25 1.66
7 1 -1 38.44 1.75
7 1 -1 37.68 1.65
-7 -2 1 2.98 0.77
-7 -2 1 5.13 1.15
-7 -2 1 5.13 0.71
7 2 -1 4.34 0.67
7 2 -1 5.52 0.71
7 2 -1 6.07 0.67
7 2 -1 5.48 0.68
-7 -3 1 19.09 1.61
-7 -3 1 22.41 1.04
-7 -3 1 21.15 0.97
-7 -3 1 17.87 1.86
7 3 -1 20.59 1.01
7 3 -1 22.87 1.09
7 3 -1 22.85 1.06
-7 -4 1 16.21 1.8
7 4 -1 14.41 0.77
7 4 -1 14.82 0.78
7 4 -1 14.84 0.8
-7 -5 1 1.2 0.98
-8 6 1 1.61 1.21
8 -6 -1 0.49 1.14
-8 5 1 1.82 1.12
8 -5 -1 3.33 0.51
8 -5 -1 4.17 1.37
-8 4 1 11.91 1.58
-8 4 1 9.49 1.47
-8 4 1 10.73 1.15
8 -4 -1 10.55 1.07
8 -4 -1 8.44 1.52
8 -4 -1 9.38 1.41
-8 3 1 52.4 2.56
-8 3 1 55 2.69
-8 3 1 53.59 2.23
-8 3 1 54.2 2.41
8 -3 -1 54.72 2.85
8 -3 -1 57.61 2.08
8 -3 -1 47.38 2.46
8 -3 -1 54.21 2.62
-8 2 1 3.32 0.91
-8 2 1 3.35 0.9
-8 2 1 3.36 0.96
-8 2 1 4.29 0.84
8 -2 -1 5.05 1.03
8 -2 -1 3.9 1.12
8 -2 -1 4.47 0.99
-8 1 1 23.37 1.02
-8 1 1 21.96 1.57
-8 1 1 22.43 1.22
-8 1 1 20.91 1.77
-8 1 1 21.72 1.51
8 -1 -1 24.52 1.58
8 -1 -1 24.67 1.7
8 -1 -1 23.65 1.7
8 -1 -1 23.39 1.73
8 -1 -1 23.55 1.34
-8 0 1 31.88 2.09
-8 0 1 34.88 1.12
-8 0 1 35.3 1.66
-8 0 1 32.99 1.49
8 0 -1 33.57 1.68
8 0 -1 32.49 1.84
8 0 -1 32.45 1.45
8 0 -1 33.33 1.86
8 0 -1 31.46 1.71
-8 -1 1 24.09 1.91
-8 -1 1 23.84 1.43
-8 -1 1 24.68 1.25
8 1 -1 20.8 1.46
8 1 -1 24.19 1.45
8 1 -1 21.37 1.43
8 1 -1 21.67 1.29
-8 -2 1 5.36 0.98
-8 -2 1 3.05 1.11
-8 -2 1 4.31 0.75
-8 -2 1 4.28 0.39
8 2 -1 2.98 0.71
8 2 -1 3.82 0.74
8 2 -1 4.83 0.73
8 2 -1 3.46 0.66
-8 -3 1 52.09 2.92
-8 -3 1 56.99 2.69
8 3 -1 49.31 1.83
8 3 -1 53 1.83
8 3 -1 55.85 1.83
-8 -4 1 10.63 1.56
8 4 -1 10.78 0.86
8 4 -1 11.53 0.85
8 4 -1 10.97 0.88
-8 -5 1 4.06 1.22
-9 5 1 17.82 2.08
9 -5 -1 16.18 2.13
9 -5 -1 15.25 1.07
-9 4 1 1.19 0.99
-9 4 1 0.28 0.95
9 -4 -1 0.85 0.73
9 -4 -1 1.28 1.12
-9 3 1 8.41 1.36
-9 3 1 8.09 1.24
-9 3 1 6.12 1.09
-9 3 1 7.09 1.41
9 -3 -1 5.85 1.26
9 -3 -1 5.89 0.95
9 -3 -1 6.74 1.45
-9 2 1 24.7 1.52
-9 2 1 24.42 1.83
-9 2 1 25.51 1.93
-9 2 1 25.06 1.94
9 -2 -1 27.54 2.17
9 -2 -1 22.14 1.75
9 -2 -1 27.47 2.09
-9 1 1 8.39 0.9
-9 1 1 6.49 0.69
-9 1 1 7.63 1.12
-9 1 1 7.25 1.34
9 -1 -1 7.7 1.18
9 -1 -1 6.1 1.1
9 -1 -1 10.45 1.11
9 -1 -1 7.01 1.26
9 -1 -1 5.7 1.05
-9 0 1 8.45 1.41
-9 0 1 8.84 0.98
-9 0 1 6.8 0.58
-9 0 1 8.25 0.91
9 0 -1 8.2 0.95
9 0 -1 9 1.21
9 0 -1 8.03 1.19
9 0 -1 7.66 1.08
9 0 -1 8.01 1.11
-9 -1 1 8.08 0.92
-9 -1 1 7.4 1.02
-9 -1 1 5.13 1.27
9 1 -1 6.4 0.99
9 1 -1 8.19 1.12
9 1 -1 7.73 1.1
9 1 -1 8.05 1.03
-9 -2 1 26.16 1.82
-9 -2 1 21.51 2.16
-9 -2 1 26.89 0.98
9 2 -1 26.24 1.51
9 2 -1 24.62 1.5
9 2 -1 26.26 1.55
9 2 -1 26.62 1.6
-9 -3 1 5.32 1.44
-9 -3 1 3.91 1.05
9 3 -1 7.32 0.91
9 3 -1 9.31 0.99
9 3 -1 6.97 0.92
-9 -4 1 -0.63 0.82
9 4 -1 0.31 0.55
9 4 -1 0.71 0.53
9 5 -1 16.12 1.01
9 5 -1 18.34 1.04
10 -5 -1 8.68 1.81
10 -5 -1 8.52 0.99
10 -4 -1 9.55 1.78
-10 3 1 16.52 1.56
-10 3 1 17.22 1.76
-10 3 1 17.58 1.93
10 -3 -1 16.01 2.06
10 -3 -1 17.57 1.91
-10 2 1 1.74 0.94
-10 2 1 2.52 1.13
-10 2 1 1.54 0.8
10 -2 -1 2.3 1.02
10 -2 -1 2.31 1.15
10 -2 -1 0.55 1
-10 1 1 16.39 1.18
-10 1 1 15.31 1.79
-10 1 1 18.47 1.1
-10 1 1 19.35 1.71
10 -1 -1 15.61 1.62
10 -1 -1 15.11 1.64
10 -1 -1 16.19 1.82
-10 0 1 11 1.1
-10 0 1 9.29 1.54
-10 0 1 10.47 0.52
-10 0 1 9.8 1.2
10 0 -1 11.53 1.42
10 0 -1 11.67 1.36
10 0 -1 11.82 1.46
-10 -1 1 20.91 1.57
-10 -1 1 17.15 1.99
-10 -1 1 18.09 1.25
10 1 -1 17.49 1.56
10 1 -1 17.57 1.59
10 1 -1 16.16 1.55
-10 -2 1 1.5 1.17
-10 -2 1 1.09 0.46
-10 -2 1 0.81 0.79
10 2 -1 1.4 0.79
10 2 -1 0.99 0.77
10 2 -1 1.36 0.71
-10 -3 1 14.84 2.05
-10 -3 1 13.4 1.65
-10 -3 1 14.92 1.21
10 3 -1 14.78 1.35
10 3 -1 16.57 1.37
-10 -4 1 7.44 1.43
10 4 -1 9.9 1.06
10 4 -1 10.5 1.07
10 5 -1 8.25 0.89
10 5 -1 6.31 0.83
11 -4 -1 8.47 1.73
-11 3 1 19.02 1.69
-11 3 1 18.28 1.94
11 -3 -1 18.49 2.26
11 -3 -1 17.52 2.02
-11 2 1 6.29 1.36
-11 2 1 7.11 1.12
11 -2 -1 8.08 1.57
11 -2 -1 8.77 1.52
11 -2 -1 8.95 1.54
-11 1 1 10.85 1.68
-11 1 1 14.02 1.04
-11 1 1 11.32 1.06
11 -1 -1 12.87 1.74
11 -1 -1 12 1.69
-11 0 1 2.18 0.71
-11 0 1 1.24 1.18
11 0 -1 0.93 0.89
11 0 -1 2.9 1.06
-11 -1 1 10.74 1.31
-11 -1 1 7.65 1.64
11 1 -1 12.18 1.49
11 1 -1 11.28 1.4
-11 -2 1 6.27 1.2
-11 -2 1 8.04 0.74
-11 -2 1 9.23 1.75
11 2 -1 6.88 1.17
-11 -3 1 18.36 1.39
-11 -3 1 16.3 2.21
-11 -3 1 16.27 1.98
11 3 -1 17.2 1.52
-11 -4 1 5.66 1.4
11 4 -1 8.33 1.1
12 -4 -1 5.76 1.78
-12 3 1 3.05 1.27
-12 3 1 0.67 0.96
12 -3 -1 -1.69 1.08
-12 2 1 9.43 1.73
-12 2 1 11.12 1.25
12 -2 -1 8.84 1.66
-12 1 1 8.36 0.95
-12 1 1 12.59 1.91
12 -1 -1 8.32 1.52
12 -1 -1 7.28 1.54
-12 0 1 4.9 0.96
-12 0 1 5.78 1.64
12 0 -1 6.13 1.36
12 0 -1 6.08 1.36
-12 -1 1 8.44 1.75
-12 -1 1 9.01 1.32
12 1 -1 9.47 1.45
-12 -2 1 9.23 1.88
-12 -2 1 10.91 1.52
12 2 -1 10.15 1.41
-12 -3 1 0.33 0.99
-12 -3 1 2.52 0.92
12 3 -1 1.22 0.86
-12 -4 1 7.77 1.55
12 4 -1 7.91 1.18
-13 3 1 0.5 1
13 -3 -1 1.1 1.33
-13 2 1 0.59 0.82
-13 2 1 -0.12 1.1
13 -2 -1 1.43 1.28
-13 1 1 10.75 0.95
-13 1 1 9.78 1.87
13 -1 -1 9.09 1.74
13 -1 -1 10.69 1.75
-13 0 1 4.33 1.54
13 0 -1 8.29 1.6
-13 -1 1 9.41 1.36
-13 -1 1 3.53 1.53
13 1 -1 12.5 1.73
-13 -2 1 -1.83 1.22
-13 -2 1 -0.24 0.84
13 2 -1 0.05 0.94
-13 -3 1 0.41 0.97
-13 -3 1 0.28 0.86
13 3 -1 1.6 0.98
-14 2 1 0.31 0.85
-14 2 1 0.51 1.24
14 -2 -1 0.9 1.37
-14 1 1 9.73 0.71
-14 1 1 12.1 2.12
14 -1 -1 9.47 1.79
14 -1 -1 12.26 1.96
-14 0 1 2.08 1.48
14 0 -1 1.19 1.16
-14 -1 1 8.45 1.99
14 1 -1 14.47 1.94
-14 -2 1 0.4 0.92
14 2 -1 -0.13 0.91
14 0 2 6.86 1.65
-14 0 -2 5.84 1.7
13 2 2 21.54 2.21
-13 -2 -2 18.27 1.99
-13 -2 -2 23.07 2.3
13 1 2 1.09 1.17
-13 -1 -2 4.7 1.39
-13 -1 -2 0.61 0.9
13 0 2 -1.32 0.99
13 -1 2 1.29 1.32
13 -1 2 2.34 1.3
-13 1 -2 2.6 0.68
13 -2 2 18.37 2.35
-13 2 -2 17.43 1.53
12 3 2 2.43 1.05
-12 -3 -2 1.68 0.95
-12 -3 -2 2.48 1.17
12 2 2 29.76 2.21
-12 -2 -2 29.5 2.27
-12 -2 -2 29.56 2.19
12 1 2 0.51 1.01
-12 -1 -2 3.02 1.22
-12 -1 -2 0.53 0.86
12 0 2 59.89 3.23
12 0 2 60.74 3.14
-12 0 -2 59.18 2.68
12 -1 2 1.16 1.07
12 -1 2 1.82 1.2
-12 1 -2 0.72 0.66
12 -2 2 30.95 2.8
-12 2 -2 30.16 1.83
12 -3 2 2.43 1.38
-12 3 -2 1.51 1.04
11 4 2 -0.24 0.7
-11 -4 -2 2.81 1.19
11 3 2 1.29 0.87
-11 -3 -2 1.47 0.86
-11 -3 -2 1.78 1.04
11 2 2 22.65 1.83
-11 -2 -2 23.92 2.03
-11 -2 -2 23.49 1.9
11 1 2 0.76 0.89
-11 -1 -2 0.38 0.78
11 0 2 9.36 1.46
11 0 2 7.37 1.47
-11 0 -2 7.58 1.15
11 -1 2 2.14 1.13
11 -1 2 1.57 1.05
-11 1 -2 0.87 0.64
-11 1 -2 0.86 0.7
11 -2 2 25.66 2.49
-11 2 -2 23.91 1.6
11 -3 2 0.1 1.15
-11 3 -2 0.99 0.93
11 -4 2 0.93 1.29
10 5 2 3.37 0.79
-10 -5 -2 2.29 1.22
10 4 2 7.9 1.08
-10 -4 -2 8.25 0.92
-10 -4 -2 5.53 1.38
10 3 2 7 1.12
-10 -3 -2 7.92 1.1
-10 -3 -2 9.91 1.56
10 2 2 6.09 1.1
-10 -2 -2 7.42 0.79
-10 -2 -2 7.53 1.32
-10 -2 -2 5.17 1.13
10 1 2 8.03 1.31
10 1 2 7.83 1.21
-10 -1 -2 7.2 1.19
10 0 2 2.27 0.99
10 0 2 1.65 0.99
10 0 2 4.05 1.05
-10 0 -2 2.19 0.35
-10 0 -2 2.84 0.83
10 -1 2 7.4 1.36
10 -1 2 8.12 1.31
10 -1 2 9.71 1.56
-10 1 -2 9.15 1.03
-10 1 -2 9 1
10 -2 2 9.81 1.62
10 -2 2 9.52 1.56
10 -2 2 9.37 1.52
-10 2 -2 6.76 1.12
10 -3 2 8.74 1.52
10 -3 2 8.81 1.66
-10 3 -2 7.45 1.23
10 -4 2 7.1 1.72
10 -5 2 4.4 0.86
10 -5 2 2.52 1.49
9 5 2 8.36 0.95
-9 -5 -2 6.44 1.48
9 4 2 10.61 1.1
9 4 2 13.53 1.21
-9 -4 -2 11.43 0.95
-9 -4 -2 11.36 1.73
9 3 2 5.75 0.94
9 3 2 6.74 0.99
-9 -3 -2 3.21 0.83
-9 -3 -2 3.64 1.14
9 2 2 32.34 1.8
9 2 2 34.43 1.89
9 2 2 30.09 1.68
-9 -2 -2 31.55 1.86
-9 -2 -2 31.62 1.29
-9 -2 -2 27.18 1.94
9 1 2 7.85 1.1
9 1 2 10.27 1.3
9 1 2 8.98 1.22
9 1 2 9 1.15
-9 -1 -2 9.16 1.03
-9 -1 -2 8.37 1.18
9 0 2 39.22 2.08
9 0 2 34.9 2.19
9 0 2 33.87 2.13
-9 0 -2 34.91 1.16
-9 0 -2 36.86 1.86
9 -1 2 11.48 1.43
9 -1 2 8.44 1.43
9 -1 2 10.63 1.4
9 -1 2 9.5 1.1
-9 1 -2 8.4 0.95
-9 1 -2 8.29 0.98
-9 1 -2 8.78 1.25
9 -2 2 28.97 1.98
9 -2 2 30.09 2.28
9 -2 2 27.47 2.17
-9 2 -2 33.32 1.74
-9 2 -2 30.76 2.05
-9 2 -2 35.43 2.19
-9 2 -2 30.09 1.38
9 -3 2 2.32 1.23
9 -3 2 4.18 1.23
-9 3 -2 5.69 1.24
-9 3 -2 5.46 1.28
-9 3 -2 6.26 1.13
9 -4 2 12.37 1.88
-9 4 -2 11.41 1.68
-9 4 -2 17.7 2.03
9 -5 2 9.88 1.83
9 -5 2 8 0.89
8 5 2 0.53 0.53
8 5 2 0.34 0.53
-8 -5 -2 0.04 0.88
8 4 2 17.31 1.18
8 4 2 17.88 1.23
-8 -4 -2 17.42 0.98
-8 -4 -2 20.92 2.15
8 3 2 0.28 0.58
8 3 2 0.01 0.55
8 3 2 -0.21 0.56
-8 -3 -2 -0.22 0.6
-8 -3 -2 0.57 0.79
8 2 2 37.92 1.78
8 2 2 39.92 1.89
8 2 2 37.24 1.78
8 2 2 35.45 1.73
-8 -2 -2 37.07 2.12
-8 -2 -2 40.25 1.91
8 1 2 10.45 1.14
8 1 2 14.43 1.32
8 1 2 14.05 1.36
8 1 2 11.16 1.16
-8 -1 -2 13.37 1.11
-8 -1 -2 8.87 1.14
8 0 2 11.87 1.23
8 0 2 9.38 1.27
8 0 2 13.26 1.37
8 0 2 13.47 1.13
8 0 2 11.53 1.22
-8 0 -2 14.8 1.25
-8 0 -2 13.98 1.22
-8 0 -2 8.78 1.39
-8 0 -2 12.15 0.79
8 -1 2 12.88 1.38
8 -1 2 9.07 1.22
8 -1 2 11.38 1.29
8 -1 2 13.02 1.17
8 -1 2 11.84 1.47
-8 1 -2 11.68 1.27
-8 1 -2 12.86 1.34
-8 1 -2 11.21 0.99
-8 1 -2 10.21 1.38
-8 1 -2 10.67 1.03
8 -2 2 38.25 2.24
8 -2 2 38.63 2.34
8 -2 2 31.98 1.97
-8 2 -2 40.77 1.84
-8 2 -2 34.56 2.06
-8 2 -2 38.03 2.12
-8 2 -2 37.08 1.49
8 -3 2 -0.17 0.59
8 -3 2 -0.13 0.98
8 -3 2 0.95 0.95
-8 3 -2 0.04 0.82
-8 3 -2 -0.18 0.76
-8 3 -2 -0.41 0.9
8 -4 2 18.78 2.15
8 -4 2 20.16 1.36
-8 4 -2 17.72 1.91
-8 4 -2 19.58 2.03
8 -5 2 0.07 0.43
8 -5 2 0.27 0.46
8 -5 2 0.68 1.12
-8 5 -2 0.75 1.05
7 6 2 3.17 0.59
7 6 2 3.49 0.6
-7 -6 -2 4.15 1.32
7 5 2 4.29 0.64
7 5 2 4.79 0.65
-7 -5 -2 2.77 1.16
7 4 2 2.82 0.64
7 4 2 3.39 0.62
7 4 2 3.09 0.6
-7 -4 -2 3.48 0.51
-7 -4 -2 2.08 0.97
7 3 2 26.38 1.32
7 3 2 27.78 1.33
7 3 2 28.82 1.38
-7 -3 -2 25.35 1.87
-7 -3 -2 26.29 1.33
7 2 2 5.32 0.77
7 2 2 4.78 0.78
7 2 2 4.9 0.75
7 2 2 6.59 0.8
-7 -2 -2 4.89 0.85
-7 -2 -2 4.8 0.76
-7 -2 -2 5.1 0.98
7 1 2 14.7 1.2
7 1 2 14.27 1.09
7 1 2 15.86 1.31
7 1 2 15.17 1.25
-7 -1 -2 11.94 1.17
-7 -1 -2 16.64 1.05
7 0 2 0.73 0.52
7 0 2 0.58 0.64
7 0 2 0.78 0.6
7 0 2 1.23 0.6
7 0 2 1.14 0.7
-7 0 -2 0.57 0.51
-7 0 -2 1.26 0.44
-7 0 -2 0.99 0.81
-7 0 -2 1.41 0.56
7 -1 2 14.93 1.35
7 -1 2 16.73 1.5
7 -1 2 15.25 1.5
7 -1 2 14.01 1.12
7 -1 2 18.27 1.52
-7 1 -2 14.08 1.04
-7 1 -2 14.55 1.03
-7 1 -2 12.66 1.4
-7 1 -2 18 1.42
-7 1 -2 13.81 1.26
7 -2 2 4.54 1.1
7 -2 2 6.46 1.1
7 -2 2 5.37 1
7 -2 2 5.91 0.99
-7 2 -2 6.27 1.11
-7 2 -2 5.12 0.83
-7 2 -2 4.77 0.99
7 -3 2 25.09 2.04
7 -3 2 26.03 1.92
7 -3 2 25.29 1.56
7 -3 2 23.62 1.37
-7 3 -2 25.61 1.84
-7 3 -2 25.67 1.61
-7 3 -2 23.82 1.82
7 -4 2 3.79 1.09
7 -4 2 5.76 1.36
7 -4 2 3.53 0.75
-7 4 -2 3.45 1.11
-7 4 -2 3.11 1.21
7 -5 2 3.4 1.31
-7 5 -2 3.79 1.2
7 -6 2 4.56 1.44
-7 6 -2 4.12 1.4
6 6 2 6.97 0.73
6 6 2 4.65 0.61
-6 -6 -2 6.66 1.5
6 5 2 2.44 0.5
6 5 2 3.08 0.54
6 5 2 3.72 0.54
-6 -5 -2 4.79 1.2
6 4 2 42.99 1.4
6 4 2 39.63 1.4
6 4 2 39.01 1.38
-6 -4 -2 40.96 2.4
6 3 2 0.04 0.43
6 3 2 -0.12 0.4
6 3 2 -0.45 0.28
6 3 2 0.56 0.46
-6 -3 -2 0.17 0.47
-6 -3 -2 0.82 0.7
6 2 2 -0.08 0.41
6 2 2 1.23 0.51
6 2 2 0.69 0.44
6 2 2 0.5 0.5
-6 -2 -2 -0.08 0.42
-6 -2 -2 0.22 0.53
-6 -2 -2 -0.11 0.55
6 1 2 -0.46 0.47
6 1 2 0.07 0.5
6 1 2 -0.03 0.49
6 1 2 0.32 0.47
-6 -1 -2 0.76 0.42
-6 -1 -2 0.4 0.53
-6 -1 -2 0.88 0.59
-6 -1 -2 -0.08 0.44
6 0 2 0.78 0.52
6 0 2 -0.29 0.59
6 0 2 0.26 0.56
6 0 2 -0.37 0.59
6 0 2 -0.04 0.44
6 0 2 -0.22 0.56
-6 0 -2 0.58 0.48
-6 0 -2 -0.22 0.39
-6 0 -2 -0.67 0.65
-6 0 -2 0.34 0.47
6 -1 2 -0.15 0.56
6 -1 2 -0.08 0.43
6 -1 2 0.12 0.56
6 -1 2 0.39 0.54
6 -1 2 0.41 0.68
6 -1 2 0.66 0.69
-6 1 -2 0.8 0.45
-6 1 -2 0.29 0.66
-6 1 -2 0 0.56
-6 1 -2 1.16 0.55
-6 1 -2 0.66 0.57
6 -2 2 0.54 0.66
6 -2 2 0.46 0.5
6 -2 2 -0.58 0.68
6 -2 2 0.94 0.66
6 -2 2 0.29 0.6
-6 2 -2 -0.37 0.57
-6 2 -2 -0.31 0.64
-6 2 -2 1.02 0.63
6 -3 2 0.56 0.79
6 -3 2 0.61 0.55
6 -3 2 -0.33 0.49
6 -3 2 -0.35 0.82
6 -3 2 0.54 0.62
-6 3 -2 0.34 0.64
-6 3 -2 -0.07 0.69
-6 3 -2 0.2 0.73
-6 3 -2 -0.46 0.71
6 -4 2 39.47 2.18
6 -4 2 40.1 1.48
6 -4 2 41.2 2.45
-6 4 -2 39.44 2.23
-6 4 -2 38.84 2.26
6 -5 2 3.45 1.23
-6 5 -2 2.85 1.05
6 -6 2 5.74 1.45
-6 6 -2 7.97 1.49
5 6 2 2.72 0.58
5 6 2 1.66 0.52
-5 -6 -2 2.26 1.07
5 5 2 5.3 0.58
5 5 2 5.35 0.61
5 5 2 5.63 0.6
-5 -5 -2 5.75 1.3
5 4 2 13.96 0.85
5 4 2 14.95 0.81
5 4 2 13.99 0.81
-5 -4 -2 11.83 1.46
5 3 2 9.51 0.73
5 3 2 9.88 0.76
5 3 2 10.63 0.74
-5 -3 -2 9.76 0.74
-5 -3 -2 7.98 1.11
5 2 2 101.13 2.6
5 2 2 105.85 2.58
5 2 2 103.55 2.56
5 2 2 105.97 2.61
-5 -2 -2 105.82 3.32
-5 -2 -2 104 2.7
-5 -2 -2 106.3 2.69
5 1 2 18.19 1.1
5 1 2 18.09 1.08
5 1 2 18.09 1.33
5 1 2 20.3 1.22
5 1 2 18.2 0.9
5 1 2 16.91 1.16
5 1 2 20.11 1.59
-5 -1 -2 19.41 1.25
-5 -1 -2 19.29 0.99
-5 -1 -2 20.17 1.28
-5 -1 -2 18.24 0.93
5 0 2 1.16 0.7
5 0 2 1.36 0.67
5 0 2 1.68 0.71
5 0 2 2.12 0.66
5 0 2 2.41 0.56
5 0 2 1.19 0.57
-5 0 -2 1.35 0.78
-5 0 -2 1.48 0.48
-5 0 -2 1.81 0.55
5 -1 2 16.48 1.21
5 -1 2 19.76 1.58
5 -1 2 16.82 1.31
5 -1 2 16.99 1.26
5 -1 2 19.95 1.44
5 -1 2 17.75 1.01
-5 1 -2 18.88 1.33
-5 1 -2 17.62 1.07
-5 1 -2 20.75 1.29
-5 1 -2 19.13 1.35
5 -2 2 102.78 3.31
5 -2 2 104.42 3.2
5 -2 2 101.38 2.59
5 -2 2 98.07 3.04
5 -2 2 104.9 2.95
-5 2 -2 102.95 3.12
-5 2 -2 102.72 2.71
-5 2 -2 101.88 3.14
-5 2 -2 102.85 3.18
5 -3 2 9.48 0.8
5 -3 2 8.02 0.81
5 -3 2 8.06 1.11
5 -3 2 9.49 1.29
-5 3 -2 8.04 1.09
-5 3 -2 11.56 1.04
-5 3 -2 9.65 1.18
-5 3 -2 8.49 1.11
5 -4 2 13.23 0.75
5 -4 2 12.92 0.74
5 -4 2 12.44 1.52
5 -4 2 12.87 1.39
-5 4 -2 14.36 1.31
-5 4 -2 15.02 1.52
-5 4 -2 15.15 1.07
-5 4 -2 14.59 1.54
5 -5 2 6.65 1.35
-5 5 -2 5.87 1.23
5 -6 2 1.94 1.12
-5 6 -2 1.51 1.03
4 6 2 1.95 0.6
4 6 2 1.75 0.54
-4 -6 -2 1.88 1.07
4 5 2 9.98 0.76
4 5 2 10.11 0.75
-4 -5 -2 8.9 1.43
4 4 2 10.94 0.69
4 4 2 10.98 0.72
4 4 2 11.7 0.71
-4 -4 -2 11.44 1.38
4 3 2 3.56 0.41
4 3 2 2.62 0.45
4 3 2 2.76 0.41
-4 -3 -2 2.77 0.41
-4 -3 -2 2.81 0.44
-4 -3 -2 3.1 0.79
4 2 2 28.13 1.05
4 2 2 26.77 1.07
4 2 2 26.2 1.05
4 2 2 24.79 1.68
4 2 2 26.74 1.07
-4 -2 -2 28.82 1.15
-4 -2 -2 28.79 1.17
4 1 2 45.25 1.62
4 1 2 44.44 1.52
4 1 2 46.21 2.07
4 1 2 46.83 1.53
4 1 2 46.94 1.8
4 1 2 45.78 1.58
4 1 2 45.47 1.21
-4 -1 -2 47.75 1.65
-4 -1 -2 46.6 1.83
-4 -1 -2 46.39 1.68
-4 -1 -2 45.19 1.44
-4 -1 -2 45.25 1.35
-4 -1 -2 45.68 1.34
4 0 2 7.33 0.93
4 0 2 8.08 0.84
4 0 2 8.79 0.71
4 0 2 7.3 0.79
4 0 2 8.75 0.8
4 0 2 6.68 0.83
-4 0 -2 8.48 0.79
-4 0 -2 8.04 0.65
4 -1 2 44.67 1.76
4 -1 2 45.53 1.77
4 -1 2 44.61 1.47
4 -1 2 46.91 1.84
4 -1 2 48.34 1.94
4 -1 2 46.45 2.01
-4 1 -2 45.4 1.76
-4 1 -2 46.13 1.82
-4 1 -2 45.74 1.55
-4 1 -2 48.07 1.87
4 -2 2 27.44 1.24
4 -2 2 27.34 1.19
4 -2 2 27.34 1.64
4 -2 2 28.75 1.48
4 -2 2 29.21 1.5
-4 2 -2 26.26 1.55
-4 2 -2 26.25 1.53
-4 2 -2 25.03 1.43
-4 2 -2 27.3 1.28
4 -3 2 2.92 0.72
4 -3 2 3.05 0.52
4 -3 2 3.54 0.86
4 -3 2 2.79 0.7
-4 3 -2 3.89 0.8
-4 3 -2 2.41 0.72
-4 3 -2 3.81 0.71
-4 3 -2 3.3 0.73
4 -4 2 8.87 1.1
4 -4 2 11.07 1.41
-4 4 -2 7.59 1.15
-4 4 -2 12.83 1.15
-4 4 -2 10.43 1.24
-4 4 -2 10.01 1.24
-4 4 -2 9.31 0.94
4 -5 2 9.73 1.39
-4 5 -2 8.74 1.31
4 -6 2 3.07 1.14
-4 6 -2 1.1 0.97
3 7 2 1.76 0.67
3 6 2 5.02 0.74
3 6 2 6.44 0.83
-3 -6 -2 4.35 1.19
3 5 2 19.85 1.03
3 5 2 19.58 0.99
3 5 2 20.18 1.09
-3 -5 -2 19.43 1.9
3 4 2 27.55 1.02
3 4 2 28.21 1.02
3 4 2 26.23 1.01
-3 -4 -2 25.36 1.75
-3 -4 -2 27.14 0.95
-3 -4 -2 25.84 0.93
3 3 2 23.26 0.82
3 3 2 24.67 0.81
3 3 2 24.2 1.57
-3 -3 -2 22.98 0.93
-3 -3 -2 24.03 0.91
-3 -3 -2 21.3 1.49
3 2 2 108.1 2.39
3 2 2 107.94 2.38
3 2 2 110.86 2.4
3 2 2 109.05 2.39
3 2 2 110.26 3.14
3 2 2 107.53 3.3
-3 -2 -2 105.4 2.5
-3 -2 -2 113.53 3.2
3 1 2 51.01 1.11
3 1 2 50.44 1.49
3 1 2 50.58 1.47
3 1 2 50.74 1.52
3 1 2 54.25 1.81
3 1 2 54.61 1.57
3 1 2 52.06 2.01
-3 -1 -2 52.32 1.6
-3 -1 -2 52.5 1.33
-3 -1 -2 51.64 1.41
-3 -1 -2 51.18 1.82
-3 -1 -2 54.61 1.61
3 0 2 9.56 0.89
3 0 2 10.27 0.69
3 0 2 9.63 0.74
3 0 2 9.73 0.76
3 0 2 7.75 0.72
3 0 2 9.32 0.78
-3 0 -2 9.94 0.76
-3 0 -2 10.1 0.68
-3 0 -2 10.72 0.84
3 -1 2 51.85 1.85
3 -1 2 52.01 1.75
3 -1 2 50.22 1.81
3 -1 2 52.11 1.77
3 -1 2 53.72 1.77
-3 1 -2 48.97 1.74
-3 1 -2 50.28 1.72
-3 1 -2 51.54 1.81
-3 1 -2 51.58 1.49
3 -2 2 105.27 2.62
3 -2 2 103.12 2.86
3 -2 2 113.42 3.19
3 -2 2 108.07 2.44
-3 2 -2 110.2 3.04
-3 2 -2 111.47 2.63
-3 2 -2 110.38 3.06
-3 2 -2 107.72 2.94
3 -3 2 23.76 1.58
3 -3 2 23.48 1.27
3 -3 2 23.98 1.36
3 -3 2 24.17 0.83
3 -3 2 23.71 0.82
-3 3 -2 25.75 1.5
-3 3 -2 24.27 1.2
-3 3 -2 24.38 1.46
-3 3 -2 23.66 1.38
3 -4 2 25.88 1.79
3 -4 2 26.25 1.5
-3 4 -2 26.19 1.56
-3 4 -2 25.62 1.45
-3 4 -2 28.43 1.43
-3 4 -2 26.18 1.73
-3 4 -2 25.04 1.63
3 -5 2 20.84 1.78
-3 5 -2 17.53 1.6
-3 5 -2 19.95 1.64
3 -6 2 7.33 1.29
-3 6 -2 5.48 1.13
3 -7 2 2.31 1.08
-3 7 -2 0.22 0.89
2 7 2 0.99 0.65
2 6 2 9.08 0.95
2 6 2 10.07 1.04
2 5 2 37.02 1.45
2 5 2 35.88 1.47
2 5 2 37.78 1.56
-2 -5 -2 34.46 2.19
-2 -5 -2 36.39 1.33
2 4 2 112.36 3.48
2 4 2 109.23 2.6
2 4 2 112 2.6
2 4 2 110.03 2.59
-2 -4 -2 103.52 3.57
-2 -4 -2 107.19 2.54
-2 -4 -2 108.27 2.53
2 3 2 22.1 0.84
2 3 2 24.32 1.42
2 3 2 22.73 0.89
2 3 2 23.48 0.85
-2 -3 -2 23.76 0.96
-2 -3 -2 20.4 1.39
2 2 2 9.84 0.59
2 2 2 9.04 0.94
2 2 2 9.77 0.59
2 2 2 9.8 0.67
2 2 2 9.7 0.91
-2 -2 -2 10.17 0.99
-2 -2 -2 8.31 0.61
2 1 2 46.09 1.26
2 1 2 46.28 1.27
2 1 2 45.72 1.35
2 1 2 45.56 1.29
2 1 2 44.64 1.58
2 1 2 55.51 1.39
-2 -1 -2 46.17 1.37
-2 -1 -2 47.49 1.37
-2 -1 -2 45.89 1.61
-2 -1 -2 46.05 1.13
-2 -1 -2 47.59 1.13
2 0 2 138.4 3.11
2 0 2 142.49 3.05
2 0 2 140 3.14
2 0 2 140.24 3.08
2 0 2 143.77 3.44
2 0 2 143.15 2.74
-2 0 -2 135.65 3.16
-2 0 -2 137.38 3.07
-2 0 -2 142.55 3.15
-2 0 -2 145.75 2.71
2 -1 2 46.99 1.52
2 -1 2 47.43 1.56
2 -1 2 45.73 1.42
2 -1 2 45.45 1.51
2 -1 2 47.11 1.59
-2 1 -2 44.06 1.48
-2 1 -2 44.43 1.53
-2 1 -2 47.21 1.34
-2 1 -2 45.03 1.48
2 -2 2 8.33 0.92
2 -2 2 8.43 0.84
2 -2 2 8.33 0.63
2 -2 2 8.36 0.54
2 -2 2 10.27 0.87
-2 2 -2 9.05 0.88
-2 2 -2 8.05 0.85
-2 2 -2 9.76 0.74
-2 2 -2 7.58 0.79
2 -3 2 22.94 1.22
2 -3 2 23.15 1.2
2 -3 2 21.17 1.43
-2 3 -2 19.2 1.19
-2 3 -2 24.04 1.36
-2 3 -2 23.67 1.33
-2 3 -2 23.97 1.27
-2 3 -2 24.48 1.11
2 -4 2 104 2.84
2 -4 2 106.81 3.3
-2 4 -2 106.64 2.69
-2 4 -2 111.45 3.3
-2 4 -2 109.48 3.25
-2 4 -2 106.06 3.15
2 -5 2 35.65 2.01
2 -5 2 37.08 1.5
-2 5 -2 37.54 1.95
-2 5 -2 37.49 2.06
2 -6 2 11.25 1.42
-2 6 -2 9.08 1.28
2 -7 2 1.03 0.96
-2 7 -2 1.13 0.92
1 7 2 3.32 0.88
1 6 2 7.47 0.97
1 6 2 10.19 1.11
-1 -6 -2 9.78 0.93
1 5 2 2.73 0.66
1 5 2 3.57 0.7
1 5 2 3.24 0.69
-1 -5 -2 2.62 0.65
-1 -5 -2 4.23 0.96
1 4 2 18.2 1.33
1 4 2 14.92 0.97
1 4 2 16.99 0.97
1 4 2 16.9 1.05
-1 -4 -2 20.59 1.5
-1 -4 -2 16.63 1.07
1 3 2 3.17 0.52
1 3 2 3.72 0.48
1 3 2 3.28 0.47
1 3 2 4.87 0.79
1 3 2 3.33 0.71
-1 -3 -2 2.7 0.66
-1 -3 -2 2.98 0.51
1 2 2 4.12 0.41
1 2 2 4.51 0.63
1 2 2 3.94 0.46
1 2 2 4.16 0.41
1 2 2 4.35 0.44
-1 -2 -2 2.85 0.61
-1 -2 -2 3.99 0.49
1 1 2 167.33 3.34
1 1 2 167.94 3.38
1 1 2 164.39 3.31
1 1 2 169.65 3.39
1 1 2 165.32 3.7
-1 -1 -2 165.95 3.2
-1 -1 -2 164.15 3.21
-1 -1 -2 163.41 3.7
-1 -1 -2 168.36 3.38
-1 -1 -2 165.24 3.4
1 0 2 94.84 2.21
1 0 2 96.68 1.91
1 0 2 96.25 2.12
1 0 2 96.08 2.19
1 0 2 96.11 2.15
1 0 2 98.25 2.23
-1 0 -2 95.98 1.89
-1 0 -2 96.46 2.17
-1 0 -2 97.66 2.21
-1 0 -2 99.05 2.12
-1 0 -2 94.98 2.22
1 -1 2 163.89 3.47
1 -1 2 165.88 3.06
1 -1 2 161.24 3.58
1 -1 2 163.53 3.4
-1 1 -2 163.09 3.53
-1 1 -2 164.02 3.51
-1 1 -2 167.84 3.12
-1 1 -2 162.51 3.58
-1 1 -2 169.41 3.46
1 -2 2 4.83 0.6
1 -2 2 4.21 0.54
1 -2 2 3.74 0.63
-1 2 -2 4.15 0.59
-1 2 -2 3.77 0.61
-1 2 -2 5.06 0.49
-1 2 -2 3.91 0.58
1 -3 2 3.26 0.57
1 -3 2 3.89 0.69
-1 3 -2 2.98 0.63
-1 3 -2 3.72 0.65
-1 3 -2 3.84 0.51
-1 3 -2 4.06 0.67
-1 3 -2 2.66 0.64
1 -4 2 17.6 0.93
1 -4 2 14.79 1.22
-1 4 -2 16.55 1.19
-1 4 -2 14.98 1.23
-1 4 -2 17.24 1.2
-1 4 -2 18.54 1.18
1 -5 2 1.61 0.78
1 -5 2 2.91 0.44
-1 5 -2 4.13 0.88
-1 5 -2 3.71 0.81
-1 5 -2 2.01 0.76
1 -6 2 8.08 1.17
-1 6 -2 9.32 1.2
1 -7 2 4.23 1.07
-1 7 -2 4.62 1.05
0 7 2 0.94 0.8
0 -7 -2 -0.69 0.63
0 6 2 7.62 1.03
0 -6 -2 9.76 1.09
0 5 2 21.46 1.49
0 5 2 18.64 1.24
0 5 2 15.64 1.24
0 -5 -2 16.6 1.29
0 -5 -2 21.45 1.62
0 4 2 57.86 1.93
0 4 2 57.48 2.01
0 4 2 54.86 1.85
0 4 2 56.18 1.9
0 -4 -2 60.27 1.95
0 -4 -2 56.85 2.3
0 -4 -2 55.07 1.92
0 3 2 10.15 0.97
0 3 2 8.63 0.73
0 3 2 9.04 0.76
0 3 2 8.37 0.71
0 -3 -2 9.71 0.81
0 -3 -2 10.6 0.81
0 -3 -2 8.62 0.89
0 2 2 0.1 0.34
0 2 2 0.28 0.36
0 2 2 0.01 0.38
0 2 2 -0.2 0.32
0 2 2 -0.06 0.39
0 -2 -2 -0.21 0.37
0 -2 -2 0.61 0.42
0 -2 -2 0.45 0.38
0 -2 -2 -0.11 0.3
0 1 2 86.49 1.91
0 1 2 87.41 2.01
0 1 2 87.52 2.09
0 1 2 86.03 1.92
0 1 2 87.88 2
0 1 2 85.8 1.94
0 -1 -2 87.84 2
0 -1 -2 84.88 2.01
0 -1 -2 84.48 1.87
0 -1 -2 84.99 2.09
0 -1 -2 84.88 1.87
0 0 2 68.82 1.52
0 0 2 69.02 1.55
0 0 2 70.79 1.6
0 0 2 68.22 1.57
0 0 2 66.24 1.36
0 0 2 69.47 1.58
0 0 -2 67.8 1.56
0 0 -2 67.97 1.57
0 0 -2 67.3 1.55
0 0 -2 66.61 1.36
0 0 -2 68.46 1.59
0 0 -2 69.38 1.53
0 -1 2 88.38 2.04
0 -1 2 84.39 1.94
0 -1 2 88.59 1.92
0 -1 2 87.51 1.92
0 -1 2 90.75 1.54
0 -1 2 86.87 2.04
0 -1 2 85.75 1.53
0 1 -2 88.59 2.05
0 1 -2 86.06 1.67
0 1 -2 86.31 1.95
0 1 -2 85.51 1.96
0 1 -2 84.87 1.66
0 1 -2 88.12 2.04
0 1 -2 88.41 2.01
0 -2 2 -0.01 0.25
0 -2 2 0.44 0.38
0 -2 2 0.12 0.26
0 -2 2 -0.12 0.4
0 2 -2 0.58 0.41
0 2 -2 0.16 0.36
0 2 -2 -0.11 0.19
0 2 -2 -0.14 0.39
0 2 -2 0.01 0.34
0 2 -2 0.23 0.2
0 -3 2 8.4 0.8
0 -3 2 9.32 0.62
0 3 -2 8.93 0.75
0 3 -2 8.29 0.48
0 3 -2 9.93 0.98
0 3 -2 9.21 0.8
0 3 -2 8.2 0.75
0 3 -2 10.99 0.84
0 -4 2 53.75 1.95
0 4 -2 57.05 1.83
0 4 -2 56.52 1.91
0 4 -2 52.08 1.85
0 4 -2 56.06 1.88
0 -5 2 17.04 1.32
0 5 -2 19.47 1.41
0 5 -2 18.98 1.27
0 5 -2 20.03 1.29
0 -6 2 9.41 1.1
0 6 -2 7.16 1.07
0 -7 2 0.34 0.73
0 7 -2 -0.45 0.65
-1 7 2 5.51 1.1
1 -7 -2 7.35 1.19
-1 6 2 4.09 0.93
1 -6 -2 5 1.01
-1 5 2 8.89 1.05
-1 5 2 7.22 1
-1 5 2 6.38 0.99
1 -5 -2 7.77 1.03
-1 4 2 21.13 1.34
-1 4 2 21.5 1.31
-1 4 2 24.49 1.31
-1 4 2 19.35 1.12
1 -4 -2 22.29 1.38
1 -4 -2 21.08 1.33
1 -4 -2 21.26 1.37
1 -4 -2 21.03 0.92
-1 3 2 13.18 1.07
-1 3 2 12.5 0.92
-1 3 2 14.11 0.69
-1 3 2 13.33 1.03
-1 3 2 13.4 1.01
1 -3 -2 13.84 1.12
1 -3 -2 13.72 0.83
1 -3 -2 13.49 1.04
1 -3 -2 13.36 1.07
-1 2 2 60.78 1.39
-1 2 2 60.26 1.74
-1 2 2 63.43 1.79
-1 2 2 62.26 1.74
-1 2 2 60.96 1.77
1 -2 -2 61.82 1.62
1 -2 -2 63.54 1.8
1 -2 -2 62.34 1.66
1 -2 -2 61.69 1.82
1 -2 -2 60.58 1.84
-1 1 2 112.87 2.55
-1 1 2 112.29 2.45
-1 1 2 114.67 2.51
-1 1 2 110.44 2.53
-1 1 2 111.98 2.49
-1 1 2 111.38 2.16
1 -1 -2 110.72 2.43
1 -1 -2 110.85 2.53
1 -1 -2 110.22 2.42
1 -1 -2 112.67 2.55
1 -1 -2 110.2 2.44
1 -1 -2 111.92 2.1
-1 0 2 103.66 2.21
-1 0 2 102.91 1.94
-1 0 2 105.59 2.23
-1 0 2 101.71 2.17
1 0 -2 105.68 2.16
1 0 -2 101.64 2.19
1 0 -2 104.92 1.95
1 0 -2 106.89 2.22
1 0 -2 103.99 2.23
1 0 -2 104.43 2.19
-1 -1 2 113.72 2.2
-1 -1 2 110.62 2.14
-1 -1 2 111.6 2.18
-1 -1 2 109.76 2.13
-1 -1 2 114.96 2.36
-1 -1 2 111.18 2.6
-1 -1 2 111.44 2.34
1 1 -2 113.76 2.25
1 1 -2 107.94 2.27
1 1 -2 109.77 2.25
1 1 -2 113.14 2.34
1 1 -2 113.79 2.27
1 1 -2 112.36 2.35
-1 -2 2 60.74 1.6
-1 -2 2 62.64 1.74
1 2 -2 64.47 1.56
1 2 -2 65.22 1.5
1 2 -2 62.61 1.54
1 2 -2 61.48 1.72
1 2 -2 62.39 1.99
1 2 -2 62.41 1.46
1 2 -2 62.83 1.49
-1 -3 2 12.49 0.87
1 3 -2 13.35 1.1
1 3 -2 14.03 0.83
1 3 -2 13.28 0.83
1 3 -2 13.27 0.77
1 3 -2 13.76 0.81
1 3 -2 13.81 0.76
-1 -4 2 21.17 1.12
1 4 -2 20.54 1.08
1 4 -2 20.19 1.03
1 4 -2 20.62 0.92
1 4 -2 19.85 1.05
1 4 -2 19.01 0.99
-1 -5 2 9.18 0.89
1 5 -2 7.02 0.83
1 5 -2 8.06 0.88
1 5 -2 7.3 0.84
-1 -6 2 4.84 0.8
1 6 -2 4.26 0.88
1 6 -2 4.51 0.84
1 7 -2 4.06 0.92
-2 7 2 4.57 1.09
2 -7 -2 3.53 1.06
-2 6 2 0.8 0.8
2 -6 -2 0.2 0.78
-2 5 2 5.46 0.98
-2 5 2 4.32 0.95
-2 5 2 4.8 0.91
2 -5 -2 6.85 1.07
2 -5 -2 4.86 0.66
-2 4 2 5.93 0.68
-2 4 2 5.22 0.77
-2 4 2 4.28 0.8
-2 4 2 4.6 0.81
-2 4 2 4.92 0.83
2 -4 -2 5.14 0.9
2 -4 -2 5.4 0.71
2 -4 -2 5.54 0.84
-2 3 2 26.97 1.38
-2 3 2 26.23 1.41
-2 3 2 26.52 1.24
-2 3 2 26.39 1.08
-2 3 2 24.22 1.29
2 -3 -2 26.71 1.24
2 -3 -2 26.07 1.47
2 -3 -2 28.53 1.27
2 -3 -2 26.69 1.18
2 -3 -2 28.31 1.5
-2 2 2 26.35 1.27
-2 2 2 30.37 1.32
-2 2 2 26.4 1.04
-2 2 2 29.44 1.05
-2 2 2 27.67 1.21
2 -2 -2 27.37 1.35
2 -2 -2 27.63 1.21
2 -2 -2 28.39 0.83
2 -2 -2 27.19 1.16
2 -2 -2 28.29 1.03
2 -2 -2 31.11 1.44
-2 1 2 301.6 5.85
-2 1 2 292.48 6.03
-2 1 2 301.97 5.38
-2 1 2 296.53 6.03
-2 1 2 307.63 6.04
-2 1 2 297.81 6.01
2 -1 -2 306.8 5.37
2 -1 -2 303.74 6.06
2 -1 -2 296.9 5.97
2 -1 -2 296.78 5.76
2 -1 -2 305.58 5.85
2 -1 -2 303 6.08
-2 0 2 35.96 1.15
-2 0 2 36.6 1.14
-2 0 2 36.82 0.92
-2 0 2 36.06 1.31
-2 0 2 36.56 1.07
2 0 -2 36.86 0.93
2 0 -2 38.48 1.11
2 0 -2 36.18 1.12
2 0 -2 35.73 1.13
2 0 -2 35.82 1.12
2 0 -2 36.33 1.14
-2 -1 2 310.1 5.41
-2 -1 2 303.9 5.73
-2 -1 2 305.18 5.4
-2 -1 2 301.45 6.47
2 1 -2 300.41 5.71
2 1 -2 311.86 5.53
2 1 -2 300.44 6.46
2 1 -2 297.96 5.62
2 1 -2 292.69 6.23
2 1 -2 296.61 5.69
2 1 -2 306.25 5.63
-2 -2 2 26.47 0.86
-2 -2 2 28.59 1.29
2 2 -2 26.34 1.23
2 2 -2 27.17 0.74
2 2 -2 27.42 0.77
2 2 -2 27.4 1.31
2 2 -2 28.41 0.73
-2 -3 2 24.63 0.89
-2 -3 2 25.93 1.27
2 3 -2 25.8 0.86
2 3 -2 24.34 0.74
2 3 -2 25.85 0.78
2 3 -2 25.52 1.28
-2 -4 2 5.88 0.55
2 4 -2 4.71 0.55
2 4 -2 4.64 0.72
2 4 -2 3.71 0.49
2 4 -2 5.2 0.55
-2 -5 2 4.88 0.59
2 5 -2 3.74 0.62
2 5 -2 5.26 0.67
2 5 -2 4.93 0.69
-2 -6 2 0.31 0.46
2 6 -2 -0.68 0.5
2 6 -2 0.32 0.6
2 7 -2 4.51 0.85
-3 7 2 -0.26 0.77
3 -7 -2 0.43 0.94
-3 6 2 9.29 1.34
3 -6 -2 10.93 1.44
-3 5 2 3.01 0.91
-3 5 2 2.88 0.89
3 -5 -2 2.21 0.93
3 -5 -2 2.31 0.71
-3 4 2 15.61 1.1
-3 4 2 11.42 1.17
-3 4 2 14.56 1.27
-3 4 2 14.19 1.07
-3 4 2 15.91 0.93
-3 4 2 13.95 1.27
3 -4 -2 13.75 1.36
3 -4 -2 13.26 1.05
-3 3 2 30.27 1.54
-3 3 2 27.26 1.15
-3 3 2 26.9 1.39
-3 3 2 28.24 1.19
-3 3 2 30.7 1.56
3 -3 -2 25.64 1.34
3 -3 -2 28.97 1.4
3 -3 -2 27.83 1.6
-3 2 2 49.65 1.3
-3 2 2 51.31 1.87
-3 2 2 51.17 1.84
-3 2 2 50.38 1.54
-3 2 2 48.81 1.86
3 -2 -2 50.56 1.43
3 -2 -2 51.15 1.99
3 -2 -2 50.12 1.75
-3 1 2 187.21 3.64
-3 1 2 183.16 4.03
-3 1 2 188.57 4.13
-3 1 2 189.5 4.14
-3 1 2 184.22 4.3
3 -1 -2 190.47 4.13
3 -1 -2 186.79 4.03
3 -1 -2 182.68 4.17
3 -1 -2 188.54 4.14
-3 0 2 930.72 18.93
-3 0 2 948.02 17.49
-3 0 2 953.18 15.76
-3 0 2 940.36 17.43
-3 0 2 921.31 17.48
3 0 -2 940.06 17.49
3 0 -2 1000 17.49
3 0 -2 936.99 17.47
3 0 -2 944.11 15.82
3 0 -2 928.12 17.81
3 0 -2 929.87 17.48
3 0 -2 967.09 16.93
3 0 -2 929.04 18.91
-3 -1 2 188.97 3.86
-3 -1 2 190.32 4.55
-3 -1 2 196.44 3.58
-3 -1 2 189.84 3.86
-3 -1 2 191.32 4.31
3 1 -2 186.95 3.75
3 1 -2 182.17 4.5
3 1 -2 187.35 4.27
3 1 -2 198.62 3.72
3 1 -2 188.96 3.75
3 1 -2 188.93 3.82
3 1 -2 201.38 3.83
-3 -2 2 50.82 1.22
-3 -2 2 49.6 1.96
-3 -2 2 49.63 1.95
-3 -2 2 51.16 1.21
3 2 -2 50.73 1.92
3 2 -2 50.26 1.12
3 2 -2 50.62 1.92
3 2 -2 52.71 1.14
-3 -3 2 26.9 1.45
3 3 -2 26.81 1.44
3 3 -2 28.35 0.74
3 4 -2 14.69 1.25
3 4 -2 15.1 0.68
3 5 -2 2.3 0.49
3 5 -2 2.7 0.53
3 5 -2 2.98 0.49
3 6 -2 13.21 1.04
3 6 -2 12.49 0.99
3 7 -2 0.16 0.58
-4 7 2 2.85 1.12
4 -7 -2 1.82 1.11
-4 6 2 5.2 1.2
4 -6 -2 4.71 1.21
-4 5 2 8.31 1.25
4 -5 -2 6.02 1.21
-4 4 2 3.79 0.89
-4 4 2 4.33 0.63
-4 4 2 3.57 0.86
-4 4 2 5.19 0.66
-4 4 2 3.41 0.74
-4 4 2 3.51 0.9
4 -4 -2 6.01 1.08
4 -4 -2 3.19 0.82
-4 3 2 13.71 1.22
-4 3 2 14.27 0.77
-4 3 2 17.63 1.36
-4 3 2 14 0.94
-4 3 2 13.86 0.98
-4 3 2 15.58 1.3
4 -3 -2 16.29 1.39
4 -3 -2 13.24 1.16
4 -3 -2 14.19 1.15
4 -3 -2 14.77 0.78
-4 2 2 11.65 1.02
-4 2 2 11.75 0.87
-4 2 2 9.77 0.98
-4 2 2 11.52 1.09
-4 2 2 11.71 1.07
4 -2 -2 11.43 0.84
4 -2 -2 10.63 1.13
4 -2 -2 10.59 1.01
-4 1 2 76.82 2.41
-4 1 2 80.17 2.27
-4 1 2 77.45 2.24
-4 1 2 82.06 2.29
-4 1 2 73.57 1.94
4 -1 -2 77.85 2.27
4 -1 -2 74.94 2.42
4 -1 -2 73.81 1.94
4 -1 -2 79.11 2.27
-4 0 2 380.59 7.57
-4 0 2 377.92 8.28
-4 0 2 372.88 7.48
-4 0 2 388.34 6.61
-4 0 2 374.84 7.44
4 0 -2 376.84 7.48
4 0 -2 369.91 7.51
4 0 -2 383.83 7.52
4 0 -2 382.43 6.71
4 0 -2 374.17 7.56
4 0 -2 376.35 7.32
4 0 -2 373.38 8.26
-4 -1 2 76.18 1.58
-4 -1 2 74.83 2.54
-4 -1 2 79.49 1.79
-4 -1 2 78.29 2.03
-4 -1 2 78.12 2.02
-4 -1 2 77.93 2.29
4 1 -2 75.69 1.92
4 1 -2 77.56 1.99
4 1 -2 79.98 1.9
4 1 -2 81.47 1.93
4 1 -2 77.82 2.53
4 1 -2 79.55 2.27
-4 -2 2 12.01 1.11
-4 -2 2 13.86 1.23
4 2 -2 12.64 1.08
4 2 -2 12.47 1.2
4 2 -2 12.38 0.62
-4 -3 2 15.28 1.31
-4 -3 2 15.98 1.35
4 3 -2 16.15 1.28
4 4 -2 3.12 0.84
4 5 -2 7.07 0.54
4 6 -2 5.56 0.65
4 6 -2 6.84 0.74
4 7 -2 1.85 0.68
4 7 -2 1.47 0.57
-5 6 2 1.98 0.98
5 -6 -2 0.38 0.99
-5 5 2 11.66 1.49
5 -5 -2 12.99 1.61
-5 4 2 25.61 1.79
-5 4 2 27.19 1.93
-5 4 2 28.05 1.52
-5 4 2 26.79 1.13
-5 4 2 30.09 1.78
-5 4 2 26.4 1.26
5 -4 -2 25.4 1.64
5 -4 -2 23.75 1.9
-5 3 2 25.5 1.6
-5 3 2 22.61 1.53
-5 3 2 24.6 1.33
-5 3 2 25.27 1.55
-5 3 2 25.18 1.25
5 -3 -2 24.56 1.16
5 -3 -2 22.84 1.43
5 -3 -2 25.14 1.77
-5 2 2 5.09 0.84
-5 2 2 6.57 0.99
-5 2 2 5.54 0.75
-5 2 2 8.2 0.98
-5 2 2 6.99 0.88
5 -2 -2 7.77 1.06
5 -2 -2 7.93 0.98
5 -2 -2 8.36 0.97
5 -2 -2 6.3 0.73
-5 1 2 -0.35 0.58
-5 1 2 0.25 0.53
-5 1 2 -0.04 0.51
-5 1 2 0.28 0.64
-5 1 2 0.45 0.53
5 -1 -2 -0.75 0.57
5 -1 -2 0.51 0.62
5 -1 -2 -0.62 0.51
5 -1 -2 0.17 0.54
5 -1 -2 -0.03 0.67
5 -1 -2 -0.12 0.47
-5 0 2 0.61 0.4
-5 0 2 0 0.68
-5 0 2 1.13 0.6
-5 0 2 0.91 0.47
-5 0 2 1.27 0.42
5 0 -2 1.27 0.56
5 0 -2 0.76 0.37
5 0 -2 0.88 0.67
5 0 -2 0.85 0.59
5 0 -2 1.79 0.64
5 0 -2 1.18 0.43
5 0 -2 0.89 0.51
-5 -1 2 -0.39 0.45
-5 -1 2 0.38 0.77
-5 -1 2 0.03 0.41
-5 -1 2 0.06 0.47
-5 -1 2 -0.09 0.28
5 1 -2 0.3 0.41
5 1 -2 -0.47 0.45
5 1 -2 0.44 0.71
5 1 -2 -0.24 0.45
5 1 -2 -0.42 0.46
5 1 -2 -0.77 0.41
5 1 -2 -0.12 0.28
-5 -2 2 7.36 1.08
-5 -2 2 9.75 1.09
5 2 -2 7.71 1.12
5 2 -2 6.35 0.53
5 2 -2 7.24 0.53
5 2 -2 7.21 0.59
5 2 -2 7.68 0.53
-5 -3 2 24.71 1.65
-5 -3 2 25.5 1.7
5 3 -2 24.43 0.78
5 3 -2 20.71 1.63
-6 6 2 4 1.25
6 -6 -2 3.77 1.29
-6 5 2 1.23 0.94
6 -5 -2 2.23 1.06
-6 4 2 8.06 1.02
-6 4 2 7.74 1.22
-6 4 2 8.2 1.24
-6 4 2 7.8 0.89
6 -4 -2 8.07 0.73
6 -4 -2 7.25 1.32
6 -4 -2 7.04 1.14
-6 3 2 10.02 1.2
-6 3 2 10.51 1.06
-6 3 2 11.18 1.09
-6 3 2 13 1.36
-6 3 2 11.65 1.29
6 -3 -2 9.32 1.28
6 -3 -2 12.1 1.3
6 -3 -2 12.73 1
-6 2 2 7.12 0.98
-6 2 2 6.45 0.93
-6 2 2 5.91 0.79
-6 2 2 7.14 1.04
6 -2 -2 7.55 0.82
6 -2 -2 5.63 0.99
6 -2 -2 7.22 0.99
6 -2 -2 8.54 1.06
-6 1 2 31.83 1.33
-6 1 2 30.22 1.6
-6 1 2 33.63 1.83
-6 1 2 30.72 1.6
6 -1 -2 30.17 1.72
6 -1 -2 30.32 1.66
6 -1 -2 29.75 1.71
6 -1 -2 31.39 1.7
6 -1 -2 31.67 1.58
6 -1 -2 29.82 1.28
-6 0 2 56.93 2.4
-6 0 2 55.47 1.48
-6 0 2 57.1 1.75
-6 0 2 57.96 1.89
6 0 -2 51.71 2.02
6 0 -2 56.7 2.01
6 0 -2 53.94 2.12
6 0 -2 56.4 1.67
6 0 -2 56.29 1.74
6 0 -2 54.19 1.94
6 0 -2 57.01 2.38
-6 -1 2 31.45 1.53
-6 -1 2 29.81 1.85
-6 -1 2 31.92 1.52
-6 -1 2 31.93 1.21
6 1 -2 33.45 1.44
6 1 -2 30.63 1.44
6 1 -2 31.34 1.37
6 1 -2 32.69 1.53
6 1 -2 31.03 1.38
6 1 -2 30.82 1.9
6 1 -2 31.33 1.05
-6 -2 2 8.79 1.07
-6 -2 2 6.69 1.15
6 2 -2 7.75 0.71
6 2 -2 9.06 0.68
6 2 -2 8.74 0.7
6 2 -2 6.64 0.64
-6 -3 2 11.78 0.69
-6 -3 2 13.36 1.43
-6 -3 2 10.83 1.37
6 3 -2 11.41 0.62
6 3 -2 10.71 0.68
6 3 -2 10.48 0.67
-6 -4 2 6.28 1.26
-7 6 2 19.17 2.11
7 -6 -2 19.87 2.23
-7 5 2 1.99 1.06
7 -5 -2 3.72 1.26
-7 4 2 37.59 2.22
-7 4 2 40.64 1.77
-7 4 2 37.54 2.34
7 -4 -2 36.74 2.43
7 -4 -2 38.36 2.22
7 -4 -2 37.57 1.51
-7 3 2 23.87 1.83
-7 3 2 26.58 1.63
-7 3 2 23.7 1.47
-7 3 2 25.55 1.83
7 -3 -2 25.4 1.76
7 -3 -2 23.1 1.87
7 -3 -2 25.86 1.4
7 -3 -2 25.52 1.78
-7 2 2 32.43 1.53
-7 2 2 36.42 1.93
-7 2 2 34.69 1.87
-7 2 2 31.06 1.83
7 -2 -2 34.77 1.86
7 -2 -2 32.59 1.95
7 -2 -2 33.77 1.82
-7 1 2 11.09 1.12
-7 1 2 10.87 0.93
-7 1 2 11.68 1.29
-7 1 2 11.3 1.15
7 -1 -2 9.5 1.1
7 -1 -2 11.33 1.31
7 -1 -2 8.52 1.02
7 -1 -2 10.5 1.22
7 -1 -2 11.15 0.95
7 -1 -2 9.28 1.07
-7 0 2 14.09 1.46
-7 0 2 16.25 1
-7 0 2 15.36 1.14
-7 0 2 12.8 0.77
7 0 -2 13.08 0.95
7 0 -2 12.32 1.11
7 0 -2 14.91 1.22
7 0 -2 15.75 1.33
7 0 -2 13.67 0.95
7 0 -2 14.99 1.26
-7 -1 2 10.15 1.3
-7 -1 2 11.03 0.86
-7 -1 2 10.11 1.03
-7 -1 2 10.16 0.99
7 1 -2 8.42 0.92
7 1 -2 10.39 0.97
7 1 -2 11.85 1.02
7 1 -2 9.98 0.93
7 1 -2 9.67 0.95
-7 -2 2 35.26 1.88
-7 -2 2 35.66 2.26
-7 -2 2 35.51 1.48
7 2 -2 33.97 1.34
7 2 -2 31.19 1.34
7 2 -2 31.33 1.35
7 2 -2 33.77 1.4
-7 -3 2 21.97 1.97
-7 -3 2 27.05 1.11
-7 -3 2 28.18 1.9
7 3 -2 26.63 1.11
7 3 -2 24.54 1.14
7 3 -2 25.83 1.09
-7 -4 2 38.91 2.43
-7 -4 2 37.92 2.37
7 4 -2 37.77 1.17
7 4 -2 37.67 1.15
-8 6 2 13 1.92
8 -6 -2 10.72 1.88
-8 5 2 3.19 1.22
8 -5 -2 4.77 0.53
8 -5 -2 4.67 1.37
-8 4 2 24.72 1.63
-8 4 2 25.47 2.11
-8 4 2 24.97 1.97
8 -4 -2 24.28 1.38
8 -4 -2 23.8 2.24
8 -4 -2 23.87 1.88
-8 3 2 8.86 1.32
-8 3 2 8.53 1.29
-8 3 2 8.93 1.13
-8 3 2 10.42 1.26
8 -3 -2 11.95 1.44
8 -3 -2 11.29 1.42
8 -3 -2 12.12 1.63
8 -3 -2 9.13 1.05
-8 2 2 39.57 2.1
-8 2 2 37.06 2.03
-8 2 2 37.44 1.71
-8 2 2 40.29 2.09
8 -2 -2 40.5 2.36
8 -2 -2 38.95 2.09
-8 1 2 18.07 1.37
-8 1 2 19.51 1.44
-8 1 2 17.86 1.57
-8 1 2 17.58 1.13
8 -1 -2 19.59 1.6
8 -1 -2 19.27 1.56
8 -1 -2 20.36 1.66
8 -1 -2 19.16 1.69
8 -1 -2 19.61 1.19
-8 0 2 36.76 1.53
-8 0 2 40.18 1.72
-8 0 2 37.03 2.18
-8 0 2 35.83 1.16
8 0 -2 40.52 1.98
8 0 -2 37.16 1.53
8 0 -2 36.33 1.75
8 0 -2 33.36 1.86
8 0 -2 35.25 1.48
8 0 -2 37.57 1.78
-8 -1 2 20.99 1.81
-8 -1 2 19.22 1.37
-8 -1 2 19.84 1.11
8 1 -2 19.4 1.35
8 1 -2 18.66 1.41
8 1 -2 21.69 1.38
8 1 -2 19.08 1.28
-8 -2 2 38.86 1.74
-8 -2 2 39.83 0.98
-8 -2 2 36.59 2.37
-8 -2 2 37.8 2.03
8 2 -2 39.25 1.71
8 2 -2 40.32 1.67
8 2 -2 38.73 1.59
8 2 -2 39.17 1.64
-8 -3 2 12.04 1.5
-8 -3 2 7.36 1.48
8 3 -2 9.98 0.9
8 3 -2 10.8 0.9
8 3 -2 10.69 0.92
-8 -4 2 23.48 2.27
-8 -4 2 18.84 1.93
8 4 -2 24.09 1.1
8 4 -2 24.68 1.15
8 4 -2 25.18 1.11
-9 5 2 8.76 1.63
9 -5 -2 14.03 2.05
9 -5 -2 9.54 0.88
-9 4 2 12.69 1.7
-9 4 2 16.6 1.84
9 -4 -2 12.66 1.21
9 -4 -2 14.69 1.95
-9 3 2 10.94 1.42
-9 3 2 10.04 1.45
-9 3 2 12.55 1.58
-9 3 2 11.91 1.3
9 -3 -2 9.18 1.44
9 -3 -2 12.04 1.67
9 -3 -2 10.71 1.15
-9 2 2 25.9 1.52
-9 2 2 22.26 1.74
-9 2 2 26.81 1.85
-9 2 2 25.31 1.8
9 -2 -2 24.18 1.81
9 -2 -2 26.82 2.25
9 -2 -2 28.21 2.05
-9 1 2 10.15 1.44
-9 1 2 13.9 1.39
-9 1 2 12.13 1.03
9 -1 -2 12.92 1.18
9 -1 -2 12.56 1.47
9 -1 -2 13.48 1.53
9 -1 -2 14.6 1.47
9 -1 -2 12.54 1.4
-9 0 2 21.16 1.9
-9 0 2 25.82 1.39
-9 0 2 28.42 1.53
-9 0 2 27.15 0.94
9 0 -2 28.19 1.72
9 0 -2 25.81 1.77
9 0 -2 27.13 1.75
9 0 -2 28.13 1.44
9 0 -2 27.4 1.85
9 0 -2 26.67 1.42
-9 -1 2 11.62 1.65
-9 -1 2 13.03 1.04
-9 -1 2 11.77 1.21
9 1 -2 14.73 1.38
9 1 -2 14.64 1.31
9 1 -2 13.31 1.32
9 1 -2 15.26 1.35
-9 -2 2 19.76 2.08
-9 -2 2 23.47 0.89
-9 -2 2 23.54 1.71
9 2 -2 21.39 1.39
9 2 -2 22.98 1.45
9 2 -2 21.72 1.47
9 2 -2 24.54 1.46
-9 -3 2 8.46 1.35
-9 -3 2 10.53 1.71
9 3 -2 13.81 1.11
9 3 -2 11.87 1.09
9 3 -2 11.01 1.06
-9 -4 2 14.25 1.97
-9 -4 2 15.94 1.93
9 4 -2 15.45 1.09
9 4 -2 13.55 1.06
9 4 -2 15.77 1.09
9 5 -2 10.28 0.84
9 5 -2 12.09 0.91
10 -5 -2 6.53 0.89
10 -5 -2 7.33 1.8
10 -4 -2 20.36 2.34
-10 3 2 19.09 1.64
-10 3 2 21.23 1.87
-10 3 2 21.46 2.09
10 -3 -2 22.25 2.1
10 -3 -2 19.77 2.15
-10 2 2 8.76 1.12
-10 2 2 9.64 1.37
-10 2 2 7.76 1.44
10 -2 -2 8.9 1.56
10 -2 -2 10.1 1.46
10 -2 -2 8.6 1.39
-10 1 2 2.96 0.91
-10 1 2 2.13 0.7
-10 1 2 3.92 1.16
10 -1 -2 4.71 1.12
10 -1 -2 4.67 1.07
10 -1 -2 5.83 1.28
-10 0 2 1.97 0.65
-10 0 2 2.17 0.8
-10 0 2 4.27 1.32
-10 0 2 1.9 0.34
10 0 -2 3.6 0.98
10 0 -2 3.64 0.98
10 0 -2 2.04 0.95
-10 -1 2 6.45 1.45
-10 -1 2 4.84 0.83
-10 -1 2 5.59 0.98
10 1 -2 5.28 0.96
10 1 -2 4.88 0.96
10 1 -2 2.67 0.91
10 1 -2 5.6 1.07
-10 -2 2 5.22 1.46
-10 -2 2 7.9 0.68
-10 -2 2 7.41 1.2
10 2 -2 7.73 1.07
10 2 -2 8.26 1.15
10 2 -2 9.54 1.15
-10 -3 2 24.73 2.02
-10 -3 2 19.47 2.24
10 3 -2 19.55 1.43
10 3 -2 18.98 1.46
10 4 -2 23.13 1.42
10 4 -2 22 1.39
10 5 -2 8.72 0.91
10 5 -2 6.29 0.82
11 -4 -2 1.45 1.32
-11 3 2 3.56 1.27
-11 3 2 3.71 1.06
11 -3 -2 4.17 1.35
11 -3 -2 4.62 1.43
-11 2 2 -0.74 0.9
-11 2 2 1.02 0.8
11 -2 -2 1.62 1.12
11 -2 -2 2.66 1.09
11 -2 -2 0.46 1.09
-11 1 2 17.64 2.01
11 -1 -2 23.71 2.11
11 -1 -2 24 1.9
11 -1 -2 19.62 2.01
-11 0 2 0.19 0.57
-11 0 2 0.7 1.08
11 0 -2 1.84 1.01
11 0 -2 -0.8 0.78
-11 -1 2 19.9 1.67
11 1 -2 21.85 1.84
11 1 -2 22.47 1.86
-11 -2 2 1.27 0.49
-11 -2 2 0.73 0.83
-11 -2 2 1.24 1.21
11 2 -2 0.83 0.8
-11 -3 2 4.58 1.26
-11 -3 2 4.16 1.49
11 3 -2 3.83 0.92
11 4 -2 2.21 0.77
12 -4 -2 0.46 1.28
-12 3 2 0.24 1.07
-12 3 2 0.29 0.9
12 -3 -2 -1.53 1.05
-12 2 2 5.29 1.05
-12 2 2 5.61 1.5
12 -2 -2 5.36 1.35
12 -2 -2 5.85 1.55
-12 1 2 1.64 0.7
-12 1 2 2.44 1.27
12 -1 -2 1.47 1.05
12 -1 -2 1.72 1.15
-12 0 2 20.55 1.49
-12 0 2 18.34 2.24
12 0 -2 18.08 1.92
12 0 -2 19.19 1.97
-12 -1 2 0.71 1.24
-12 -1 2 2.23 0.9
12 1 -2 2.05 1
-12 -2 2 4.02 1.52
-12 -2 2 5.76 1.23
12 2 -2 5.16 1.18
-12 -3 2 1.58 1.03
-12 -3 2 1.47 1.38
12 3 -2 1.14 0.81
12 4 -2 2.1 0.8
-13 3 2 6.15 1.28
13 -3 -2 5.73 1.67
-13 2 2 5.74 1.07
-13 2 2 6.01 1.65
13 -2 -2 4.79 1.49
-13 1 2 7.77 1.78
-13 1 2 6.48 0.84
13 -1 -2 6.78 1.54
13 -1 -2 6.63 1.55
-13 0 2 14.99 2.17
13 0 -2 19.82 2.1
13 0 -2 22.99 2.27
-13 -1 2 6.67 1.24
-13 -1 2 7.27 1.78
13 1 -2 6.77 1.38
-13 -2 2 5.49 1.33
-13 -2 2 6.13 1.77
13 2 -2 5.74 1.27
-13 -3 2 7.29 1.9
13 3 -2 3.56 1.07
-14 2 2 3.33 0.95
-14 2 2 6.84 1.69
14 -2 -2 5.21 1.66
-14 1 2 4.73 0.6
-14 1 2 8.67 1.87
14 -1 -2 9.54 1.83
14 -1 -2 4.54 1.49
-14 0 2 8.36 1.88
14 0 -2 9.99 1.77
-14 -1 2 5.3 1.77
14 1 -2 8.92 1.66
14 2 -2 4.56 1.3
13 2 3 0.35 1
-13 -2 -3 1.01 1.04
-13 -2 -3 1.36 1.14
13 1 3 12.7 1.9
-13 -1 -3 8.24 1.44
-13 -1 -3 9.21 1.78
13 0 3 3.08 1.33
-13 0 -3 2.6 1.47
13 -1 3 9.43 1.86
13 -1 3 11.03 1.85
-13 1 -3 10.14 0.9
13 -2 3 1.25 1.42
-13 2 -3 1.35 0.95
12 3 3 4.49 1.15
-12 -3 -3 3.17 1.24
-12 -3 -3 4.43 1.13
12 2 3 9.14 1.55
-12 -2 -3 8.9 1.53
-12 -2 -3 7.83 1.47
12 1 3 20.15 2.12
-12 -1 -3 14.43 1.94
-12 -1 -3 15.61 1.82
12 0 3 8.17 1.6
12 0 3 11.29 1.76
-12 0 -3 9.79 1.37
-12 0 -3 8.15 1.67
12 -1 3 12.49 1.93
12 -1 3 18.09 2.15
-12 1 -3 14.36 1.14
12 -2 3 10.13 1.84
-12 2 -3 7.87 1.21
12 -3 3 4.43 1.65
-12 3 -3 2.56 1.14
11 4 3 4.17 1.05
-11 -4 -3 3.3 0.89
-11 -4 -3 5.78 1.51
11 3 3 8.38 1.29
-11 -3 -3 8.77 1.28
-11 -3 -3 8.2 1.5
11 2 3 4.45 1.16
-11 -2 -3 3.18 1.13
-11 -2 -3 4.57 1.21
11 1 3 29.74 2.3
-11 -1 -3 29.55 2.33
-11 -1 -3 31.07 2.13
11 0 3 27.38 2.35
11 0 3 31.51 2.4
-11 0 -3 28.21 1.91
11 -1 3 35.36 2.49
11 -1 3 32.25 2.53
-11 1 -3 30.11 1.82
-11 1 -3 32.3 1.56
11 -2 3 6.86 1.63
-11 2 -3 5.85 1.1
11 -3 3 6.57 1.64
-11 3 -3 10.89 1.49
11 -4 3 2.77 1.5
10 4 3 1.32 0.76
-10 -4 -3 1.56 1.09
-10 -4 -3 1.36 0.71
10 3 3 7.69 1.19
-10 -3 -3 5.51 1.27
-10 -3 -3 7.55 1.15
10 2 3 4.08 1.05
-10 -2 -3 4.93 1.14
-10 -2 -3 5.03 1.15
10 1 3 38.5 2.26
10 1 3 32.05 2.22
-10 -1 -3 36.91 2.4
-10 -1 -3 34.28 2.12
10 0 3 2.02 0.99
10 0 3 -0.04 0.87
-10 0 -3 0.28 0.65
-10 0 -3 0.02 0.31
10 -1 3 31.8 2.41
10 -1 3 34.58 2.18
10 -1 3 35.85 2.49
-10 1 -3 36.14 1.84
-10 1 -3 30.66 1.58
10 -2 3 2 1.03
10 -2 3 6.01 1.45
10 -2 3 3.96 1.18
-10 2 -3 3.31 0.92
10 -3 3 9.11 1.71
10 -3 3 8.59 1.6
-10 3 -3 6.54 1.22
10 -4 3 -0.32 1.14
9 5 3 2.65 0.76
-9 -5 -3 3.43 1.31
9 4 3 5.81 0.95
-9 -4 -3 4.69 1.29
-9 -4 -3 5.74 0.85
9 3 3 5.63 1.01
-9 -3 -3 7.42 1.07
-9 -3 -3 6.22 1.29
9 2 3 12.17 1.37
-9 -2 -3 12.01 1.51
-9 -2 -3 12.16 1.42
9 1 3 13.62 1.41
9 1 3 12.48 1.39
9 1 3 12.75 1.49
-9 -1 -3 9.57 1.27
-9 -1 -3 12.42 1.19
-9 -1 -3 11.06 1.46
9 0 3 5.32 1.16
9 0 3 3.7 1.06
9 0 3 3.66 1.06
-9 0 -3 3.78 0.54
-9 0 -3 4.75 0.92
9 -1 3 13.47 1.59
9 -1 3 13.25 1.51
9 -1 3 13.82 1.67
-9 1 -3 11.4 1.09
-9 1 -3 11.28 1.11
-9 1 -3 13.54 1.47
9 -2 3 13.84 1.78
9 -2 3 10.2 1.52
9 -2 3 11.08 1.49
-9 2 -3 10.9 1.5
-9 2 -3 12.95 1.09
-9 2 -3 11.02 1.28
9 -3 3 6.39 1.37
9 -3 3 6.81 1.5
-9 3 -3 5.63 1.3
-9 3 -3 4.63 1.09
9 -4 3 4.92 1.54
9 -5 3 3.32 0.73
9 -5 3 1.09 0.63
9 -5 3 0.3 1.21
8 5 3 9.15 0.98
8 5 3 8.13 0.94
-8 -5 -3 9.23 1.7
8 4 3 10.5 1.06
8 4 3 11.5 1.09
-8 -4 -3 8.16 1.46
-8 -4 -3 10.28 0.93
8 3 3 3.3 0.76
8 3 3 2.23 0.76
8 3 3 2.84 0.77
-8 -3 -3 2.09 0.76
-8 -3 -3 2.52 0.94
8 2 3 14.38 1.29
8 2 3 12.47 1.3
8 2 3 15.02 1.3
8 2 3 16.76 1.35
-8 -2 -3 18.05 1.47
-8 -2 -3 18.15 1.72
8 1 3 23.3 1.56
8 1 3 20.12 1.5
8 1 3 22.94 1.69
8 1 3 24.9 1.72
-8 -1 -3 18.72 1.55
-8 -1 -3 22.71 1.73
-8 -1 -3 21.65 1.35
8 0 3 -1.09 0.6
8 0 3 0.91 0.68
8 0 3 0.46 0.65
8 0 3 -0.51 0.67
8 0 3 0.54 0.59
-8 0 -3 0.11 0.44
-8 0 -3 0.44 0.58
-8 0 -3 -0.75 0.49
8 -1 3 21.47 1.78
8 -1 3 25.65 2.02
8 -1 3 23.11 1.96
8 -1 3 19.46 1.34
-8 1 -3 21.72 1.37
-8 1 -3 22 1.63
-8 1 -3 20.78 1.57
-8 1 -3 22.36 1.33
8 -2 3 17.28 1.68
8 -2 3 20.69 1.89
8 -2 3 15.21 1.81
-8 2 -3 14.12 1.3
-8 2 -3 17.2 1.16
-8 2 -3 18.07 1.7
-8 2 -3 16.78 1.72
8 -3 3 3.21 0.8
8 -3 3 3.49 1.06
8 -3 3 3.74 1.26
-8 3 -3 3.05 1.05
-8 3 -3 3.86 0.92
-8 3 -3 3.47 1.12
8 -4 3 9.67 1.06
8 -4 3 13.27 1.9
-8 4 -3 8.33 1.46
-8 4 -3 11.71 1.68
8 -5 3 8.86 0.78
8 -5 3 7.72 0.71
8 -5 3 6.7 1.67
-8 5 -3 9.11 1.59
7 6 3 0.7 0.54
7 6 3 0.06 0.52
-7 -6 -3 -0.44 0.97
7 5 3 7.46 0.85
7 5 3 8.57 0.88
-7 -5 -3 6.68 1.46
7 4 3 7.28 0.86
7 4 3 7.48 0.89
7 4 3 7.07 0.84
-7 -4 -3 5.75 1.25
-7 -4 -3 7.32 0.76
7 3 3 3.17 0.69
7 3 3 2.15 0.67
7 3 3 2.45 0.72
-7 -3 -3 1.31 0.82
-7 -3 -3 2.64 0.71
7 2 3 5.09 0.86
7 2 3 5.5 0.81
7 2 3 4.78 0.78
7 2 3 3.49 0.81
-7 -2 -3 3.71 0.95
-7 -2 -3 3.48 0.85
7 1 3 30.2 1.59
7 1 3 27.34 1.63
7 1 3 30.89 1.69
7 1 3 29.53 1.51
-7 -1 -3 29.23 1.42
-7 -1 -3 28.94 1.69
-7 -1 -3 31.8 1.79
7 0 3 8.85 1.17
7 0 3 6.95 1.05
7 0 3 9.56 0.94
7 0 3 8.33 1.08
7 0 3 8.2 1
-7 0 -3 7.61 0.93
-7 0 -3 9.11 0.72
-7 0 -3 7.5 0.94
7 -1 3 29.38 1.96
7 -1 3 32.77 1.54
7 -1 3 28.49 1.91
7 -1 3 29 1.71
7 -1 3 31.2 1.86
-7 1 -3 28.63 1.48
-7 1 -3 28.64 1.39
-7 1 -3 29.15 1.75
-7 1 -3 30.15 1.74
7 -2 3 6.13 1.1
7 -2 3 4.04 1.11
7 -2 3 4.67 0.96
7 -2 3 2.99 0.93
-7 2 -3 4.94 0.82
-7 2 -3 4.81 0.98
-7 2 -3 4.48 1.02
7 -3 3 3.36 0.79
7 -3 3 1.82 0.89
7 -3 3 2.06 0.75
7 -3 3 2.15 0.87
7 -3 3 1.94 1.08
-7 3 -3 5.52 1.15
-7 3 -3 3.91 1.05
-7 3 -3 2.64 0.9
7 -4 3 5.01 1.29
7 -4 3 6.78 0.9
-7 4 -3 5.4 1.23
-7 4 -3 6.33 1.29
7 -5 3 7.79 1.62
-7 5 -3 9.76 1.66
7 -6 3 1.54 1.17
-7 6 -3 0.97 1.14
6 6 3 1.19 0.56
6 6 3 1.25 0.54
-6 -6 -3 -0.3 0.99
6 5 3 20.41 1.13
6 5 3 19.03 1.1
-6 -5 -3 20.69 2.14
6 4 3 46.33 1.66
6 4 3 45.15 1.65
6 4 3 47.41 1.64
-6 -4 -3 43.62 2.53
-6 -4 -3 46.17 1.53
6 3 3 1.91 0.58
6 3 3 3.23 0.61
6 3 3 2.76 0.62
6 3 3 2.63 0.49
-6 -3 -3 3.32 0.96
-6 -3 -3 2.6 0.64
6 2 3 18.67 1.21
6 2 3 20.64 1.19
6 2 3 17.66 1.21
6 2 3 20.46 1.22
-6 -2 -3 17.23 1.45
-6 -2 -3 20.68 1.33
-6 -2 -3 16.72 1.2
6 1 3 30.45 1.44
6 1 3 31.86 1.59
6 1 3 31.88 1.58
6 1 3 29.04 1.48
-6 -1 -3 34.23 1.74
-6 -1 -3 27.92 1.61
-6 -1 -3 29.66 1.38
-6 -1 -3 30.87 1.31
6 0 3 5.07 0.83
6 0 3 6.79 0.91
6 0 3 5.21 0.89
6 0 3 5.19 0.87
6 0 3 6.4 0.76
-6 0 -3 6.16 0.84
-6 0 -3 6.02 0.62
-6 0 -3 6.39 0.8
6 -1 3 28.09 1.77
6 -1 3 28.47 1.59
6 -1 3 27.98 1.83
6 -1 3 31.22 1.4
6 -1 3 28.95 1.68
6 -1 3 28.64 1.77
-6 1 -3 29.47 1.61
-6 1 -3 29.87 1.66
-6 1 -3 30.74 1.36
6 -2 3 19.52 1.4
6 -2 3 17.63 1.55
6 -2 3 20.96 1.53
6 -2 3 20.41 1.75
6 -2 3 19.86 1.2
-6 2 -3 20.42 1.51
-6 2 -3 19.42 1.27
-6 2 -3 19.95 1.47
6 -3 3 0.67 0.67
6 -3 3 3.32 1.03
6 -3 3 2.36 0.64
6 -3 3 3.19 0.88
6 -3 3 1.71 0.64
-6 3 -3 3.74 0.97
-6 3 -3 1.45 0.76
-6 3 -3 2.46 0.96
6 -4 3 48.11 2.63
6 -4 3 46.77 2.4
6 -4 3 50.12 1.69
-6 4 -3 47.55 2.49
-6 4 -3 48.48 2.6
6 -5 3 20.03 2.13
-6 5 -3 19.05 1.95
-6 5 -3 17.7 1.94
6 -6 3 4.21 1.4
-6 6 -3 1.49 1.21
5 6 3 1.68 0.58
5 6 3 -0.02 0.55
-5 -6 -3 0.69 0.99
5 5 3 5 0.7
5 5 3 6.1 0.7
5 5 3 3.64 0.63
-5 -5 -3 3.81 1.12
5 4 3 1.6 0.5
5 4 3 1.17 0.51
5 4 3 1.78 0.51
5 4 3 1.58 0.51
-5 -4 -3 1.65 0.45
-5 -4 -3 1.88 0.89
5 3 3 61.46 1.85
5 3 3 64.78 1.88
5 3 3 60.37 1.86
5 3 3 61.75 1.65
-5 -3 -3 61.27 1.88
-5 -3 -3 63.26 2.72
5 2 3 19.36 1.07
5 2 3 17.28 1.08
5 2 3 19.45 1.07
5 2 3 19.71 1.13
-5 -2 -3 19.94 1.46
-5 -2 -3 17.72 1.12
-5 -2 -3 18.78 1.21
5 1 3 16.44 1.51
5 1 3 14.47 1.03
5 1 3 15.25 1.15
5 1 3 14.37 0.88
5 1 3 15.76 1.21
5 1 3 13.28 1.07
-5 -1 -3 17.41 1.25
-5 -1 -3 16.34 1.23
-5 -1 -3 16.8 1.04
-5 -1 -3 16.73 0.98
-5 -1 -3 16.43 1.22
5 0 3 3.97 0.89
5 0 3 3.45 0.78
5 0 3 6.08 0.86
5 0 3 3.67 0.73
5 0 3 3.37 0.67
5 0 3 3.88 0.64
-5 0 -3 3.74 0.56
-5 0 -3 3.13 0.65
5 -1 3 15.58 0.99
5 -1 3 14.32 1.16
5 -1 3 14.91 1.32
5 -1 3 17.41 1.29
5 -1 3 17.53 1.37
5 -1 3 15.73 1.24
-5 1 -3 18.02 1.27
-5 1 -3 15.38 1.04
-5 1 -3 14.97 1.19
5 -2 3 17.97 1.3
5 -2 3 18.63 1.28
5 -2 3 18.87 1.38
5 -2 3 19.32 1.53
5 -2 3 17.65 1.08
-5 2 -3 19.25 1.51
-5 2 -3 16.4 1.32
-5 2 -3 17.82 1.11
-5 2 -3 17.19 1.41
5 -3 3 57.59 2.35
5 -3 3 64.5 2.76
5 -3 3 58.68 1.93
5 -3 3 62.09 1.93
-5 3 -3 63.16 2.65
-5 3 -3 61.09 2.5
-5 3 -3 63.83 2.61
-5 3 -3 59.71 2.17
5 -4 3 2.72 1.03
5 -4 3 2.25 0.5
5 -4 3 1.55 0.88
5 -4 3 1.54 0.45
-5 4 -3 0.88 0.85
-5 4 -3 2.63 1.02
5 -5 3 4.95 1.3
-5 5 -3 3.12 1.11
-5 5 -3 7.53 1.32
5 -6 3 -0.37 0.96
-5 6 -3 -1.34 0.83
4 6 3 -0.04 0.47
4 6 3 0.84 0.57
-4 -6 -3 0.2 0.9
4 5 3 -0.07 0.47
4 5 3 0.58 0.46
-4 -5 -3 -0.56 0.74
4 4 3 0.5 0.46
4 4 3 -0.04 0.43
4 4 3 -0.07 0.4
4 4 3 -0.7 0.37
-4 -4 -3 -0.01 0.35
-4 -4 -3 0.42 0.64
-4 -4 -3 0.82 0.41
4 3 3 92.6 2.06
4 3 3 89.38 2.26
4 3 3 90.98 2.29
4 3 3 85.73 2.24
-4 -3 -3 81.21 3.08
-4 -3 -3 92.39 2.32
4 2 3 11.62 0.87
4 2 3 12.87 0.9
4 2 3 13.03 0.86
4 2 3 8.42 1.13
4 2 3 10.88 0.86
-4 -2 -3 13.03 1.01
-4 -2 -3 12.06 1.18
-4 -2 -3 12.14 0.94
4 1 3 98.06 2.21
4 1 3 100.02 2.68
4 1 3 100.69 2.61
4 1 3 96.63 2.63
4 1 3 97.14 2.7
4 1 3 102.02 3.29
-4 -1 -3 99.57 2.43
-4 -1 -3 100.27 2.75
-4 -1 -3 104.47 2.45
-4 -1 -3 105.04 2.55
-4 -1 -3 105.2 3.01
-4 -1 -3 99.99 2.78
4 0 3 0.09 0.62
4 0 3 -0.28 0.56
4 0 3 0.16 0.6
4 0 3 -0.16 0.52
4 0 3 0.59 0.49
4 0 3 0.3 0.49
-4 0 -3 0.68 0.67
-4 0 -3 0.75 0.53
-4 0 -3 0.45 0.59
-4 0 -3 0.29 0.45
4 -1 3 99.44 2.82
4 -1 3 98.92 3.02
4 -1 3 100 2.91
4 -1 3 99.15 2.92
4 -1 3 99.45 2.83
4 -1 3 97.67 2.41
-4 1 -3 99.91 2.47
-4 1 -3 95.95 2.78
-4 1 -3 85.32 2.75
-4 1 -3 94.1 2.79
4 -2 3 13.41 1.26
4 -2 3 10.85 1.06
4 -2 3 11.28 0.87
4 -2 3 13.14 1.16
4 -2 3 12.97 1.01
-4 2 -3 10.08 1.03
-4 2 -3 13.71 1.03
-4 2 -3 11.78 1.12
-4 2 -3 11.45 1.12
4 -3 3 92.16 2.25
4 -3 3 88.13 2.25
4 -3 3 85.6 2.84
4 -3 3 88.02 3.05
4 -3 3 81.91 2.76
-4 3 -3 93.54 3.09
-4 3 -3 90.38 2.97
-4 3 -3 91.58 3.02
-4 3 -3 91.22 2.58
4 -4 3 0.17 0.68
4 -4 3 0.3 0.82
-4 4 -3 -0.2 0.75
-4 4 -3 -0.82 0.6
-4 4 -3 -0.55 0.68
-4 4 -3 0.34 0.69
4 -5 3 0.75 0.91
-4 5 -3 0.19 0.83
-4 5 -3 -0.89 0.83
4 -6 3 0.11 0.92
-4 6 -3 1.66 0.98
3 6 3 4.22 0.74
3 6 3 4.89 0.83
-3 -6 -3 4.76 1.21
3 5 3 55.58 1.87
3 5 3 58.64 1.9
-3 -5 -3 57.77 1.58
-3 -5 -3 54.96 2.77
3 4 3 27.51 1.18
3 4 3 28.75 1.18
3 4 3 27.39 1.14
-3 -4 -3 27.36 1.82
-3 -4 -3 28.09 1.11
-3 -4 -3 26.81 1.13
3 3 3 3.56 0.5
3 3 3 2.31 0.75
3 3 3 3.06 0.48
3 3 3 3.86 0.41
-3 -3 -3 3.17 0.77
-3 -3 -3 3.89 0.55
3 2 3 45.99 2.08
3 2 3 43.03 1.41
3 2 3 42.15 1.43
3 2 3 44.41 1.9
3 2 3 45.63 1.41
3 2 3 44.78 1.44
-3 -2 -3 42.74 1.49
-3 -2 -3 44.97 1.49
-3 -2 -3 41.92 1.85
3 1 3 31.41 1.26
3 1 3 34.77 1.28
3 1 3 33.76 1.4
3 1 3 30.24 0.97
3 1 3 33.28 1.33
3 1 3 34.46 1.73
-3 -1 -3 33.81 1.16
-3 -1 -3 33.98 1.5
-3 -1 -3 33.35 1.42
-3 -1 -3 31.46 1.18
-3 -1 -3 33.71 1.39
3 0 3 39.17 1.61
3 0 3 37.42 1.45
3 0 3 38.4 1.52
3 0 3 38.35 1.25
3 0 3 36.95 1.66
3 0 3 37.4 1.43
-3 0 -3 40.01 1.61
-3 0 -3 40.84 1.63
-3 0 -3 39.26 1.41
-3 0 -3 37.24 1.15
-3 0 -3 39.01 1.47
3 -1 3 33.75 1.57
3 -1 3 32.99 1.6
3 -1 3 34.12 1.49
3 -1 3 34.27 1.51
3 -1 3 34.56 1.48
-3 1 -3 30.76 1.47
-3 1 -3 32.32 1.47
-3 1 -3 33.3 1.23
-3 1 -3 32.65 1.46
3 -2 3 41.61 1.46
3 -2 3 46.28 1.93
3 -2 3 46.07 1.45
3 -2 3 44.09 1.72
-3 2 -3 45.89 1.59
-3 2 -3 42.98 1.89
-3 2 -3 46.1 1.82
-3 2 -3 41.14 1.82
3 -3 3 4.97 0.76
3 -3 3 3.64 0.44
3 -3 3 4.22 0.72
3 -3 3 4.66 0.49
3 -3 3 2.86 0.82
-3 3 -3 3.29 0.76
-3 3 -3 3.5 0.75
-3 3 -3 3.56 0.66
-3 3 -3 3.21 0.75
3 -4 3 26.83 1.83
3 -4 3 27.02 1.5
-3 4 -3 30.35 1.48
-3 4 -3 27.24 1.73
-3 4 -3 27.49 1.69
-3 4 -3 25.83 1.73
-3 4 -3 29.37 1.81
3 -5 3 56.02 2.65
-3 5 -3 57.03 2.54
-3 5 -3 56.37 2.61
3 -6 3 5.66 1.27
-3 6 -3 4.01 1.1
2 7 3 3.67 0.87
2 6 3 2.35 0.71
2 6 3 2.71 0.75
-2 -6 -3 1.97 0.57
-2 -6 -3 2.24 1
2 5 3 28.14 1.39
2 5 3 29.61 1.43
-2 -5 -3 30.24 2.07
-2 -5 -3 29.89 1.31
2 4 3 16.83 0.98
2 4 3 16.43 0.97
2 4 3 13.51 1.35
2 4 3 16.68 0.99
-2 -4 -3 16.89 1.02
-2 -4 -3 13.62 1.39
2 3 3 22.37 0.99
2 3 3 25.78 1.03
2 3 3 22.53 1.43
2 3 3 23.88 0.94
2 3 3 22.33 1
-2 -3 -3 21.25 1.42
-2 -3 -3 23.86 1.1
2 2 3 25.59 1.03
2 2 3 26.17 1.06
2 2 3 27.25 1.1
2 2 3 25.15 1.36
-2 -2 -3 26.44 1.15
-2 -2 -3 28.62 1.46
-2 -2 -3 25.32 1.12
2 1 3 69.56 1.85
2 1 3 70.23 1.9
2 1 3 71.15 1.86
2 1 3 72.82 1.89
-2 -1 -3 73.26 1.77
-2 -1 -3 72.17 1.97
-2 -1 -3 73.68 1.98
-2 -1 -3 72.04 2.17
2 0 3 32.91 1.06
2 0 3 32.13 1.32
2 0 3 32.55 1.21
2 0 3 31.83 1.38
2 0 3 33.27 1.26
-2 0 -3 32.12 1.21
-2 0 -3 32.82 1.27
-2 0 -3 32.1 1.34
-2 0 -3 32.31 1.01
-2 0 -3 31.27 1.38
2 -1 3 72.9 2.03
2 -1 3 68.43 2.06
2 -1 3 73.57 2.05
2 -1 3 70.71 2.18
-2 1 -3 70.81 1.79
-2 1 -3 72.87 2.08
-2 1 -3 70.9 2.19
-2 1 -3 73.55 2.15
-2 1 -3 71.35 2.04
2 -2 3 24.86 1.29
2 -2 3 26.35 1.55
2 -2 3 25.55 0.98
2 -2 3 25.53 0.97
2 -2 3 25.18 1.34
-2 2 -3 29.14 1.49
-2 2 -3 24.44 1.34
-2 2 -3 25.71 1.39
-2 2 -3 26.02 1.46
-2 2 -3 26.83 1.16
2 -3 3 21.05 1.19
2 -3 3 22.52 1.47
2 -3 3 22.79 1.24
-2 3 -3 23.17 1.4
-2 3 -3 23.13 1.33
-2 3 -3 23.41 1.4
-2 3 -3 21.65 1.35
-2 3 -3 24.29 1.12
2 -4 3 15.92 1.43
2 -4 3 15.65 1.14
-2 4 -3 17.69 1.4
-2 4 -3 16.99 1.36
-2 4 -3 15.92 1.06
-2 4 -3 17.1 1.34
-2 4 -3 15.26 1.31
2 -5 3 27.24 1.88
2 -5 3 28.29 1.38
-2 5 -3 28.39 1.76
2 -6 3 2.03 0.96
-2 6 -3 1.8 0.88
2 -7 3 4.72 1.14
-2 7 -3 3.79 1.08
1 7 3 1.19 0.75
1 6 3 5.86 0.92
1 6 3 7.56 1.06
-1 -6 -3 6.53 1.26
-1 -6 -3 7.94 0.9
1 5 3 63.51 2.13
1 5 3 58.8 2.14
1 5 3 65.64 2.18
-1 -5 -3 65.68 2.12
-1 -5 -3 62.77 2.79
1 4 3 29.17 1.33
1 4 3 29.08 1.72
1 4 3 31.44 1.35
1 4 3 31.89 1.32
-1 -4 -3 32.92 1.41
-1 -4 -3 33 1.8
1 3 3 101.11 2.45
1 3 3 104.09 2.48
1 3 3 99.94 2.47
1 3 3 96.21 2.41
-1 -3 -3 99.81 2.52
-1 -3 -3 100.45 3.07
-1 -3 -3 102.4 2.55
1 2 3 8.79 0.68
1 2 3 7.24 0.62
1 2 3 9.58 0.91
1 2 3 8.04 0.62
1 2 3 7.67 0.66
-1 -2 -3 6.15 0.78
-1 -2 -3 9.07 0.7
-1 -2 -3 8.61 0.72
1 1 3 132.4 2.98
1 1 3 138.35 3.01
1 1 3 137.36 2.95
1 1 3 134.43 2.97
-1 -1 -3 133.61 2.99
-1 -1 -3 136.97 2.86
-1 -1 -3 135.58 2.87
-1 -1 -3 134.88 3.26
-1 -1 -3 137.34 3.05
1 0 3 53.49 1.33
1 0 3 54.74 1.61
1 0 3 55.88 1.57
1 0 3 52.52 1.65
1 0 3 55.04 1.57
-1 0 -3 53.17 1.53
-1 0 -3 53.71 1.56
-1 0 -3 55.55 1.64
-1 0 -3 54.03 1.56
-1 0 -3 57.3 1.65
-1 0 -3 56.18 1.34
1 -1 3 141.35 3.07
1 -1 3 136.06 3.08
1 -1 3 137.59 2.71
1 -1 3 131.42 3.17
-1 1 -3 138.93 3.13
-1 1 -3 135.23 3.15
-1 1 -3 137.97 3.07
-1 1 -3 135.75 2.75
-1 1 -3 133.26 3.21
1 -2 3 8.43 0.48
1 -2 3 8.47 0.89
1 -2 3 8.64 0.76
1 -2 3 8.04 0.45
1 -2 3 8.08 0.78
-1 2 -3 7.53 0.78
-1 2 -3 6.69 0.81
-1 2 -3 6.46 0.76
-1 2 -3 6.71 0.75
-1 2 -3 8.95 0.66
1 -3 3 94.79 2.53
1 -3 3 101.55 2.87
1 -3 3 101.49 2.48
-1 3 -3 102.27 2.78
-1 3 -3 99.65 2.83
-1 3 -3 99.74 2.74
-1 3 -3 99.51 2.82
-1 3 -3 104.9 2.35
1 -4 3 28.96 1.24
1 -4 3 29.42 1.65
-1 4 -3 29.96 1.57
-1 4 -3 27 1.44
-1 4 -3 33.36 1.59
-1 4 -3 32.51 1.63
1 -5 3 66.19 2.52
1 -5 3 63.69 1.75
-1 5 -3 64.13 2.53
-1 5 -3 60.42 2.44
1 -6 3 8.9 1.23
-1 6 -3 7.37 1.16
1 -7 3 0.33 0.84
-1 7 -3 1.37 0.89
0 7 3 10.58 1.31
0 -7 -3 10.86 1.21
0 6 3 14.43 1.33
0 -6 -3 17.65 1.39
0 5 3 8.2 0.99
0 5 3 7.71 0.98
0 5 3 5.91 0.89
0 -5 -3 7.66 0.95
0 -5 -3 8 1.2
0 4 3 40.25 1.64
0 4 3 40.82 1.58
0 4 3 40.57 1.59
0 -4 -3 35.67 1.62
0 -4 -3 37.34 1.89
0 -4 -3 37.69 1.6
0 3 3 8 0.78
0 3 3 8.86 0.77
0 3 3 9.1 0.95
0 3 3 8.98 0.78
0 -3 -3 8.81 0.79
0 -3 -3 8.89 0.91
0 -3 -3 9.68 0.86
0 2 3 14.04 0.83
0 2 3 15.3 0.94
0 2 3 14.54 0.88
0 2 3 13.38 1.03
0 2 3 12.56 0.84
0 -2 -3 13.81 1.05
0 -2 -3 14.48 0.7
0 -2 -3 14.9 1.02
0 -2 -3 15.04 0.99
0 1 3 34.83 1.23
0 1 3 35.56 1.2
0 1 3 32.98 1.14
0 1 3 34.23 1.17
0 1 3 33.49 1.12
0 -1 -3 34.62 1.12
0 -1 -3 33.24 1.21
0 -1 -3 34.57 1.08
0 -1 -3 36.18 1.28
0 -1 -3 33.56 1.26
0 0 3 75.81 1.61
0 0 3 72.79 1.88
0 0 3 72.83 1.8
0 0 3 77.99 1.93
0 0 3 73.54 1.86
0 0 3 77.24 1.62
0 0 3 76.18 1.85
0 0 -3 78.74 1.95
0 0 -3 73.18 1.84
0 0 -3 73.69 1.61
0 0 -3 75.06 1.87
0 0 -3 75.27 1.83
0 0 -3 70.94 1.83
0 -1 3 34.38 0.87
0 -1 3 33.6 1.13
0 -1 3 33.77 1.1
0 -1 3 33.54 1.26
0 -1 3 32.99 0.88
0 -1 3 32.29 1.23
0 -1 3 33.91 1.13
0 1 -3 35.58 1.25
0 1 -3 34.3 1.14
0 1 -3 33.17 1.13
0 1 -3 32.44 1.18
0 1 -3 32.83 0.97
0 1 -3 33.64 1.23
0 1 -3 35.91 0.99
0 -2 3 14.14 0.72
0 -2 3 15.42 0.81
0 -2 3 14.49 0.82
0 -2 3 13.19 1.07
0 2 -3 13.79 0.64
0 2 -3 14.89 0.96
0 2 -3 13.67 0.95
0 2 -3 15.02 0.67
0 2 -3 13.14 0.83
0 2 -3 13.37 0.9
0 -3 3 9.15 0.85
0 -3 3 9.15 0.71
0 3 -3 8.81 0.79
0 3 -3 10.03 0.88
0 3 -3 7.55 0.77
0 3 -3 9.06 0.62
0 3 -3 9.75 0.99
0 3 -3 7.86 0.79
0 -4 3 38.44 1.13
0 -4 3 36.19 1.1
0 -4 3 38.14 1.67
0 4 -3 36.48 1.52
0 4 -3 37.99 1.65
0 4 -3 35.42 1.51
0 4 -3 40.97 1.64
0 -5 3 8.3 1.03
0 5 -3 8.31 1
0 5 -3 7.25 0.96
0 5 -3 6.96 0.98
0 -6 3 15.58 1.37
0 6 -3 14.93 1.38
0 -7 3 10.7 1.23
0 7 -3 8.57 1.25
-1 7 3 6.63 1.18
1 -7 -3 7.3 1.17
-1 6 3 13.12 1.36
1 -6 -3 12.1 1.3
-1 5 3 0.83 0.69
-1 5 3 0.4 0.63
-1 5 3 2.11 0.75
1 -5 -3 0.89 0.72
1 -5 -3 1.65 0.77
-1 4 3 22.31 1.35
-1 4 3 21.1 1.25
-1 4 3 19.74 1.29
1 -4 -3 19.41 0.92
1 -4 -3 21.18 1.39
1 -4 -3 21.6 1.38
1 -4 -3 21.05 1.36
-1 3 3 9.69 0.9
-1 3 3 10.44 0.9
-1 3 3 8.64 0.82
-1 3 3 9.66 0.66
-1 3 3 9.19 0.86
1 -3 -3 9.09 0.91
1 -3 -3 8.58 0.91
1 -3 -3 9.8 0.91
1 -3 -3 8.97 0.74
-1 2 3 16.91 1.11
-1 2 3 14.6 0.96
-1 2 3 17.88 1.03
-1 2 3 16.76 0.75
-1 2 3 17.3 0.98
-1 2 3 16.99 0.99
1 -2 -3 14.18 1.11
1 -2 -3 16.23 0.96
1 -2 -3 16.25 0.9
1 -2 -3 14.13 0.86
1 -2 -3 16.35 1.1
-1 1 3 36.28 1.31
-1 1 3 34.87 1.2
-1 1 3 32.82 1.2
-1 1 3 35.35 1
-1 1 3 34.66 1.31
-1 1 3 35.17 1.23
1 -1 -3 36.56 1.21
1 -1 -3 36.38 1.18
1 -1 -3 35.61 1.3
1 -1 -3 36.51 1.35
1 -1 -3 35.27 0.97
-1 0 3 8.92 0.64
-1 0 3 7.73 0.63
-1 0 3 8.46 0.56
-1 0 3 6.96 0.55
-1 0 3 8.58 0.59
-1 0 3 8.25 0.63
1 0 -3 8.67 0.7
1 0 -3 8.42 0.56
1 0 -3 8.49 0.59
1 0 -3 8.53 0.66
1 0 -3 8.32 0.49
1 0 -3 8.34 0.61
1 0 -3 7.57 0.62
-1 -1 3 35.42 1.05
-1 -1 3 34.57 1.17
-1 -1 3 36.6 1.17
-1 -1 3 36.27 1.06
-1 -1 3 35.91 1.04
-1 -1 3 35.37 1
1 1 -3 33.73 0.84
1 1 -3 33.63 1.09
1 1 -3 35.19 1.1
1 1 -3 35.84 1.16
1 1 -3 35.3 1.15
1 1 -3 33.6 1.06
1 1 -3 33.66 0.85
-1 -2 3 16.03 0.98
-1 -2 3 15.61 0.67
-1 -2 3 14.6 0.85
-1 -2 3 16.16 0.7
-1 -2 3 17.17 0.9
1 2 -3 16.25 0.79
1 2 -3 16.53 0.8
1 2 -3 13.53 0.84
1 2 -3 17.48 0.87
-1 -3 3 8.57 0.75
-1 -3 3 9.22 0.73
1 3 -3 9.53 0.72
1 3 -3 8.45 0.72
1 3 -3 9.86 0.76
1 3 -3 9.55 0.77
-1 -4 3 20.89 1.2
1 4 -3 20.21 1.01
1 4 -3 20.51 1.12
1 4 -3 20.53 1.17
1 4 -3 21.43 1.08
-1 -5 3 1.64 0.64
1 5 -3 2.37 0.68
1 5 -3 1.17 0.62
1 5 -3 1.45 0.6
-1 -6 3 14.18 1.16
1 6 -3 16.46 1.43
1 6 -3 11.86 1.18
1 7 -3 6.68 1.06
-2 7 3 1.14 0.92
2 -7 -3 2.84 1.02
-2 6 3 3.23 0.97
2 -6 -3 4.18 1.01
-2 5 3 9.58 1.17
-2 5 3 9.02 1.17
-2 5 3 9.67 1.15
2 -5 -3 11.53 1.29
2 -5 -3 12.54 0.91
-2 4 3 4.28 0.83
-2 4 3 3.84 0.79
-2 4 3 3.61 0.76
-2 4 3 3.3 0.6
-2 4 3 3.63 0.69
2 -4 -3 2.49 0.79
2 -4 -3 2.96 0.62
2 -4 -3 3.01 0.69
-2 3 3 84.7 2.02
-2 3 3 76.81 2.27
-2 3 3 74.06 2.36
-2 3 3 82.26 2.45
-2 3 3 77.18 2.37
2 -3 -3 74.5 2.21
2 -3 -3 80.01 2.48
2 -3 -3 77.07 2.27
2 -3 -3 78.69 2.14
2 -3 -3 71.52 2.42
-2 2 3 0.23 0.5
-2 2 3 0.95 0.55
-2 2 3 0.39 0.48
-2 2 3 0.22 0.42
-2 2 3 0.25 0.58
2 -2 -3 1.14 0.57
2 -2 -3 0.46 0.33
2 -2 -3 0.17 0.35
2 -2 -3 0.41 0.45
2 -2 -3 -0.68 0.53
2 -2 -3 -0.07 0.5
-2 1 3 347.88 7.07
-2 1 3 346.74 6.85
-2 1 3 357.04 7.04
-2 1 3 351.12 7.03
-2 1 3 355.01 6.3
2 -1 -3 358.09 6.27
2 -1 -3 360.93 7.08
2 -1 -3 359.51 7.01
2 -1 -3 360.23 6.86
2 -1 -3 346.51 7.09
-2 0 3 24.2 0.8
-2 0 3 22.64 1.09
-2 0 3 23.51 0.78
-2 0 3 25.37 1.1
-2 0 3 23.14 0.95
2 0 -3 25.05 0.99
2 0 -3 24.12 1.02
2 0 -3 23.07 0.95
2 0 -3 23.64 1.14
2 0 -3 23.31 1.1
2 0 -3 23.15 0.83
-2 -1 3 367.42 6.95
-2 -1 3 354.8 6.92
-2 -1 3 357.64 7.66
-2 -1 3 352.74 6.6
-2 -1 3 361.57 6.62
-2 -1 3 362.75 6.73
-2 -1 3 357.04 6.71
2 1 -3 351.55 6.91
2 1 -3 357.2 5.98
2 1 -3 399.64 6.93
2 1 -3 361.27 6.69
2 1 -3 360.67 6.87
2 1 -3 347.04 6.85
-2 -2 3 0.73 0.57
-2 -2 3 0.81 0.38
2 2 -3 0.09 0.34
2 2 -3 0.51 0.32
2 2 -3 0.61 0.29
2 2 -3 0.47 0.35
2 2 -3 0.42 0.46
2 2 -3 0.72 0.43
-2 -3 3 76.2 1.97
-2 -3 3 77.25 2.33
2 3 -3 79.61 1.92
2 3 -3 82.68 2.33
2 3 -3 79.02 1.88
2 3 -3 80.68 1.85
2 3 -3 78.84 1.92
-2 -4 3 2.65 0.52
2 4 -3 3.97 0.55
2 4 -3 3.87 0.56
2 4 -3 3.11 0.54
-2 -5 3 11.77 0.97
2 5 -3 10.82 0.94
2 5 -3 11.92 0.91
2 5 -3 9.59 0.89
-2 -6 3 4.47 0.66
2 6 -3 4.17 0.81
2 6 -3 4.72 0.78
2 7 -3 2.45 0.75
-3 7 3 5.42 1.24
3 -7 -3 6.36 1.31
-3 6 3 19.89 1.82
3 -6 -3 22.24 1.91
-3 5 3 1.75 0.83
3 -5 -3 2.64 0.95
3 -5 -3 1.17 0.68
-3 4 3 1.42 0.54
-3 4 3 0.62 0.67
-3 4 3 1.07 0.64
-3 4 3 0.79 0.65
-3 4 3 1.34 0.52
3 -4 -3 0.31 0.59
3 -4 -3 1.89 0.79
-3 3 3 1.22 0.65
-3 3 3 1.29 0.59
-3 3 3 0.89 0.47
-3 3 3 1.27 0.6
-3 3 3 0.86 0.38
3 -3 -3 1.09 0.58
3 -3 -3 1.06 0.5
3 -3 -3 1.49 0.67
3 -3 -3 1.22 0.41
-3 2 3 91.29 2.25
-3 2 3 91.66 2.66
-3 2 3 93.51 2.63
-3 2 3 92.31 2.68
3 -2 -3 94.4 2.15
3 -2 -3 89.97 2.75
3 -2 -3 93.79 2.61
3 -2 -3 94.23 2.13
-3 1 3 305.29 6.21
-3 1 3 305.4 6.22
-3 1 3 295.13 6.05
-3 1 3 304.41 5.55
-3 1 3 303.62 6.28
3 -1 -3 292.98 6.04
3 -1 -3 299.02 6.16
3 -1 -3 296.18 6.17
3 -1 -3 299.95 6.28
-3 0 3 384.06 7.51
-3 0 3 370.51 7.49
-3 0 3 382.07 8.2
-3 0 3 390.56 6.64
-3 0 3 381.12 7.41
3 0 -3 375.12 6.67
3 0 -3 377.05 7.45
3 0 -3 379.8 7.51
3 0 -3 384.26 7.26
3 0 -3 378.08 7.45
-3 -1 3 310.58 6.07
-3 -1 3 308.14 5.77
-3 -1 3 314.32 6.91
-3 -1 3 313.31 5.76
-3 -1 3 310.08 5.78
-3 -1 3 308.33 6.08
3 1 -3 308.64 6.04
3 1 -3 303.37 5.98
3 1 -3 303.93 6.84
3 1 -3 309.49 6.51
3 1 -3 307.17 5.87
3 1 -3 312 6
-3 -2 3 90.04 2.11
-3 -2 3 93.16 2.78
3 2 -3 90.6 1.95
3 2 -3 91.69 1.93
3 2 -3 92.4 2.01
3 2 -3 90.49 2
3 2 -3 91.95 2.7
3 2 -3 90.57 2
3 2 -3 93.81 2.76
-3 -3 3 0.8 0.31
-3 -3 3 0.75 0.6
3 3 -3 1.37 0.28
3 3 -3 0.57 0.32
3 3 -3 0.5 0.54
-3 -4 3 1.06 0.33
-3 -4 3 1.09 0.65
3 4 -3 1.21 0.4
3 4 -3 1.29 0.38
3 4 -3 0.98 0.65
3 4 -3 0.98 0.35
3 5 -3 2.73 0.55
3 5 -3 2.38 0.53
3 5 -3 1.97 0.54
3 6 -3 21.15 1.27
3 6 -3 20.72 1.21
-4 6 3 0.61 0.89
4 -6 -3 -1.12 0.76
-4 5 3 12.88 1.48
4 -5 -3 14.07 1.56
-4 4 3 14.83 1.4
-4 4 3 16.06 1.2
-4 4 3 18.08 1.41
-4 4 3 16.74 1.06
-4 4 3 15.28 1.09
-4 4 3 14.56 1.43
4 -4 -3 15.34 1.31
4 -4 -3 16.68 1.55
-4 3 3 1.51 0.56
-4 3 3 2.9 0.75
-4 3 3 1.73 0.62
-4 3 3 2.28 0.69
-4 3 3 3.27 0.78
4 -3 -3 2.49 0.62
4 -3 -3 2.64 0.74
4 -3 -3 1.37 0.43
4 -3 -3 1.66 0.79
-4 2 3 30.64 1.63
-4 2 3 28.16 1.26
-4 2 3 30.68 1.53
-4 2 3 30.48 1.51
-4 2 3 31.28 1.61
4 -2 -3 30.9 1.67
4 -2 -3 29.66 1.47
4 -2 -3 30.69 1.2
-4 1 3 3.55 0.63
-4 1 3 3.5 0.73
-4 1 3 2.01 0.57
-4 1 3 2.09 0.67
-4 1 3 3.39 0.69
-4 1 3 2.83 0.52
4 -1 -3 2.32 0.59
4 -1 -3 3.24 0.53
4 -1 -3 3.58 0.71
4 -1 -3 3.63 0.27
4 -1 -3 3.97 0.76
4 -1 -3 2.96 0.63
-4 0 3 4.86 0.67
-4 0 3 4.33 0.66
-4 0 3 5.7 0.84
-4 0 3 4.9 0.59
-4 0 3 6.4 0.53
4 0 -3 5.36 0.52
4 0 -3 4.98 0.53
4 0 -3 5.47 0.65
4 0 -3 4.69 0.68
4 0 -3 5.16 0.8
4 0 -3 4.9 0.63
4 0 -3 4.89 0.68
-4 -1 3 2.99 0.77
-4 -1 3 3.51 0.49
-4 -1 3 3.75 0.55
-4 -1 3 3.16 0.35
-4 -1 3 2.69 0.54
4 1 -3 3.13 0.31
4 1 -3 3.16 0.3
4 1 -3 3.04 0.73
4 1 -3 3 0.54
4 1 -3 3.35 0.48
4 1 -3 2.68 0.48
4 1 -3 2.86 0.56
4 1 -3 2.68 0.53
-4 -2 3 28.89 1.61
-4 -2 3 27.4 1.04
4 2 -3 29.92 0.96
4 2 -3 29.91 0.93
4 2 -3 23.72 1.44
4 2 -3 30.92 1.01
4 2 -3 29.71 0.93
4 2 -3 30.51 1.62
-4 -3 3 3.53 0.85
-4 -3 3 2.22 0.3
4 3 -3 2.26 0.35
4 3 -3 2.34 0.35
4 3 -3 3.03 0.74
-4 -4 3 16.24 1.41
4 4 -3 15.64 0.69
4 4 -3 16.22 1.41
4 5 -3 12.79 0.75
4 5 -3 14.45 0.78
4 5 -3 12.65 0.8
4 6 -3 0.02 0.46
4 6 -3 -0.56 0.4
-5 6 3 1.28 0.97
5 -6 -3 -0.23 0.9
-5 5 3 11.78 1.49
5 -5 -3 14.08 1.66
-5 4 3 3.82 1
-5 4 3 3.33 0.78
-5 4 3 4.18 0.98
-5 4 3 3.03 0.7
-5 4 3 3.28 0.94
5 -4 -3 2.76 0.86
5 -4 -3 3.08 1.01
-5 3 3 18.71 1.43
-5 3 3 21.63 1.28
-5 3 3 19.38 1.15
-5 3 3 24.28 1.54
-5 3 3 20.01 1.42
5 -3 -3 21.75 1.09
5 -3 -3 23.11 1.7
5 -3 -3 19.4 1.41
-5 2 3 51.74 2.03
-5 2 3 49.55 2.06
-5 2 3 49.3 1.71
-5 2 3 46.5 1.95
-5 2 3 49.78 2
5 -2 -3 46.8 2.2
5 -2 -3 48.87 1.64
5 -2 -3 49.58 1.97
5 -2 -3 48.44 1.97
-5 1 3 16.48 1.31
-5 1 3 13.34 0.96
-5 1 3 14.88 1.29
-5 1 3 13.61 1.13
-5 1 3 11.75 1.09
5 -1 -3 17.66 1.27
5 -1 -3 16.68 1.32
5 -1 -3 14.12 0.51
5 -1 -3 13.55 1.13
5 -1 -3 14.89 1
5 -1 -3 15.66 1.2
-5 0 3 4.32 0.64
-5 0 3 3.74 0.9
-5 0 3 4.94 0.54
-5 0 3 3.28 0.74
5 0 -3 3.49 0.72
5 0 -3 3.88 0.76
5 0 -3 4.89 0.56
5 0 -3 3.79 0.68
5 0 -3 4.63 0.58
5 0 -3 4.26 0.86
5 0 -3 4.6 0.72
-5 -1 3 15.11 0.75
-5 -1 3 15.65 1.1
-5 -1 3 16.27 0.87
-5 -1 3 12.6 1.28
-5 -1 3 14.32 1.12
5 1 -3 16.42 1.4
5 1 -3 14.29 1.12
5 1 -3 14.09 0.94
5 1 -3 15.56 0.99
5 1 -3 16.88 1.02
5 1 -3 14.19 0.66
5 1 -3 14.96 1.11
-5 -2 3 51.1 2.23
-5 -2 3 47.65 1.51
5 2 -3 49.84 2.2
5 2 -3 48.73 1.41
5 2 -3 48.89 1.42
5 2 -3 49.2 1.41
5 2 -3 51.25 1.4
-5 -3 3 21.27 1.54
5 3 -3 21.34 0.67
5 3 -3 13.36 1.37
5 3 -3 20.32 0.78
-5 -4 3 3.5 0.97
5 6 -3 0.13 0.37
5 6 -3 0.4 0.41
-6 6 3 9.98 1.59
6 -6 -3 6.03 1.43
-6 5 3 8.01 1.37
6 -5 -3 6.69 1.39
-6 4 3 24.54 1.81
-6 4 3 21.33 1.38
-6 4 3 20.99 1.66
-6 4 3 20.34 1.42
6 -4 -3 18.88 1.51
6 -4 -3 19.31 0.96
6 -4 -3 16.11 1.73
-6 3 3 45.65 2.18
-6 3 3 42.45 2.15
-6 3 3 47.83 2.03
-6 3 3 46.15 2.16
-6 3 3 49.31 1.88
6 -3 -3 47.72 1.68
6 -3 -3 46.12 2.35
6 -3 -3 44.93 2.16
-6 2 3 23.77 1.44
-6 2 3 24.23 1.55
-6 2 3 22.06 1.19
-6 2 3 22.48 1.46
-6 2 3 21.09 1.46
6 -2 -3 21.67 1.61
6 -2 -3 22.48 1.43
6 -2 -3 23.42 1.57
6 -2 -3 23.93 1.21
-6 1 3 17.65 1.51
-6 1 3 16.58 1.2
-6 1 3 17.46 1.24
-6 1 3 15.62 1.01
6 -1 -3 14.96 0.6
6 -1 -3 14.28 1.3
6 -1 -3 14.3 1.23
6 -1 -3 11.77 1.12
6 -1 -3 16.96 1
6 -1 -3 16.85 1.36
-6 0 3 10.86 0.75
-6 0 3 11.1 0.93
-6 0 3 11.51 1.27
6 0 -3 12.32 0.89
6 0 -3 13.03 1.3
6 0 -3 11.4 0.83
6 0 -3 10.2 0.96
6 0 -3 12 1.13
6 0 -3 12.25 1.08
6 0 -3 10.21 0.99
-6 -1 3 12.42 1.38
-6 -1 3 18.3 1.19
-6 -1 3 15.88 0.93
6 1 -3 16.32 0.79
6 1 -3 14.7 1.06
6 1 -3 15.86 1.04
6 1 -3 16.81 1.18
6 1 -3 14.97 1.17
6 1 -3 14.24 1.09
6 1 -3 13.39 1.38
-6 -2 3 23.51 1.17
-6 -2 3 23.36 1.69
6 2 -3 24.01 1.06
6 2 -3 24.22 1.1
6 2 -3 23.11 1.04
6 2 -3 24 1.09
-6 -3 3 48.03 1.36
-6 -3 3 51.45 2.46
6 3 -3 47.23 1.41
6 3 -3 46.69 1.34
6 3 -3 48.58 1.37
-6 -4 3 15.48 1.7
6 4 -3 18.59 0.73
-7 6 3 1.57 1.12
7 -6 -3 -0.62 1.02
-7 5 3 10.22 1.51
7 -5 -3 13.49 1.82
-7 4 3 18.52 1.79
-7 4 3 19.19 1.79
-7 4 3 18.17 1.46
7 -4 -3 17.61 1.69
7 -4 -3 20.66 2
7 -4 -3 18.83 1.12
-7 3 3 16.21 1.58
-7 3 3 15.03 1.28
-7 3 3 17.43 1.39
-7 3 3 14.13 1.47
7 -3 -3 15.68 1.57
7 -3 -3 14.12 1.14
7 -3 -3 14.76 1.61
7 -3 -3 13.51 1.36
-7 2 3 0.53 0.63
-7 2 3 1.61 0.64
-7 2 3 -0.24 0.7
-7 2 3 0.17 0.67
7 -2 -3 0.57 0.78
7 -2 -3 1.09 0.7
7 -2 -3 1.19 0.8
-7 1 3 30.8 1.91
-7 1 3 32.81 1.7
-7 1 3 32.8 1.71
-7 1 3 32.95 1.37
7 -1 -3 31.57 1.36
7 -1 -3 32.8 1.89
7 -1 -3 32.63 1.75
7 -1 -3 32.08 1.87
7 -1 -3 29.72 1.71
7 -1 -3 28.37 1.64
-7 0 3 46.32 2.3
-7 0 3 47.93 1.81
-7 0 3 49.1 1.36
7 0 -3 46.08 1.88
7 0 -3 47.59 1.9
7 0 -3 46.55 2.03
7 0 -3 48.81 1.65
7 0 -3 47.42 1.61
7 0 -3 45.06 1.98
-7 -1 3 30.81 1.56
-7 -1 3 31.57 1.29
-7 -1 3 33.74 2.02
-7 -1 3 31.93 1.63
7 1 -3 27.42 1.47
7 1 -3 31.57 1.45
7 1 -3 29.52 1.51
7 1 -3 25.59 1.47
7 1 -3 31.62 1.44
-7 -2 3 0.93 0.63
-7 -2 3 0.71 0.84
-7 -2 3 1.92 0.55
7 2 -3 0.64 0.51
7 2 -3 1.02 0.48
7 2 -3 0.5 0.47
7 2 -3 0.72 0.44
-7 -3 3 13.62 1.62
-7 -3 3 13.63 0.92
7 3 -3 13.61 0.93
7 3 -3 15.33 0.91
7 3 -3 16.6 0.93
-7 -4 3 21.13 2.01
7 4 -3 19.2 0.88
7 4 -3 19.33 0.92
7 4 -3 18.86 0.86
-8 6 3 2.49 1.3
8 -6 -3 5.05 1.48
-8 5 3 11.08 1.7
8 -5 -3 13.96 1.89
-8 4 3 1.93 1.02
-8 4 3 0.39 0.77
-8 4 3 0.81 0.92
8 -4 -3 -0.36 0.97
8 -4 -3 -0.06 0.59
8 -4 -3 0.42 0.85
-8 3 3 95.66 2.99
-8 3 3 94.26 3.47
-8 3 3 95.48 3.47
-8 3 3 93.83 3.32
8 -3 -3 91.63 3.39
8 -3 -3 92.5 2.81
8 -3 -3 92.18 3.64
8 -3 -3 92.07 3.37
-8 2 3 14.1 1.43
-8 2 3 14.16 1.52
-8 2 3 12.2 1.33
-8 2 3 13.47 1.17
8 -2 -3 12.54 1.53
8 -2 -3 14.45 1.47
8 -2 -3 15.08 1.52
-8 1 3 8.52 1.13
-8 1 3 8.43 0.88
-8 1 3 7.68 1.29
-8 1 3 9.69 1.1
8 -1 -3 10.95 1.27
8 -1 -3 9.95 1.26
8 -1 -3 9.75 1
8 -1 -3 9.03 1.25
8 -1 -3 10.13 1.24
-8 0 3 -0.18 0.44
-8 0 3 -0.15 0.81
-8 0 3 -0.11 0.38
8 0 -3 0.25 0.64
8 0 -3 -0.09 0.61
8 0 -3 -0.57 0.45
8 0 -3 -0.35 0.5
8 0 -3 -0.5 0.61
8 0 -3 -0.31 0.38
-8 -1 3 10.59 1.1
-8 -1 3 7.73 0.85
-8 -1 3 8.38 1.33
8 1 -3 8.52 0.96
8 1 -3 7.88 0.99
8 1 -3 9.18 1.02
8 1 -3 9.49 1.06
-8 -2 3 14.57 1.14
-8 -2 3 14.42 0.59
-8 -2 3 9.37 1.19
-8 -2 3 13.88 1.68
8 2 -3 16.73 1.22
8 2 -3 16.54 1.17
8 2 -3 14.09 1.15
8 2 -3 15.44 1.13
-8 -3 3 87.82 3.74
8 3 -3 88.34 2.53
8 3 -3 94.71 2.54
8 3 -3 91.02 2.5
-8 -4 3 0.04 0.94
8 4 -3 0.39 0.47
8 4 -3 1.08 0.51
8 4 -3 0.1 0.44
-9 5 3 -1.35 0.86
9 -5 -3 0.22 0.54
9 -5 -3 -1.7 1.03
-9 4 3 11.3 1.6
-9 4 3 9.09 1.52
-9 4 3 8.66 1.23
9 -4 -3 8.37 1.63
9 -4 -3 7.81 1.03
-9 3 3 44.87 2.5
-9 3 3 47.2 2.14
-9 3 3 44.08 2.36
-9 3 3 45.7 2.54
9 -3 -3 42.31 2.69
9 -3 -3 44.02 2.42
9 -3 -3 46.54 1.95
-9 2 3 79.55 3.09
-9 2 3 79.93 3.09
-9 2 3 73.13 2.51
-9 2 3 73.28 3.12
9 -2 -3 81.02 3.36
9 -2 -3 83.29 3.24
9 -2 -3 75.54 3.07
-9 1 3 10.02 0.97
-9 1 3 11.84 1.53
-9 1 3 10.96 1.32
9 -1 -3 13.51 1.51
9 -1 -3 11.48 1.42
9 -1 -3 11.25 1.11
9 -1 -3 12.17 1.36
9 -1 -3 14.05 1.47
-9 0 3 10.34 1.07
-9 0 3 8.96 1.4
-9 0 3 9.75 0.66
9 0 -3 10.02 1.22
9 0 -3 11.25 0.97
9 0 -3 8.83 1.11
9 0 -3 9.91 1.02
9 0 -3 9.97 1.26
9 0 -3 7.88 1.18
-9 -1 3 10.79 1.14
-9 -1 3 11.01 1.03
-9 -1 3 9.28 1.46
9 1 -3 10.84 1.19
9 1 -3 11.09 1.14
9 1 -3 10.49 1.15
9 1 -3 10.05 1.18
-9 -2 3 75.7 3.57
-9 -2 3 78.86 1.86
-9 -2 3 82.67 3.11
9 2 -3 78.28 2.59
9 2 -3 78.28 2.5
9 2 -3 80.88 2.62
9 2 -3 78.17 2.66
-9 -3 3 42.15 2.76
9 3 -3 43.58 1.82
9 3 -3 46.1 1.86
9 3 -3 48.65 1.82
-9 -4 3 9.37 1.74
9 4 -3 9.89 0.92
9 4 -3 9.52 0.89
9 4 -3 8.58 0.89
9 5 -3 0.19 0.47
9 5 -3 0.88 0.49
10 -5 -3 0.41 1.25
10 -5 -3 2.21 0.72
10 -4 -3 0.93 1.16
-10 3 3 1.49 0.82
-10 3 3 1.51 0.96
-10 3 3 1.83 0.99
-10 3 3 1.66 1.02
10 -3 -3 1.2 1.14
10 -3 -3 1.99 1.07
-10 2 3 34.21 1.77
-10 2 3 35.6 2.15
-10 2 3 34.92 2.33
10 -2 -3 35.06 2.39
10 -2 -3 33.18 2.18
10 -2 -3 36.08 2.35
-10 1 3 23.14 1.76
-10 1 3 17.84 1.92
-10 1 3 19.69 1.26
10 -1 -3 24.42 2.1
10 -1 -3 25.51 2.1
10 -1 -3 24.8 1.8
-10 0 3 23.02 0.78
-10 0 3 24.28 1.58
-10 0 3 24.14 2.05
10 0 -3 27.53 1.99
10 0 -3 27.18 1.91
10 0 -3 22.37 1.45
10 0 -3 24.96 1.71
-10 -1 3 23.45 1.61
-10 -1 3 21.87 1.31
-10 -1 3 22.5 2.23
10 1 -3 19.98 1.6
10 1 -3 21.89 1.68
10 1 -3 23.23 1.61
10 1 -3 20.92 1.7
-10 -2 3 38.14 1.24
-10 -2 3 36.8 2.66
-10 -2 3 38.37 2.2
10 2 -3 36.32 1.9
10 2 -3 36.28 1.94
10 2 -3 34.52 1.81
-10 -3 3 0.69 1.11
10 3 -3 1.59 0.72
10 3 -3 0.51 0.64
-10 -4 3 2.31 1.39
10 4 -3 0.84 0.62
10 4 -3 0.72 0.62
10 5 -3 1.47 0.62
10 5 -3 2.14 0.64
11 -4 -3 3.48 1.49
-11 3 3 11.05 1.36
-11 3 3 11.93 1.68
11 -3 -3 12.72 1.77
11 -3 -3 11.14 1.82
-11 2 3 3.19 0.89
-11 2 3 3.09 1.15
11 -2 -3 5.28 1.28
11 -2 -3 2.43 1.21
11 -2 -3 2.96 1.09
-11 1 3 2.35 1.18
-11 1 3 5.09 0.86
11 -1 -3 6.12 1.34
11 -1 -3 5 1.2
11 -1 -3 5.28 1.23
-11 0 3 1.52 1.13
11 0 -3 2.29 1.04
11 0 -3 3.12 1.07
-11 -1 3 4.86 1.42
11 1 -3 5.33 1.12
11 1 -3 6.58 1.22
-11 -2 3 5.56 0.64
-11 -2 3 3.6 1.4
11 2 -3 4.69 1.03
-11 -3 3 11.75 1.96
11 3 -3 12.92 1.34
-11 -4 3 2.29 1.45
11 4 -3 4.09 0.9
12 -4 -3 4.68 1.64
-12 3 3 3.73 1.1
-12 3 3 3.86 1.34
12 -3 -3 4.68 1.51
-12 2 3 5.38 1.5
-12 2 3 5.93 1.09
12 -2 -3 6.98 1.55
12 -2 -3 5.55 1.41
-12 1 3 0.63 0.66
-12 1 3 -1.96 0.99
12 -1 -3 -0.49 0.85
12 -1 -3 1.15 1.05
-12 0 3 28.74 2.52
12 0 -3 31.77 2.31
12 0 -3 28.54 2.25
-12 -1 3 0.62 1.15
12 1 -3 -1.79 0.73
-12 -2 3 4.22 1.54
12 2 -3 5.11 1.17
-12 -3 3 3.38 1.61
12 3 -3 3.69 0.98
-12 -4 3 3.44 1.64
12 4 -3 2.95 0.87
-13 3 3 -0.32 0.88
-13 3 3 -0.01 1.18
13 -3 -3 -1.71 1.14
-13 2 3 0.35 0.81
-13 2 3 0.31 1.15
13 -2 -3 -0.42 1.16
-13 1 3 2.57 0.71
-13 1 3 3.75 1.46
13 -1 -3 1.09 1.18
13 -1 -3 1.67 1.14
-13 0 3 9.35 1.83
13 0 -3 11.04 1.63
13 0 -3 12.08 1.71
-13 -1 3 3.87 1.51
13 1 -3 2.31 1.09
-13 -2 3 0.8 1.23
13 2 -3 1.94 1
-13 -3 3 0 1.34
13 3 -3 0.64 0.84
-14 2 3 0.74 1.35
-14 2 3 1 0.88
14 -2 -3 -0.09 1.19
-14 1 3 9.99 0.79
-14 1 3 9.86 1.95
-14 1 3 9.47 0.77
14 -1 -3 9.57 1.8
14 -1 -3 12.99 1.99
-14 0 3 -1.51 1.17
14 0 -3 -0.45 0.93
-14 -1 3 6.38 1.94
14 1 -3 11.76 1.74
14 2 -3 1.76 1.06
15 0 -3 15.13 2.18
13 1 4 4.01 1.35
-13 -1 -4 1.78 1.09
-13 -1 -4 7.37 1.69
13 0 4 2.9 1.35
-13 0 -4 1.81 1.42
13 -1 4 4.57 1.54
-13 1 -4 2.21 0.62
-13 1 -4 3.56 1.69
12 3 4 1.95 1.08
-12 -3 -4 -0.08 1.04
-12 -3 -4 1.81 1.04
12 2 4 5.88 1.36
-12 -2 -4 7.5 1.49
-12 -2 -4 5.67 1.33
12 1 4 3.28 1.23
-12 -1 -4 2.38 1.1
-12 -1 -4 2.38 1.32
12 0 4 11.56 1.79
-12 0 -4 8.67 1.34
-12 0 -4 10.23 1.9
12 -1 4 1.95 1.31
12 -1 4 1.21 1.18
-12 1 -4 0.68 1.4
-12 1 -4 2.8 0.75
12 -2 4 5.93 1.68
-12 2 -4 6.11 1.15
-12 2 -4 5.21 1.67
12 -3 4 4.11 1.58
-12 3 -4 1.34 1.47
11 3 4 1.17 0.94
-11 -3 -4 0.63 1.02
-11 -3 -4 -0.23 0.84
11 2 4 16.11 1.8
-11 -2 -4 13.91 1.8
-11 -2 -4 16.27 1.82
11 1 4 8.67 1.5
-11 -1 -4 7.86 1.35
-11 -1 -4 7.64 1.55
11 0 4 27.49 2.38
11 0 4 24.6 2.28
-11 0 -4 29.36 2
-11 0 -4 25.22 2.42
11 -1 4 11.06 1.73
11 -1 4 10.7 1.75
-11 1 -4 9.94 1.06
-11 1 -4 10.63 1.31
-11 1 -4 11.19 1.79
11 -2 4 17.16 2.14
-11 2 -4 14.64 2.1
-11 2 -4 16.57 1.5
11 -3 4 1.31 1.38
-11 3 -4 2.35 1.46
10 4 4 7.8 1.18
-10 -4 -4 9.9 1.13
-10 -4 -4 4.61 1.44
10 3 4 2.63 0.94
-10 -3 -4 2.07 1.11
-10 -3 -4 1.75 0.88
10 2 4 14.57 1.58
-10 -2 -4 11.34 1.61
-10 -2 -4 12.68 1.57
10 1 4 -0.04 0.86
10 1 4 0.68 0.9
-10 -1 -4 -0.05 0.98
-10 -1 -4 -0.01 0.76
10 0 4 6.59 1.33
10 0 4 6.46 1.34
-10 0 -4 5.02 1.38
-10 0 -4 6.28 1.14
10 -1 4 -0.52 0.97
10 -1 4 0.62 0.92
-10 1 -4 0.65 1.17
-10 1 -4 -0.51 0.68
-10 1 -4 0.67 0.66
10 -2 4 9.61 1.56
10 -2 4 14.61 1.99
-10 2 -4 13.04 1.33
10 -3 4 2.06 1.3
10 -3 4 3.13 1.39
10 -4 4 7.91 1.76
-10 4 -4 5.19 1.57
9 5 4 1.56 0.74
-9 -5 -4 0.83 1.1
9 4 4 2.69 0.81
-9 -4 -4 1.92 0.77
-9 -4 -4 3.81 1.26
9 3 4 8.68 1.2
-9 -3 -4 8.51 1.17
-9 -3 -4 11.38 1.61
9 2 4 12.09 1.41
-9 -2 -4 12.03 1.45
-9 -2 -4 11.07 1.48
9 1 4 22.52 1.83
9 1 4 16.87 1.69
-9 -1 -4 15.47 1.54
-9 -1 -4 19.95 1.39
-9 -1 -4 18.8 1.84
9 0 4 14.27 1.57
9 0 4 18.28 1.81
9 0 4 16.13 1.74
-9 0 -4 13.25 0.82
-9 0 -4 13.68 1.42
-9 0 -4 14.06 1.73
9 -1 4 20.04 1.98
9 -1 4 15.06 1.66
9 -1 4 22.93 2.06
-9 1 -4 15.62 1.58
-9 1 -4 19.36 1.34
-9 1 -4 20.57 1.5
9 -2 4 12.93 1.78
9 -2 4 13.46 1.65
9 -2 4 12.56 1.63
-9 2 -4 13.51 1.35
-9 2 -4 13.97 1.23
9 -3 4 11.29 1.58
9 -3 4 12.89 1.84
-9 3 -4 7.63 1.26
9 -4 4 3.34 1.41
-9 4 -4 2.46 1.33
9 -5 4 1.4 0.68
9 -5 4 0.01 0.61
9 -5 4 0 1.22
-9 5 -4 2.34 1.47
8 5 4 1.17 0.67
-8 -5 -4 2.43 1.28
8 4 4 0.65 0.64
8 4 4 0.01 0.61
-8 -4 -4 -0.31 0.58
-8 -4 -4 0.37 0.88
8 3 4 9.84 1.17
8 3 4 8.99 1.09
-8 -3 -4 8.8 1.11
-8 -3 -4 6.5 1.26
8 2 4 5.67 0.97
8 2 4 7.15 1.01
8 2 4 3.4 0.9
8 2 4 5.14 0.97
-8 -2 -4 5.71 1.14
-8 -2 -4 5.73 1.08
8 1 4 30.61 1.79
8 1 4 31.44 1.85
8 1 4 32.88 1.97
8 1 4 32.39 1.96
-8 -1 -4 31.44 2.04
-8 -1 -4 30.74 1.6
-8 -1 -4 32.67 1.96
8 0 4 72.5 2.95
8 0 4 71.73 2.77
8 0 4 69.95 2.78
8 0 4 70.65 2.4
8 0 4 74.76 2.98
-8 0 -4 67.04 2.66
-8 0 -4 71.36 3.07
-8 0 -4 69.3 1.89
8 -1 4 28.81 2.14
8 -1 4 28.99 1.6
8 -1 4 29.75 2.13
8 -1 4 33.96 1.99
-8 1 -4 28.06 1.5
-8 1 -4 32.16 1.7
-8 1 -4 33.09 1.98
-8 1 -4 28.12 1.77
8 -2 4 4.46 1.09
8 -2 4 6.48 1.25
8 -2 4 4.22 1.25
-8 2 -4 3.68 0.93
-8 2 -4 5.39 0.86
-8 2 -4 5.61 1.1
-8 2 -4 4.34 1.18
8 -3 4 11.94 1.79
8 -3 4 10.94 1.5
-8 3 -4 9.95 1.47
-8 3 -4 8.29 1.45
-8 3 -4 9.04 1.25
8 -4 4 -0.4 0.63
8 -4 4 -0.47 1.04
-8 4 -4 -0.28 0.99
-8 4 -4 0.34 1.12
-8 4 -4 0.62 1.02
8 -5 4 1.68 0.57
8 -5 4 1.04 0.54
8 -5 4 3.8 1.36
-8 5 -4 1.8 1.22
-8 5 -4 -0.24 1.21
7 5 4 5.99 0.88
7 5 4 5.34 0.83
-7 -5 -4 7.72 1.5
7 4 4 9.64 1.04
7 4 4 10.62 1.05
-7 -4 -4 12.12 1.04
-7 -4 -4 8.08 1.41
7 3 4 8.9 1.03
7 3 4 8.75 0.99
7 3 4 8.33 1.02
-7 -3 -4 7.81 1.01
-7 -3 -4 7.17 1.3
7 2 4 29.53 1.6
7 2 4 25.89 1.51
7 2 4 24.88 1.53
7 2 4 19.4 1.47
-7 -2 -4 27.19 1.83
-7 -2 -4 22.58 1.58
7 1 4 36.85 1.86
7 1 4 38.74 1.95
7 1 4 36.61 1.77
7 1 4 38.61 1.97
-7 -1 -4 36.17 1.97
-7 -1 -4 36.2 2.05
-7 -1 -4 37.9 1.68
7 0 4 -0.22 0.54
7 0 4 1.03 0.64
7 0 4 0.04 0.61
7 0 4 0.3 0.68
7 0 4 0.31 0.69
-7 0 -4 -0.06 0.44
-7 0 -4 -0.34 0.51
-7 0 -4 -0.53 0.76
-7 0 -4 0.69 0.58
7 -1 4 34.75 2.16
7 -1 4 32.09 1.85
7 -1 4 31.5 1.59
7 -1 4 35.83 2.1
-7 1 -4 38.76 1.75
-7 1 -4 36.57 1.99
-7 1 -4 33.61 1.52
-7 1 -4 37.05 1.88
7 -2 4 22.71 2.06
7 -2 4 23.29 1.79
7 -2 4 22.92 1.67
-7 2 -4 20.31 1.76
-7 2 -4 23.45 1.74
-7 2 -4 21.74 1.45
7 -3 4 7.05 1.4
7 -3 4 8.19 1
7 -3 4 8.26 1.28
-7 3 -4 6.79 1.33
-7 3 -4 5.58 1.06
-7 3 -4 7.19 1.3
7 -4 4 11.77 1.09
7 -4 4 10.5 1.71
-7 4 -4 10.74 1.59
-7 4 -4 8.34 1.47
-7 4 -4 7.8 1.57
7 -5 4 6.46 1.57
-7 5 -4 3.44 1.41
-7 5 -4 5.34 1.47
6 6 4 4.99 0.8
-6 -6 -4 3.46 1.29
6 5 4 15.39 1.18
6 5 4 14.77 1.13
-6 -5 -4 12.62 1.73
6 4 4 6.14 0.81
6 4 4 3.86 0.73
6 4 4 4.87 0.77
-6 -4 -4 4.01 1.1
-6 -4 -4 5.48 0.74
6 3 4 3.2 0.69
6 3 4 3.48 0.71
6 3 4 2.69 0.69
-6 -3 -4 3.38 0.93
-6 -3 -4 2.68 0.72
6 2 4 2.62 0.64
6 2 4 2.67 0.64
6 2 4 2.06 0.64
6 2 4 2.05 0.66
-6 -2 -4 2.27 0.63
-6 -2 -4 1.98 0.78
-6 -2 -4 1.54 0.72
6 1 4 3.22 0.76
6 1 4 3.17 0.75
6 1 4 2.76 0.67
6 1 4 3.17 0.73
-6 -1 -4 3.2 0.81
-6 -1 -4 3.82 0.65
-6 -1 -4 3.24 0.68
-6 -1 -4 2.95 0.83
6 0 4 3.39 0.75
6 0 4 1 0.7
6 0 4 1.68 0.68
6 0 4 3.1 0.65
6 0 4 3.01 0.71
-6 0 -4 1.9 0.63
-6 0 -4 1.35 0.79
-6 0 -4 2.6 0.69
-6 0 -4 3.16 0.54
6 -1 4 2.08 0.73
6 -1 4 3.48 0.92
6 -1 4 4.95 0.89
6 -1 4 3.44 0.67
6 -1 4 4.15 0.83
6 -1 4 2.74 0.85
-6 1 -4 2.15 0.75
-6 1 -4 3.42 0.77
-6 1 -4 2.82 0.68
6 -2 4 1.76 0.75
6 -2 4 2.72 0.78
6 -2 4 0.75 0.71
6 -2 4 1.55 0.88
6 -2 4 2.88 0.69
-6 2 -4 2.16 0.86
-6 2 -4 1.57 0.76
-6 2 -4 1.12 0.7
6 -3 4 4 0.94
6 -3 4 3.5 1.11
6 -3 4 2.75 0.69
6 -3 4 3.58 0.73
6 -3 4 3.63 0.94
-6 3 -4 4.85 1.09
-6 3 -4 2.73 0.84
-6 3 -4 3.53 1
6 -4 4 4.03 1.1
6 -4 4 4.38 1.28
6 -4 4 4.66 0.71
-6 4 -4 3.62 1.1
-6 4 -4 3.97 1.25
-6 4 -4 4.03 1.2
6 -5 4 14.69 1.93
-6 5 -4 14.56 1.78
-6 5 -4 12.42 1.76
6 -6 4 3.34 1.3
-6 6 -4 4.22 1.37
5 6 4 14.39 1.19
5 6 4 12.25 1.09
-5 -6 -4 11.65 1.81
5 5 4 0.29 0.56
5 5 4 -0.37 0.49
-5 -5 -4 0.49 0.86
5 4 4 30.68 1.36
5 4 4 25.48 1.32
5 4 4 27.71 1.35
-5 -4 -4 25.11 1.96
-5 -4 -4 26.6 1.35
5 3 4 13.11 1.05
5 3 4 14.54 1.07
5 3 4 13.39 0.98
5 3 4 12.53 0.94
-5 -3 -4 13.85 1.09
-5 -3 -4 12.17 0.96
-5 -3 -4 12.58 1.39
5 2 4 38.45 1.56
5 2 4 35.35 1.58
5 2 4 36.86 1.51
5 2 4 37.78 1.58
-5 -2 -4 40.22 2.01
-5 -2 -4 37.77 1.65
-5 -2 -4 37.54 1.65
5 1 4 3.08 0.55
5 1 4 2.93 0.69
5 1 4 2.69 0.66
5 1 4 3.24 0.64
5 1 4 2.26 0.66
-5 -1 -4 2.43 0.61
-5 -1 -4 4.32 0.64
-5 -1 -4 3.93 0.83
-5 -1 -4 4.3 0.62
-5 -1 -4 4.25 0.82
5 0 4 0.55 0.57
5 0 4 -0.26 0.59
5 0 4 0.34 0.51
5 0 4 -0.37 0.47
5 0 4 -0.15 0.62
5 0 4 0.07 0.53
-5 0 -4 0.28 0.55
-5 0 -4 -0.28 0.67
-5 0 -4 0.12 0.53
-5 0 -4 -0.19 0.42
5 -1 4 4 0.85
5 -1 4 3.79 0.81
5 -1 4 2.92 0.71
5 -1 4 2.49 0.7
5 -1 4 2.87 0.59
5 -1 4 1.49 0.74
-5 1 -4 2.57 0.63
-5 1 -4 3.17 0.77
-5 1 -4 3.02 0.89
-5 1 -4 1.48 0.63
5 -2 4 38.92 2
5 -2 4 37.17 2.12
5 -2 4 41.81 1.78
5 -2 4 37.87 1.9
5 -2 4 36.69 1.52
-5 2 -4 37.22 1.94
-5 2 -4 37.95 1.59
-5 2 -4 37.89 1.96
5 -3 4 10.52 1.27
5 -3 4 12.32 0.99
5 -3 4 12.13 1.44
5 -3 4 12.63 1.03
-5 3 -4 11.26 1.31
-5 3 -4 13.74 1.4
-5 3 -4 13.08 1.39
-5 3 -4 11.87 1.16
5 -4 4 28.21 1.11
5 -4 4 29.99 2.12
5 -4 4 27.45 1.81
5 -4 4 27.83 1.09
-5 4 -4 25.75 1.94
-5 4 -4 30.56 2.08
-5 4 -4 27.78 2.04
5 -5 4 -0.23 0.95
-5 5 -4 -0.62 0.82
-5 5 -4 -0.49 0.92
5 -6 4 10.42 1.7
-5 6 -4 13.33 1.78
4 6 4 1.36 0.67
4 6 4 1 0.61
-4 -6 -4 1.37 1.03
4 5 4 9.97 0.93
4 5 4 10.8 0.99
-4 -5 -4 9.52 0.78
-4 -5 -4 11.68 1.63
4 4 4 17.13 1.1
4 4 4 17.52 1.08
4 4 4 18.14 1.11
4 4 4 19.27 1.14
-4 -4 -4 18.32 1.11
-4 -4 -4 19.2 1.79
4 3 4 43.97 1.52
4 3 4 39.82 1.49
4 3 4 39.74 1.39
4 3 4 39.2 1.51
4 3 4 39.62 1.51
-4 -3 -4 38.58 1.54
-4 -3 -4 42.67 1.64
-4 -3 -4 39.48 2.1
4 2 4 60.07 1.9
4 2 4 62.93 1.94
4 2 4 62.18 1.93
4 2 4 58.98 1.95
-4 -2 -4 61.27 2
-4 -2 -4 61.4 2.39
-4 -2 -4 59.53 2.02
4 1 4 75.53 1.89
4 1 4 73.65 2.71
4 1 4 73.89 2.32
4 1 4 74.25 2.37
4 1 4 73.77 2.26
4 1 4 73.19 2.22
-4 -1 -4 71.04 2.05
-4 -1 -4 77.55 2.55
-4 -1 -4 73.41 2.39
-4 -1 -4 76.36 2.38
-4 -1 -4 74.37 2.1
-4 -1 -4 72.97 2.13
4 0 4 0.28 0.64
4 0 4 0.62 0.52
4 0 4 0.71 0.53
4 0 4 0.52 0.65
4 0 4 1.54 0.62
4 0 4 0.36 0.57
-4 0 -4 1.07 0.47
-4 0 -4 0.3 0.69
-4 0 -4 0.79 0.64
4 -1 4 75.35 2.44
4 -1 4 71.46 2.4
4 -1 4 69.23 2.02
4 -1 4 74.81 2.54
4 -1 4 75.67 2.66
4 -1 4 78.26 2.57
-4 1 -4 73.51 2.65
-4 1 -4 67.82 2.05
-4 1 -4 70.16 2.42
4 -2 4 62.32 1.87
4 -2 4 62.52 2.34
4 -2 4 62.42 2.1
4 -2 4 63.1 2.46
4 -2 4 58.15 2.2
-4 2 -4 57.25 2.25
-4 2 -4 64.41 2.02
-4 2 -4 56.96 2.4
-4 2 -4 59.25 2.31
-4 2 -4 60.49 2.33
4 -3 4 38.67 1.84
4 -3 4 43.49 1.46
4 -3 4 39.53 1.42
4 -3 4 42.47 1.96
4 -3 4 40.33 2.14
-4 3 -4 40.34 2.11
-4 3 -4 39.18 1.94
-4 3 -4 43.46 1.76
-4 3 -4 43.38 2.09
-4 3 -4 38.52 2.07
4 -4 4 18.76 1.8
4 -4 4 18.13 1.45
-4 4 -4 16.48 1.36
-4 4 -4 19.62 1.71
-4 4 -4 17.46 1.57
-4 4 -4 16.84 1.68
4 -5 4 10.91 1.56
-4 5 -4 9.96 1.43
-4 5 -4 8.75 1.35
4 -6 4 1.11 1.01
-4 6 -4 2.85 1.1
3 6 4 7.52 0.99
3 6 4 7.71 0.96
-3 -6 -4 5.43 1.31
3 5 4 10.25 0.98
3 5 4 8.01 0.89
-3 -5 -4 10.57 0.83
-3 -5 -4 12.07 1.61
3 4 4 16.04 1.07
3 4 4 16.64 1.08
3 4 4 16.33 1.04
-3 -4 -4 16.73 1.06
-3 -4 -4 14.83 1.56
3 3 4 5.17 0.64
3 3 4 7.27 0.72
3 3 4 6.79 0.63
-3 -3 -4 7.31 0.7
-3 -3 -4 6.45 0.72
-3 -3 -4 6.39 0.96
3 2 4 32.65 1.88
3 2 4 30.16 1.28
3 2 4 29.26 1.32
3 2 4 29.03 1.23
3 2 4 31.23 1.31
3 2 4 32.38 1.33
-3 -2 -4 31.05 1.66
-3 -2 -4 34.02 1.39
-3 -2 -4 32.78 1.41
3 1 4 43.86 1.6
3 1 4 45.79 1.73
3 1 4 45.75 1.63
3 1 4 41.86 1.64
3 1 4 46.79 1.31
-3 -1 -4 44.63 1.76
-3 -1 -4 44.89 1.51
-3 -1 -4 46.38 1.86
-3 -1 -4 45.19 1.75
-3 -1 -4 46.76 1.57
3 0 4 127.04 3.2
3 0 4 131.74 3.34
3 0 4 126.09 3.22
3 0 4 126.64 3.39
3 0 4 126.32 2.82
-3 0 -4 127.32 3.19
-3 0 -4 127.87 2.73
-3 0 -4 128.01 3.39
3 -1 4 41.63 1.97
3 -1 4 47.8 1.86
3 -1 4 45.77 1.82
3 -1 4 47.48 1.78
3 -1 4 42.6 1.85
-3 1 -4 44.94 1.88
-3 1 -4 44.07 1.75
-3 1 -4 45.99 1.57
-3 1 -4 44.82 1.82
3 -2 4 27.85 1.45
3 -2 4 33.84 1.34
3 -2 4 30.72 1.21
3 -2 4 28.6 1.76
-3 2 -4 30.14 1.31
-3 2 -4 29.98 1.56
-3 2 -4 31.48 1.63
-3 2 -4 31.31 1.56
3 -3 4 5.84 0.56
3 -3 4 5.18 0.98
3 -3 4 6.4 0.87
3 -3 4 6.15 0.54
3 -3 4 5.92 0.58
3 -3 4 6.04 0.87
-3 3 -4 7.29 1.01
-3 3 -4 4.9 0.87
-3 3 -4 6.22 0.8
-3 3 -4 6.53 0.96
-3 3 -4 6.2 1.03
3 -4 4 16.92 1.6
3 -4 4 16.1 1.26
-3 4 -4 16.92 1.27
-3 4 -4 16.87 1.52
-3 4 -4 18.21 1.6
-3 4 -4 19.27 1.5
-3 4 -4 16.24 1.49
3 -5 4 8.19 1.32
-3 5 -4 7.35 1.24
-3 5 -4 8.43 1.3
3 -6 4 9.47 1.49
-3 6 -4 8.8 1.38
2 6 4 6.03 0.91
2 6 4 8.93 1.07
-2 -6 -4 8.78 0.85
-2 -6 -4 7.85 1.46
2 5 4 6.29 0.86
2 5 4 7.47 0.9
-2 -5 -4 8.07 0.83
-2 -5 -4 6.17 1.17
2 4 4 52.47 1.78
2 4 4 51.66 1.8
2 4 4 52.25 1.8
-2 -4 -4 53 1.77
-2 -4 -4 49.59 2.38
2 3 4 1.01 0.44
2 3 4 1.07 0.46
2 3 4 0.9 0.45
2 3 4 1.83 0.45
-2 -3 -4 0.79 0.48
-2 -3 -4 1.19 0.63
-2 -3 -4 0.83 0.42
2 2 4 47.16 1.62
2 2 4 46.28 1.6
2 2 4 47.66 1.56
-2 -2 -4 49.11 1.69
-2 -2 -4 49.02 1.65
-2 -2 -4 49.17 1.97
2 1 4 38.36 1.13
2 1 4 40.22 1.46
2 1 4 38.92 1.39
2 1 4 37.83 1.36
2 1 4 37.38 1.47
-2 -1 -4 37.8 1.53
-2 -1 -4 37.93 1.32
-2 -1 -4 40.82 1.53
-2 -1 -4 38.36 1.63
2 0 4 27.25 1.25
2 0 4 26.38 0.99
2 0 4 24.44 1.25
2 0 4 26.11 1.23
2 0 4 27.87 1.2
-2 0 -4 25.16 1.17
-2 0 -4 26.03 1.19
-2 0 -4 26.54 1.32
-2 0 -4 24.81 0.97
-2 0 -4 26.48 1.26
2 -1 4 36.17 1.59
2 -1 4 36.69 1.63
2 -1 4 36.32 1.53
2 -1 4 38.53 1.54
-2 1 -4 41 1.7
-2 1 -4 40.1 1.57
-2 1 -4 40.27 1.58
-2 1 -4 37.16 1.29
2 -2 4 48.22 1.42
2 -2 4 50.12 1.98
2 -2 4 49.96 1.44
2 -2 4 47.18 1.74
-2 2 -4 47.7 1.99
-2 2 -4 48.87 1.56
-2 2 -4 49.53 1.9
-2 2 -4 48.73 1.93
-2 2 -4 49.22 1.87
2 -3 4 0.12 0.52
2 -3 4 0.34 0.64
2 -3 4 1.42 0.52
-2 3 -4 -0.08 0.53
-2 3 -4 1.14 0.68
-2 3 -4 0.38 0.56
-2 3 -4 1.35 0.57
-2 3 -4 1.93 0.64
2 -4 4 50.77 1.92
2 -4 4 52.52 2.34
-2 4 -4 52.14 2.22
-2 4 -4 47.73 2.1
-2 4 -4 48.6 1.83
-2 4 -4 53.62 2.24
-2 4 -4 53.36 2.28
2 -5 4 5.5 1.13
-2 5 -4 7.98 1.19
2 -6 4 9.87 1.4
-2 6 -4 8.67 1.3
1 7 4 3.18 0.9
1 6 4 0.4 0.66
-1 -6 -4 0.54 0.88
-1 -6 -4 0.47 0.61
1 5 4 14.98 1.23
1 5 4 16.44 1.31
-1 -5 -4 15.03 1.24
-1 -5 -4 14.91 1.6
1 4 4 14.85 1.03
1 4 4 15.07 1.09
1 4 4 18.35 1.49
1 4 4 13.82 1.09
-1 -4 -4 14.19 1.42
-1 -4 -4 14.17 1.08
-1 -4 -4 14.2 1.12
1 3 4 26.97 1.19
1 3 4 22.18 1.11
1 3 4 26.36 1.18
1 3 4 24.95 1.17
-1 -3 -4 22.39 1.24
-1 -3 -4 24.55 1.23
-1 -3 -4 24.02 1.46
1 2 4 82.06 2.27
1 2 4 85.25 2.27
1 2 4 84.86 2.21
1 2 4 85.53 2.24
-1 -2 -4 82.39 2.3
-1 -2 -4 86.13 2.61
-1 -2 -4 83.58 2.35
-1 -2 -4 83.75 1.88
1 1 4 33.91 1.29
1 1 4 34.83 1.36
1 1 4 35.25 1.27
1 1 4 34.94 1.35
-1 -1 -4 35.38 1.38
-1 -1 -4 33.69 1.21
-1 -1 -4 33.64 1.37
1 0 4 16.16 1.1
1 0 4 14.73 1.03
1 0 4 14.98 0.81
1 0 4 15.56 0.96
1 0 4 14.76 0.89
-1 0 -4 15.56 0.92
-1 0 -4 15.91 0.78
-1 0 -4 15.33 1.01
-1 0 -4 13.08 1.08
-1 0 -4 13.65 0.95
-1 0 -4 15.92 1.04
1 -1 4 37.18 1.49
1 -1 4 34.17 1.51
1 -1 4 35.02 1.32
1 -1 4 33.98 1.11
1 -1 4 35.52 1.14
1 -1 4 34.17 1.32
-1 1 -4 37.06 1.42
-1 1 -4 35.58 1.45
-1 1 -4 34.83 1.47
-1 1 -4 35.87 1.15
1 -2 4 85.56 1.78
1 -2 4 78.1 2.3
1 -2 4 81.01 2.53
1 -2 4 84.84 1.77
1 -2 4 80.23 2.3
-1 2 -4 80.43 2.44
-1 2 -4 80.51 2.47
-1 2 -4 82.25 2.34
-1 2 -4 85.21 2.42
-1 2 -4 81.49 2.07
1 -3 4 21.91 1.43
1 -3 4 22.87 1.16
1 -3 4 22.16 1.16
-1 3 -4 24.33 1.37
-1 3 -4 23.56 1.41
-1 3 -4 23.44 1.28
-1 3 -4 24.91 1.35
-1 3 -4 24.54 1.1
1 -4 4 14.34 0.98
1 -4 4 16.17 1.37
-1 4 -4 15.88 1.33
-1 4 -4 14.6 1.26
-1 4 -4 15.4 1.19
-1 4 -4 15.34 1.07
-1 4 -4 15.35 1.26
1 -5 4 14.22 1.42
1 -5 4 14.81 0.94
-1 5 -4 15.53 1.46
-1 5 -4 15.26 1.38
1 -6 4 0.79 0.81
-1 6 -4 0.73 0.78
1 -7 4 4.38 1.12
-1 7 -4 1.42 0.93
0 7 4 0.27 0.73
0 -7 -4 -0.19 0.72
0 6 4 11.67 1.27
0 -6 -4 12.21 1.23
0 -6 -4 14.09 1.71
0 5 4 3.73 0.81
0 5 4 2.98 0.78
0 -5 -4 4.4 0.86
0 -5 -4 4.86 1
0 4 4 17.84 1.19
0 4 4 15.42 1.17
0 4 4 16.22 1.09
0 -4 -4 16.96 1.24
0 -4 -4 13.95 1.3
0 -4 -4 16.96 1.25
0 3 4 12.84 0.7
0 3 4 12.84 0.99
0 3 4 10.17 0.87
0 3 4 11.51 1.07
0 3 4 10.55 0.88
0 3 4 9.81 0.9
0 -3 -4 12.75 1.01
0 -3 -4 11.71 0.94
0 -3 -4 9.01 0.95
0 2 4 58.78 1.8
0 2 4 58.99 1.8
0 2 4 55.87 1.82
0 2 4 57.92 1.77
0 -2 -4 56.36 1.56
0 -2 -4 58.68 1.94
0 -2 -4 56.64 1.85
0 -2 -4 58.13 1.99
0 1 4 116.68 2.81
0 1 4 113.73 2.73
0 1 4 118.13 2.79
0 1 4 113.1 2.69
0 -1 -4 120.03 2.72
0 -1 -4 116.07 2.85
0 -1 -4 113 2.79
0 -1 -4 115.46 2.68
0 0 4 25.03 1.13
0 0 4 22.89 0.9
0 0 4 25.2 0.9
0 0 4 24.47 1.08
0 0 4 23.37 1.03
0 0 4 22.84 1.1
0 0 4 21.91 1.16
0 0 -4 24.2 1.14
0 0 -4 23.88 1.1
0 0 -4 25.24 1.09
0 0 -4 24.83 1.13
0 0 -4 25.03 0.9
0 0 -4 23.4 1.11
0 -1 4 111.62 2.82
0 -1 4 115.75 2.32
0 -1 4 117.08 2.69
0 -1 4 117.18 2.31
0 -1 4 118.72 2.85
0 -1 4 115.1 2.67
0 1 -4 116.31 2.41
0 1 -4 112.84 2.39
0 1 -4 111.99 2.83
0 1 -4 112.59 2.69
0 1 -4 114.59 2.76
0 1 -4 114.26 2.8
0 -2 4 57.52 1.96
0 -2 4 58.53 1.74
0 -2 4 54.01 1.71
0 2 -4 61.45 1.52
0 2 -4 59.89 1.83
0 2 -4 58.71 1.92
0 2 -4 58.81 1.82
0 2 -4 58.97 1.52
0 2 -4 59.54 1.89
0 -3 4 11.1 0.62
0 -3 4 10.87 0.76
0 -3 4 10.97 0.98
0 3 -4 12.17 0.79
0 3 -4 11.08 0.95
0 3 -4 10.92 0.92
0 3 -4 11.03 0.96
0 3 -4 10.61 0.91
0 -4 4 16.08 0.83
0 -4 4 16.71 0.86
0 -4 4 16.55 1.31
0 4 -4 16.9 1.24
0 4 -4 13.55 1.11
0 4 -4 15.51 1.24
0 4 -4 15.06 1.11
0 -5 4 4.17 0.89
0 5 -4 4.19 0.84
0 5 -4 4.46 0.86
0 -6 4 10.94 1.25
0 6 -4 10.22 1.23
0 -7 4 0.17 0.74
0 7 -4 -0.71 0.7
-1 7 4 3.54 1.05
1 -7 -4 5.61 1.12
-1 6 4 5.27 1.04
1 -6 -4 6.18 1.07
-1 5 4 49.64 2.18
-1 5 4 51.11 2.21
1 -5 -4 47.88 2.18
1 -5 -4 48.41 2.3
-1 4 4 4.44 0.81
-1 4 4 5.64 0.84
-1 4 4 5.57 0.82
1 -4 -4 5.32 0.89
1 -4 -4 6.15 0.89
1 -4 -4 5.71 0.88
-1 3 4 6.26 0.78
-1 3 4 6.74 0.79
-1 3 4 5.69 0.57
-1 3 4 4.91 0.71
-1 3 4 6.61 0.8
-1 3 4 7.65 0.86
1 -3 -4 5.63 0.82
1 -3 -4 4.58 0.62
1 -3 -4 5.63 0.79
1 -3 -4 5.03 0.72
-1 2 4 24.47 1.3
-1 2 4 25.4 1.23
-1 2 4 23.74 1.23
-1 2 4 24.9 1.24
-1 2 4 25.13 0.98
1 -2 -4 26.44 1.21
1 -2 -4 23.41 1.37
1 -2 -4 24.69 1.21
1 -2 -4 23.58 1.13
1 -2 -4 25.02 1.35
-1 1 4 88.8 1.97
-1 1 4 90.61 2.43
-1 1 4 90.44 2.28
-1 1 4 91.31 2.34
-1 1 4 86.97 2.31
1 -1 -4 89.62 2.3
1 -1 -4 93.15 1.95
1 -1 -4 91.31 2.36
1 -1 -4 89.69 2.42
1 -1 -4 91.67 2.3
-1 0 4 574.58 11.07
-1 0 4 574.37 11.13
-1 0 4 605.2 11.17
-1 0 4 585.84 10.02
-1 0 4 571.2 11.07
-1 0 4 584.18 11.11
-1 0 4 594.47 10.8
1 0 -4 585.95 11.12
1 0 -4 574.51 11.14
1 0 -4 585.34 10.03
1 0 -4 604.84 10.82
1 0 -4 580.12 11.11
1 0 -4 583.42 10.02
-1 -1 4 89.82 1.74
-1 -1 4 87.35 2.28
-1 -1 4 92.77 1.75
-1 -1 4 95.47 2.17
-1 -1 4 87.23 2.16
-1 -1 4 92.93 2.3
-1 -1 4 89.33 2.14
1 1 -4 85.8 2.22
1 1 -4 85.62 1.87
1 1 -4 88.41 2.2
1 1 -4 87.27 2.27
1 1 -4 89.61 2.21
1 1 -4 89.91 1.9
-1 -2 4 24.55 1.16
-1 -2 4 24.84 1.22
-1 -2 4 24.56 0.93
-1 -2 4 23.21 1.01
-1 -2 4 23.71 0.97
-1 -2 4 25.52 1.26
1 2 -4 24.99 1.11
1 2 -4 24.88 1.07
1 2 -4 25.12 1.16
1 2 -4 24.1 1.15
1 2 -4 25.26 0.79
1 2 -4 26.41 0.82
-1 -3 4 5.08 0.58
-1 -3 4 5.77 0.7
-1 -3 4 5.35 0.49
-1 -3 4 5.28 0.48
1 3 -4 6.63 0.67
1 3 -4 5.44 0.67
1 3 -4 6.85 0.73
1 3 -4 5.23 0.64
-1 -4 4 4.38 0.72
1 4 -4 5.04 0.71
1 4 -4 3.61 0.71
1 4 -4 4.88 0.68
1 4 -4 3.9 0.7
-1 -5 4 47.8 1.92
1 5 -4 45.08 1.88
1 5 -4 50.09 2.05
-1 -6 4 6.51 0.93
1 6 -4 6.37 0.98
1 7 -4 3.52 0.91
-2 7 4 2.64 1.03
2 -7 -4 1.56 0.94
-2 6 4 4.17 1.08
2 -6 -4 9.26 1.28
-2 5 4 26.34 1.74
-2 5 4 25.74 1.7
2 -5 -4 22.67 1.74
2 -5 -4 29.25 1.72
2 -5 -4 29.23 1.28
-2 4 4 23.86 1.18
-2 4 4 22.8 1.42
-2 4 4 21.39 1.44
-2 4 4 19.26 1.45
2 -4 -4 22.71 1.53
2 -4 -4 23.45 1.24
2 -4 -4 23.85 1.4
-2 3 4 2.72 0.64
-2 3 4 3.07 0.65
-2 3 4 3.07 0.69
-2 3 4 3.41 0.57
-2 3 4 4.2 0.76
2 -3 -4 3.77 0.61
2 -3 -4 3.22 0.61
2 -3 -4 2.91 0.76
2 -3 -4 3.36 0.57
-2 2 4 6.22 0.83
-2 2 4 6.87 0.85
-2 2 4 7.1 0.68
-2 2 4 5.31 0.77
-2 2 4 6.75 0.79
2 -2 -4 5.99 0.71
2 -2 -4 7.13 0.86
2 -2 -4 5.83 0.73
2 -2 -4 7.77 0.88
2 -2 -4 6.39 0.52
2 -2 -4 6.62 0.65
-2 1 4 267.23 5.67
-2 1 4 270.52 5.62
-2 1 4 271.03 5.01
-2 1 4 265.94 5.6
2 -1 -4 276.72 4.96
2 -1 -4 260.59 5.45
2 -1 -4 264.5 5.68
2 -1 -4 272.92 5.68
2 -1 -4 270.55 5.58
2 -1 -4 270.46 5.59
-2 0 4 364.35 7.02
-2 0 4 370.36 6.45
-2 0 4 359.11 7.18
-2 0 4 364.17 7.26
-2 0 4 370.39 6.43
-2 0 4 364.33 7.19
2 0 -4 364.54 7.26
2 0 -4 372.79 6.49
2 0 -4 358.98 7.19
2 0 -4 367.33 7.04
2 0 -4 369.71 7.22
2 0 -4 362.18 7.24
-2 -1 4 269.77 5.3
-2 -1 4 265.67 5.21
-2 -1 4 273.5 5.48
-2 -1 4 261.85 5.46
-2 -1 4 266.11 5.23
-2 -1 4 265.98 5.27
2 1 -4 270.4 4.75
2 1 -4 276.8 4.76
2 1 -4 268.78 5.4
2 1 -4 270.22 5.3
2 1 -4 273.24 5.43
2 1 -4 272.32 5.47
-2 -2 4 6.77 0.52
-2 -2 4 6.56 0.53
-2 -2 4 7.88 0.83
-2 -2 4 7.33 0.69
-2 -2 4 6.29 0.66
2 2 -4 6.23 0.62
2 2 -4 6.55 0.61
2 2 -4 7.56 0.62
2 2 -4 6.18 0.63
-2 -3 4 2.95 0.61
-2 -3 4 2.68 0.53
2 3 -4 3.58 0.51
2 3 -4 3.3 0.5
2 3 -4 3.61 0.52
2 3 -4 3.29 0.53
-2 -4 4 21.93 1.2
-2 -4 4 22.17 1.19
2 4 -4 20.38 1.16
2 4 -4 21.48 0.95
2 4 -4 22.42 1.07
2 4 -4 23.34 1.12
-2 -5 4 24.74 1.31
2 5 -4 27.87 1.36
2 5 -4 26.67 1.42
-2 -6 4 9.09 0.9
2 6 -4 7.45 0.97
2 6 -4 8.75 1.07
2 7 -4 0.92 0.7
-3 7 4 3.5 1.16
3 -7 -4 4.97 1.2
-3 6 4 0.18 0.8
3 -6 -4 0.91 0.9
-3 5 4 6.03 1.09
3 -5 -4 5.82 1.13
-3 4 4 20.34 1.27
-3 4 4 21.22 1.48
-3 4 4 22.28 1.56
-3 4 4 21.95 1.56
-3 4 4 22.45 1.27
3 -4 -4 21.92 1.27
3 -4 -4 22.41 1.66
3 -4 -4 20.61 1.26
-3 3 4 3.33 0.78
-3 3 4 2.09 0.66
-3 3 4 2.79 0.6
-3 3 4 3.58 0.75
3 -3 -4 3.2 0.78
3 -3 -4 3.1 0.51
3 -3 -4 4.13 0.66
3 -3 -4 3.54 0.74
-3 2 4 35.96 1.57
-3 2 4 37.21 1.68
-3 2 4 37.3 1.66
-3 2 4 35.51 1.29
-3 2 4 39.74 1.72
3 -2 -4 36.16 1.23
3 -2 -4 34.86 1.53
3 -2 -4 36.26 1.71
3 -2 -4 34.32 1.18
-3 1 4 45.45 1.62
-3 1 4 43.83 1.65
-3 1 4 47.69 1.69
-3 1 4 44.81 1.77
-3 1 4 47.31 1.4
3 -1 -4 44.77 1.62
3 -1 -4 45.24 1.64
3 -1 -4 46.46 1.77
3 -1 -4 44.44 1.62
-3 0 4 124.76 2.85
-3 0 4 124.18 2.88
-3 0 4 122.32 2.47
-3 0 4 119.87 2.97
-3 0 4 124.57 2.51
-3 0 4 120.87 3
3 0 -4 118.41 2.87
3 0 -4 122.94 2.98
3 0 -4 122.18 2.91
3 0 -4 122.67 2.94
3 0 -4 117.82 2.51
-3 -1 4 47.01 1.54
-3 -1 4 47.52 1.89
-3 -1 4 48.3 1.31
-3 -1 4 47.49 1.36
-3 -1 4 48.88 1.59
-3 -1 4 47.71 1.38
3 1 -4 46.14 1.53
3 1 -4 43.47 1.43
3 1 -4 45.05 1.1
3 1 -4 47.4 1.13
3 1 -4 48.99 1.46
3 1 -4 45.75 1.43
-3 -2 4 34.51 1.68
-3 -2 4 37.34 1.28
-3 -2 4 37.27 0.84
-3 -2 4 36.32 1.32
3 2 -4 36.96 1.21
3 2 -4 36.48 1.75
3 2 -4 36.83 1.25
3 2 -4 37.13 1.27
3 2 -4 37.55 1.19
3 2 -4 35.79 1.19
-3 -3 4 3.27 0.48
-3 -3 4 2.11 0.66
3 3 -4 3.29 0.4
3 3 -4 3.09 0.46
3 3 -4 2.68 0.47
3 3 -4 3.37 0.44
-3 -4 4 24.19 1.45
-3 -4 4 21.77 1.02
3 4 -4 22.7 1.07
3 4 -4 21.66 0.99
3 4 -4 23.16 1.04
-3 -5 4 6.08 0.61
3 5 -4 5.68 0.75
3 6 -4 1.55 0.65
3 6 -4 0.67 0.56
3 7 -4 1.57 0.7
-4 6 4 7.86 1.36
4 -6 -4 6.04 1.27
-4 5 4 1.39 0.73
-4 5 4 1.74 0.9
4 -5 -4 0.94 0.9
-4 4 4 17.84 1.23
-4 4 4 16.42 1.45
-4 4 4 21.17 1.6
-4 4 4 20.82 1.61
4 -4 -4 19.05 1.69
4 -4 -4 18.77 1.38
-4 3 4 -0.05 0.6
-4 3 4 0.62 0.58
-4 3 4 0.83 0.51
-4 3 4 1 0.63
4 -3 -4 0.58 0.52
4 -3 -4 -0.31 0.28
4 -3 -4 0.01 0.38
4 -3 -4 0.61 0.66
4 -3 -4 0.43 0.57
-4 2 4 46.17 2.12
-4 2 4 46.5 1.89
-4 2 4 45.09 1.6
-4 2 4 52.21 2.02
-4 2 4 45.94 1.95
4 -2 -4 47.9 1.86
4 -2 -4 47.47 1.55
4 -2 -4 48.03 1.25
4 -2 -4 51.67 2.09
-4 1 4 0.83 0.62
-4 1 4 1.08 0.56
-4 1 4 0.2 0.5
-4 1 4 0.08 0.58
-4 1 4 0.38 0.49
4 -1 -4 -0.05 0.6
4 -1 -4 0.44 0.52
4 -1 -4 0.34 0.53
4 -1 -4 0.76 0.63
-4 0 4 217.75 4.09
-4 0 4 220.19 5.34
-4 0 4 219.28 4.85
-4 0 4 217.4 4.07
-4 0 4 223.51 4.86
4 0 -4 212.21 4.72
4 0 -4 218.18 4.84
4 0 -4 209.14 4.18
4 0 -4 221.09 4.68
4 0 -4 219.68 4.77
-4 -1 4 0.26 0.33
-4 -1 4 0.61 0.5
-4 -1 4 0.68 0.46
-4 -1 4 0.91 0.71
-4 -1 4 0.78 0.47
4 1 -4 0.64 0.46
4 1 -4 0.51 0.42
4 1 -4 0.47 0.5
4 1 -4 0.86 0.45
4 1 -4 0.63 0.5
4 1 -4 0.93 0.33
4 1 -4 0.67 0.32
-4 -2 4 48.6 2.1
-4 -2 4 44.14 1.47
4 2 -4 49.79 1.47
4 2 -4 46.38 1.94
4 2 -4 49.54 1.41
4 2 -4 46.56 2.1
4 2 -4 46.85 1.41
4 2 -4 48.61 1.43
-4 -3 4 0.09 0.54
-4 -3 4 0.2 0.33
-4 -3 4 0.17 0.34
4 3 -4 -0.25 0.31
4 3 -4 0.54 0.6
4 3 -4 -0.19 0.28
4 3 -4 0.31 0.36
4 3 -4 -0.17 0.33
-4 -4 4 18.05 1.39
-4 -4 4 16.92 0.75
4 4 -4 17.29 0.87
4 4 -4 17.32 0.81
4 4 -4 15.92 0.83
4 4 -4 17.4 1.4
4 5 -4 2.3 0.49
4 5 -4 2.37 0.55
4 6 -4 7.44 0.81
4 6 -4 7.42 0.83
-5 6 4 0.75 0.92
5 -6 -4 -0.01 0.96
-5 5 4 9.99 1.42
5 -5 -4 11.45 1.57
-5 4 4 27.08 1.53
-5 4 4 30.67 1.95
-5 4 4 27.75 1.6
-5 4 4 28.39 1.93
-5 4 4 28.15 1.88
5 -4 -4 29.39 1.75
5 -4 -4 27.81 2.02
-5 3 4 35.27 1.48
-5 3 4 35.53 1.9
-5 3 4 32.09 1.78
-5 3 4 31.53 1.69
-5 3 4 32.47 1.76
5 -3 -4 34.38 1.72
5 -3 -4 36.71 1.97
5 -3 -4 34.01 1.31
-5 2 4 60.24 2.27
-5 2 4 62.94 2.28
-5 2 4 62.79 2.34
-5 2 4 57.58 1.9
-5 2 4 62.83 2.35
5 -2 -4 63.29 2.31
5 -2 -4 62.56 1.87
5 -2 -4 61.98 2.28
5 -2 -4 57.33 2.41
-5 1 4 34.8 1.82
-5 1 4 35.93 1.39
-5 1 4 37.35 1.94
-5 1 4 39.11 1.73
-5 1 4 40 1.7
-5 1 4 39.5 1.7
5 -1 -4 35.88 1.75
5 -1 -4 37.99 1.72
5 -1 -4 39.2 1.71
5 -1 -4 38.92 1.06
5 -1 -4 38.92 1.94
5 -1 -4 39.11 1.45
-5 0 4 48.26 2.14
-5 0 4 45.99 1.86
5 0 -4 51.15 1.84
5 0 -4 44.94 1.78
5 0 -4 42.83 1.81
5 0 -4 46.31 1.47
5 0 -4 48.32 1.81
5 0 -4 46.13 1.51
-5 -1 4 38.63 1.22
-5 -1 4 39.07 1.64
-5 -1 4 39.13 1.56
-5 -1 4 40.08 2.01
-5 -1 4 39.36 1.36
5 1 -4 36.91 1.62
5 1 -4 37.33 1.58
5 1 -4 38.27 1.46
5 1 -4 36.68 1.47
5 1 -4 37.22 1.44
5 1 -4 39.05 1.13
5 1 -4 37.84 1.12
5 1 -4 36.15 1.99
-5 -2 4 60.16 2.45
-5 -2 4 59.11 1.79
-5 -2 4 59.23 1.82
5 2 -4 62.19 1.72
5 2 -4 62.37 1.71
5 2 -4 63.06 1.76
5 2 -4 58.82 2.43
5 2 -4 61.93 1.73
-5 -3 4 35.15 1.94
-5 -3 4 36.91 1.13
-5 -3 4 36.15 1.16
5 3 -4 33.96 1.11
5 3 -4 33.69 1.1
5 3 -4 34.62 1.15
5 3 -4 29.61 1.87
-5 -4 4 27.26 1.82
5 4 -4 27.16 0.94
5 4 -4 26.52 0.97
5 5 -4 10.21 0.71
5 5 -4 10.15 0.78
5 6 -4 1.36 0.52
5 6 -4 0.6 0.44
-6 6 4 11.7 1.73
6 -6 -4 11.02 1.72
-6 5 4 10.59 1.52
6 -5 -4 11.29 1.62
-6 4 4 27.38 1.95
-6 4 4 29.66 1.64
-6 4 4 26.94 1.95
6 -4 -4 27.81 1.76
6 -4 -4 28.33 2.03
6 -4 -4 26.22 1.11
-6 3 4 27.59 1.85
-6 3 4 24.12 1.73
-6 3 4 27.41 1.61
-6 3 4 27.35 1.47
-6 3 4 28.1 1.78
6 -3 -4 28.08 1.92
6 -3 -4 28.5 1.32
6 -3 -4 25.58 1.71
-6 2 4 11.24 1.16
-6 2 4 11.86 0.98
-6 2 4 15.4 1.37
-6 2 4 18.14 1.47
6 -2 -4 13.26 1.33
6 -2 -4 14.45 1.31
6 -2 -4 13.84 1.03
6 -2 -4 13.05 1.23
-6 1 4 54.24 2.1
-6 1 4 51.7 1.7
-6 1 4 50.88 1.98
-6 1 4 50.52 2.23
6 -1 -4 51.51 2.08
6 -1 -4 51.34 2.26
6 -1 -4 53.11 2.05
6 -1 -4 49.54 1.73
6 -1 -4 51.48 1.3
6 -1 -4 50.2 2.05
-6 0 4 32.87 1.12
-6 0 4 31.16 1.87
-6 0 4 31.92 1.74
-6 0 4 33.91 1.47
6 0 -4 32.98 1.3
6 0 -4 31.54 1.52
6 0 -4 31.6 1.56
6 0 -4 32.55 1.69
6 0 -4 29.08 1.57
6 0 -4 31.84 1.28
6 0 -4 31.56 1.89
-6 -1 4 50.81 1.51
-6 -1 4 50.77 1.95
-6 -1 4 52.76 1.96
-6 -1 4 49.93 2.34
-6 -1 4 53.03 1.66
6 1 -4 51.51 1.8
6 1 -4 58.01 2.44
6 1 -4 49.94 1.78
6 1 -4 51.19 1.87
6 1 -4 48.63 1.9
6 1 -4 52.38 1.84
6 1 -4 50.78 1.44
-6 -2 4 13.96 1.01
-6 -2 4 13.27 1.41
-6 -2 4 14.44 1.02
6 2 -4 14.98 0.92
6 2 -4 14.88 0.98
6 2 -4 13.79 0.93
6 2 -4 14.47 0.95
-6 -3 4 26.73 1.04
-6 -3 4 26.85 1.92
6 3 -4 27.44 1.09
6 3 -4 27 1.1
6 3 -4 26.94 1.07
-6 -4 4 26.13 1.86
6 4 -4 26.6 1
6 4 -4 25.69 0.99
6 4 -4 26.33 0.96
6 5 -4 9.28 0.66
6 5 -4 11.1 0.71
6 6 -4 10.37 0.74
-7 6 4 0.94 1.07
7 -6 -4 2.77 1.2
-7 5 4 8.49 1.44
7 -5 -4 8.14 1.54
-7 4 4 10.35 1.47
-7 4 4 10.29 1.5
-7 4 4 10.7 1.22
7 -4 -4 9.24 1.36
7 -4 -4 10.74 0.95
7 -4 -4 9.38 1.51
-7 3 4 2.06 0.74
-7 3 4 0.98 0.79
-7 3 4 3.23 0.94
-7 3 4 0.01 0.77
7 -3 -4 0.99 0.93
7 -3 -4 2.02 0.68
7 -3 -4 2.07 0.77
7 -3 -4 1.73 0.94
-7 2 4 23.46 1.66
-7 2 4 22.83 1.33
-7 2 4 25.69 1.7
-7 2 4 25.69 1.73
7 -2 -4 25.01 1.62
7 -2 -4 26.12 1.71
7 -2 -4 24.55 1.78
-7 1 4 83.22 2.73
-7 1 4 86.5 3.18
7 -1 -4 82.51 2.84
7 -1 -4 85.1 2.91
7 -1 -4 84.21 2.44
7 -1 -4 86.36 2.81
7 -1 -4 87.26 3.04
7 -1 -4 85.78 1.97
-7 0 4 53.93 1.47
-7 0 4 51.95 2.44
-7 0 4 51.45 1.91
7 0 -4 51.85 1.72
7 0 -4 52.58 2.01
7 0 -4 51.46 2.2
7 0 -4 53.08 2.13
7 0 -4 50.92 2.04
7 0 -4 50.66 1.72
-7 -1 4 87.12 2.71
-7 -1 4 88.35 3.31
-7 -1 4 84.37 2.37
7 1 -4 82.76 2.68
7 1 -4 86.34 2.64
7 1 -4 84.93 2.54
7 1 -4 84.96 2.62
7 1 -4 85.7 2.58
-7 -2 4 24.72 0.69
-7 -2 4 22.32 1.8
-7 -2 4 25.86 1.37
7 2 -4 25.45 1.24
7 2 -4 23.6 1.26
7 2 -4 26.04 1.26
7 2 -4 26.07 1.25
-7 -3 4 2.24 0.99
7 3 -4 1.54 0.51
7 3 -4 1.32 0.55
7 3 -4 1.61 0.48
-7 -4 4 9.41 1.48
7 4 -4 11.37 0.76
7 4 -4 11.48 0.84
7 4 -4 10.97 0.81
7 5 -4 10.46 0.73
-8 6 4 3.58 1.37
8 -6 -4 3.82 1.39
-8 5 4 6.58 1.44
8 -5 -4 5.36 1.45
-8 4 4 20.81 1.65
-8 4 4 21.35 1.98
-8 4 4 23.44 2.08
8 -4 -4 20.82 2.14
8 -4 -4 22.21 1.99
8 -4 -4 18.15 1.22
-8 3 4 10.2 1.41
-8 3 4 9.16 1.3
-8 3 4 8.81 1.09
-8 3 4 11.05 1.37
8 -3 -4 11.21 1.59
8 -3 -4 10.4 1.47
8 -3 -4 12.66 1.44
8 -3 -4 10.45 1.09
-8 2 4 31.49 1.95
-8 2 4 28.27 1.81
-8 2 4 35.55 2.02
-8 2 4 30.83 1.58
8 -2 -4 33.37 2.17
8 -2 -4 34.61 2.07
-8 1 4 19.3 1.14
-8 1 4 19.98 1.47
-8 1 4 22.13 1.7
8 -1 -4 20.99 1.54
8 -1 -4 16.98 1.56
8 -1 -4 20.09 1.65
8 -1 -4 17.93 0.8
8 -1 -4 19.59 1.45
8 -1 -4 20.9 1.28
-8 0 4 16 0.82
-8 0 4 17.37 0.8
-8 0 4 11.64 1.47
-8 0 4 16.06 1.21
8 0 -4 16.85 1.44
8 0 -4 16.7 1.4
8 0 -4 16.02 1.09
8 0 -4 13.2 1.24
8 0 -4 12.86 1.24
8 0 -4 17.59 1.08
-8 -1 4 17.21 1.76
-8 -1 4 19.6 1.17
8 1 -4 19.73 1.39
8 1 -4 18.85 1.31
8 1 -4 20 1.32
8 1 -4 18.75 1.42
-8 -2 4 32.18 0.97
-8 -2 4 34.14 1.61
-8 -2 4 31.43 2.19
8 2 -4 32.1 1.57
8 2 -4 33.77 1.58
8 2 -4 30.32 1.48
8 2 -4 31.63 1.5
-8 -3 4 9.81 1.53
8 3 -4 11.24 0.95
8 3 -4 9.23 0.91
8 3 -4 9.7 0.93
-8 -4 4 18.68 2
8 4 -4 23.3 1.12
8 4 -4 20.82 1.12
8 4 -4 21.66 1.18
8 5 -4 5.59 0.64
8 5 -4 7.82 0.71
-9 5 4 0.98 1.1
9 -5 -4 -0.63 1.07
9 -5 -4 0.19 0.5
-9 4 4 8.23 1.5
-9 4 4 10.23 1.37
-9 4 4 7.75 1.49
9 -4 -4 7.83 1.04
9 -4 -4 8.12 1.61
-9 3 4 10.39 1.44
-9 3 4 11.81 1.31
-9 3 4 12.79 1.56
-9 3 4 11.61 1.57
9 -3 -4 11.66 1.67
9 -3 -4 11.89 1.53
9 -3 -4 10.75 1.14
-9 2 4 3.61 1.13
-9 2 4 4.08 0.89
-9 2 4 4.82 1.02
-9 2 4 5.01 1.1
9 -2 -4 3.97 1.16
9 -2 -4 5.45 1.14
9 -2 -4 4.17 1.08
-9 1 4 2.73 0.72
-9 1 4 0.58 0.73
-9 1 4 0.02 0.96
9 -1 -4 1.66 0.67
9 -1 -4 1.1 0.81
9 -1 -4 0.72 0.84
9 -1 -4 2.07 0.86
9 -1 -4 1.9 0.84
-9 0 4 4.88 1.21
-9 0 4 4.78 0.8
-9 0 4 3.53 0.5
-9 0 4 3.71 0.51
9 0 -4 4.37 1
9 0 -4 3.42 0.94
9 0 -4 3.98 0.9
9 0 -4 4.32 0.79
9 0 -4 5.96 0.99
9 0 -4 3.23 0.64
-9 -1 4 0.62 0.59
-9 -1 4 1.35 0.96
9 1 -4 1.56 0.75
9 1 -4 1.87 0.76
9 1 -4 2.61 0.77
9 1 -4 2.24 0.74
-9 -2 4 5.9 0.56
-9 -2 4 3.77 1.25
9 2 -4 5 0.87
9 2 -4 5.05 0.85
9 2 -4 4.12 0.85
9 2 -4 5.63 0.85
-9 -3 4 9.6 1.61
9 3 -4 11.28 1.08
9 3 -4 11.01 1.05
9 3 -4 11.38 1.07
-9 -4 4 8.18 1.68
9 4 -4 8.67 0.93
9 4 -4 7.66 0.89
9 4 -4 8.02 0.86
9 5 -4 0.14 0.5
9 5 -4 0.59 0.52
10 -5 -4 7.31 0.91
10 -5 -4 8.77 1.81
10 -4 -4 8.17 1.75
-10 3 4 1.34 0.97
-10 3 4 2.5 1.06
-10 3 4 2.65 0.95
-10 3 4 0.89 0.91
10 -3 -4 0.01 1
10 -3 -4 2.81 1.28
-10 2 4 15.67 1.77
-10 2 4 19.53 1.44
-10 2 4 18.86 1.79
10 -2 -4 27.62 2.25
10 -2 -4 22.46 1.97
10 -2 -4 21.57 2.15
-10 1 4 38.14 2.14
-10 1 4 38.8 2.49
-10 1 4 37.68 1.63
10 -1 -4 35.01 2.24
10 -1 -4 38.46 2.17
10 -1 -4 42.42 2.45
-10 0 4 0.57 0.65
-10 0 4 0.01 0.97
-10 0 4 0.22 0.34
-10 0 4 -0.18 0.34
10 0 -4 -0.98 0.75
10 0 -4 0.53 0.82
10 0 -4 0.71 0.81
10 0 -4 0.33 0.5
-10 -1 4 38.49 1.74
-10 -1 4 35.29 2.5
10 1 -4 39.24 2.09
10 1 -4 37.02 1.98
10 1 -4 39.58 2.1
10 1 -4 37.45 2.01
-10 -2 4 14.32 1.95
-10 -2 4 21.59 0.97
10 2 -4 20.42 1.55
10 2 -4 21.03 1.49
10 2 -4 19.21 1.54
-10 -3 4 2.42 1.26
10 3 -4 2.25 0.76
10 3 -4 2 0.73
-10 -4 4 6.49 1.59
10 4 -4 8.11 0.97
10 4 -4 8.46 0.98
10 5 -4 6.74 0.87
10 5 -4 6.72 0.86
11 -4 -4 3.12 1.38
-11 3 4 8.9 1.29
-11 3 4 7.18 1.45
11 -3 -4 10.55 1.86
11 -3 -4 10.51 1.68
-11 2 4 3.05 0.89
-11 2 4 3.5 1.29
11 -2 -4 4.49 1.28
11 -2 -4 2.77 1.27
11 -2 -4 4.87 1.26
-11 1 4 34.2 2.46
-11 1 4 36.94 1.6
11 -1 -4 33.95 2.29
11 -1 -4 36.46 2.47
11 -1 -4 33.59 2.37
-11 0 4 32.69 2.48
11 0 -4 35.85 2.31
11 0 -4 36.11 2.37
11 0 -4 35.35 2.11
-11 -1 4 32.86 2.58
-11 -1 4 38.04 1.79
11 1 -4 36.3 2.2
11 1 -4 37.49 2.21
-11 -2 4 4.35 1.4
-11 -2 4 4.29 0.61
11 2 -4 4.42 1.04
-11 -3 4 7.94 1.75
11 3 -4 9.33 1.18
-11 -4 4 4.5 1.56
11 4 -4 3.55 0.86
12 -4 -4 6.23 1.69
-12 3 4 3.59 1.27
-12 3 4 3.5 1.1
12 -3 -4 4.47 1.49
-12 2 4 6.25 1.11
-12 2 4 7.52 1.64
12 -2 -4 13.24 1.82
12 -2 -4 12.75 1.76
-12 1 4 7.37 0.94
-12 1 4 6.57 1.52
12 -1 -4 8.26 1.51
12 -1 -4 8.33 1.47
-12 0 4 0.19 1.2
12 0 -4 1.71 1.08
12 0 -4 0.99 0.96
-12 -1 4 4.3 1.5
12 1 -4 4.91 1.24
-12 -2 4 7.4 1.7
12 2 -4 8.68 1.36
-12 -3 4 4.6 1.65
12 3 -4 4.8 1.05
-12 -4 4 2.95 1.59
12 4 -4 4.84 1.01
-13 3 4 4.69 1.53
-13 3 4 4.68 1.23
13 -3 -4 8.78 1.81
-13 2 4 -0.19 0.77
-13 2 4 0.22 1.28
13 -2 -4 -0.74 1.12
-13 1 4 5.17 1.55
-13 1 4 4.25 0.75
13 -1 -4 4.08 1.3
13 -1 -4 5.03 1.44
-13 0 4 1.69 1.32
13 0 -4 -0.16 0.98
13 0 -4 0.42 1.08
-13 -1 4 4.9 1.7
13 1 -4 6.26 1.36
-13 -2 4 -0.91 1.16
13 2 -4 0.42 0.9
-13 -3 4 4.72 1.68
13 3 -4 5.19 1.17
-14 2 4 3.44 1
-14 2 4 5.02 1.72
14 -2 -4 7.3 1.78
-14 1 4 2.3 0.59
-14 1 4 2.47 1.57
-14 1 4 2.44 0.59
14 -1 -4 2.41 1.38
14 -1 -4 3.66 1.37
-14 0 4 -0.37 1.21
14 0 -4 0.44 0.99
-14 -1 4 2.97 1.61
14 1 -4 1.52 1.08
-14 -2 4 5.81 1.79
14 2 -4 4.32 1.27
15 0 -4 6.73 1.64
13 0 5 1.96 1.35
-13 0 -5 1.03 1.45
12 2 5 3 1.18
-12 -2 -5 2.42 1.15
-12 -2 -5 2.11 1.21
12 1 5 -0.59 0.95
-12 -1 -5 0.82 1.2
-12 -1 -5 0.41 0.91
12 0 5 4.11 1.41
-12 0 -5 0.72 0.89
-12 0 -5 1.73 1.41
12 -1 5 2.14 1.28
12 -1 5 3.11 1.43
-12 1 -5 2.1 0.74
-12 1 -5 4.57 1.68
12 -2 5 -0.18 1.2
-12 2 -5 0.2 1.35
-12 2 -5 0.96 0.88
11 3 5 6.65 1.38
-11 -3 -5 9.46 1.41
-11 -3 -5 6.42 1.48
11 2 5 0.39 0.95
-11 -2 -5 2.09 1.07
-11 -2 -5 -0.55 0.99
11 1 5 0.53 0.97
-11 -1 -5 2.63 1.32
-11 -1 -5 1.5 0.99
11 0 5 1.1 1.09
11 0 5 -0.01 0.96
-11 0 -5 0.93 1.2
-11 0 -5 -0.64 0.72
11 -1 5 0.23 1.04
11 -1 5 1.49 1.24
-11 1 -5 -0.32 1.24
-11 1 -5 1.76 0.75
-11 1 -5 1.59 0.84
11 -2 5 0.26 1.16
-11 2 -5 -0.38 0.84
-11 2 -5 1.12 1.37
11 -3 5 9.15 1.89
-11 3 -5 7.25 1.87
10 4 5 5.06 1.08
-10 -4 -5 3.89 1
-10 -4 -5 3.13 1.28
10 3 5 13.99 1.62
-10 -3 -5 12.27 1.47
-10 -3 -5 12.29 1.78
10 2 5 0.86 0.92
-10 -2 -5 0.45 0.89
-10 -2 -5 1.88 1.04
10 1 5 25.64 2.12
10 1 5 25.48 2.09
-10 -1 -5 26.4 2.31
-10 -1 -5 24.6 2
10 0 5 2.59 1.11
10 0 5 2.77 1.1
-10 0 -5 2.1 1.21
-10 0 -5 1.73 0.85
10 -1 5 23.75 2.32
10 -1 5 25.56 2.38
-10 1 -5 23.87 2.4
-10 1 -5 24.35 1.77
-10 1 -5 23.17 1.4
10 -2 5 1.52 1.16
-10 2 -5 0.45 1.24
-10 2 -5 -1.02 0.78
10 -3 5 13.44 2.05
-10 3 -5 8.38 1.8
10 -4 5 4.61 1.54
-10 4 -5 6.74 1.74
9 4 5 3.14 0.92
-9 -4 -5 1.74 0.82
-9 -4 -5 1.28 1.05
9 3 5 1.73 0.89
-9 -3 -5 3.12 1.15
-9 -3 -5 3.01 0.95
9 2 5 3.61 1.04
-9 -2 -5 3.41 1.1
-9 -2 -5 2.73 1.01
9 1 5 80.12 3.25
9 1 5 83.28 3.18
-9 -1 -5 76.18 3.22
-9 -1 -5 76.12 3.32
9 0 5 0.28 0.9
9 0 5 0.12 0.81
-9 0 -5 -0.52 0.98
-9 0 -5 0.38 0.47
-9 0 -5 2.04 0.85
9 -1 5 75.76 3.22
9 -1 5 78.85 3.43
9 -1 5 79.79 3.46
-9 1 -5 76.97 2.51
-9 1 -5 82.52 2.95
-9 1 -5 80.28 3.65
9 -2 5 3.63 1.11
9 -2 5 4.82 1.35
9 -2 5 1.88 1.05
-9 2 -5 2.26 0.76
-9 2 -5 2.61 0.91
-9 2 -5 5.79 1.51
9 -3 5 3.5 1.37
9 -3 5 1.08 1.01
-9 3 -5 2.08 1.31
9 -4 5 1.73 1.29
-9 4 -5 2.21 1.35
8 5 5 2.72 0.81
-8 -5 -5 2.1 1.17
8 4 5 3.32 0.88
-8 -4 -5 5.59 1.35
-8 -4 -5 4.72 0.93
8 3 5 8.28 1.14
-8 -3 -5 9.83 1.22
-8 -3 -5 9.51 1.48
8 2 5 6.88 1.14
-8 -2 -5 7.62 1.22
-8 -2 -5 7.99 1.33
8 1 5 -0.06 0.64
8 1 5 1.14 0.81
8 1 5 0.59 0.77
-8 -1 -5 0.8 0.97
-8 -1 -5 0.95 0.73
-8 -1 -5 0.65 0.74
8 0 5 134.93 4.26
8 0 5 135.32 4.35
8 0 5 144.21 4.48
8 0 5 137.87 3.71
-8 0 -5 151.47 4.74
-8 0 -5 140.25 3.13
-8 0 -5 150.24 4.35
8 -1 5 0.25 0.79
8 -1 5 0.78 0.84
8 -1 5 0.17 0.92
-8 1 -5 1.81 0.92
-8 1 -5 0.41 0.65
-8 1 -5 0.47 1.08
-8 1 -5 1.49 0.75
8 -2 5 6.49 1.25
8 -2 5 5.77 1.23
8 -2 5 5.55 1.33
-8 2 -5 6.11 1.2
-8 2 -5 6.1 1.02
-8 2 -5 6.53 1.21
-8 2 -5 5.46 1.4
8 -3 5 8.82 1.42
8 -3 5 10.94 1.77
-8 3 -5 7.63 1.17
-8 3 -5 7.41 1.36
-8 3 -5 8.72 1.48
-8 3 -5 8.91 1.68
8 -4 5 3.24 1.34
8 -4 5 5.21 0.95
-8 4 -5 1.75 1.29
-8 4 -5 6.76 1.41
-8 4 -5 5.55 1.48
8 -5 5 2.85 0.59
8 -5 5 2.19 1.35
8 -5 5 4.16 0.67
-8 5 -5 3.88 1.46
-8 5 -5 2.87 1.33
7 5 5 -0.26 0.62
-7 -5 -5 0.09 0.92
7 4 5 0.3 0.63
7 4 5 0.57 0.65
-7 -4 -5 1.06 0.94
-7 -4 -5 0.93 0.68
7 3 5 0.79 0.67
7 3 5 1.07 0.68
7 3 5 0.48 0.59
-7 -3 -5 1.94 0.76
-7 -3 -5 -0.12 0.78
7 2 5 7.26 1.03
7 2 5 5.91 0.93
7 2 5 5.78 0.98
7 2 5 6.78 0.98
-7 -2 -5 6.86 1.12
-7 -2 -5 6.19 1.14
7 1 5 18.64 1.55
7 1 5 19.11 1.49
7 1 5 17.82 1.42
7 1 5 19.69 1.63
-7 -1 -5 16.09 1.58
-7 -1 -5 16.43 1.56
-7 -1 -5 16.85 1.25
7 0 5 6.61 1.11
7 0 5 8.6 0.96
7 0 5 9.48 1.28
7 0 5 9.07 1.17
7 0 5 9.21 1.17
-7 0 -5 8.57 1.13
-7 0 -5 8.58 0.8
-7 0 -5 9.16 1.11
-7 0 -5 8.49 1.35
7 -1 5 13.65 1.55
7 -1 5 18.05 1.28
7 -1 5 21.31 1.84
7 -1 5 19.15 1.65
-7 1 -5 16.81 1.38
-7 1 -5 19.5 1.64
-7 1 -5 17.21 1.2
-7 1 -5 17.91 1.57
-7 1 -5 16.54 1.79
7 -2 5 6.46 1.16
7 -2 5 8.68 1.43
7 -2 5 5.07 1.1
-7 2 -5 8.34 1.04
-7 2 -5 6.43 1.2
-7 2 -5 6.07 1.16
-7 2 -5 7.82 1.47
7 -3 5 0.88 1.03
7 -3 5 0.18 0.8
7 -3 5 0.73 0.71
-7 3 -5 1.58 0.93
-7 3 -5 1.31 0.84
-7 3 -5 1.12 1.1
-7 3 -5 1.56 0.96
7 -4 5 -0.01 0.6
7 -4 5 0.92 1.08
-7 4 -5 -0.61 1.02
-7 4 -5 1.15 1.07
-7 4 -5 2.04 1.05
7 -5 5 0.76 1.09
-7 5 -5 0.83 1.22
-7 5 -5 0.13 1.03
6 6 5 2.2 0.73
-6 -6 -5 2.58 1.3
6 5 5 3.52 0.8
6 5 5 3.78 0.82
-6 -5 -5 5.9 1.35
6 4 5 6.9 0.94
6 4 5 6.31 0.87
-6 -4 -5 5.99 0.87
-6 -4 -5 4.71 1.2
6 3 5 29.94 1.53
6 3 5 28.25 1.59
6 3 5 27.76 1.54
-6 -3 -5 30.04 2.08
-6 -3 -5 29.38 1.58
6 2 5 9.41 1.03
6 2 5 9.01 1.02
6 2 5 10.39 1.06
6 2 5 9.41 1.09
-6 -2 -5 9.06 1.14
-6 -2 -5 9.3 1.25
6 1 5 4.41 0.84
6 1 5 5.25 0.85
6 1 5 4.82 0.9
6 1 5 5.25 0.89
-6 -1 -5 6.02 0.86
-6 -1 -5 4.22 0.97
-6 -1 -5 4.84 0.75
-6 -1 -5 5.47 0.78
-6 -1 -5 3.46 0.83
6 0 5 7.24 1.03
6 0 5 9.36 1.05
6 0 5 11.36 1.29
6 0 5 10.51 1.01
6 0 5 9.78 1.11
-6 0 -5 8.39 1.25
-6 0 -5 8.56 0.78
-6 0 -5 10.71 1.15
-6 0 -5 10.46 1.1
-6 0 -5 10.07 1.15
6 -1 5 4.49 0.78
6 -1 5 6.32 1.1
6 -1 5 6.25 1.07
6 -1 5 4.47 0.94
-6 1 -5 5.42 0.93
-6 1 -5 5.09 0.82
-6 1 -5 4.6 0.98
-6 1 -5 5.3 1.15
6 -2 5 11.05 1.37
6 -2 5 11.33 1.3
6 -2 5 8.58 1.34
6 -2 5 12.49 1.29
6 -2 5 11.74 1.05
-6 2 -5 9.31 1.24
-6 2 -5 8.4 1.19
-6 2 -5 9.1 1.08
-6 2 -5 12.61 1.59
6 -3 5 29.34 1.88
6 -3 5 30.89 2.26
6 -3 5 28.87 1.49
6 -3 5 29.81 1.65
-6 3 -5 28.01 1.68
-6 3 -5 30.61 2.09
-6 3 -5 33.33 2.12
-6 3 -5 24.89 2.07
6 -4 5 5.01 0.77
6 -4 5 3.4 0.71
6 -4 5 5.94 1.35
-6 4 -5 7.07 1.45
-6 4 -5 6.78 1.35
-6 4 -5 6.22 1.36
6 -5 5 3.28 1.32
-6 5 -5 5.96 1.4
-6 5 -5 4.07 1.37
6 -6 5 2.67 1.29
-6 6 -5 1.13 1.18
5 6 5 6.44 0.95
-5 -6 -5 6.33 1.48
5 5 5 3.68 0.78
5 5 5 3.54 0.76
5 5 5 4.08 0.79
-5 -5 -5 2.67 1.08
-5 -5 -5 3.92 0.61
5 4 5 2.03 0.68
5 4 5 2.04 0.66
5 4 5 2.07 0.65
-5 -4 -5 3.03 0.98
-5 -4 -5 2.04 0.68
5 3 5 11.35 1.04
5 3 5 9.82 0.9
5 3 5 10.47 1.05
5 3 5 10.44 1.01
-5 -3 -5 12.27 1.48
-5 -3 -5 11.38 1.1
5 2 5 33.63 1.62
5 2 5 34.3 1.55
5 2 5 34.27 1.65
5 2 5 33.98 1.59
-5 -2 -5 34.9 1.73
-5 -2 -5 34.45 1.92
-5 -2 -5 32.14 1.66
5 1 5 25.02 1.41
5 1 5 27.43 1.26
5 1 5 25.72 1.54
5 1 5 27.1 1.57
5 1 5 23.12 1.39
-5 -1 -5 26.39 1.32
-5 -1 -5 23.1 1.58
-5 -1 -5 26.58 1.3
-5 -1 -5 24.44 1.58
-5 -1 -5 24.97 1.32
5 0 5 5.36 0.91
5 0 5 7.32 0.84
5 0 5 5.54 0.88
5 0 5 6.08 0.96
5 0 5 6.14 0.9
-5 0 -5 5.41 1.01
-5 0 -5 7.48 0.73
-5 0 -5 5.21 0.85
5 -1 5 28.34 1.76
5 -1 5 26.91 1.75
5 -1 5 24.14 1.25
5 -1 5 29.07 1.58
5 -1 5 27.45 1.75
-5 1 -5 27.05 1.55
-5 1 -5 24.52 1.76
-5 1 -5 24.41 1.28
-5 1 -5 24.24 1.49
5 -2 5 33.96 1.48
5 -2 5 30.99 1.75
5 -2 5 32.38 1.69
5 -2 5 32.85 1.98
5 -2 5 34.62 1.95
-5 2 -5 30.64 1.98
-5 2 -5 31.01 1.54
-5 2 -5 30.7 1.78
-5 2 -5 34.36 1.85
5 -3 5 10.78 0.98
5 -3 5 9.16 1.2
5 -3 5 9.63 0.95
5 -3 5 12.42 1.54
-5 3 -5 11.92 1.41
-5 3 -5 8.25 1.25
-5 3 -5 8.42 1.35
-5 3 -5 9.07 1.09
-5 3 -5 8.79 1.31
5 -4 5 2.18 0.55
5 -4 5 0.96 0.5
5 -4 5 1.35 0.84
5 -4 5 1.22 0.99
-5 4 -5 1.42 0.96
-5 4 -5 3.59 1.06
-5 4 -5 2.54 1.09
5 -5 5 2.02 1.12
-5 5 -5 4.2 1.2
-5 5 -5 2.96 1.2
5 -6 5 6.76 1.48
-5 6 -5 4.49 1.38
4 6 5 0.99 0.64
-4 -6 -5 1.47 1.05
4 5 5 27.01 1.51
4 5 5 23.56 1.39
-4 -5 -5 29.11 1.31
-4 -5 -5 29.61 2.25
4 4 5 13.17 1.02
4 4 5 13.1 1.09
4 4 5 15.32 1.16
4 4 5 14.06 1.09
-4 -4 -5 11.38 1.51
-4 -4 -5 14.55 1.17
4 3 5 20.37 1.26
4 3 5 22.89 1.23
4 3 5 21.64 1.25
4 3 5 21.95 1.24
-4 -3 -5 24.75 1.37
-4 -3 -5 22.36 1.67
-4 -3 -5 22.3 1.41
4 2 5 1.03 0.57
4 2 5 1.73 0.57
4 2 5 -0.04 0.47
4 2 5 0.89 0.49
-4 -2 -5 1.98 0.69
-4 -2 -5 0.32 0.5
-4 -2 -5 1.34 0.63
4 1 5 2.84 0.54
4 1 5 2.82 0.68
4 1 5 1.88 0.57
4 1 5 2.67 0.68
4 1 5 2.47 0.67
-4 -1 -5 1.84 0.64
-4 -1 -5 2.03 0.76
-4 -1 -5 1.92 0.56
-4 -1 -5 2.44 0.63
-4 -1 -5 2.49 0.56
4 0 5 9.46 1.15
4 0 5 8.57 0.99
4 0 5 8.46 0.8
4 0 5 8.21 0.89
4 0 5 8.92 0.98
4 0 5 11.96 1.18
-4 0 -5 9.15 0.78
-4 0 -5 8 0.91
-4 0 -5 8.06 1.06
4 -1 5 1.66 0.68
4 -1 5 2.06 0.7
4 -1 5 2.42 0.59
4 -1 5 2.36 0.79
4 -1 5 2.84 0.68
4 -1 5 1.44 0.69
-4 1 -5 1.07 0.78
-4 1 -5 2.55 0.72
-4 1 -5 1.73 0.6
-4 1 -5 1.72 0.71
4 -2 5 0.73 0.62
4 -2 5 1.18 0.5
4 -2 5 1 0.74
4 -2 5 1.62 0.58
4 -2 5 0.64 0.6
-4 2 -5 1.57 0.69
-4 2 -5 1.57 0.71
-4 2 -5 1.09 0.61
-4 2 -5 1.11 0.75
-4 2 -5 0.32 0.76
4 -3 5 20.51 1.43
4 -3 5 22.71 1.17
4 -3 5 24.4 1.15
4 -3 5 22.44 1.84
-4 3 -5 20.62 1.62
-4 3 -5 23.52 1.8
-4 3 -5 16.17 1.6
-4 3 -5 22.92 1.39
-4 3 -5 26.83 1.67
4 -4 5 13.46 1.58
4 -4 5 11.96 1.33
-4 4 -5 15.29 1.58
-4 4 -5 15.36 1.62
-4 4 -5 14.6 1.63
4 -5 5 30.94 2.27
-4 5 -5 27.19 2.12
-4 5 -5 31.8 2.2
4 -6 5 0.27 1
-4 6 -5 -0.47 0.91
3 6 5 0.94 0.68
-3 -6 -5 1.12 0.96
3 5 5 15.89 1.27
3 5 5 15.46 1.21
-3 -5 -5 16.63 1.15
-3 -5 -5 13.74 1.66
3 4 5 57.53 2.03
3 4 5 55.61 1.97
3 4 5 58.09 1.97
-3 -4 -5 56.05 1.96
-3 -4 -5 55.25 2.66
3 3 5 22.45 1.2
3 3 5 21.5 1.16
3 3 5 19.3 1.18
3 3 5 19.28 1.16
-3 -3 -5 22.03 1.24
-3 -3 -5 19.31 1.3
-3 -3 -5 17.76 1.49
3 2 5 3.32 0.66
3 2 5 2.9 0.63
3 2 5 4.49 0.69
3 2 5 4.15 0.65
-3 -2 -5 4.59 0.78
-3 -2 -5 5.46 0.75
-3 -2 -5 5.73 0.89
3 1 5 115.64 3.16
3 1 5 112.8 3.01
3 1 5 116.24 2.61
3 1 5 117.13 3.16
3 1 5 118.89 3.07
-3 -1 -5 117.26 3.4
-3 -1 -5 114.92 3.2
-3 -1 -5 116.09 2.92
3 0 5 122.41 3.31
3 0 5 120.54 2.81
3 0 5 123.65 3.19
3 0 5 118.38 3.2
3 0 5 119.7 3.35
-3 0 -5 123.23 3.4
-3 0 -5 120.38 2.71
-3 0 -5 119.83 3.17
3 -1 5 133.25 3.35
3 -1 5 114.88 3.33
3 -1 5 117.64 3.38
3 -1 5 118.12 3.22
-3 1 -5 118.88 3.31
-3 1 -5 116.95 3.23
-3 1 -5 112.52 2.83
-3 1 -5 114.93 3.27
3 -2 5 2.99 0.81
3 -2 5 4.38 0.79
3 -2 5 2.24 0.58
3 -2 5 4.1 0.77
3 -2 5 5.32 0.72
-3 2 -5 4.33 0.82
-3 2 -5 3.61 0.7
-3 2 -5 3.95 0.85
-3 2 -5 2.09 0.82
-3 2 -5 3.39 0.73
3 -3 5 19.84 1.39
3 -3 5 19.88 1.3
3 -3 5 18.71 0.94
3 -3 5 20.94 0.96
3 -3 5 19.25 1.63
3 -3 5 20.08 0.97
-3 3 -5 20.63 1.56
-3 3 -5 18.64 1.47
-3 3 -5 20.48 1.5
-3 3 -5 22.1 1.29
-3 3 -5 20.29 1.57
3 -4 5 52.83 2.22
3 -4 5 55.65 2.61
-3 4 -5 59.64 2.54
-3 4 -5 55.95 2.53
-3 4 -5 56.49 2.15
-3 4 -5 56.52 2.5
3 -5 5 18.34 1.85
-3 5 -5 13.99 1.58
3 -6 5 1.77 1.09
-3 6 -5 0.97 0.92
2 6 5 10.2 1.13
-2 -6 -5 9.13 0.95
-2 -6 -5 11.15 1.66
2 5 5 4.31 0.83
2 5 5 4.03 0.81
-2 -5 -5 5.19 0.83
-2 -5 -5 3.01 1
2 4 5 44.57 1.59
2 4 5 45.04 1.79
2 4 5 48.13 1.83
2 4 5 48.03 1.77
-2 -4 -5 48.43 2.38
-2 -4 -5 44.27 1.78
2 3 5 12.31 0.92
2 3 5 10.96 0.92
2 3 5 12.67 0.92
2 3 5 12.24 1.01
-2 -3 -5 11.58 0.94
-2 -3 -5 12.39 1.31
-2 -3 -5 11.91 1.01
2 2 5 48.67 1.72
2 2 5 47.38 1.68
2 2 5 44.91 1.71
2 2 5 47.02 1.65
-2 -2 -5 46.51 1.98
-2 -2 -5 45.81 1.71
-2 -2 -5 46.49 1.78
2 1 5 74.97 2.17
2 1 5 77.35 1.86
2 1 5 72.67 2.28
2 1 5 74 2.2
2 1 5 71.28 2.27
-2 -1 -5 70.16 2.31
-2 -1 -5 74.82 2.1
-2 -1 -5 76.64 2.37
2 0 5 238.86 5.23
2 0 5 241.34 5.34
2 0 5 236.84 5.14
2 0 5 244.85 5.35
2 0 5 230.56 4.64
-2 0 -5 233.87 5.21
-2 0 -5 238.13 4.59
-2 0 -5 248.58 5.18
-2 0 -5 235.18 5.4
-2 0 -5 235.71 5.22
2 -1 5 72.29 2.38
2 -1 5 69.14 2.42
2 -1 5 70.68 2.29
2 -1 5 70.59 2.24
-2 1 -5 72.78 2.28
-2 1 -5 73.29 2.02
-2 1 -5 75.23 2.35
-2 1 -5 71.29 2.27
-2 1 -5 76.12 2.51
2 -2 5 43.53 2.01
2 -2 5 42.42 1.4
2 -2 5 45.56 1.42
2 -2 5 42.86 1.73
-2 2 -5 46.78 1.85
-2 2 -5 44.89 1.87
-2 2 -5 46.88 1.98
-2 2 -5 43.61 1.54
-2 2 -5 44.34 1.8
2 -3 5 11.69 1.07
2 -3 5 11.36 0.68
2 -3 5 12.34 1.07
2 -3 5 11.32 0.53
2 -3 5 11.7 0.56
2 -3 5 11.47 1.18
-2 3 -5 13.24 1.21
-2 3 -5 9.65 1.07
-2 3 -5 11.22 0.97
-2 3 -5 12.11 1.24
-2 3 -5 9.34 1.07
2 -4 5 47.28 2.29
2 -4 5 45.35 1.9
-2 4 -5 48.78 2.21
-2 4 -5 48.1 1.85
-2 4 -5 48.81 2.25
-2 4 -5 50.08 2.27
-2 4 -5 48.68 2.19
2 -5 5 3.75 1.03
-2 5 -5 3.69 0.96
2 -6 5 11.73 1.53
-2 6 -5 12.67 1.53
1 6 5 5.51 1
-1 -6 -5 8.25 1.03
-1 -6 -5 7.74 1.38
1 5 5 0.13 0.62
1 5 5 1.14 0.68
-1 -5 -5 -0.48 0.61
-1 -5 -5 0.02 0.7
1 4 5 7.23 0.89
1 4 5 7.51 0.91
1 4 5 7.45 0.89
1 4 5 7.64 0.82
-1 -4 -5 10.22 1.26
-1 -4 -5 8.08 0.89
-1 -4 -5 7.63 0.91
1 3 5 57.13 1.89
1 3 5 60.44 1.95
1 3 5 57.5 1.91
1 3 5 59.47 1.94
-1 -3 -5 58.36 2
-1 -3 -5 54.82 2.26
-1 -3 -5 59.37 1.97
1 2 5 0.44 0.53
1 2 5 0.4 0.47
1 2 5 0.13 0.49
1 2 5 0.29 0.51
-1 -2 -5 0.35 0.36
-1 -2 -5 0.71 0.61
-1 -2 -5 0.56 0.5
-1 -2 -5 0.43 0.55
1 1 5 98.41 2.68
1 1 5 102.76 2.21
1 1 5 98.51 2.57
1 1 5 98.71 2.59
1 1 5 96.96 2.67
1 1 5 98.68 2.59
-1 -1 -5 100.17 2.75
-1 -1 -5 100.24 2.67
-1 -1 -5 99.81 2.53
1 0 5 0.54 0.39
1 0 5 1.19 0.52
1 0 5 0.97 0.45
1 0 5 0.52 0.53
1 0 5 0.89 0.55
-1 0 -5 1.52 0.5
-1 0 -5 0.62 0.57
-1 0 -5 1.27 0.46
-1 0 -5 0.67 0.5
-1 0 -5 0.61 0.47
1 -1 5 106.38 2.69
1 -1 5 96.06 2.69
1 -1 5 94.86 2.6
1 -1 5 97.75 2.29
1 -1 5 102.18 2.83
1 -1 5 99.16 2.3
-1 1 -5 101.08 2.67
-1 1 -5 94.58 2.69
-1 1 -5 99.91 2.36
-1 1 -5 96.2 2.75
1 -2 5 0.92 0.51
1 -2 5 0.56 0.52
1 -2 5 0.08 0.39
1 -2 5 0.06 0.59
1 -2 5 0.93 0.4
-1 2 -5 0.9 0.69
-1 2 -5 0.75 0.59
-1 2 -5 0.43 0.5
-1 2 -5 1.09 0.59
-1 2 -5 0.23 0.55
1 -3 5 57.71 1.95
1 -3 5 57.68 2.22
1 -3 5 57.23 1.93
-1 3 -5 59.7 2.22
-1 3 -5 60.71 2.11
-1 3 -5 58.87 2.19
-1 3 -5 63.08 1.83
-1 3 -5 58.57 2.16
1 -4 5 7.68 1.1
1 -4 5 8.46 0.89
-1 4 -5 8.08 1.04
-1 4 -5 6.61 1.01
-1 4 -5 7.19 1.04
-1 4 -5 8.85 0.91
-1 4 -5 6.8 1
1 -5 5 0.28 0.76
-1 5 -5 0.21 0.72
1 -6 5 6.36 1.22
-1 6 -5 4.81 1.07
0 7 5 9.85 1.33
0 -7 -5 11.35 1.24
0 6 5 3.37 0.93
0 -6 -5 5.24 0.97
0 -6 -5 3.93 1.1
0 5 5 39.82 1.96
0 5 5 40.68 1.92
0 -5 -5 40.81 1.94
0 -5 -5 37.75 2.13
0 4 5 55.68 2.09
0 4 5 55.76 2.08
0 4 5 55.22 2.04
0 -4 -5 57.81 2.38
0 -4 -5 54.77 2.1
0 -4 -5 58.53 2.15
0 3 5 28.27 1.35
0 3 5 28.55 1.05
0 3 5 26 1.35
0 3 5 27.24 1.35
0 3 5 26.87 1.42
0 -3 -5 26.93 1.45
0 -3 -5 25.14 1.5
0 -3 -5 28.86 1.39
0 2 5 2.56 0.65
0 2 5 1.47 0.55
0 2 5 2.42 0.47
0 2 5 1.91 0.58
0 2 5 1.93 0.63
0 -2 -5 3.53 0.73
0 -2 -5 1.9 0.48
0 -2 -5 2.66 0.61
0 -2 -5 2.39 0.65
0 1 5 70.73 2.19
0 1 5 68.45 1.74
0 1 5 71.04 2.06
0 1 5 72.15 2.14
0 1 5 73.21 2.09
0 -1 -5 73.33 2.17
0 -1 -5 72.39 2.17
0 0 5 201.27 4.48
0 0 5 200.3 4.31
0 0 5 197.09 4.42
0 0 5 198.62 3.86
0 0 5 203.72 4.41
0 0 5 203.54 3.88
0 0 -5 202.25 4.4
0 0 -5 200.5 3.88
0 0 -5 202.81 4.41
0 0 -5 198.56 4.42
0 0 -5 198.9 4.51
0 -1 5 68.72 2
0 -1 5 71.37 2.15
0 -1 5 73.2 1.75
0 -1 5 74.54 2.04
0 -1 5 72.27 1.72
0 -1 5 77.18 2.25
0 1 -5 68.73 1.79
0 1 -5 71.64 2.08
0 1 -5 71.03 2.16
0 1 -5 69.82 2.19
0 1 -5 69.32 2.09
0 -2 5 2.26 0.56
0 -2 5 2.88 0.69
0 -2 5 2.82 0.6
0 -2 5 1.35 0.63
0 -2 5 1.76 0.24
0 2 -5 2.01 0.54
0 2 -5 2.31 0.62
0 2 -5 2.84 0.72
0 2 -5 1.49 0.59
0 2 -5 2.58 0.61
0 -3 5 27.15 1.19
0 -3 5 27.41 1.05
0 -3 5 25.97 1.46
0 3 -5 26.11 1.39
0 3 -5 29.86 1.5
0 3 -5 28.7 1.15
0 3 -5 29.15 1.42
0 3 -5 25.04 1.31
0 -4 5 54.23 1.7
0 -4 5 53.83 2.19
0 -4 5 52.46 1.68
0 4 -5 53.79 2.06
0 4 -5 56.48 2.07
0 4 -5 54.5 2.11
0 4 -5 57.36 2.19
0 -5 5 40.04 1.99
0 -5 5 39.22 1.05
0 5 -5 39 1.92
0 5 -5 41.86 2.14
0 -6 5 5.77 1.04
0 6 -5 3.29 0.92
0 -7 5 12.09 1.37
0 7 -5 8.09 1.29
-1 7 5 1.13 0.9
1 -7 -5 1.54 0.9
-1 6 5 15.75 1.55
1 -6 -5 17.66 1.6
1 -6 -5 21.76 1.82
-1 5 5 39.5 1.98
-1 5 5 33.59 1.92
1 -5 -5 37.46 1.97
1 -5 -5 39.51 2.12
-1 4 5 2.89 0.78
-1 4 5 3.45 0.79
-1 4 5 5.61 0.85
1 -4 -5 3.13 0.82
1 -4 -5 3.04 0.78
1 -4 -5 5.76 0.88
-1 3 5 3.12 0.68
-1 3 5 3.52 0.71
-1 3 5 3.64 0.67
-1 3 5 4.86 0.75
-1 3 5 4.86 0.57
1 -3 -5 2.78 0.73
1 -3 -5 2.63 0.57
1 -3 -5 4.02 0.74
1 -3 -5 3.05 0.65
-1 2 5 29.66 1.42
-1 2 5 32.65 1.54
-1 2 5 32.43 1.46
-1 2 5 27.44 1.39
-1 2 5 29.49 1.15
1 -2 -5 30.09 1.54
1 -2 -5 31.12 1.59
1 -2 -5 31.47 1.42
1 -2 -5 28.64 1.32
1 -2 -5 27.67 1.3
-1 1 5 32.91 1.36
-1 1 5 34.17 1.43
-1 1 5 35.37 1.44
-1 1 5 34.94 1.36
-1 1 5 32.66 1.13
1 -1 -5 26.45 1.3
1 -1 -5 30.99 1.31
1 -1 -5 33.25 1.52
1 -1 -5 33.06 1.41
-1 0 5 375.11 7.53
-1 0 5 371.96 7.49
-1 0 5 380.3 7.34
-1 0 5 369.86 7.58
-1 0 5 380.8 6.73
-1 0 5 367.66 7.33
1 0 -5 381.85 6.75
1 0 -5 376.69 7.6
1 0 -5 377.4 7.54
1 0 -5 382.57 7.57
1 0 -5 378.54 6.75
-1 -1 5 33.12 1.31
-1 -1 5 34.18 1.02
-1 -1 5 35.35 1.04
-1 -1 5 37.03 1.46
-1 -1 5 32.7 1.43
-1 -1 5 33.53 1.29
1 1 -5 33.45 1.36
1 1 -5 35.74 1.13
1 1 -5 34.41 1.12
1 1 -5 36.2 1.36
1 1 -5 35.1 1.43
1 1 -5 34.71 1.32
-1 -2 5 28.43 1.19
-1 -2 5 30.04 1.22
-1 -2 5 29.69 1.44
-1 -2 5 33.29 1.23
-1 -2 5 28.83 1.41
1 2 -5 30.97 1.33
1 2 -5 30.83 1.31
1 2 -5 30.24 1.37
1 2 -5 31.49 1.04
1 2 -5 29.31 1.38
1 2 -5 33.13 1.1
-1 -3 5 3.52 0.5
-1 -3 5 2.9 0.5
-1 -3 5 4.67 0.72
-1 -3 5 3.33 0.57
1 3 -5 3.02 0.59
1 3 -5 3.44 0.64
1 3 -5 3.72 0.68
1 3 -5 4.22 0.51
1 3 -5 4.31 0.69
-1 -4 5 3.86 0.41
-1 -4 5 4.04 0.76
-1 -4 5 4.32 0.42
-1 -4 5 4.2 0.52
1 4 -5 3.68 0.72
1 4 -5 2.93 0.71
1 4 -5 3.17 0.72
1 4 -5 3.51 0.71
-1 -5 5 34.71 1.73
1 5 -5 36.23 1.76
1 5 -5 39.02 1.88
-1 -6 5 19.47 1.51
1 6 -5 18.63 1.46
1 7 -5 0.37 0.76
-2 7 5 1.11 0.87
2 -7 -5 0.54 0.88
-2 6 5 10.75 1.4
2 -6 -5 11.34 1.43
-2 5 5 15.9 1.51
2 -5 -5 16.78 1.58
2 -5 -5 17.57 1.47
-2 4 5 12.2 1.19
-2 4 5 11.19 1.19
-2 4 5 12.75 1
-2 4 5 10.37 1.14
2 -4 -5 12.49 1.18
2 -4 -5 12.3 1.3
2 -4 -5 10.9 1
-2 3 5 19 1.35
-2 3 5 18.38 1.29
-2 3 5 19.73 1.27
-2 3 5 20.17 1.34
-2 3 5 17.52 0.96
2 -3 -5 19.11 1.11
2 -3 -5 16.51 1.1
2 -3 -5 19.96 1.18
2 -3 -5 18.52 1.38
-2 2 5 1.49 0.48
-2 2 5 1.28 0.62
-2 2 5 1.52 0.66
-2 2 5 0.86 0.61
-2 2 5 1.17 0.55
2 -2 -5 2.2 0.58
2 -2 -5 2.78 0.55
2 -2 -5 1.93 0.73
2 -2 -5 2.65 0.65
-2 1 5 254.2 4.94
-2 1 5 255.21 5.64
-2 1 5 269.57 5.51
-2 1 5 267.12 5.61
-2 1 5 261.09 5.6
2 -1 -5 259.01 5.68
2 -1 -5 262.42 4.9
2 -1 -5 260.45 5.56
2 -1 -5 268.41 5.49
2 -1 -5 258.86 5.55
-2 0 5 0.45 0.46
-2 0 5 0.45 0.41
-2 0 5 0.56 0.39
-2 0 5 0.36 0.49
-2 0 5 0.65 0.42
-2 0 5 0.66 0.48
2 0 -5 -0.31 0.48
2 0 -5 0.01 0.43
2 0 -5 -0.67 0.45
2 0 -5 0.97 0.42
2 0 -5 0.96 0.48
-2 -1 5 267.82 5.55
-2 -1 5 271.38 4.58
-2 -1 5 262.94 5.52
-2 -1 5 263.85 5.27
-2 -1 5 269.82 4.58
-2 -1 5 263.06 5.36
2 1 -5 256.96 5.36
2 1 -5 261.74 5.53
2 1 -5 267.75 4.83
2 1 -5 253.04 5.44
2 1 -5 255.19 5.46
2 1 -5 263.07 4.81
-2 -2 5 1.72 0.44
-2 -2 5 2.46 0.58
-2 -2 5 2.26 0.51
-2 -2 5 1.67 0.57
-2 -2 5 2.33 0.7
2 2 -5 2.07 0.36
2 2 -5 1.49 0.53
2 2 -5 2.04 0.55
2 2 -5 1.81 0.39
2 2 -5 1.27 0.5
2 2 -5 1.58 0.56
-2 -3 5 18.6 0.67
-2 -3 5 19.59 1.16
-2 -3 5 17.31 1.04
-2 -3 5 16.76 1.13
-2 -3 5 17.46 0.68
2 3 -5 19.12 1.02
2 3 -5 19.96 1.03
2 3 -5 17.08 1.07
2 3 -5 17.7 0.99
-2 -4 5 10.31 0.91
-2 -4 5 10.01 0.93
2 4 -5 10.12 0.91
2 4 -5 9.93 0.94
2 4 -5 11.2 0.93
2 4 -5 10.71 0.88
-2 -5 5 16.17 1.24
2 5 -5 16.66 1.29
2 5 -5 16.3 1.2
-2 -6 5 10.6 0.99
2 6 -5 7.78 1.03
2 7 -5 1.12 0.73
-3 6 5 7.08 1.21
3 -6 -5 5.87 1.25
-3 5 5 28.38 1.9
3 -5 -5 33.01 2.06
3 -5 -5 31.11 1.73
-3 4 5 14.2 1.37
-3 4 5 13.61 1.37
-3 4 5 14.23 1.11
-3 4 5 15.12 1.37
3 -4 -5 16.2 1.23
3 -4 -5 16.01 1.49
3 -4 -5 14.6 1.13
-3 3 5 -0.06 0.47
-3 3 5 -0.05 0.45
-3 3 5 0.81 0.65
-3 3 5 0.65 0.6
-3 3 5 -0.21 0.58
3 -3 -5 0.57 0.56
3 -3 -5 -0.23 0.62
3 -3 -5 0.13 0.37
3 -3 -5 0.46 0.48
-3 2 5 0.41 0.62
-3 2 5 0.1 0.58
-3 2 5 0.02 0.56
-3 2 5 -0.11 0.45
-3 2 5 -0.27 0.5
3 -2 -5 0.36 0.66
3 -2 -5 0.74 0.44
3 -2 -5 0.02 0.57
3 -2 -5 -0.31 0.33
-3 1 5 21.74 1
-3 1 5 22.56 1.25
-3 1 5 23.29 1.25
-3 1 5 22.33 1.38
3 -1 -5 22.9 1.4
3 -1 -5 18.03 1.19
3 -1 -5 20.7 1.22
3 -1 -5 22.74 1.23
-3 0 5 80.4 1.87
-3 0 5 78.56 2.19
-3 0 5 78.83 1.84
-3 0 5 75.3 2.32
-3 0 5 83.82 2.24
3 0 -5 76.32 1.91
3 0 -5 76.34 2.19
3 0 -5 79.76 2.2
3 0 -5 77.05 2.34
3 0 -5 78.77 2.25
-3 -1 5 21.94 1
-3 -1 5 22.75 1.54
-3 -1 5 19.81 1.24
-3 -1 5 19.84 1.2
-3 -1 5 21.26 1
-3 -1 5 21.23 1.02
3 1 -5 21.36 1.09
3 1 -5 21.57 1.27
3 1 -5 23.61 1.13
3 1 -5 19.46 1.07
3 1 -5 22.51 0.86
3 1 -5 21.21 0.84
-3 -2 5 -0.23 0.36
-3 -2 5 -0.57 0.42
-3 -2 5 -0.29 0.45
-3 -2 5 0.65 0.67
-3 -2 5 0.76 0.36
3 2 -5 -0.09 0.4
3 2 -5 0.62 0.47
3 2 -5 0.03 0.23
3 2 -5 0.06 0.42
3 2 -5 0.43 0.47
3 2 -5 0.06 0.46
3 2 -5 0.33 0.26
-3 -3 5 0.32 0.42
-3 -3 5 1 0.57
-3 -3 5 -0.21 0.38
3 3 -5 0.59 0.43
3 3 -5 0.52 0.44
3 3 -5 0.01 0.37
3 3 -5 -0.04 0.39
-3 -4 5 13.54 1.2
-3 -4 5 14.22 1.01
3 4 -5 14.41 0.94
3 4 -5 15.3 0.84
3 4 -5 13.43 0.93
3 4 -5 14.83 1.05
-3 -5 5 28.97 1.31
3 5 -5 30.83 1.41
3 5 -5 29.44 1.51
3 6 -5 6.31 0.95
3 6 -5 4.32 0.77
-4 6 5 15.31 1.72
4 -6 -5 16.36 1.78
-4 5 5 3.91 1.06
4 -5 -5 8.65 1.36
-4 4 5 3.27 0.76
-4 4 5 2.51 0.85
-4 4 5 2.17 0.83
-4 4 5 3.08 0.87
4 -4 -5 2.46 0.57
4 -4 -5 2.74 0.95
4 -4 -5 3.29 0.82
-4 3 5 1.61 0.7
-4 3 5 1.67 0.67
-4 3 5 0.87 0.65
-4 3 5 2.21 0.59
4 -3 -5 2.01 0.63
4 -3 -5 3.37 0.88
4 -3 -5 2.42 0.76
4 -3 -5 1.54 0.43
4 -3 -5 1.94 0.43
-4 2 5 9.51 1
-4 2 5 11.11 1.08
-4 2 5 10.75 1.16
-4 2 5 9.37 1.04
-4 2 5 9.73 0.84
4 -2 -5 10.36 1.1
4 -2 -5 10.14 0.83
4 -2 -5 11.96 1.19
4 -2 -5 11.39 0.69
-4 1 5 18.85 1.38
-4 1 5 18.1 0.99
-4 1 5 15.88 1.17
-4 1 5 16.52 1.21
-4 1 5 17.63 1.32
4 -1 -5 17.26 1.23
4 -1 -5 16.98 1.33
4 -1 -5 17.56 1.22
4 -1 -5 18.77 1.38
-4 0 5 6.64 1
-4 0 5 8.01 0.85
-4 0 5 6.49 0.59
-4 0 5 6.74 0.63
-4 0 5 5.59 0.8
4 0 -5 7.97 0.83
4 0 -5 6.86 0.8
4 0 -5 6.56 0.87
4 0 -5 8.41 0.67
4 0 -5 7.64 0.85
-4 -1 5 18.33 1.29
-4 -1 5 16.07 0.99
-4 -1 5 17.96 1.19
-4 -1 5 18 0.98
-4 -1 5 15.79 1.41
4 1 -5 16.78 1.09
4 1 -5 18.33 1.24
4 1 -5 18.12 0.82
4 1 -5 16.37 1.08
4 1 -5 16.65 0.82
4 1 -5 16.72 1.08
-4 -2 5 11.52 0.86
-4 -2 5 10.74 0.57
-4 -2 5 12.72 0.92
-4 -2 5 11.68 0.6
-4 -2 5 11.39 1.19
4 2 -5 10.91 0.84
4 2 -5 8.13 0.73
4 2 -5 9.46 0.79
4 2 -5 10.52 0.8
4 2 -5 10.15 0.78
-4 -3 5 2.19 0.75
-4 -3 5 0.9 0.44
4 3 -5 1.21 0.44
4 3 -5 1.53 0.46
4 3 -5 1.68 0.41
4 3 -5 0.87 0.41
-4 -4 5 3.32 0.89
-4 -4 5 2.82 0.52
4 4 -5 3.78 0.6
4 4 -5 3.1 0.56
4 4 -5 3.95 0.57
-4 -5 5 6.3 0.57
4 5 -5 5.34 0.7
4 5 -5 6.05 0.75
4 6 -5 15.68 1.18
4 6 -5 12.5 1.05
-5 6 5 0.14 0.96
5 -6 -5 -1.24 0.82
-5 5 5 4.7 1.13
5 -5 -5 5.81 1.3
-5 4 5 6.89 1.08
-5 4 5 5.83 1.11
-5 4 5 8.28 1.06
-5 4 5 5.15 1.1
5 -4 -5 7.02 1.29
5 -4 -5 7.43 1.15
-5 3 5 16.32 1.48
-5 3 5 17.96 1.54
-5 3 5 17.1 1.46
-5 3 5 16.44 1.12
5 -3 -5 21.46 1.75
5 -3 -5 17.8 0.78
5 -3 -5 15.65 0.96
5 -3 -5 16.66 1.42
-5 2 5 13.22 1.34
-5 2 5 8.67 0.84
-5 2 5 8.81 1.03
-5 2 5 11.17 1.15
-5 2 5 11.39 1.15
5 -2 -5 10.45 0.54
5 -2 -5 10.3 1.18
5 -2 -5 10.19 0.89
5 -2 -5 9.24 1.06
5 -2 -5 12.22 1.17
-5 1 5 163.78 4.18
-5 1 5 176.59 4.73
-5 1 5 172.17 4.45
-5 1 5 172.33 3.71
-5 1 5 177.96 4.31
5 -1 -5 173.61 3.73
5 -1 -5 173.67 4.43
5 -1 -5 168.48 4.22
5 -1 -5 179.14 4.31
5 -1 -5 165.13 4.24
-5 0 5 5.13 1.03
-5 0 5 4.52 0.83
-5 0 5 4.59 0.59
-5 0 5 6.2 0.6
5 0 -5 6.19 0.7
5 0 -5 5.95 0.82
5 0 -5 4.15 0.8
5 0 -5 5.24 0.85
5 0 -5 6.05 0.84
-5 -1 5 172.1 4.12
-5 -1 5 174.31 3.83
-5 -1 5 171.84 4.13
-5 -1 5 182.8 3.79
-5 -1 5 178.93 4.82
5 1 -5 170.11 4.06
5 1 -5 172.06 4.03
5 1 -5 177.2 3.45
5 1 -5 173.73 4.05
5 1 -5 169.12 4.28
5 1 -5 176.98 3.44
5 1 -5 172.56 3.98
-5 -2 5 11.36 0.55
-5 -2 5 10.82 0.85
-5 -2 5 10.66 1.22
-5 -2 5 11.03 0.88
-5 -2 5 12.44 0.57
5 2 -5 11.35 0.84
5 2 -5 12.77 0.9
5 2 -5 9.48 0.83
5 2 -5 11.75 0.89
-5 -3 5 17.51 1.54
-5 -3 5 16.1 0.98
5 3 -5 20.35 1.52
5 3 -5 16.52 0.91
5 3 -5 18.73 0.93
5 3 -5 17.72 0.79
5 3 -5 17.35 0.94
-5 -4 5 7.64 1.18
-5 -4 5 8.12 0.6
5 4 -5 7.17 0.69
5 4 -5 6.56 0.66
-5 -5 5 7.6 1.22
5 5 -5 6.34 0.67
5 5 -5 6.77 0.74
5 6 -5 1.61 0.6
5 6 -5 1.03 0.54
-6 6 5 5.62 1.4
6 -6 -5 4.63 1.34
-6 5 5 3.45 1.15
6 -5 -5 3.85 1.24
-6 4 5 4.83 1.08
-6 4 5 5.93 1.05
-6 4 5 6.99 1.22
6 -4 -5 5.91 1.29
6 -4 -5 5.27 0.62
6 -4 -5 7.38 1.21
-6 3 5 21.01 1.66
-6 3 5 27.94 1.83
-6 3 5 23.11 1.36
-6 3 5 25.05 1.69
-6 3 5 24.49 1.64
6 -3 -5 19.87 1.17
6 -3 -5 23.56 1.66
6 -3 -5 22.87 1.89
-6 2 5 36.54 1.54
-6 2 5 40.03 1.96
-6 2 5 38.12 2
-6 2 5 42.22 1.94
6 -2 -5 36.68 1.84
6 -2 -5 37.78 1.54
6 -2 -5 40.23 1.98
6 -2 -5 40.5 2.05
-6 1 5 214.87 5.78
-6 1 5 223.15 4.6
-6 1 5 214.2 5.22
-6 1 5 225.89 5.5
-6 1 5 223.45 5.2
6 -1 -5 225.15 5.45
6 -1 -5 223.5 4.54
6 -1 -5 206.38 5.15
6 -1 -5 222.48 4.64
6 -1 -5 224.46 5.33
6 -1 -5 222.46 5.36
-6 0 5 2.69 0.78
-6 0 5 2.31 0.5
-6 0 5 3.2 0.64
-6 0 5 2.35 0.9
-6 0 5 2.82 0.5
6 0 -5 2.87 0.79
6 0 -5 2.37 0.65
6 0 -5 4.07 0.64
6 0 -5 2.11 0.69
6 0 -5 3.16 0.55
6 0 -5 1.56 0.67
-6 -1 5 216.29 5.93
-6 -1 5 229.33 4.72
-6 -1 5 221.54 5.12
-6 -1 5 229.57 4.79
-6 -1 5 229.34 5.15
6 1 -5 227.18 5.06
6 1 -5 226.48 4.37
6 1 -5 219.15 5.06
6 1 -5 222.8 5.28
6 1 -5 223.45 5.09
6 1 -5 218.68 4.94
-6 -2 5 38.15 1.56
-6 -2 5 40.29 1.07
-6 -2 5 38.5 1.05
-6 -2 5 42.44 2.16
-6 -2 5 39.48 1.59
6 2 -5 40.24 1.53
6 2 -5 36.54 1.46
6 2 -5 37.57 1.5
6 2 -5 39.83 1.48
-6 -3 5 22.19 1.11
-6 -3 5 22.24 1.72
6 3 -5 23.31 1.1
6 3 -5 22.92 0.85
6 3 -5 20.15 1.08
6 3 -5 24.06 1.11
-6 -4 5 6.64 1.26
6 4 -5 5.74 0.66
6 4 -5 6.42 0.65
6 4 -5 5.67 0.64
-6 -5 5 3.97 1.2
6 5 -5 3.25 0.57
6 5 -5 3.84 0.57
6 6 -5 5.08 0.7
6 6 -5 4.88 0.65
-7 6 5 3.63 1.31
7 -6 -5 9.46 1.7
-7 5 5 8.41 1.49
7 -5 -5 7.07 1.49
-7 4 5 6.72 1.29
-7 4 5 8.38 1.4
-7 4 5 6.67 1.13
7 -4 -5 6.77 0.8
7 -4 -5 5.6 1.31
7 -4 -5 5.04 1.19
-7 3 5 2.98 0.79
-7 3 5 1.9 0.91
-7 3 5 2.95 0.91
-7 3 5 2.54 0.92
7 -3 -5 1.6 0.64
7 -3 -5 2.32 0.77
7 -3 -5 2.6 1.05
7 -3 -5 1.5 0.94
-7 2 5 106.11 3.58
-7 2 5 100.32 2.87
-7 2 5 113.06 3.5
-7 2 5 107.93 3.47
7 -2 -5 104.89 3.4
7 -2 -5 114.68 3.68
7 -2 -5 107.87 3.45
-7 1 5 9.19 1.1
-7 1 5 10.91 1.11
-7 1 5 10.01 0.91
-7 1 5 11.33 1.33
7 -1 -5 10.51 0.66
7 -1 -5 9.93 0.91
7 -1 -5 12.17 1.25
7 -1 -5 10.6 1.23
7 -1 -5 11.88 1.21
7 -1 -5 11.46 1.15
-7 0 5 8.91 0.7
-7 0 5 8.8 0.92
-7 0 5 10.08 1.17
-7 0 5 8.25 0.67
-7 0 5 8.01 1.22
7 0 -5 9.85 1.12
7 0 -5 10.4 1.1
7 0 -5 9.24 1.07
7 0 -5 10.46 0.89
7 0 -5 10.58 1.09
7 0 -5 10.68 0.89
-7 -1 5 8.07 1.27
-7 -1 5 11.89 0.92
-7 -1 5 9.64 1.06
7 1 -5 10.82 1.04
7 1 -5 10.12 1.02
7 1 -5 11.71 1.06
7 1 -5 11.46 1.04
7 1 -5 11.67 1.08
-7 -2 5 110.78 3.03
-7 -2 5 108 2.32
-7 -2 5 103.54 2.92
-7 -2 5 104.72 3.85
-7 -2 5 106.54 2.32
7 2 -5 111.58 2.87
7 2 -5 109.27 2.94
7 2 -5 109.86 2.94
7 2 -5 110.58 2.92
-7 -3 5 1.27 0.91
7 3 -5 1.27 0.56
7 3 -5 2.48 0.58
7 3 -5 1.86 0.55
-7 -4 5 6.67 1.36
7 4 -5 6.82 0.71
7 4 -5 6.29 0.7
7 4 -5 7.68 0.74
-7 -5 5 8.88 1.52
7 5 -5 8.29 0.75
7 5 -5 8.25 0.75
7 6 -5 6.4 0.69
7 6 -5 5.59 0.65
7 6 -5 6.96 0.71
-8 6 5 5.74 1.53
8 -6 -5 9.7 1.77
-8 5 5 0.46 1.04
8 -5 -5 0.63 1.1
-8 4 5 0.43 1.04
-8 4 5 1.02 0.93
-8 4 5 -0.24 0.74
8 -4 -5 -0.28 0.56
8 -4 -5 -0.45 0.98
8 -4 -5 -1.29 0.77
-8 3 5 26.29 1.97
-8 3 5 21.61 1.53
-8 3 5 23.31 1.82
-8 3 5 24.3 2.02
8 -3 -5 24.39 1.85
8 -3 -5 19.72 1.33
8 -3 -5 22.28 1.9
8 -3 -5 18.04 1.86
-8 2 5 46.01 2.24
-8 2 5 41.86 1.81
-8 2 5 44.13 2.38
-8 2 5 39.95 2.21
8 -2 -5 40.75 2.17
8 -2 -5 47.48 2.45
8 -2 -5 48.18 2.42
-8 1 5 3.89 0.84
-8 1 5 3.05 0.71
-8 1 5 3.9 0.87
-8 1 5 4.17 1.06
8 -1 -5 4.68 0.98
8 -1 -5 4.39 1
8 -1 -5 5.22 0.83
8 -1 -5 4.55 0.46
8 -1 -5 5.2 1.01
8 -1 -5 3.68 1.04
-8 0 5 14.72 0.82
-8 0 5 12.67 1.12
-8 0 5 14.23 0.8
-8 0 5 12.86 1.54
8 0 -5 16.34 1.49
8 0 -5 14.46 1.35
8 0 -5 15 1.12
8 0 -5 12.74 1.28
8 0 -5 15.46 1.08
8 0 -5 13.99 1.32
-8 -1 5 4.97 0.76
-8 -1 5 4.5 1.12
8 1 -5 3.69 0.76
8 1 -5 3.29 0.77
8 1 -5 4.57 0.84
8 1 -5 3.78 0.77
-8 -2 5 43.2 1.87
-8 -2 5 43.84 1.26
-8 -2 5 40.31 2.46
-8 -2 5 40.63 1.24
8 2 -5 39.31 1.7
8 2 -5 43.08 1.83
8 2 -5 42.03 1.78
8 2 -5 42.53 1.75
-8 -3 5 23.54 1.98
8 3 -5 22.92 1.32
8 3 -5 22.63 1.32
8 3 -5 22.32 1.27
-8 -4 5 -0.63 1
8 4 -5 -0.57 0.46
8 4 -5 -0.45 0.48
8 4 -5 0.09 0.53
-8 -5 5 -0.63 1.04
8 5 -5 0.92 0.5
8 5 -5 1.43 0.54
8 6 -5 6.87 0.73
8 6 -5 5.29 0.65
-9 5 5 16.13 2.02
9 -5 -5 12.54 0.91
9 -5 -5 11.56 1.96
-9 4 5 13.72 1.61
-9 4 5 13.57 1.72
-9 4 5 10.87 1.6
9 -4 -5 13.79 1.89
9 -4 -5 15.72 1.3
-9 3 5 16.39 1.48
-9 3 5 15.44 1.68
-9 3 5 17.1 1.75
-9 3 5 18.23 1.85
9 -3 -5 18.51 1.82
9 -3 -5 17.08 1.96
9 -3 -5 18.95 1.34
-9 2 5 29.48 1.61
-9 2 5 29.18 2.04
-9 2 5 28.33 1.9
-9 2 5 31.17 2.02
9 -2 -5 31.68 2.17
9 -2 -5 25.6 1.9
9 -2 -5 29.72 2.23
-9 1 5 1.23 0.66
-9 1 5 1.64 0.8
-9 1 5 0.96 1
9 -1 -5 0.57 0.87
9 -1 -5 1.72 0.38
9 -1 -5 0.84 0.77
9 -1 -5 1.61 0.7
9 -1 -5 2.49 0.98
9 -1 -5 2.43 0.93
-9 0 5 -0.23 0.51
-9 0 5 -0.14 0.87
-9 0 5 0.46 0.41
-9 0 5 0.39 0.4
9 0 -5 0.25 0.53
9 0 -5 -0.11 0.65
9 0 -5 0.82 0.48
9 0 -5 -0.83 0.64
9 0 -5 0.15 0.74
9 0 -5 1.84 0.88
-9 -1 5 2.16 0.7
-9 -1 5 2.62 1.06
9 1 -5 2.14 0.82
9 1 -5 1.3 0.7
9 1 -5 1.96 0.78
9 1 -5 1.65 0.79
-9 -2 5 33.86 2.38
-9 -2 5 31.3 1.14
9 2 -5 28.21 1.58
9 2 -5 33.36 1.75
9 2 -5 30.26 1.64
9 2 -5 31.81 1.71
-9 -3 5 16.27 1.98
9 3 -5 16.13 1.24
9 3 -5 16.01 1.27
9 3 -5 18.31 1.31
-9 -4 5 14.52 1.92
9 4 -5 13.96 1.16
9 4 -5 17.18 1.22
-9 -5 5 12.44 1.87
9 5 -5 13.68 1.08
9 5 -5 12.78 1.04
10 -5 -5 6.09 1.68
10 -5 -5 4.73 0.8
-10 4 5 9.54 1.51
10 -4 -5 6.5 1.59
-10 3 5 12.78 1.61
-10 3 5 15.86 1.76
-10 3 5 13.24 1.7
-10 3 5 14.24 1.45
10 -3 -5 12.1 1.77
10 -3 -5 13.76 1.73
-10 2 5 15.98 1.37
-10 2 5 16.06 1.69
-10 2 5 18.39 1.94
10 -2 -5 21.17 2.11
10 -2 -5 18.65 1.9
10 -2 -5 17.24 1.82
-10 1 5 4.95 1.31
-10 1 5 7.04 1.13
-10 1 5 4.38 0.77
10 -1 -5 3.81 1.12
10 -1 -5 4.16 1.17
10 -1 -5 5.75 1.15
-10 0 5 -0.75 1
-10 0 5 0 0.36
-10 0 5 0.19 0.37
10 0 -5 -0.73 0.79
10 0 -5 0.32 0.51
10 0 -5 -0.29 0.76
10 0 -5 1.21 0.78
-10 -1 5 6.58 0.92
-10 -1 5 4.04 1.3
10 1 -5 6.16 1.08
10 1 -5 5.14 1.05
10 1 -5 5.88 1.07
10 1 -5 5.21 0.99
-10 -2 5 18.45 0.96
-10 -2 5 16.53 2
10 2 -5 20.68 1.58
10 2 -5 19.79 1.45
10 2 -5 20.98 1.58
-10 -3 5 15.06 2.01
10 3 -5 13.66 1.3
10 3 -5 17.42 1.39
-10 -4 5 8.11 1.74
10 4 -5 8.38 1.01
10 4 -5 8.72 1.04
-10 -5 5 7.21 1.73
10 5 -5 5.07 0.84
10 5 -5 5.57 0.82
11 -4 -5 11.25 2.01
-11 3 5 12.25 1.7
-11 3 5 9.93 1.33
11 -3 -5 13.51 1.98
11 -3 -5 12.2 1.86
-11 2 5 9.86 1.18
-11 2 5 9.77 1.67
11 -2 -5 8.07 1.57
11 -2 -5 6.83 1.37
11 -2 -5 7.74 1.46
-11 1 5 4.31 0.81
-11 1 5 3.81 1.34
11 -1 -5 4.81 1.29
11 -1 -5 4.27 1.2
11 -1 -5 2.61 1.09
-11 0 5 13.8 1.92
11 0 -5 17.61 1.81
11 0 -5 20.49 1.95
-11 -1 5 4.39 1.47
11 1 -5 3.07 1
11 1 -5 5.04 1.15
-11 -2 5 6.97 1.6
-11 -2 5 8.25 0.75
11 2 -5 8.15 1.24
-11 -3 5 13.39 2.02
11 3 -5 10.5 1.24
-11 -4 5 11.23 2.02
11 4 -5 7.68 1.05
12 -4 -5 2.16 1.36
-12 3 5 25.53 1.9
-12 3 5 24.74 2.38
12 -3 -5 25.53 2.57
-12 2 5 23.41 1.58
-12 2 5 19.59 2.21
12 -2 -5 22.9 2.37
12 -2 -5 28.35 2.51
-12 1 5 1.63 0.72
-12 1 5 4.02 1.37
12 -1 -5 2.38 1.2
12 -1 -5 2.93 1.16
-12 0 5 2.01 1.22
12 0 -5 0.66 0.97
12 0 -5 2.43 1.13
-12 -1 5 3.38 1.4
12 1 -5 2.43 1.05
-12 -2 5 22.27 2.51
12 2 -5 23.32 1.91
-12 -3 5 23.57 2.63
12 3 -5 23.22 1.74
-12 -4 5 3.08 1.53
12 4 -5 4.47 0.99
-13 3 5 1.82 1.08
-13 3 5 1.29 1.19
13 -3 -5 0.34 1.21
-13 2 5 13.06 1.37
-13 2 5 14.7 2.07
13 -2 -5 16.68 2.17
-13 1 5 -0.7 1.18
-13 1 5 1.36 0.64
13 -1 -5 1.57 1.13
13 -1 -5 -0.93 1
-13 0 5 7.67 1.74
13 0 -5 3.69 1.29
13 0 -5 8.56 1.65
-13 -1 5 -1.11 1.16
13 1 -5 -0.67 0.94
-13 -2 5 15.37 2.29
13 2 -5 15.79 1.8
-13 -3 5 1.48 1.4
13 3 -5 1.98 0.95
-14 2 5 1.1 1.32
-14 2 5 1.1 0.84
14 -2 -5 -1.23 1.06
-14 1 5 4.47 0.68
-14 1 5 5.5 0.71
-14 1 5 8.21 1.96
14 -1 -5 6.74 1.54
14 -1 -5 7.12 1.68
-14 0 5 6.42 1.84
14 0 -5 9.96 1.76
-14 -1 5 3.11 1.58
14 1 -5 7.62 1.53
-14 -2 5 0.99 1.41
14 2 -5 1.51 1.06
-15 1 5 5.4 1.8
15 0 -5 0.81 1.13
15 1 -5 5.04 1.48
12 2 6 15.12 2
-12 -2 -6 19.96 2.23
-12 -2 -6 16.26 1.97
12 1 6 10.71 1.79
-12 -1 -6 6.03 1.64
-12 -1 -6 8.53 1.53
12 0 6 1.42 1.24
-12 0 -6 1.18 0.95
-12 0 -6 0.3 1.38
12 -1 6 5.6 1.65
-12 1 -6 8.38 0.95
-12 1 -6 8.21 1.97
12 -2 6 12.1 2.14
-12 2 -6 15.83 1.55
-12 2 -6 15.69 2.42
11 3 6 2.22 1.06
-11 -3 -6 0.99 1.08
-11 -3 -6 1.51 1.05
11 2 6 9.34 1.59
-11 -2 -6 8.41 1.56
-11 -2 -6 10.32 1.64
11 1 6 5.5 1.38
-11 -1 -6 2.19 1.09
-11 -1 -6 4.05 1.43
11 0 6 0.01 1.05
11 0 6 2.96 1.27
-11 0 -6 1.4 1.3
-11 0 -6 1.7 0.96
11 -1 6 3.06 1.33
11 -1 6 6.07 1.55
-11 1 -6 4.46 1.57
-11 1 -6 5.08 1.11
-11 1 -6 3.61 0.85
11 -2 6 10.97 1.93
-11 2 -6 9.68 1.99
-11 2 -6 9.12 1.25
11 -3 6 -1.05 1.19
-11 3 -6 0.97 1.47
10 4 6 2.6 0.99
-10 -4 -6 2.75 1.28
-10 -4 -6 0.96 0.88
10 3 6 0.97 0.96
-10 -3 -6 0.33 0.99
-10 -3 -6 0.78 0.95
10 2 6 1.24 1.02
-10 -2 -6 0 0.95
-10 -2 -6 1.46 1.03
10 1 6 7.46 1.41
-10 -1 -6 6.1 1.28
-10 -1 -6 8.84 1.61
10 0 6 -0.88 0.87
10 0 6 1.57 1.14
-10 0 -6 -0.26 1.1
-10 0 -6 -0.25 0.75
10 -1 6 6.89 1.53
10 -1 6 8.01 1.54
-10 1 -6 7.38 1.02
-10 1 -6 6.93 1.19
-10 1 -6 8.45 1.73
10 -2 6 0.91 1.2
-10 2 -6 -0.27 0.87
-10 2 -6 1.18 1.32
10 -3 6 -0.7 1.16
-10 3 -6 1.21 1.38
10 -4 6 1.33 1.42
-10 4 -6 -0.42 1.25
9 4 6 4.93 1.07
-9 -4 -6 4.67 1.41
-9 -4 -6 2.77 0.94
9 3 6 12.16 1.48
-9 -3 -6 9.15 1.62
-9 -3 -6 8.24 1.3
9 2 6 1 0.87
-9 -2 -6 0.47 0.88
-9 -2 -6 -0.22 0.9
9 1 6 9.14 1.38
9 1 6 8.27 1.39
-9 -1 -6 7.15 1.45
-9 -1 -6 7.19 1.33
9 0 6 28.44 2.34
9 0 6 27.28 2.27
-9 0 -6 23.97 1.88
-9 0 -6 26.93 2.4
-9 0 -6 26.79 1.12
9 -1 6 6 1.3
9 -1 6 6.76 1.4
-9 1 -6 5.39 1.53
-9 1 -6 7.65 1.01
-9 1 -6 7.85 1.16
9 -2 6 -1.43 0.99
9 -2 6 -0.47 0.88
-9 2 -6 0.67 1.27
-9 2 -6 0.93 0.72
-9 2 -6 0.77 0.8
9 -3 6 7.7 1.69
-9 3 -6 11.05 1.87
9 -4 6 2.94 1.43
-9 4 -6 1.85 1.42
8 5 6 4.43 0.97
-8 -5 -6 8.04 1.67
8 4 6 7.2 1.17
-8 -4 -6 9.07 1.6
-8 -4 -6 7.49 1.11
8 3 6 2.58 0.91
-8 -3 -6 1.68 0.91
-8 -3 -6 2.87 1.13
8 2 6 7.21 1.19
-8 -2 -6 7.44 1.34
-8 -2 -6 6.24 1.24
8 1 6 9.15 1.39
8 1 6 7.27 1.15
8 1 6 5.9 1.13
-8 -1 -6 5.66 1
-8 -1 -6 5.47 1.12
-8 -1 -6 6.41 1.32
8 0 6 85.05 3.42
8 0 6 83.66 3.42
8 0 6 83.3 3.19
-8 0 -6 80.07 3.45
-8 0 -6 79.62 3.14
-8 0 -6 81.52 2.17
8 -1 6 8.12 1.41
8 -1 6 4.8 1.15
8 -1 6 7.28 1.26
-8 1 -6 5.47 0.92
-8 1 -6 6.75 1.07
-8 1 -6 6.78 1.18
-8 1 -6 6.27 1.42
8 -2 6 7.99 1.38
8 -2 6 6.67 1.45
8 -2 6 5.73 1.29
-8 2 -6 5.77 1.09
-8 2 -6 5.89 1.34
-8 2 -6 6.3 1.48
8 -3 6 3.4 1.32
8 -3 6 1.82 1.01
-8 3 -6 3.08 1.31
8 -4 6 10.89 1.86
-8 4 -6 7.12 1.63
8 -5 6 5.33 1.62
8 -5 6 3.93 0.64
8 -5 6 4.94 0.69
-8 5 -6 4.17 1.55
7 5 6 5.96 1.01
-7 -5 -6 6.69 1.54
7 4 6 1.56 0.76
-7 -4 -6 1.5 0.95
-7 -4 -6 2.23 0.83
7 3 6 4.74 0.97
-7 -3 -6 6.29 1.25
-7 -3 -6 4.21 0.97
7 2 6 27.45 1.66
7 2 6 22.87 1.7
7 2 6 23.7 1.73
7 2 6 25.79 1.74
-7 -2 -6 22.89 1.86
-7 -2 -6 28.19 1.87
7 1 6 1.9 0.86
7 1 6 0.66 0.77
7 1 6 1.89 0.76
7 1 6 0.97 0.72
-7 -1 -6 2.42 0.74
-7 -1 -6 2.31 1
-7 -1 -6 0.3 0.7
7 0 6 4.02 0.85
7 0 6 4.04 0.95
7 0 6 4.74 1.07
7 0 6 6.05 1.17
7 0 6 4.21 0.97
-7 0 -6 2.25 0.82
-7 0 -6 3.98 0.87
-7 0 -6 4.8 1.23
-7 0 -6 3.59 0.9
-7 0 -6 3.47 0.65
7 -1 6 0.83 0.79
7 -1 6 2.19 0.91
7 -1 6 2.68 1.04
7 -1 6 2.49 0.74
-7 1 -6 0.91 0.84
-7 1 -6 2.21 0.72
-7 1 -6 1.49 1.09
-7 1 -6 1.72 0.81
7 -2 6 27.04 2.13
7 -2 6 27.8 1.92
7 -2 6 28.65 2.14
-7 2 -6 22.44 1.8
-7 2 -6 23.55 1.57
-7 2 -6 19.07 2
-7 2 -6 24.46 1.94
7 -3 6 3.92 1.09
7 -3 6 4.28 0.87
7 -3 6 3.84 1.26
-7 3 -6 5.9 1.4
-7 3 -6 4.96 1.24
-7 3 -6 3.7 0.99
-7 3 -6 2.57 1.12
7 -4 6 0.79 1.09
7 -4 6 2.35 0.75
7 -4 6 2.4 0.79
-7 4 -6 1.01 1.21
-7 4 -6 2.1 1.08
-7 4 -6 2.37 1.14
7 -5 6 8.22 1.67
-7 5 -6 6.6 1.62
-7 5 -6 7.78 1.59
6 5 6 1.5 0.74
-6 -5 -6 1.5 1.07
-6 -5 -6 2.23 0.67
6 4 6 1.4 0.72
6 4 6 1.18 0.69
-6 -4 -6 1.8 0.77
-6 -4 -6 1.79 0.95
6 3 6 37.51 1.93
6 3 6 42.51 1.95
6 3 6 38.66 1.85
-6 -3 -6 37.32 1.91
-6 -3 -6 39.96 2.36
6 2 6 9.56 1.11
6 2 6 11.27 1.21
6 2 6 8.91 1.06
6 2 6 10.47 1.22
-6 -2 -6 9.46 1.23
-6 -2 -6 9.66 1.28
6 1 6 17.79 1.48
6 1 6 19.1 1.56
6 1 6 17.67 1.33
6 1 6 17.5 1.51
-6 -1 -6 20.69 1.31
-6 -1 -6 21.13 1.64
-6 -1 -6 23.11 1.39
-6 -1 -6 20.66 1.34
-6 -1 -6 20.22 1.68
6 0 6 1.95 0.84
6 0 6 2.17 0.71
6 0 6 2.63 0.86
6 0 6 1.89 0.77
6 0 6 1.81 0.73
-6 0 -6 2.62 0.61
-6 0 -6 2.5 0.77
-6 0 -6 2.93 1.03
-6 0 -6 2.79 0.77
6 -1 6 18.06 1.72
6 -1 6 21.61 1.56
6 -1 6 18.64 1.21
6 -1 6 22.62 1.79
-6 1 -6 16.81 1.74
-6 1 -6 23.07 1.67
-6 1 -6 16.74 1.22
-6 1 -6 16.64 1.5
6 -2 6 9.24 1.26
6 -2 6 9.06 1.03
6 -2 6 8.33 1.23
6 -2 6 8.33 1.34
-6 2 -6 9.84 1.55
-6 2 -6 11.71 1.18
-6 2 -6 7.28 1.19
-6 2 -6 10.13 1.33
6 -3 6 38.57 2.25
6 -3 6 38.28 1.73
6 -3 6 40.49 2.59
-6 3 -6 43.87 2.36
-6 3 -6 41.02 2.4
-6 3 -6 34.94 2.45
-6 3 -6 39.49 1.98
6 -4 6 2.73 1.21
6 -4 6 1.65 0.64
6 -4 6 1.25 0.6
-6 4 -6 1.93 1.04
-6 4 -6 1.66 1.05
-6 4 -6 1.46 1.13
6 -5 6 0.52 1.1
-6 5 -6 1.59 1.27
-6 5 -6 1.24 1.05
5 6 6 11.66 1.24
-5 -6 -6 14.5 2.04
5 5 6 3.09 0.81
-5 -5 -6 4.35 0.77
-5 -5 -6 2.52 1.1
5 4 6 6.84 0.97
5 4 6 6.07 0.92
-5 -4 -6 7.46 0.99
-5 -4 -6 7.88 1.43
5 3 6 7.94 0.97
5 3 6 7.93 1.01
5 3 6 6.23 0.86
5 3 6 8.42 0.98
-5 -3 -6 6.66 1
-5 -3 -6 6.32 1.15
5 2 6 13.31 1.19
5 2 6 13.63 1.2
5 2 6 14.36 1.3
5 2 6 15.64 1.19
-5 -2 -6 14.44 1.52
-5 -2 -6 12.31 1.27
5 1 6 10.26 1.08
5 1 6 12.29 1.26
5 1 6 10.45 1.05
5 1 6 12.23 1.25
-5 -1 -6 13.05 1.32
-5 -1 -6 13.83 1.11
-5 -1 -6 13.77 1.11
-5 -1 -6 13.54 1.16
-5 -1 -6 10.57 1.24
5 0 6 22.17 1.28
5 0 6 23.46 1.46
5 0 6 23.81 1.71
5 0 6 22.17 1.61
5 0 6 22.88 1.53
-5 0 -6 22.71 1.72
-5 0 -6 24.2 1.14
-5 0 -6 25.65 1.47
5 -1 6 12.83 1.38
5 -1 6 11.47 1.04
5 -1 6 13.73 1.31
5 -1 6 13.68 1.46
5 -1 6 15.15 1.47
-5 1 -6 11.73 1.44
-5 1 -6 11.37 1.23
-5 1 -6 10.2 1.16
-5 1 -6 13.52 1.1
5 -2 6 12.03 1.5
5 -2 6 11.95 1.31
5 -2 6 13.18 1.1
5 -2 6 11.97 1.38
5 -2 6 13.43 1.29
-5 2 -6 11.62 1.14
-5 2 -6 11.64 1.3
-5 2 -6 11.48 1.47
-5 2 -6 10.66 1.26
5 -3 6 7.47 0.93
5 -3 6 8.98 1.42
5 -3 6 8.57 1.19
5 -3 6 7.74 0.91
-5 3 -6 8.22 1.26
-5 3 -6 8.85 1.14
-5 3 -6 6.28 1.29
-5 3 -6 7.05 1.21
5 -4 6 5.46 0.69
5 -4 6 5.89 0.7
5 -4 6 7.1 1.42
-5 4 -6 8.03 1.34
-5 4 -6 7.01 1.39
-5 4 -6 5.61 1.26
5 -5 6 4.94 1.37
-5 5 -6 4.23 1.21
-5 5 -6 3.4 1.24
5 -6 6 11.77 1.86
-5 6 -6 15.48 1.98
4 6 6 2.92 0.83
-4 -6 -6 1.85 1.15
4 5 6 7.96 1.01
4 5 6 8.94 1.1
-4 -5 -6 9.23 0.97
-4 -5 -6 9.21 1.52
4 4 6 30.62 1.58
4 4 6 29.21 1.59
4 4 6 31.36 1.61
4 4 6 29.39 1.61
-4 -4 -6 29.45 2.07
-4 -4 -6 32.88 1.74
4 3 6 11.08 1.09
4 3 6 12.92 1.11
4 3 6 13.3 1.07
4 3 6 12.72 1.11
-4 -3 -6 12.41 1.19
-4 -3 -6 10.7 1.31
4 2 6 38.52 1.77
4 2 6 38.09 1.76
4 2 6 36.87 1.64
4 2 6 38.33 1.69
-4 -2 -6 37.2 1.8
-4 -2 -6 38.16 2.04
-4 -2 -6 39.22 1.85
4 1 6 21.38 1.11
4 1 6 17.8 1.24
4 1 6 19.22 1.43
4 1 6 19.44 1.21
4 1 6 21.21 1.42
-4 -1 -6 19.8 1.23
-4 -1 -6 20.65 1.21
-4 -1 -6 20.64 1.51
-4 -1 -6 18.77 1.42
4 0 6 91.16 2.84
4 0 6 91.45 2.47
4 0 6 87.42 2.91
4 0 6 94.84 3.01
4 0 6 92.63 2.87
-4 0 -6 94.35 2.84
-4 0 -6 90.63 2.32
-4 0 -6 93.94 3.11
4 -1 6 21.58 1.67
4 -1 6 17.74 1.39
4 -1 6 19.02 1.14
4 -1 6 20.12 1.55
4 -1 6 19.45 1.35
-4 1 -6 21.56 1.43
-4 1 -6 21.62 1.65
-4 1 -6 17.08 1.31
-4 1 -6 17.67 1.13
4 -2 6 33.82 1.8
4 -2 6 40.48 1.85
4 -2 6 35.13 2.1
4 -2 6 40.93 2.04
4 -2 6 33.67 1.49
-4 2 -6 36.78 1.88
-4 2 -6 37.73 1.66
-4 2 -6 40.47 2.02
-4 2 -6 37.43 2.12
4 -3 6 8.84 1.3
4 -3 6 11.36 1.29
4 -3 6 12.41 1.04
4 -3 6 11.2 0.95
4 -3 6 11.02 0.95
-4 3 -6 12.62 1.44
-4 3 -6 11.05 1.43
-4 3 -6 12.41 1.37
-4 3 -6 13.94 1.25
-4 3 -6 12.29 1.38
4 -4 6 28.97 0.89
4 -4 6 34.01 2.3
4 -4 6 30.1 0.93
4 -4 6 29.55 1.86
-4 4 -6 31.39 2.16
-4 4 -6 32.82 2.13
-4 4 -6 33.08 2.04
4 -5 6 9.49 1.6
-4 5 -6 9.94 1.51
-4 5 -6 10.23 1.57
4 -6 6 4.16 1.3
-4 6 -6 4.26 1.29
3 6 6 5.58 0.97
-3 -6 -6 6.19 1.4
3 5 6 5.54 0.94
3 5 6 6.26 0.96
-3 -5 -6 5.84 1.24
-3 -5 -6 5.67 0.86
3 4 6 43.76 1.84
3 4 6 44.51 1.9
3 4 6 42.58 1.88
-3 -4 -6 44.56 2.39
-3 -4 -6 45.68 1.91
3 3 6 57 2.13
3 3 6 56.72 2.05
3 3 6 58.08 2.02
3 3 6 56.95 2.05
3 3 6 58.26 2.01
-3 -3 -6 55.87 2.05
-3 -3 -6 60.89 2.26
-3 -3 -6 54.21 2.51
3 2 6 7.68 0.87
3 2 6 8.36 0.87
3 2 6 7.91 0.9
3 2 6 7.47 0.9
-3 -2 -6 8.16 0.98
-3 -2 -6 7.33 1.04
-3 -2 -6 7.78 0.92
3 1 6 3.46 0.66
3 1 6 3.82 0.76
3 1 6 3.36 0.67
3 1 6 2.58 0.7
3 1 6 3.54 0.58
-3 -1 -6 3.39 0.64
-3 -1 -6 3.38 0.82
-3 -1 -6 5.16 0.9
3 0 6 37.89 1.85
3 0 6 38.4 1.69
3 0 6 38.56 1.49
3 0 6 38.69 1.86
3 0 6 42.55 1.79
-3 0 -6 42.62 1.76
-3 0 -6 39.38 1.93
-3 0 -6 37.51 1.37
-3 0 -6 40.06 1.77
3 -1 6 3.15 0.76
3 -1 6 2.47 0.72
3 -1 6 4.37 0.93
-3 1 -6 4.78 0.84
-3 1 -6 3.83 0.82
-3 1 -6 3.09 0.66
-3 1 -6 4.7 0.95
3 -2 6 8.58 1.13
3 -2 6 9.39 1.09
3 -2 6 7.61 0.97
3 -2 6 7.97 0.83
-3 2 -6 7.85 0.89
-3 2 -6 6.34 1.07
-3 2 -6 8.15 1.05
-3 2 -6 7.11 0.95
-3 2 -6 8.74 1.05
3 -3 6 53.76 2.55
3 -3 6 59.47 1.87
3 -3 6 60.69 2.34
3 -3 6 57.42 1.67
3 -3 6 56.16 1.67
-3 3 -6 53.68 2.46
-3 3 -6 53.68 2.5
-3 3 -6 52.51 2.37
-3 3 -6 60.82 2.46
-3 3 -6 57.02 2.06
3 -4 6 49.13 2.53
3 -4 6 43.07 2.05
-3 4 -6 46.69 2.37
-3 4 -6 43.98 2.35
-3 4 -6 41.63 2.18
3 -5 6 6.96 1.35
-3 5 -6 4.7 1.19
3 -6 6 5.42 1.34
-3 6 -6 3.9 1.21
2 6 6 0.7 0.74
-2 -6 -6 1.03 0.73
-2 -6 -6 1.67 1.02
2 5 6 5.61 0.93
2 5 6 5.18 0.96
-2 -5 -6 4.49 0.86
-2 -5 -6 5.88 1.18
2 4 6 23.64 1.39
2 4 6 23.18 1.43
2 4 6 23.15 1.41
-2 -4 -6 25.35 1.48
-2 -4 -6 25.88 1.84
2 3 6 3.93 0.7
2 3 6 5.02 0.79
2 3 6 3.42 0.67
2 3 6 4.73 0.74
-2 -3 -6 5.21 0.76
-2 -3 -6 4.34 0.89
-2 -3 -6 3.58 0.74
2 2 6 54.2 1.95
2 2 6 52.9 1.88
2 2 6 51.65 1.98
2 2 6 53.44 1.91
2 2 6 52.95 1.9
-2 -2 -6 55.15 2.05
-2 -2 -6 51.45 2
-2 -2 -6 53.82 2.23
2 1 6 146.41 3.11
2 1 6 140.21 3.57
2 1 6 142.47 3.63
2 1 6 144.79 3.67
2 1 6 139.89 3.51
-2 -1 -6 134.68 3.7
-2 -1 -6 140.93 3.45
2 0 6 2.65 0.72
2 0 6 1.61 0.71
2 0 6 -0.12 0.5
2 0 6 1.24 0.64
2 0 6 1.9 0.58
-2 0 -6 1.2 0.54
-2 0 -6 0.76 0.55
-2 0 -6 0.89 0.76
-2 0 -6 1.84 0.68
2 -1 6 138.54 3.65
2 -1 6 141.07 3.87
-2 1 -6 144.72 3.28
-2 1 -6 142.54 3.75
-2 1 -6 144.55 3.7
-2 1 -6 147.64 3.95
-2 1 -6 142.76 3.78
2 -2 6 54.85 1.65
2 -2 6 52.93 1.61
2 -2 6 53.18 2.3
2 -2 6 50.11 1.95
-2 2 -6 51.52 2.03
-2 2 -6 54.73 1.81
-2 2 -6 55.48 2.19
-2 2 -6 53.41 2.21
-2 2 -6 52.54 2.11
2 -3 6 2.5 0.83
2 -3 6 3.89 0.45
2 -3 6 4.55 0.49
2 -3 6 5.12 0.82
2 -3 6 3.47 0.72
-2 3 -6 3.96 0.83
-2 3 -6 4.23 0.87
-2 3 -6 4.09 0.9
-2 3 -6 3.59 0.72
-2 3 -6 3.05 0.8
2 -4 6 24.84 1.85
2 -4 6 22.23 1.43
-2 4 -6 24.59 1.67
-2 4 -6 22.81 1.69
-2 4 -6 26.44 1.86
-2 4 -6 21.13 1.66
-2 4 -6 22.3 1.42
2 -5 6 6.17 1.22
-2 5 -6 5.09 1.12
2 -6 6 2.53 1.11
-2 6 -6 3.31 1.06
1 6 6 1.18 0.77
-1 -6 -6 0.38 0.73
-1 -6 -6 2.04 0.94
1 5 6 20.86 1.53
1 5 6 18.71 1.45
-1 -5 -6 21.28 1.48
-1 -5 -6 21.17 1.97
1 4 6 27.6 1.53
1 4 6 26.34 1.53
1 4 6 29.1 1.55
1 4 6 24.56 1.42
-1 -4 -6 28.73 1.8
-1 -4 -6 26.77 1.55
1 3 6 9.4 0.95
1 3 6 11.41 1.02
1 3 6 9.79 0.94
1 3 6 10.81 0.98
-1 -3 -6 9.82 1.14
-1 -3 -6 10.37 0.97
-1 -3 -6 11.48 1.08
1 2 6 23.18 1.29
1 2 6 23.94 1.38
1 2 6 20.92 1.33
1 2 6 23.5 1.3
-1 -2 -6 21.89 1.43
-1 -2 -6 25.31 1.52
-1 -2 -6 22.74 1.12
-1 -2 -6 24.36 1.4
1 1 6 151.26 3.65
1 1 6 146.18 3.76
1 1 6 157.45 3.23
1 1 6 151.52 3.7
1 1 6 149.87 3.81
-1 -1 -6 152.22 3.88
-1 -1 -6 154.19 3.64
1 0 6 32.86 1.52
1 0 6 31.23 1.66
1 0 6 32.53 1.44
1 0 6 29.07 1.23
1 0 6 31.82 1.59
-1 0 -6 30.84 1.58
-1 0 -6 29.85 1.47
-1 0 -6 29.62 1.55
-1 0 -6 30.57 1.43
-1 0 -6 30.85 1.21
1 -1 6 153.26 3.29
1 -1 6 152.6 3.83
1 -1 6 143.22 3.68
1 -1 6 152.93 3.92
1 -1 6 160.07 3.3
-1 1 -6 152.59 3.9
-1 1 -6 155.9 4
-1 1 -6 152.04 3.35
-1 1 -6 151.43 3.77
-1 1 -6 156.47 3.87
1 -2 6 23.41 1.53
1 -2 6 21.86 1.22
1 -2 6 22.3 0.95
1 -2 6 22.68 1
1 -2 6 23.57 1.37
-1 2 -6 23.67 1.4
-1 2 -6 23.99 1.43
-1 2 -6 21.46 1.44
-1 2 -6 21.07 1.14
-1 2 -6 26.52 1.53
1 -3 6 10.17 0.97
1 -3 6 11.1 0.98
1 -3 6 8.71 1.11
-1 3 -6 11.26 1.18
-1 3 -6 12.29 1.14
-1 3 -6 12.72 1
-1 3 -6 10.24 1.09
-1 3 -6 10.02 1.08
1 -4 6 23.11 1.74
1 -4 6 29.62 1.44
-1 4 -6 27.62 1.64
-1 4 -6 26.24 1.68
-1 4 -6 24.63 1.62
-1 4 -6 27.13 1.74
-1 4 -6 28.88 1.49
1 -5 6 21.58 1.81
-1 5 -6 19.57 1.69
1 -6 6 1.05 0.91
-1 6 -6 -0.01 0.8
0 6 6 2.59 0.91
0 -6 -6 1.35 0.87
0 -6 -6 3.12 0.95
0 5 6 0.58 0.72
0 5 6 -1.16 0.57
0 -5 -6 0.66 0.73
0 -5 -6 0.1 0.73
0 4 6 8.72 1.02
0 4 6 9.15 1.07
0 4 6 9.47 0.99
0 4 6 7.38 1
0 -4 -6 6.54 1.05
0 -4 -6 7.67 1.01
0 3 6 16.41 1.2
0 3 6 16.05 1.24
0 3 6 14.64 1.18
0 3 6 16.23 0.93
0 3 6 17.51 1.15
0 -3 -6 15.63 1.26
0 -3 -6 17.25 1.32
0 -3 -6 17.93 1.28
0 2 6 26.8 1.45
0 2 6 29.2 1.15
0 2 6 29.3 1.43
0 2 6 30.29 1.55
0 2 6 30.83 1.47
0 -2 -6 29.92 1.29
0 -2 -6 27.19 1.55
0 -2 -6 30.49 1.52
0 -2 -6 29.08 1.56
0 1 6 44.27 1.77
0 1 6 45.71 1.46
0 1 6 45.66 1.74
0 1 6 44.21 1.41
0 1 6 46.23 1.73
0 1 6 45.92 1.81
0 -1 -6 48.02 1.87
0 0 6 -0.35 0.48
0 0 6 0.44 0.51
0 0 6 0.67 0.56
0 0 6 0.2 0.44
0 0 6 0.24 0.43
0 0 6 0.03 0.46
0 0 -6 0.19 0.5
0 0 -6 -0.05 0.46
0 0 -6 -0.4 0.43
0 0 -6 0.97 0.52
0 0 -6 -0.08 0.58
0 -1 6 46.64 1.96
0 -1 6 46.39 1.73
0 -1 6 46.02 1.45
0 -1 6 47.05 1.43
0 1 -6 46.13 1.5
0 1 -6 45.42 1.84
0 1 -6 45.21 1.78
0 1 -6 44.26 1.71
0 1 -6 46.71 1.75
0 -2 6 30.09 0.91
0 -2 6 28.87 1.42
0 -2 6 30.12 0.91
0 -2 6 30.29 1.36
0 -2 6 29.73 1.63
0 2 -6 28.05 1.46
0 2 -6 27.95 1.51
0 2 -6 30.98 1.22
0 2 -6 26.19 1.4
0 2 -6 28.66 1.53
0 -3 6 15.26 0.96
0 -3 6 16.2 1.31
0 -3 6 14.45 1
0 3 -6 15.81 1.25
0 3 -6 16.67 0.98
0 3 -6 15.55 1.21
0 3 -6 16.49 1.22
0 3 -6 16.54 1.17
0 -4 6 7.9 0.82
0 -4 6 7.86 1.07
0 -4 6 7.77 0.83
0 4 -6 7.54 0.99
0 4 -6 8.69 1.02
0 4 -6 7.48 1.03
0 4 -6 7.21 0.99
0 -5 6 -0.85 0.42
0 -5 6 0.8 0.44
0 -5 6 -0.58 0.68
0 5 -6 0.73 0.69
0 -6 6 3.72 0.98
0 6 -6 1.87 0.85
-1 6 6 4.43 1.06
1 -6 -6 6.13 1.13
1 -6 -6 4.54 1.15
-1 5 6 36.4 1.97
1 -5 -6 35.08 1.95
1 -5 -6 38.32 2.1
-1 4 6 36.14 1.82
-1 4 6 29.88 1.76
-1 4 6 37.51 1.78
-1 4 6 38.24 1.81
1 -4 -6 32.03 1.78
1 -4 -6 35.43 1.86
-1 3 6 0.84 0.46
-1 3 6 1.1 0.6
-1 3 6 0.3 0.58
-1 3 6 1.12 0.58
-1 3 6 0.56 0.56
1 -3 -6 0.61 0.52
1 -3 -6 0.89 0.65
-1 2 6 23.51 1.38
-1 2 6 23.74 1.09
-1 2 6 23.99 1.39
-1 2 6 23.44 1.29
-1 2 6 19.81 1.41
1 -2 -6 25.09 1.33
1 -2 -6 25.77 1.29
1 -2 -6 22.88 1.2
1 -2 -6 23.1 1.52
-1 1 6 2.73 0.65
-1 1 6 3.32 0.65
-1 1 6 2.54 0.67
-1 1 6 2.34 0.67
-1 1 6 2.68 0.54
1 -1 -6 1.41 0.66
-1 0 6 0.08 0.53
-1 0 6 0.06 0.57
-1 0 6 0.91 0.52
-1 0 6 0.28 0.48
-1 0 6 0.35 0.46
-1 0 6 0.21 0.38
1 0 -6 0 0.48
1 0 -6 0.74 0.5
1 0 -6 0.83 0.41
1 0 -6 -0.04 0.54
1 0 -6 0.81 0.45
-1 -1 6 2.91 0.6
-1 -1 6 2.4 0.46
-1 -1 6 3.58 0.7
-1 -1 6 1.58 0.47
1 1 -6 2.94 0.57
1 1 -6 3.54 0.67
1 1 -6 2.17 0.52
1 1 -6 1.65 0.65
1 1 -6 3 0.63
1 1 -6 3.07 0.66
-1 -2 6 25.64 1.43
-1 -2 6 24.53 1.19
-1 -2 6 20.43 1.37
-1 -2 6 23.03 1.18
-1 -2 6 21.66 1.1
1 2 -6 23.49 1.33
1 2 -6 24.45 1.07
1 2 -6 23.51 1.33
1 2 -6 24.66 1.29
1 2 -6 24.49 1.34
1 2 -6 24.79 1.07
-1 -3 6 0.66 0.44
-1 -3 6 1.4 0.52
-1 -3 6 1.62 0.65
-1 -3 6 2 0.53
1 3 -6 1.21 0.54
1 3 -6 1.17 0.46
1 3 -6 1.14 0.59
1 3 -6 1.1 0.57
1 3 -6 0.78 0.54
-1 -4 6 34.84 1.23
-1 -4 6 35.89 1.22
-1 -4 6 35.59 1.75
-1 -4 6 36.96 1.33
1 4 -6 33.02 1.74
1 4 -6 32.78 1.63
1 4 -6 38.02 1.67
1 4 -6 35.99 1.63
-1 -5 6 35.34 1.82
1 5 -6 34.89 1.95
1 5 -6 34.86 1.78
-1 -6 6 4.59 0.93
1 6 -6 3.23 0.89
-2 6 6 -0.32 0.79
2 -6 -6 -0.55 0.66
2 -6 -6 0.06 0.83
-2 5 6 -0.1 0.73
2 -5 -6 0.2 0.62
2 -5 -6 0.68 0.82
-2 4 6 13.62 1.33
-2 4 6 11.69 1.25
-2 4 6 15.55 1.14
-2 4 6 13.12 1.3
2 -4 -6 14.28 1.42
2 -4 -6 12.52 1.21
2 -4 -6 14.05 1.11
-2 3 6 4.43 0.83
-2 3 6 3.79 0.74
-2 3 6 5.72 0.67
-2 3 6 3.97 0.82
-2 3 6 7.29 0.97
2 -3 -6 6 0.78
2 -3 -6 4.41 0.74
2 -3 -6 5.06 0.91
2 -3 -6 6.76 0.77
-2 2 6 22.96 1.09
-2 2 6 21.18 1.48
-2 2 6 25.77 1.44
-2 2 6 23.44 1.41
-2 2 6 24.06 1.42
2 -2 -6 21.07 1.3
2 -2 -6 21.53 1.54
2 -2 -6 20.61 1.25
2 -2 -6 23.88 1.25
-2 1 6 46.97 1.93
-2 1 6 50 1.88
-2 1 6 46.33 1.77
-2 1 6 51.14 1.53
-2 1 6 45.47 1.75
2 -1 -6 49.7 1.76
2 -1 -6 47.92 1.82
2 -1 -6 46.17 1.77
2 -1 -6 51.04 1.53
2 -1 -6 49.87 1.94
-2 0 6 12.75 0.96
-2 0 6 11.23 0.9
-2 0 6 10.23 0.95
-2 0 6 8.69 0.84
-2 0 6 9.47 0.72
-2 0 6 9.38 0.86
2 0 -6 7.88 0.87
2 0 -6 9.62 0.88
2 0 -6 11.61 0.86
2 0 -6 9.16 0.9
2 0 -6 10.13 0.91
-2 -1 6 49.93 1.3
-2 -1 6 52.37 1.85
-2 -1 6 49.01 1.78
-2 -1 6 48.05 1.65
-2 -1 6 50.19 1.68
-2 -1 6 48.01 1.28
2 1 -6 46.8 1.69
2 1 -6 47.14 1.76
2 1 -6 52.09 1.47
2 1 -6 47.75 1.75
2 1 -6 51.79 1.77
2 1 -6 48.81 1.8
2 1 -6 48.41 1.47
-2 -2 6 21.33 1.03
-2 -2 6 20.34 1.08
-2 -2 6 21.62 1.28
-2 -2 6 22.57 1.03
-2 -2 6 22.01 1.32
2 2 -6 23.61 0.99
2 2 -6 23.53 1.27
2 2 -6 23.33 1.2
2 2 -6 23.08 1.23
2 2 -6 22.58 1.28
2 2 -6 23.31 0.96
-2 -3 6 5.27 0.56
-2 -3 6 5.51 0.56
-2 -3 6 4.95 0.75
-2 -3 6 5.44 0.75
-2 -3 6 6.5 0.83
2 3 -6 4.37 0.72
2 3 -6 4.98 0.7
2 3 -6 4.59 0.68
2 3 -6 6.33 0.78
-2 -4 6 13.81 1.15
-2 -4 6 14.79 1.09
2 4 -6 14.29 1.09
2 4 -6 12.5 1.07
2 4 -6 14.79 1.2
2 4 -6 13.26 1.04
-2 -5 6 0.96 0.67
2 5 -6 0.87 0.7
2 5 -6 0.49 0.6
-2 -6 6 0.84 0.67
2 6 -6 0.8 0.66
-3 6 6 9.44 1.41
3 -6 -6 10.25 1.51
-3 5 6 5.96 1.15
3 -5 -6 5.18 1.13
3 -5 -6 2.8 0.77
-3 4 6 4.19 0.9
-3 4 6 3.96 0.94
-3 4 6 3.3 0.88
-3 4 6 4.85 0.79
3 -4 -6 3.96 0.81
3 -4 -6 2.75 0.69
3 -4 -6 3.4 0.97
-3 3 6 27.36 1.58
-3 3 6 25.48 1.64
-3 3 6 26.72 1.29
-3 3 6 26.12 1.59
-3 3 6 26.11 1.5
3 -3 -6 28.11 1.31
3 -3 -6 30.11 1.52
3 -3 -6 25.79 1.44
3 -3 -6 27.04 1.73
-3 2 6 33.02 1.59
-3 2 6 30.78 1.74
-3 2 6 31.9 1.29
-3 2 6 32.58 1.61
-3 2 6 32.3 1.65
3 -2 -6 33.88 1.33
3 -2 -6 32.7 1.79
3 -2 -6 34.19 1.22
3 -2 -6 32.14 1.59
-3 1 6 1.5 0.6
-3 1 6 0.47 0.65
-3 1 6 1.47 0.64
-3 1 6 2.65 0.58
-3 1 6 2.31 0.74
3 -1 -6 2.18 0.77
3 -1 -6 1.56 0.63
3 -1 -6 0.89 0.58
3 -1 -6 2.13 0.71
-3 0 6 21.07 1.44
-3 0 6 21.77 1.28
-3 0 6 24.74 1.26
-3 0 6 22.13 1.01
-3 0 6 21.32 0.99
3 0 -6 21.55 1.49
3 0 -6 23.09 1.25
3 0 -6 24.24 1.09
3 0 -6 23.64 1.29
3 0 -6 24.14 1.35
-3 -1 6 1.45 0.35
-3 -1 6 2.06 0.63
-3 -1 6 0.84 0.51
-3 -1 6 2.24 0.54
-3 -1 6 2.27 0.57
-3 -1 6 1.73 0.33
-3 -1 6 2.43 0.67
3 1 -6 1.4 0.45
3 1 -6 1.7 0.59
3 1 -6 1.34 0.49
3 1 -6 1.12 0.56
3 1 -6 1.38 0.65
3 1 -6 2.45 0.67
-3 -2 6 33.17 1.45
-3 -2 6 30.33 1.18
-3 -2 6 32.7 1.63
-3 -2 6 32.63 1.17
-3 -2 6 32.36 1.47
3 2 -6 34 1.38
3 2 -6 30.25 1.38
3 2 -6 30.84 1.03
3 2 -6 32.15 1.44
3 2 -6 33.6 1.38
-3 -3 6 26.97 1.33
-3 -3 6 26.96 1.49
-3 -3 6 25.35 0.77
-3 -3 6 26.95 0.81
-3 -3 6 26.04 1.31
3 3 -6 27.27 1.24
3 3 -6 29.13 1.27
3 3 -6 25.09 1.26
3 3 -6 27.61 1.32
-3 -4 6 3.58 0.7
-3 -4 6 2.62 0.75
3 4 -6 3.45 0.6
3 4 -6 3.97 0.66
3 4 -6 3.13 0.69
3 4 -6 3.47 0.68
-3 -5 6 4.59 0.75
3 5 -6 3.31 0.71
3 5 -6 3.29 0.8
-3 -6 6 13.83 1.1
3 6 -6 9.41 1.07
-4 6 6 6.68 1.35
4 -6 -6 8.28 1.45
-4 5 6 13.39 1.58
4 -5 -6 13.9 1.64
4 -5 -6 15.89 1.28
-4 4 6 8.44 1.18
-4 4 6 7.18 0.97
-4 4 6 8.06 1.16
-4 4 6 9.81 1.3
4 -4 -6 6.89 1.05
4 -4 -6 7.63 0.84
4 -4 -6 9.01 1.32
-4 3 6 4.13 0.68
-4 3 6 5.48 0.96
-4 3 6 3.32 0.78
-4 3 6 3.87 0.9
-4 3 6 4.99 0.87
4 -3 -6 3.67 0.52
4 -3 -6 3.23 0.54
4 -3 -6 2.94 0.81
4 -3 -6 3.74 0.95
4 -3 -6 4.24 0.8
-4 2 6 60.66 2.26
-4 2 6 64.66 1.93
-4 2 6 60.94 2.43
-4 2 6 59.64 2.24
-4 2 6 64.78 2.34
4 -2 -6 62.87 2.41
4 -2 -6 62.93 2.23
4 -2 -6 57.31 2.2
4 -2 -6 60.35 1.78
4 -2 -6 59.15 1.79
-4 1 6 10.13 1.11
-4 1 6 7.15 0.74
-4 1 6 10.81 1.04
-4 1 6 10.53 1.04
-4 1 6 9.26 1
4 -1 -6 9.74 1.15
4 -1 -6 9.09 1.08
4 -1 -6 10.88 1.06
4 -1 -6 7.34 0.92
-4 0 6 412.92 7.55
-4 0 6 414.36 8.68
-4 0 6 425.38 7.55
-4 0 6 427.61 8.38
4 0 -6 427.02 8.61
4 0 -6 410.46 8.39
4 0 -6 428.61 8.63
4 0 -6 415.2 7.65
4 0 -6 414.29 8.68
-4 -1 6 8.88 1.22
-4 -1 6 9.31 0.97
-4 -1 6 10.4 0.97
-4 -1 6 9.33 0.83
-4 -1 6 9.99 0.81
4 1 -6 9.57 0.97
4 1 -6 8.83 0.88
4 1 -6 10.33 0.73
4 1 -6 9.94 0.91
4 1 -6 10.76 0.76
4 1 -6 10.49 0.95
-4 -2 6 66.87 2.53
-4 -2 6 61.23 2.02
-4 -2 6 60.99 1.66
-4 -2 6 62.19 1.7
-4 -2 6 67.58 2.05
4 2 -6 61.74 1.94
4 2 -6 65.55 1.98
4 2 -6 61.39 1.96
4 2 -6 59.23 1.98
4 2 -6 64.26 1.95
4 2 -6 66.22 1.53
-4 -3 6 4.09 0.64
-4 -3 6 2.81 0.81
-4 -3 6 4.34 0.66
4 3 -6 3.46 0.61
4 3 -6 3.51 0.59
4 3 -6 4.44 0.59
-4 -4 6 8.95 0.84
-4 -4 6 8.22 1.11
4 4 -6 8.73 0.85
4 4 -6 9.02 0.85
4 4 -6 5.82 0.77
-4 -5 6 14.8 1
-4 -5 6 12.79 1.29
4 5 -6 12.62 1.05
4 5 -6 14.54 1.18
4 6 -6 6.38 0.98
4 6 -6 6.02 0.86
-5 6 6 5.12 1.32
5 -6 -6 2.75 1.18
-5 5 6 10.55 1.52
5 -5 -6 9.55 1.52
-5 4 6 16.65 1.59
-5 4 6 15.21 1.62
-5 4 6 16.92 1.38
5 -4 -6 17.17 1.76
5 -4 -6 17.25 1.56
5 -4 -6 19.94 1.09
-5 3 6 8.76 0.96
-5 3 6 9.23 1.16
-5 3 6 7.46 1.13
-5 3 6 10.25 1.2
5 -3 -6 7.72 0.76
5 -3 -6 7.68 1.18
5 -3 -6 7.83 1.08
5 -3 -6 8.3 0.68
-5 2 6 9.69 1.13
-5 2 6 7.95 1.11
-5 2 6 8.78 1.07
-5 2 6 10 0.93
-5 2 6 8.69 1.01
5 -2 -6 10.75 1.14
5 -2 -6 9.19 1.05
5 -2 -6 10.01 0.88
5 -2 -6 10.18 1.25
5 -2 -6 10.52 0.67
-5 1 6 34.94 1.39
-5 1 6 32.92 1.61
-5 1 6 36.96 1.76
-5 1 6 38.44 1.9
5 -1 -6 33.48 1.67
5 -1 -6 35.96 1.86
5 -1 -6 33.94 1.38
5 -1 -6 33.4 1.76
5 -1 -6 33.63 1.71
-5 0 6 79.23 1.97
-5 0 6 84.61 2.46
-5 0 6 77.02 2.61
-5 0 6 77.31 2.81
-5 0 6 76.32 1.96
5 0 -6 80.49 2.13
5 0 -6 76.04 2.45
5 0 -6 78.27 2.54
5 0 -6 79.32 2.53
5 0 -6 79.26 2.55
-5 -1 6 34.03 1.65
-5 -1 6 35.66 1.43
-5 -1 6 39.38 2.02
-5 -1 6 34.99 1.65
-5 -1 6 35.05 1.35
5 1 -6 36.85 1.59
5 1 -6 36.51 1.71
5 1 -6 37.32 1.59
5 1 -6 35.75 1.25
5 1 -6 34.67 1.24
5 1 -6 33.77 1.54
-5 -2 6 11.76 0.95
-5 -2 6 9.75 0.68
-5 -2 6 8.36 1.14
-5 -2 6 10 0.93
-5 -2 6 10.45 0.66
5 2 -6 10.29 0.9
5 2 -6 10.77 0.89
5 2 -6 11.3 0.88
5 2 -6 9.66 0.87
-5 -3 6 10.06 0.85
-5 -3 6 8.47 0.81
-5 -3 6 8.9 1.22
5 3 -6 7.66 0.77
5 3 -6 7.64 0.76
5 3 -6 8.77 0.71
5 3 -6 7.61 0.78
-5 -4 6 16.8 1.02
-5 -4 6 16.66 1.55
5 4 -6 16.41 1.02
5 4 -6 14.25 1.04
-5 -5 6 10.34 1.33
5 5 -6 9.32 0.93
5 5 -6 9.89 0.9
5 6 -6 1.85 0.7
5 6 -6 2.44 0.67
-6 6 6 4.21 1.33
6 -6 -6 5.48 1.38
-6 5 6 2.14 1.09
6 -5 -6 0.74 1.04
-6 4 6 10.39 1.29
-6 4 6 7.81 1.25
-6 4 6 9.77 1.43
6 -4 -6 9.32 1.34
6 -4 -6 9.24 0.75
6 -4 -6 10.38 1.53
-6 3 6 16.85 1.31
-6 3 6 19 1.64
-6 3 6 18.17 1.6
-6 3 6 17.55 1.6
-6 3 6 19.74 1.61
6 -3 -6 19.81 1.79
6 -3 -6 19.51 1.51
6 -3 -6 17.13 1.13
-6 2 6 39.61 1.61
-6 2 6 38.15 1.96
-6 2 6 36.02 1.89
-6 2 6 36.45 2.06
-6 2 6 37.52 2.08
6 -2 -6 37.26 1.03
6 -2 -6 35.64 1.53
6 -2 -6 39.15 1.91
6 -2 -6 36.92 1.95
6 -2 -6 37.48 2.05
-6 1 6 3.91 0.89
-6 1 6 4.85 0.84
-6 1 6 4.15 0.68
-6 1 6 6.24 1.09
-6 1 6 7.08 0.95
6 -1 -6 5.3 0.95
6 -1 -6 5.65 0.92
6 -1 -6 5.66 0.9
6 -1 -6 4.63 0.73
6 -1 -6 7.46 1.1
-6 0 6 3.85 1.01
-6 0 6 3.85 0.84
-6 0 6 4.19 0.58
-6 0 6 4.03 0.56
6 0 -6 5.02 0.81
6 0 -6 5.6 0.92
6 0 -6 3.72 0.77
6 0 -6 5.42 0.71
6 0 -6 4.79 0.89
-6 -1 6 4.44 0.68
-6 -1 6 4.47 1
-6 -1 6 6.02 0.68
-6 -1 6 5.78 0.86
6 1 -6 6.44 0.89
6 1 -6 5.44 0.76
6 1 -6 5.58 0.82
6 1 -6 5.96 0.63
6 1 -6 6.15 0.85
6 1 -6 6.19 0.86
-6 -2 6 38.31 1.64
-6 -2 6 37.83 1.19
-6 -2 6 37.65 1.19
-6 -2 6 37.52 2.1
-6 -2 6 38.06 1.64
6 2 -6 37.68 1.54
6 2 -6 35.76 1.56
6 2 -6 36.98 1.55
6 2 -6 36.38 1.51
-6 -3 6 15.47 1.58
-6 -3 6 16.56 1.13
6 3 -6 18.62 1.11
6 3 -6 17.71 0.98
6 3 -6 17.16 1.08
6 3 -6 16.97 1.06
-6 -4 6 7.55 1.3
-6 -4 6 10.86 0.86
6 4 -6 8.82 0.86
6 4 -6 7.66 0.79
-6 -5 6 1.25 1
6 5 -6 2.02 0.58
6 5 -6 2.06 0.62
6 6 -6 3.61 0.7
6 6 -6 4.67 0.78
-7 6 6 5.62 1.46
7 -6 -6 7.83 1.59
-7 5 6 4.71 1.33
7 -5 -6 5.83 1.39
-7 4 6 20.95 1.95
-7 4 6 20.6 1.89
-7 4 6 22.6 1.74
7 -4 -6 23.24 1.97
7 -4 -6 19.94 2
7 -4 -6 19.74 1.15
-7 3 6 23.39 1.78
-7 3 6 22.95 1.71
-7 3 6 22.55 1.48
-7 3 6 21.93 1.89
7 -3 -6 24.02 1.95
7 -3 -6 23.1 1.79
7 -3 -6 21.9 1.27
7 -3 -6 22.72 1.78
-7 2 6 4.89 0.79
-7 2 6 2.53 1
-7 2 6 1.76 0.82
-7 2 6 1.62 0.76
7 -2 -6 3.4 0.84
7 -2 -6 3.25 0.91
7 -2 -6 4.3 1.05
-7 1 6 14.42 1.02
-7 1 6 13.11 1.22
-7 1 6 14.27 1.32
-7 1 6 12.09 1.36
-7 1 6 13.79 1.5
7 -1 -6 16.36 1.51
7 -1 -6 13.21 0.77
7 -1 -6 13.04 1.29
7 -1 -6 17.99 1.47
7 -1 -6 15.71 1.16
7 -1 -6 15.73 1.43
-7 0 6 47.89 1.47
-7 0 6 49.64 1.47
-7 0 6 50.43 2.18
-7 0 6 46.8 2.41
-7 0 6 47.7 1.9
7 0 -6 48.26 2.01
7 0 -6 46.74 2.17
7 0 -6 46.56 1.74
7 0 -6 49.48 2.03
7 0 -6 50.89 2.13
7 0 -6 52.46 1.76
-7 -1 6 13.11 1.51
-7 -1 6 14.13 1.26
-7 -1 6 12.73 1.02
7 1 -6 13.39 1.06
7 1 -6 12.23 1.11
7 1 -6 15.5 1.26
7 1 -6 12.84 1.13
-7 -2 6 2.86 0.49
-7 -2 6 3.93 0.75
-7 -2 6 4.31 1.05
-7 -2 6 3.02 0.47
-7 -2 6 3.19 0.65
7 2 -6 2.25 0.68
7 2 -6 4.52 0.72
7 2 -6 3.59 0.73
7 2 -6 3.5 0.69
-7 -3 6 24.12 1.34
-7 -3 6 24.65 1.94
7 3 -6 22.84 1.25
7 3 -6 23.15 1.28
7 3 -6 24.72 1.33
-7 -4 6 20.81 2.01
7 4 -6 20.26 1.13
7 4 -6 18.72 1.17
7 4 -6 20.04 1.19
-7 -5 6 3.27 1.22
7 5 -6 4.19 0.69
7 5 -6 4.17 0.71
7 6 -6 7.3 0.84
7 6 -6 5.9 0.78
7 6 -6 6.92 0.78
-8 6 6 1.81 1.19
8 -6 -6 2.67 1.32
-8 5 6 3.77 1.29
8 -5 -6 3.91 1.4
-8 4 6 12.08 1.65
-8 4 6 12.61 1.65
-8 4 6 13.99 1.58
8 -4 -6 14.02 1.14
8 -4 -6 11.34 1.75
-8 3 6 83.16 3.31
-8 3 6 82.16 3.25
-8 3 6 78.04 3.19
-8 3 6 72.34 2.63
8 -3 -6 77.17 3.13
8 -3 -6 74.9 3.35
8 -3 -6 76.11 3.11
8 -3 -6 75.93 2.5
-8 2 6 52.96 2.46
-8 2 6 45.15 2.42
-8 2 6 44.59 1.89
8 -2 -6 49.93 2.49
8 -2 -6 48.63 2.59
8 -2 -6 50.32 2.38
-8 1 6 36.99 1.89
-8 1 6 32.49 2.13
-8 1 6 33.12 1.52
-8 1 6 36.04 1.85
8 -1 -6 31.09 2.04
8 -1 -6 32.74 2.03
8 -1 -6 37.7 1.96
8 -1 -6 36.71 1.98
8 -1 -6 34.97 1.23
8 -1 -6 34.32 1.61
-8 0 6 3.45 0.92
-8 0 6 3.77 0.73
-8 0 6 3.8 1.06
-8 0 6 4.62 0.57
-8 0 6 3.23 0.55
8 0 -6 4.88 0.78
8 0 -6 4.93 0.96
8 0 -6 4.23 0.87
8 0 -6 2.65 0.83
8 0 -6 4.57 0.67
8 0 -6 4.02 0.91
-8 -1 6 33.89 1.92
-8 -1 6 33.1 1.55
-8 -1 6 31.77 2.16
8 1 -6 33.78 1.75
8 1 -6 37.81 1.87
8 1 -6 35.3 1.74
8 1 -6 36.03 1.79
-8 -2 6 50.11 2.09
-8 -2 6 48.69 1.47
-8 -2 6 48.05 1.46
-8 -2 6 46.5 2.64
8 2 -6 48.33 1.99
8 2 -6 48.21 1.91
8 2 -6 47.47 1.97
8 2 -6 50.33 1.99
-8 -3 6 78.59 3.57
8 3 -6 76.95 2.44
8 3 -6 82.71 2.56
8 3 -6 79.51 2.5
-8 -4 6 11.76 1.77
8 4 -6 13.2 1.01
8 4 -6 12.23 1.05
8 4 -6 12.91 1.07
-8 -5 6 3.54 1.28
8 5 -6 2.62 0.66
8 5 -6 1.94 0.64
8 6 -6 0.74 0.58
8 6 -6 1.49 0.6
-9 5 6 11.86 1.78
9 -5 -6 9.72 0.83
9 -5 -6 7.83 1.73
-9 4 6 8.85 1.4
-9 4 6 9.42 1.54
-9 4 6 7.98 1.41
9 -4 -6 6.89 1.53
9 -4 -6 5.99 0.95
-9 3 6 27.12 2.25
-9 3 6 31.83 1.82
-9 3 6 30.36 2.16
-9 3 6 28.8 2.14
9 -3 -6 31.91 2.42
9 -3 -6 30.22 1.63
9 -3 -6 34.65 2.22
-9 2 6 14.3 1.74
-9 2 6 16.55 1.6
-9 2 6 19.61 1.32
-9 2 6 16.71 1.67
9 -2 -6 22.05 1.93
9 -2 -6 17.85 1.88
9 -2 -6 19.2 1.78
-9 1 6 17.86 1.6
-9 1 6 16.11 1.76
-9 1 6 17.24 1.51
-9 1 6 16.45 1.2
9 -1 -6 16.08 1.57
9 -1 -6 17.55 0.89
9 -1 -6 17.17 1.3
9 -1 -6 18.09 1.7
9 -1 -6 14.16 1.6
-9 0 6 5.98 0.89
-9 0 6 4.68 0.57
-9 0 6 3.59 0.56
-9 0 6 4.51 1.19
9 0 -6 5.28 0.84
9 0 -6 5.72 1.03
9 0 -6 6.33 0.78
9 0 -6 3.94 0.95
9 0 -6 4.01 1.01
9 0 -6 4.22 0.98
-9 -1 6 14.66 1.76
-9 -1 6 19.2 1.28
9 1 -6 17.1 1.45
9 1 -6 15.86 1.42
9 1 -6 15.62 1.46
9 1 -6 17.76 1.52
-9 -2 6 20.17 0.99
-9 -2 6 14 1.82
9 2 -6 16.49 1.3
9 2 -6 16.59 1.36
9 2 -6 19.3 1.45
9 2 -6 18.95 1.48
-9 -3 6 30.15 2.34
9 3 -6 26.77 1.55
9 3 -6 28.62 1.62
9 3 -6 30.31 1.63
-9 -4 6 8.18 1.59
9 4 -6 8.44 1
9 4 -6 8.47 0.96
-9 -5 6 11.77 1.86
9 5 -6 10.33 0.98
9 5 -6 11.5 1.05
10 -5 -6 3.39 1.47
10 -5 -6 2.71 0.68
-10 4 6 1.18 1.03
10 -4 -6 1.15 1.19
-10 3 6 1.17 1.07
-10 3 6 0.54 0.81
-10 3 6 -0.4 0.89
10 -3 -6 0.85 1
10 -3 -6 0.32 1.09
-10 2 6 3.47 1.15
-10 2 6 4.14 1.12
-10 2 6 4.58 0.94
10 -2 -6 4.87 1.2
10 -2 -6 5.04 1.36
10 -2 -6 4.74 1.22
-10 1 6 3.76 0.8
-10 1 6 4.31 1.03
-10 1 6 3.36 1.18
10 -1 -6 3.83 1.08
10 -1 -6 3.91 1.18
10 -1 -6 2.98 1.04
-10 0 6 1.49 0.44
-10 0 6 1.36 0.43
-10 0 6 1.89 1.1
10 0 -6 0.59 0.51
10 0 -6 2.15 0.93
10 0 -6 0.82 0.91
10 0 -6 2.01 0.96
-10 -1 6 2.1 0.75
-10 -1 6 4.18 1.32
10 1 -6 3.13 0.99
10 1 -6 2.98 0.93
10 1 -6 2.7 0.92
-10 -2 6 5.52 1.41
-10 -2 6 5.52 0.67
10 2 -6 6.66 1.1
10 2 -6 6.67 1.05
10 2 -6 4.63 0.99
-10 -3 6 0.16 1.1
10 3 -6 0.13 0.68
10 3 -6 0.72 0.72
-10 -4 6 1.56 1.25
10 4 -6 2.04 0.76
10 4 -6 2.23 0.76
-10 -5 6 2.52 1.47
10 5 -6 1.97 0.77
11 -4 -6 7.54 1.74
-11 3 6 5.1 1.11
-11 3 6 6 1.43
11 -3 -6 4.61 1.47
11 -3 -6 2.97 1.25
-11 2 6 5.93 1.02
-11 2 6 4.75 1.38
11 -2 -6 8.07 1.45
11 -2 -6 6.51 1.49
11 -2 -6 6.94 1.38
-11 1 6 17.62 2.04
-11 1 6 17.16 1.2
11 -1 -6 15.12 1.81
11 -1 -6 16.74 1.83
11 -1 -6 14.83 1.74
-11 0 6 6.16 1.57
11 0 -6 7.94 1.33
11 0 -6 10.55 1.51
-11 -1 6 16.63 2.06
11 1 -6 20.99 1.78
11 1 -6 19.45 1.83
-11 -2 6 7.2 0.76
-11 -2 6 2.56 1.36
11 2 -6 5.79 1.14
-11 -3 6 4.11 1.48
11 3 -6 4.36 0.97
-11 -4 6 7.88 1.81
11 4 -6 8.89 1.14
12 -4 -6 3.33 1.52
-12 3 6 0.89 0.9
-12 3 6 2.35 1.3
12 -3 -6 0.03 1.18
-12 2 6 12.61 1.34
-12 2 6 13.32 1.89
12 -2 -6 14.13 1.96
12 -2 -6 14.57 1.92
-12 1 6 15.88 2.09
-12 1 6 17.44 1.23
12 -1 -6 21.06 2.13
12 -1 -6 22.14 2.21
-12 0 6 4.22 1.46
12 0 -6 5.38 1.31
12 0 -6 7.77 1.42
-12 -1 6 17.69 2.26
12 1 -6 20.12 1.94
-12 -2 6 12.51 2.07
12 2 -6 15.4 1.67
-12 -3 6 1.52 1.36
12 3 -6 1.34 0.85
-12 -4 6 0.35 1.45
12 4 -6 1.85 0.86
-13 3 6 1.2 0.97
-13 3 6 4.1 1.48
13 -3 -6 -1.39 1.12
-13 2 6 13.85 2.05
-13 2 6 12.84 1.36
13 -2 -6 13.29 1.99
-13 1 6 4.77 0.77
-13 1 6 3.72 0.79
-13 1 6 3.23 1.46
13 -1 -6 3.14 1.24
13 -1 -6 5.4 1.48
-13 0 6 2.85 1.36
13 0 -6 0.68 1.11
13 0 -6 2.05 1.16
-13 -1 6 3.72 1.43
13 1 -6 4.24 1.28
-13 -2 6 12.02 2.13
13 2 -6 10.79 1.58
-13 -3 6 4.26 1.73
13 3 -6 2.19 1
-14 2 6 0.67 0.88
-14 2 6 3.66 1.48
14 -2 -6 1.97 1.33
-14 1 6 14.83 2.2
-14 1 6 14.45 1
14 -1 -6 18.63 2.23
14 -1 -6 14.44 2.06
-14 0 6 0.45 1.31
14 0 -6 1.41 1.14
-14 -1 6 15.26 2.4
14 1 -6 14.97 1.97
-14 -2 6 1.81 1.46
14 2 -6 1.31 1.05
-15 1 6 17.54 2.58
15 0 -6 -0.55 1.08
15 1 -6 21.46 2.4
12 1 7 11.94 1.95
-12 -1 -7 11.54 1.8
-12 -1 -7 11.18 1.98
12 0 7 -0.11 1.14
-12 0 -7 0.95 0.99
-12 0 -7 1.52 1.5
12 -1 7 11.63 2.02
-12 1 -7 12.27 1.08
-12 1 -7 10.17 2.13
11 2 7 8.02 1.55
-11 -2 -7 6.89 1.54
-11 -2 -7 9.19 1.67
11 1 7 1.58 1.22
-11 -1 -7 1.31 1.25
-11 -1 -7 3.27 1.16
11 0 7 16.44 2.11
11 0 7 19.65 2.2
-11 0 -7 17.52 2.28
-11 0 -7 19.39 1.98
11 -1 7 1.82 1.31
-11 1 -7 1.25 0.9
-11 1 -7 1.66 0.78
-11 1 -7 0.73 1.37
11 -2 7 6.5 1.68
-11 2 -7 5.75 1.75
-11 2 -7 7.08 1.21
10 3 7 5.26 1.28
-10 -3 -7 4.89 1.24
-10 -3 -7 6.79 1.57
10 2 7 0.77 0.96
-10 -2 -7 1.01 1
-10 -2 -7 0.81 1.08
10 1 7 0.26 1.01
-10 -1 -7 -0.63 0.83
-10 -1 -7 1.73 1.25
10 0 7 6.76 1.44
10 0 7 5.92 1.42
-10 0 -7 5.74 1.22
-10 0 -7 3.97 1.51
10 -1 7 0.36 1.16
10 -1 7 1.11 1.07
-10 1 -7 0.39 1.24
-10 1 -7 0.09 0.82
-10 1 -7 0.15 0.68
10 -2 7 2 1.32
-10 2 -7 2.07 1.4
-10 2 -7 0.9 0.85
10 -3 7 6.38 1.67
-10 3 -7 3.1 1.53
9 4 7 13.26 1.57
-9 -4 -7 13.66 1.51
-9 -4 -7 13.17 1.95
9 3 7 1.82 0.94
-9 -3 -7 2.45 1.11
-9 -3 -7 0.87 0.92
9 2 7 -0.73 0.81
-9 -2 -7 1.08 0.96
-9 -2 -7 0.12 0.97
9 1 7 0.25 0.92
9 1 7 -0.72 0.81
-9 -1 -7 0.16 1.09
-9 -1 -7 0.99 0.89
9 0 7 3.64 1.18
9 0 7 2.12 1.13
-9 0 -7 1.77 0.95
-9 0 -7 3.18 1.39
9 -1 7 -0.09 1.02
9 -1 7 -0.06 0.89
-9 1 -7 0.28 1.22
-9 1 -7 1.07 0.74
-9 1 -7 0.28 0.75
9 -2 7 0.95 1.21
-9 2 -7 0.26 0.83
-9 2 -7 2.38 1.38
-9 2 -7 0.33 0.79
9 -3 7 0.68 1.23
-9 3 -7 0.4 1.25
9 -4 7 12.56 2.03
-9 4 -7 16.39 2.29
8 4 7 3.94 1.04
-8 -4 -7 4.5 1.39
-8 -4 -7 7.43 1.23
8 3 7 4.56 1.04
-8 -3 -7 2.51 1.11
-8 -3 -7 2.77 0.98
8 2 7 6.55 1.24
-8 -2 -7 9.09 1.48
-8 -2 -7 7.36 1.35
8 1 7 11.1 1.49
8 1 7 11.95 1.56
-8 -1 -7 9.71 1.56
-8 -1 -7 11.75 1.55
8 0 7 3.72 1.16
8 0 7 5.67 1.15
8 0 7 2.11 1.02
-8 0 -7 4.17 1.32
-8 0 -7 4.56 0.7
-8 0 -7 4.72 1.08
8 -1 7 11.28 1.69
8 -1 7 13.31 1.64
8 -1 7 15.95 1.85
-8 1 -7 10.49 1.15
-8 1 -7 11.46 1.78
-8 1 -7 10.58 1.33
8 -2 7 7.1 1.48
8 -2 7 7.76 1.45
-8 2 -7 6.08 1.09
-8 2 -7 5.41 1.5
8 -3 7 3.23 1.36
8 -3 7 2.56 1.16
-8 3 -7 2.6 1.38
8 -4 7 7.38 1.74
-8 4 -7 5.65 1.61
7 5 7 -0.05 0.72
-7 -5 -7 0 0.97
7 4 7 3.12 0.92
-7 -4 -7 1.6 0.87
-7 -4 -7 2.68 1.17
7 3 7 22.36 1.73
-7 -3 -7 20.03 1.64
-7 -3 -7 18.2 1.94
7 2 7 6.38 1.08
7 2 7 6.64 1.17
-7 -2 -7 4.98 1.15
-7 -2 -7 4.33 1.11
7 1 7 4.97 1.11
7 1 7 5.2 1.13
7 1 7 4.98 1.04
-7 -1 -7 4.27 1.03
-7 -1 -7 5 1.22
-7 -1 -7 5.81 0.98
7 0 7 4.69 1.08
7 0 7 6.76 1.24
7 0 7 5.44 1.09
-7 0 -7 4.75 1.03
-7 0 -7 5.29 0.76
-7 0 -7 5.3 1.26
-7 0 -7 6.19 1.1
7 -1 7 6.09 1.31
7 -1 7 3.2 1.03
7 -1 7 3.19 1.06
-7 1 -7 4.34 1.31
-7 1 -7 4.22 0.86
-7 1 -7 3.82 0.99
7 -2 7 5.02 1.16
7 -2 7 5.43 1.35
7 -2 7 5.1 1.19
-7 2 -7 5.36 0.97
-7 2 -7 4.15 1.09
-7 2 -7 2.89 1.26
-7 2 -7 5 1.29
7 -3 7 23.29 2.11
7 -3 7 24.11 2.33
-7 3 -7 22.52 2.08
-7 3 -7 19.64 2.2
-7 3 -7 24.8 2.16
7 -4 7 2.9 0.82
7 -4 7 2.57 0.76
7 -4 7 2.83 1.33
-7 4 -7 6.18 1.47
-7 4 -7 4.25 1.47
-7 4 -7 3.69 1.25
7 -5 7 2.04 1.36
-7 5 -7 0.74 1.32
-7 5 -7 0.28 1.14
6 5 7 5.01 0.96
-6 -5 -7 3.49 0.84
-6 -5 -7 5.41 1.39
6 4 7 0.88 0.74
-6 -4 -7 1.97 0.85
-6 -4 -7 1.24 0.93
6 3 7 1.26 0.81
-6 -3 -7 2.13 0.97
-6 -3 -7 2.48 0.91
6 2 7 9.19 1.16
6 2 7 10.86 1.24
6 2 7 12.64 1.29
6 2 7 13.03 1.39
-6 -2 -7 10.2 1.41
-6 -2 -7 11.77 1.44
6 1 7 94.62 3.38
6 1 7 96.89 3.24
6 1 7 98.4 3.29
6 1 7 95.51 3.31
-6 -1 -7 100.71 3.54
-6 -1 -7 98.99 3.07
-6 -1 -7 95.35 3.53
6 0 7 8.26 1.22
6 0 7 7.39 1.2
6 0 7 9.04 1.07
6 0 7 7.97 1.15
6 0 7 9.4 1.22
-6 0 -7 7.51 0.82
-6 0 -7 5.69 1.22
-6 0 -7 8.29 1.11
-6 0 -7 8.21 1.17
6 -1 7 98.2 3.58
6 -1 7 97.67 3.41
6 -1 7 91.79 3.53
6 -1 7 93.96 2.87
-6 1 -7 92.79 3.66
-6 1 -7 92.41 2.77
-6 1 -7 98.34 3.41
-6 1 -7 97.75 3.33
6 -2 7 11.11 1.48
6 -2 7 11.15 1.39
6 -2 7 9.37 1.49
6 -2 7 11.7 1.19
-6 2 -7 14.62 1.58
-6 2 -7 11.7 1.49
-6 2 -7 7.87 1.46
-6 2 -7 10.14 1.18
6 -3 7 2.69 1.19
6 -3 7 2.17 1.05
6 -3 7 2.18 0.77
-6 3 -7 2.43 1.16
-6 3 -7 2.92 1.07
-6 3 -7 3.17 1.09
-6 3 -7 3.78 0.99
6 -4 7 1.89 0.65
6 -4 7 1.67 1.19
6 -4 7 3.21 0.73
-6 4 -7 1.74 1.06
-6 4 -7 0.19 1.05
-6 4 -7 2.28 1.14
6 -5 7 4.79 1.43
-6 5 -7 4.52 1.42
-6 5 -7 4.51 1.45
5 6 7 7.57 1.16
-5 -6 -7 6.73 1.57
5 5 7 7.14 1.07
-5 -5 -7 7.56 1.55
-5 -5 -7 7.93 1.02
5 4 7 22.12 1.55
5 4 7 24.66 1.63
-5 -4 -7 25.96 1.75
-5 -4 -7 22.21 2.1
5 3 7 5.93 0.97
5 3 7 5.16 0.98
5 3 7 5.96 0.92
-5 -3 -7 3.31 1.02
-5 -3 -7 3.84 0.95
5 2 7 0.63 0.68
5 2 7 2.98 0.82
5 2 7 2.24 0.74
5 2 7 2.28 0.81
-5 -2 -7 2.09 0.89
-5 -2 -7 2.98 0.89
5 1 7 47.5 2.23
5 1 7 46.86 2.09
5 1 7 46.74 2.09
5 1 7 46.13 2.21
-5 -1 -7 46.54 1.98
-5 -1 -7 47.81 2.33
-5 -1 -7 47.82 2.28
-5 -1 -7 50.43 2
-5 -1 -7 47.64 1.91
5 0 7 19.1 1.49
5 0 7 18.39 1.25
5 0 7 19.32 1.65
5 0 7 20.42 1.55
5 0 7 23.39 1.66
-5 0 -7 21.59 1.53
-5 0 -7 19.22 1.07
-5 0 -7 23.33 1.82
5 -1 7 46.04 2.16
5 -1 7 45.54 1.84
5 -1 7 47.44 2.47
5 -1 7 47.86 2.37
-5 1 -7 47.93 2.19
-5 1 -7 44.43 1.8
-5 1 -7 44.94 2.47
-5 1 -7 48.96 2.19
5 -2 7 3 1.02
5 -2 7 3.26 0.76
5 -2 7 3.45 0.9
5 -2 7 2.19 0.87
5 -2 7 3.8 0.9
-5 2 -7 2.9 1.01
-5 2 -7 2.92 0.78
-5 2 -7 4.81 1.01
-5 2 -7 3.34 1.11
5 -3 7 4.89 1.22
5 -3 7 4.31 1.12
5 -3 7 3.87 0.79
-5 3 -7 5.78 1.15
-5 3 -7 1.88 1.08
-5 3 -7 4.45 0.94
-5 3 -7 3.97 1.09
5 -4 7 27.03 1.23
5 -4 7 26.27 1.23
5 -4 7 30.91 2.54
-5 4 -7 26.57 2.32
-5 4 -7 27.17 2.03
-5 4 -7 25.36 2.2
5 -5 7 9.3 1.62
-5 5 -7 8.27 1.52
5 -6 7 7.47 1.67
-5 6 -7 7.48 1.57
4 6 7 1.33 0.76
-4 -6 -7 -1.27 0.78
4 5 7 1.7 0.76
-4 -5 -7 4.35 1.22
-4 -5 -7 2.68 0.77
4 4 7 0.85 0.69
4 4 7 0.79 0.71
4 4 7 0.43 0.64
-4 -4 -7 1.62 0.77
-4 -4 -7 0.56 0.81
4 3 7 44.39 2.02
4 3 7 44.88 1.97
4 3 7 44.38 1.9
4 3 7 43.31 1.9
-4 -3 -7 43.91 2.12
-4 -3 -7 40.68 2.36
4 2 7 5.57 0.85
4 2 7 3.64 0.84
4 2 7 6.03 0.91
4 2 7 4.96 0.81
-4 -2 -7 5 1.03
-4 -2 -7 5.43 0.98
4 1 7 1.82 0.74
4 1 7 2.04 0.72
4 1 7 1.59 0.69
4 1 7 1.85 0.6
4 1 7 1.77 0.58
-4 -1 -7 0.95 0.57
-4 -1 -7 0.95 0.67
-4 -1 -7 0.57 0.74
4 0 7 71.65 2.57
4 0 7 75.72 2.3
4 0 7 77.25 2.82
4 0 7 78.51 2.68
4 0 7 75.96 2.79
-4 0 -7 75.4 2.88
-4 0 -7 76.67 2.14
-4 0 -7 74.37 2.58
4 -1 7 0.49 0.76
4 -1 7 1.86 0.7
4 -1 7 1.59 0.71
4 -1 7 1.66 0.59
-4 1 -7 1.32 0.8
-4 1 -7 0.88 0.86
-4 1 -7 1.61 0.64
-4 1 -7 0.82 0.62
4 -2 7 7.46 1.02
4 -2 7 4.17 0.89
4 -2 7 5 0.77
4 -2 7 5.36 1.14
4 -2 7 5.66 1
-4 2 -7 6.56 1.21
-4 2 -7 6.49 0.89
-4 2 -7 5.42 1.01
-4 2 -7 5.71 1.05
4 -3 7 44.78 1.65
4 -3 7 41.81 1.63
4 -3 7 43.75 2.4
4 -3 7 38.51 2.11
4 -3 7 43.17 1.84
-4 3 -7 45.03 2.46
-4 3 -7 46.35 2.3
-4 3 -7 42.1 2.34
-4 3 -7 44.42 1.91
4 -4 7 1.05 0.42
4 -4 7 0.29 0.87
4 -4 7 0.87 0.37
-4 4 -7 0.65 0.88
-4 4 -7 0.62 0.99
-4 4 -7 0.54 0.86
4 -5 7 2.95 1.18
-4 5 -7 2.39 1.07
4 -6 7 -2.25 0.87
-4 6 -7 0.23 0.99
3 6 7 2.15 0.81
-3 -6 -7 2.68 0.77
-3 -6 -7 1.67 1.06
3 5 7 11.45 1.22
-3 -5 -7 9.34 1.49
-3 -5 -7 11.65 1.18
3 4 7 6.14 0.95
3 4 7 7.56 1.06
3 4 7 8.32 1.05
-3 -4 -7 7.56 1.05
-3 -4 -7 6.85 1.25
3 3 7 14.06 1.2
3 3 7 12.73 1.18
3 3 7 14.47 1.24
3 3 7 12.99 1.24
3 3 7 14.05 1.2
3 3 7 15.51 1.23
-3 -3 -7 14.61 1.34
-3 -3 -7 15.32 1.6
3 2 7 11.88 1.11
3 2 7 13.11 1.16
3 2 7 13.77 1.2
3 2 7 12.07 1.15
-3 -2 -7 14.24 1.41
-3 -2 -7 11.19 1.19
3 1 7 6.6 0.73
3 1 7 4.65 0.78
3 1 7 4.56 0.75
3 1 7 4.87 0.87
3 1 7 5.05 0.85
-3 -1 -7 5.12 0.96
-3 -1 -7 5.42 0.79
3 0 7 29.14 1.36
3 0 7 31.96 1.7
3 0 7 27.48 1.77
3 0 7 31.07 1.63
3 0 7 32.6 1.61
-3 0 -7 31.09 1.27
-3 0 -7 29.79 1.59
-3 0 -7 28.03 1.73
-3 0 -7 29.87 1.56
3 -1 7 6.21 1.02
3 -1 7 7.34 1.02
3 -1 7 6.29 0.9
-3 1 -7 4.03 0.9
-3 1 -7 4.79 1.03
-3 1 -7 5.06 0.77
-3 1 -7 5.33 0.88
3 -2 7 10.77 0.96
3 -2 7 12.93 1.01
3 -2 7 12.55 1.22
3 -2 7 12.03 1.27
3 -2 7 11.26 1.31
-3 2 -7 12.61 1.11
-3 2 -7 11.79 1.25
-3 2 -7 13.41 1.35
-3 2 -7 14 1.47
-3 2 -7 10.13 1.18
3 -3 7 14.41 0.97
3 -3 7 13.32 1.33
3 -3 7 15.6 0.99
3 -3 7 13.35 1.31
3 -3 7 14.57 1.09
3 -3 7 13.84 1.51
-3 3 -7 14.14 1.45
-3 3 -7 13.39 1.44
-3 3 -7 19.91 1.66
-3 3 -7 13.73 1.49
-3 3 -7 12.31 1.18
3 -4 7 6.98 1.08
3 -4 7 6.97 1.32
-3 4 -7 5.96 1.23
-3 4 -7 8.45 1.3
-3 4 -7 8.41 1.31
3 -5 7 10.25 1.56
-3 5 -7 10.44 1.49
3 -6 7 1.29 1.12
-3 6 -7 1.9 1.08
2 6 7 0.53 0.72
-2 -6 -7 0.64 0.71
-2 -6 -7 -0.96 0.79
2 5 7 3.15 0.87
-2 -5 -7 4.03 0.86
-2 -5 -7 1.62 0.89
2 4 7 49.81 2.09
2 4 7 49.71 2.12
2 4 7 51.91 2.13
-2 -4 -7 45.68 2.45
-2 -4 -7 50.25 2.16
2 3 7 22.69 1.49
2 3 7 26.29 1.5
2 3 7 25.37 1.44
2 3 7 23.91 1.49
-2 -3 -7 23 1.66
-2 -3 -7 26.26 1.64
-2 -3 -7 24.67 1.52
2 2 7 30.79 1.59
2 2 7 32.11 1.6
2 2 7 29.5 1.54
2 2 7 29.89 1.51
2 2 7 27.11 1.44
-2 -2 -7 29 1.63
-2 -2 -7 29.31 1.31
-2 -2 -7 27.39 1.67
2 1 7 14.15 1.24
2 1 7 13.77 1.17
2 1 7 16.58 1.33
2 1 7 14.25 0.98
2 1 7 14.05 1.17
-2 -1 -7 12.51 1.2
-2 -1 -7 14.87 1.17
2 0 7 60.33 2.08
2 0 7 52.82 1.75
2 0 7 50.73 1.99
2 0 7 52.66 2.24
-2 0 -7 53.29 1.68
-2 0 -7 52.64 2.2
-2 0 -7 52.69 2.02
-2 0 -7 50.02 2.02
2 -1 7 14.28 1.33
2 -1 7 16.18 1.2
2 -1 7 15.12 1.25
-2 1 -7 11.11 1.1
-2 1 -7 13.21 1.05
-2 1 -7 14.61 1.24
-2 1 -7 16.2 1.32
-2 1 -7 15.55 1.39
2 -2 7 28.6 1.22
2 -2 7 27.56 1.56
2 -2 7 30.86 1.26
2 -2 7 33.15 1.88
-2 2 -7 29.71 1.36
-2 2 -7 31.42 1.81
-2 2 -7 31.01 1.66
-2 2 -7 28.51 1.66
2 -3 7 23.1 1.79
2 -3 7 24.1 0.97
2 -3 7 24.99 0.97
2 -3 7 23.39 1.48
2 -3 7 22.62 1.54
-2 3 -7 22.91 1.61
-2 3 -7 24.21 1.71
-2 3 -7 23.74 1.4
-2 3 -7 25.47 1.71
-2 3 -7 23.55 1.6
2 -4 7 45.54 2.04
2 -4 7 45.02 2.45
-2 4 -7 49.74 2.28
-2 4 -7 49.63 2.37
-2 4 -7 45.37 2.32
2 -5 7 2.48 1.04
-2 5 -7 1.38 0.95
2 -6 7 -0.18 0.84
-2 6 -7 0.29 0.86
1 6 7 7.86 1.18
-1 -6 -7 8.74 1.15
-1 -6 -7 8.23 1.5
1 5 7 0.69 0.69
-1 -5 -7 1.77 0.78
-1 -5 -7 1.28 0.83
1 4 7 19.37 1.43
1 4 7 19.23 1.49
1 4 7 21.45 1.49
1 4 7 21.92 1.42
-1 -4 -7 22.29 1.59
-1 -4 -7 20.74 1.67
1 3 7 11.76 1.11
1 3 7 11.71 1.12
1 3 7 11.83 1.1
1 3 7 13.4 1.19
-1 -3 -7 11.13 1.09
-1 -3 -7 11.56 1.25
-1 -3 -7 12.15 1.18
1 2 7 6.19 0.82
1 2 7 6.71 0.89
1 2 7 5.05 0.83
1 2 7 5.35 0.8
-1 -2 -7 5.69 0.92
-1 -2 -7 5.51 0.93
-1 -2 -7 5.59 0.7
1 1 7 5.96 0.9
1 1 7 4.74 0.64
1 1 7 3.99 0.74
1 1 7 3.76 0.76
1 1 7 4.47 0.73
-1 -1 -7 3.68 0.82
1 0 7 17.86 1.21
1 0 7 19.52 1.04
1 0 7 17.31 1.41
1 0 7 17.29 1.39
1 0 7 19.33 1.35
1 0 7 17.24 1.1
-1 0 -7 18.46 1.45
-1 0 -7 20.69 1.36
-1 0 -7 17 1.22
-1 0 -7 20.46 1.36
-1 0 -7 17.78 1.04
1 -1 7 4.6 0.78
1 -1 7 4.48 0.79
1 -1 7 4.9 0.67
1 -1 7 2.92 0.78
1 -1 7 3.93 0.65
-1 1 -7 2.79 0.74
-1 1 -7 4.19 0.68
-1 1 -7 3.9 0.78
-1 1 -7 5.12 0.86
-1 1 -7 2.71 0.82
1 -2 7 7.98 1.04
1 -2 7 5.2 0.61
1 -2 7 4.8 0.6
1 -2 7 5.02 0.78
-1 2 -7 5.18 0.84
-1 2 -7 7.01 1.02
-1 2 -7 6.37 0.79
-1 2 -7 7.32 0.93
-1 2 -7 5.98 0.87
1 -3 7 13.04 1.33
1 -3 7 10 1.04
1 -3 7 14.97 1.21
-1 3 -7 10.13 1.22
-1 3 -7 9.99 1.17
-1 3 -7 12.05 1.05
-1 3 -7 12.39 1.23
-1 3 -7 10.43 1.12
1 -4 7 21.68 1.76
1 -4 7 18.08 1.25
-1 4 -7 17.69 1.57
-1 4 -7 21.42 1.38
-1 4 -7 21.4 1.62
-1 4 -7 19.4 1.64
-1 4 -7 21.14 1.54
1 -5 7 -0.27 0.81
-1 5 -7 0.92 0.81
1 -6 7 8.51 1.36
-1 6 -7 7.95 1.33
0 6 7 5.39 1.09
0 -6 -7 5.61 1.25
0 -6 -7 6.92 1.16
0 5 7 4.97 1.01
0 -5 -7 7.41 1.24
0 -5 -7 8.82 1.17
0 4 7 19.68 1.5
0 4 7 21.63 1.51
0 4 7 18.71 1.39
0 4 7 19.3 1.48
0 -4 -7 21.46 1.64
0 -4 -7 21.64 1.58
0 3 7 10.23 0.85
0 3 7 6.87 0.96
0 3 7 10.05 1.07
0 3 7 10.66 1.07
0 3 7 10.27 1.04
0 -3 -7 12.33 1.24
0 -3 -7 10.9 1.16
0 2 7 14.56 1.17
0 2 7 16.26 1.27
0 2 7 16.13 1.31
0 2 7 15.6 1.21
0 2 7 15 1
0 -2 -7 17.04 1.29
0 -2 -7 17.13 1.4
0 -2 -7 15.4 1.09
0 1 7 23.93 1.09
0 1 7 25.14 1.4
0 1 7 24.64 1.5
0 1 7 24.49 1.43
0 1 7 25.17 1.12
0 1 7 24.97 1.42
0 1 7 23.3 1.54
0 1 7 22.91 1.32
0 -1 -7 24.17 1.63
0 0 7 101.53 2.87
0 0 7 100.63 2.83
0 0 7 102.6 2.93
0 0 7 101.58 2.49
0 0 7 99.35 2.99
0 0 7 101.36 2.49
0 0 -7 100.55 2.46
0 0 -7 99.72 2.94
0 0 -7 100.7 2.9
0 0 -7 100.71 2.9
0 -1 7 23.55 1.1
0 -1 7 24.39 1.11
0 -1 7 24.91 1.47
0 -1 7 23.18 1.29
0 -1 7 26.4 1.62
0 1 -7 24.94 1.39
0 1 -7 24.18 1.47
0 1 -7 23.7 1.43
0 1 -7 25.95 1.57
0 1 -7 22.99 1.2
0 -2 7 15.07 1.2
0 -2 7 16.52 0.8
0 -2 7 17.46 1.13
0 -2 7 17.93 1.41
0 -2 7 15.78 0.8
0 2 -7 14.93 1.21
0 2 -7 15.41 1.19
0 2 -7 15.01 1.24
0 2 -7 14.08 1.26
0 2 -7 15.47 1.02
0 -3 7 12.25 0.98
0 -3 7 10.71 1.17
0 -3 7 9.39 0.95
0 3 -7 9.58 1.08
0 3 -7 9.09 1.05
0 3 -7 12.15 0.97
0 3 -7 9.78 1.12
0 3 -7 10.23 1.08
0 -4 7 20.92 1.64
0 -4 7 19.25 1.19
0 -4 7 22.03 0.96
0 -4 7 23.14 1.27
0 4 -7 22.98 1.56
0 4 -7 21.27 1.54
0 4 -7 21.19 1.62
0 4 -7 23.35 1.52
0 4 -7 22.48 1.36
0 -5 7 6.78 0.75
0 -5 7 7.49 1.18
0 5 -7 5.57 1.05
0 -6 7 7.06 1.21
0 6 -7 3.24 0.97
-1 6 7 10.86 1.39
1 -6 -7 8.01 1.28
1 -6 -7 10.08 1.49
-1 5 7 2.37 0.89
1 -5 -7 2.8 0.95
1 -5 -7 2.57 0.82
-1 4 7 8.02 1.09
-1 4 7 10.57 1.2
-1 4 7 9.97 1.15
-1 4 7 10.05 1.2
1 -4 -7 9.15 1.16
1 -4 -7 8.93 1.17
-1 3 7 11.44 0.91
-1 3 7 11.81 1.18
-1 3 7 11.13 1.11
-1 3 7 14.69 1.26
-1 3 7 11.76 1.17
1 -3 -7 13.81 1.14
1 -3 -7 11.23 1.2
-1 2 7 8.91 1.03
-1 2 7 8.19 0.93
-1 2 7 9.37 0.8
-1 2 7 9.66 1.04
-1 2 7 8.1 0.98
1 -2 -7 9.73 0.91
1 -2 -7 8.5 0.95
1 -2 -7 6.78 0.96
-1 1 7 29.37 1.57
-1 1 7 29.04 1.21
-1 1 7 28.83 1.22
-1 1 7 27.83 1.72
-1 1 7 28.58 1.52
-1 1 7 27.15 1.47
1 -1 -7 32.26 1.63
1 -1 -7 30.37 1.51
-1 0 7 145.96 3.67
-1 0 7 138.56 3.54
-1 0 7 140.95 3.77
-1 0 7 145.3 3.61
-1 0 7 141.29 3.59
-1 0 7 144.15 3.15
1 0 -7 144.61 3.7
1 0 -7 145.37 3.19
1 0 -7 145.56 3.17
1 0 -7 145.45 3.66
1 0 -7 146.21 3.83
-1 -1 7 28.06 1.15
-1 -1 7 27.9 1.09
-1 -1 7 29.12 1.37
-1 -1 7 33.03 1.47
-1 -1 7 31.25 1.59
1 1 -7 29.41 1.54
1 1 -7 29.41 1.59
1 1 -7 28.38 1.54
1 1 -7 29.1 1.28
1 1 -7 28.68 1.26
1 1 -7 33.23 1.57
-1 -2 7 7.9 0.42
-1 -2 7 9.28 0.86
-1 -2 7 8.6 0.98
-1 -2 7 9.61 0.89
-1 -2 7 8.56 0.45
-1 -2 7 8.15 0.86
1 2 -7 7.53 0.87
1 2 -7 8.87 1.03
1 2 -7 9.99 1.01
1 2 -7 8.29 0.75
1 2 -7 8.94 0.79
1 2 -7 8.5 0.97
-1 -3 7 11.47 0.96
-1 -3 7 13.19 1.21
-1 -3 7 10.9 0.92
-1 -3 7 10.98 1.01
1 3 -7 11.87 1.08
1 3 -7 11.62 0.9
1 3 -7 11.01 1.09
1 3 -7 11.64 1.1
1 3 -7 11.46 1.09
-1 -4 7 9.53 1.13
-1 -4 7 9.07 0.82
-1 -4 7 7.24 0.77
-1 -4 7 8.94 0.79
1 4 -7 9.07 1.06
1 4 -7 8.65 1.11
1 4 -7 9.26 1.07
1 4 -7 9.23 1.06
-1 -5 7 1.84 0.78
1 5 -7 1.66 0.77
-1 -6 7 9.9 1.26
1 6 -7 8 1.19
-2 6 7 1.97 0.96
2 -6 -7 2.73 0.96
2 -6 -7 2.19 1.01
-2 5 7 1.98 0.87
2 -5 -7 1.24 0.77
2 -5 -7 2.04 0.95
-2 4 7 13.31 1.33
-2 4 7 13.56 1.09
-2 4 7 13.84 1.37
-2 4 7 12.33 1.31
-2 4 7 13.12 1.33
2 -4 -7 13.77 1.44
2 -4 -7 13.16 1.25
-2 3 7 23.6 1.2
-2 3 7 20.4 1.36
-2 3 7 20.8 1.47
-2 3 7 22.41 1.55
-2 3 7 21.22 1.46
2 -3 -7 18.62 1.26
2 -3 -7 20.89 1.31
2 -3 -7 20.3 1.56
2 -3 -7 20.82 1.32
-2 2 7 69.97 2.01
-2 2 7 75.55 2.48
-2 2 7 71.62 2.53
-2 2 7 70.84 2.42
-2 2 7 71.92 2.41
2 -2 -7 68.36 2.26
2 -2 -7 65.55 2.25
2 -2 -7 70.49 2.57
-2 1 7 22.49 1.39
-2 1 7 22.41 1.12
-2 1 7 24.39 1.44
-2 1 7 21.97 1.46
-2 1 7 21.53 1.41
2 -1 -7 21.73 1.35
2 -1 -7 20.43 1.63
2 -1 -7 22.65 1.4
2 -1 -7 22.17 1.12
-2 0 7 24.54 1.39
-2 0 7 23.82 1.49
-2 0 7 26.69 1.35
-2 0 7 22.04 1.1
-2 0 7 23.52 1.41
-2 0 7 22.45 1.33
2 0 -7 22.99 1.45
2 0 -7 23.25 1.19
2 0 -7 23.51 1.34
2 0 -7 23.83 1.64
2 0 -7 22.98 1.39
-2 -1 7 23.7 0.96
-2 -1 7 21.47 0.92
-2 -1 7 21.94 1.43
-2 -1 7 22.11 1.24
2 1 -7 23.33 1.3
2 1 -7 23 1.4
2 1 -7 20.72 1.03
2 1 -7 18.79 1.3
2 1 -7 21.95 1.52
2 1 -7 20.31 1.06
-2 -2 7 66.6 2.06
-2 -2 7 64.23 2.28
-2 -2 7 71.76 2.35
-2 -2 7 69.62 2.03
-2 -2 7 67.89 2.05
2 2 -7 75.82 2.34
2 2 -7 71.2 2.27
2 2 -7 71.01 2.23
2 2 -7 66.85 2.27
2 2 -7 68.52 1.85
2 2 -7 71.99 1.89
-2 -3 7 20.77 1.03
-2 -3 7 20.65 1.35
-2 -3 7 22.16 1.37
-2 -3 7 20.54 1.38
-2 -3 7 22.87 1.09
2 3 -7 20.93 1.29
2 3 -7 21.95 1.06
2 3 -7 21.98 1.36
2 3 -7 22.81 1.3
2 3 -7 21.06 1.29
-2 -4 7 12.9 0.69
-2 -4 7 13.35 0.7
-2 -4 7 13.03 1.18
-2 -4 7 14.97 1.18
2 4 -7 12.15 1.19
2 4 -7 11.28 1.12
2 4 -7 13.18 1.15
2 4 -7 12.16 1.11
-2 -5 7 1.12 0.71
2 5 -7 1.06 0.75
2 5 -7 0.76 0.67
-2 -6 7 1.82 0.8
2 6 -7 1.09 0.76
-3 6 7 7.26 1.33
3 -6 -7 6.93 1.33
-3 5 7 12.98 1.52
3 -5 -7 11.65 1.52
3 -5 -7 13.2 1.34
-3 4 7 10.11 1.29
-3 4 7 11.38 1.29
-3 4 7 9.78 1.26
-3 4 7 9.84 1.27
-3 4 7 9.81 1.05
3 -4 -7 10.22 1.15
3 -4 -7 9.19 1.3
3 -4 -7 10.92 1.13
-3 3 7 27.69 1.36
-3 3 7 26.23 1.64
-3 3 7 28.79 1.69
-3 3 7 28.86 1.67
-3 3 7 28.21 1.65
3 -3 -7 26.52 1.66
3 -3 -7 25.41 1.52
3 -3 -7 25.99 1.37
3 -3 -7 27.68 1.56
-3 2 7 36.62 1.72
-3 2 7 34.12 1.36
-3 2 7 31.33 1.73
-3 2 7 34.15 1.75
-3 2 7 31.89 1.76
3 -2 -7 34.11 1.7
3 -2 -7 32.87 1.84
3 -2 -7 35.77 1.27
-3 1 7 58.18 2.16
-3 1 7 60.16 2.33
-3 1 7 61.11 2.2
-3 1 7 60.58 1.85
-3 1 7 57.65 2.14
3 -1 -7 61.55 2.41
3 -1 -7 63.47 2.2
3 -1 -7 60.41 2.18
-3 0 7 0.32 0.57
-3 0 7 1.1 0.52
-3 0 7 0.4 0.65
-3 0 7 0.89 0.65
-3 0 7 1.2 0.5
3 0 -7 0.02 0.58
3 0 -7 1.2 0.51
3 0 -7 0.67 0.58
3 0 -7 0.81 0.7
3 0 -7 0.09 0.65
-3 -1 7 56.86 1.92
-3 -1 7 57.82 2.16
-3 -1 7 60.49 1.97
-3 -1 7 60.69 1.48
-3 -1 7 59.94 1.48
3 1 -7 60.71 2.19
3 1 -7 61.58 1.72
3 1 -7 58.8 1.71
3 1 -7 61.03 2.09
3 1 -7 56.2 2.06
3 1 -7 60.83 2.09
-3 -2 7 32.14 1.28
-3 -2 7 34.58 1.35
-3 -2 7 36.31 1.62
-3 -2 7 33.56 1.8
-3 -2 7 37.77 1.64
3 2 -7 33.24 1.62
3 2 -7 36.72 1.24
3 2 -7 33.46 1.57
3 2 -7 35.36 1.56
-3 -3 7 28.61 1.62
-3 -3 7 26.14 1.04
-3 -3 7 28.03 1.04
-3 -3 7 26.09 1.44
-3 -3 7 26.57 1.43
3 3 -7 27.42 1.36
3 3 -7 27.28 1.43
3 3 -7 26.02 1.42
3 3 -7 24.82 1.33
-3 -4 7 9.61 1.09
-3 -4 7 10.45 1.05
3 4 -7 11.29 1.08
3 4 -7 11.36 1.05
3 4 -7 9.33 1
-3 -5 7 14.44 1.17
3 5 -7 10.24 1.09
3 5 -7 11.11 1.19
-3 -6 7 6.37 0.89
3 6 -7 2.62 0.81
-4 6 7 23.94 2.19
4 -6 -7 26.78 2.19
-4 5 7 24.8 1.99
4 -5 -7 22.39 1.5
4 -5 -7 21.83 2
-4 4 7 11.68 1.17
-4 4 7 11.17 1.33
-4 4 7 9.87 1.33
4 -4 -7 10.05 1.01
4 -4 -7 10.87 1.27
4 -4 -7 12.06 1.49
-4 3 7 1.73 0.71
-4 3 7 1.19 0.59
-4 3 7 1.51 0.77
-4 3 7 0.77 0.73
-4 3 7 1.49 0.72
4 -3 -7 0.94 0.45
4 -3 -7 1.28 0.83
4 -3 -7 1.51 0.77
4 -3 -7 0.41 0.45
4 -3 -7 2.01 0.68
-4 2 7 4.19 0.92
-4 2 7 4.03 0.67
-4 2 7 3.15 0.75
-4 2 7 5.54 0.91
-4 2 7 3.79 0.81
4 -2 -7 3 0.77
4 -2 -7 4.15 0.76
4 -2 -7 4.1 0.89
4 -2 -7 4.39 0.66
-4 1 7 12.49 1.23
-4 1 7 10.34 1.07
-4 1 7 12.56 1.14
-4 1 7 12.75 0.97
-4 1 7 12.33 1.14
4 -1 -7 13.5 1.2
4 -1 -7 10.3 1.08
4 -1 -7 13.72 1.2
4 -1 -7 9.56 1.13
-4 0 7 43.81 1.46
-4 0 7 48.26 1.48
-4 0 7 45.19 1.79
4 0 -7 45.26 1.9
4 0 -7 45.74 1.86
4 0 -7 46.14 1.85
4 0 -7 45.99 1.54
4 0 -7 45.2 1.97
-4 -1 7 12.98 1
-4 -1 7 13.6 1.17
-4 -1 7 12.99 0.59
-4 -1 7 12.49 0.97
-4 -1 7 12.35 0.56
-4 -1 7 11.19 0.95
4 1 -7 13.04 1.13
4 1 -7 11.56 1.01
4 1 -7 13.69 0.87
4 1 -7 11.55 0.87
4 1 -7 13.06 1.11
4 1 -7 11.3 1.01
-4 -2 7 4.17 0.74
-4 -2 7 3.04 0.56
-4 -2 7 4.7 0.75
-4 -2 7 3.44 0.88
-4 -2 7 2.55 0.51
4 2 -7 4.1 0.7
4 2 -7 4.31 0.56
4 2 -7 2.92 0.66
4 2 -7 3.97 0.72
4 2 -7 4.09 0.7
4 2 -7 4.82 0.71
-4 -3 7 0 0.7
-4 -3 7 1.02 0.33
-4 -3 7 1.67 0.59
-4 -3 7 1.73 0.32
-4 -3 7 0.98 0.57
4 3 -7 1.2 0.58
4 3 -7 0.97 0.54
4 3 -7 1.56 0.55
-4 -4 7 11.53 1.02
-4 -4 7 9.99 1.22
4 4 -7 10.07 0.98
4 4 -7 11.01 1.02
4 4 -7 11.42 1.06
-4 -5 7 22.54 1.31
-4 -5 7 23.5 1.56
4 5 -7 23.49 1.5
4 5 -7 20.47 1.33
4 6 -7 26.34 1.56
-5 6 7 16.84 1.95
5 -6 -7 16.85 1.96
-5 5 7 26.64 2.12
5 -5 -7 28.23 2.21
-5 4 7 18.07 1.74
-5 4 7 18.1 1.7
5 -4 -7 16.24 1.5
5 -4 -7 19.8 1.14
5 -4 -7 18.66 1.86
-5 3 7 2.19 0.83
-5 3 7 2.09 0.9
-5 3 7 1.3 0.79
-5 3 7 1.17 0.76
-5 3 7 1.23 0.62
5 -3 -7 1.87 0.56
5 -3 -7 1.15 0.73
5 -3 -7 1.4 0.44
5 -3 -7 1.61 0.9
-5 2 7 8.89 1.12
-5 2 7 9.81 0.94
-5 2 7 9.65 1.16
-5 2 7 10.15 1.24
-5 2 7 10.54 1.2
5 -2 -7 8.08 1.07
5 -2 -7 8.36 0.83
5 -2 -7 9.35 1.08
5 -2 -7 8.14 1.13
-5 1 7 7.37 1.03
-5 1 7 9.68 1.06
-5 1 7 9.94 1.08
-5 1 7 8.69 0.86
5 -1 -7 9.84 1.04
5 -1 -7 8.61 0.87
5 -1 -7 8.46 1.08
5 -1 -7 7.19 0.94
5 -1 -7 10.02 1.1
-5 0 7 149.79 3.82
-5 0 7 149.44 4.06
-5 0 7 153.86 3.25
-5 0 7 155.98 3.28
5 0 -7 150.24 3.92
5 0 -7 151.48 4.03
5 0 -7 149.27 3.93
5 0 -7 154.23 3.97
5 0 -7 153.19 3.43
-5 -1 7 10.76 0.88
-5 -1 7 10.21 1.27
-5 -1 7 9.42 0.9
-5 -1 7 7.34 0.95
5 1 -7 9.37 0.78
5 1 -7 9.94 0.96
5 1 -7 9.1 0.78
5 1 -7 10.07 1
5 1 -7 9.64 0.97
5 1 -7 8.13 0.98
-5 -2 7 9.36 1.26
-5 -2 7 8.51 0.73
-5 -2 7 9.41 0.76
-5 -2 7 8.34 0.92
-5 -2 7 9.92 0.98
5 2 -7 7.97 0.88
5 2 -7 8.71 0.91
5 2 -7 10.98 0.95
5 2 -7 10.59 0.98
5 2 -7 10.36 0.74
-5 -3 7 2.22 0.88
-5 -3 7 0.91 0.52
-5 -3 7 1.4 0.58
5 3 -7 1.65 0.57
5 3 -7 1.66 0.57
5 3 -7 1.22 0.57
5 3 -7 1.67 0.59
5 3 -7 1.51 0.61
-5 -4 7 17.49 1.17
-5 -4 7 19.96 1.73
5 4 -7 18.89 1.27
5 4 -7 17.57 1.16
-5 -5 7 25.71 1.84
-5 -5 7 25.05 1.25
5 5 -7 25.51 1.38
5 5 -7 28.22 1.56
5 6 -7 16.19 1.22
-6 6 7 4.08 1.32
6 -6 -7 7.45 1.56
-6 5 7 4.12 1.22
6 -5 -7 6.69 1.47
-6 4 7 10.1 1.46
-6 4 7 9.11 1.36
6 -4 -7 10.97 1.56
6 -4 -7 9.05 0.75
6 -4 -7 12.59 0.83
6 -4 -7 9.47 1.38
-6 3 7 14.91 1.26
-6 3 7 20.15 1.65
-6 3 7 17.36 1.63
-6 3 7 17.05 1.6
6 -3 -7 16.04 0.8
6 -3 -7 15.06 1.62
6 -3 -7 16.97 1.62
6 -3 -7 16.24 1.09
-6 2 7 46.74 2.21
-6 2 7 51.37 2.37
-6 2 7 48.87 1.84
-6 2 7 47.62 2.18
6 -2 -7 46.63 1.76
6 -2 -7 51.11 2.26
6 -2 -7 52.15 2.43
6 -2 -7 47.53 2.18
-6 1 7 30.01 1.9
-6 1 7 33.09 2.07
-6 1 7 30.82 1.67
-6 1 7 34.18 1.73
-6 1 7 34.09 1.42
6 -1 -7 32.69 1.96
6 -1 -7 34.55 1.76
6 -1 -7 34.12 1.75
6 -1 -7 36.79 1.88
6 -1 -7 31.52 1.46
-6 0 7 3.64 0.56
-6 0 7 3.44 0.83
-6 0 7 3.18 0.94
-6 0 7 2.93 0.55
-6 0 7 3.57 0.77
6 0 -7 3.34 0.78
6 0 -7 3.78 0.79
6 0 -7 3.54 0.67
6 0 -7 2.94 0.75
6 0 -7 2.41 0.83
-6 -1 7 33.47 2.04
-6 -1 7 33.05 1.47
-6 -1 7 34.94 1.46
-6 -1 7 33.96 1.72
6 1 -7 35.8 1.61
6 1 -7 33.62 1.34
6 1 -7 33.67 1.64
6 1 -7 33.77 1.7
6 1 -7 32.51 1.65
-6 -2 7 50.87 1.59
-6 -2 7 48.66 1.96
-6 -2 7 48.66 2.4
-6 -2 7 49.06 1.54
-6 -2 7 50.88 1.97
6 2 -7 48.58 1.87
6 2 -7 48.3 1.84
6 2 -7 50.02 1.91
6 2 -7 48.56 1.87
-6 -3 7 16.73 1.13
-6 -3 7 19.9 1.31
-6 -3 7 14.31 1.62
6 3 -7 14.16 1.15
6 3 -7 16.23 1.19
6 3 -7 17.77 1.14
6 3 -7 17.76 1.18
-6 -4 7 9.61 0.88
-6 -4 7 10.6 1.45
6 4 -7 10.5 0.99
6 4 -7 9.37 0.93
6 4 -7 11.7 1.04
-6 -5 7 5.77 0.59
-6 -5 7 5.87 1.2
6 5 -7 5.85 0.79
6 5 -7 6.82 0.89
6 6 -7 5.44 0.84
-7 6 7 10.22 1.75
7 -6 -7 10.35 1.78
-7 5 7 1.68 1.07
7 -5 -7 1.93 1.16
-7 4 7 19.98 1.98
-7 4 7 22.8 2.07
-7 4 7 20.76 1.9
7 -4 -7 19.55 1.15
7 -4 -7 21.31 2.14
7 -4 -7 20.69 1.91
-7 3 7 7.31 1.03
-7 3 7 6.58 1.2
-7 3 7 9.23 1.33
-7 3 7 8.25 1.35
7 -3 -7 8.67 1.34
7 -3 -7 6.15 1.09
7 -3 -7 6.99 0.89
7 -3 -7 5.16 1.24
-7 2 7 13.4 1.38
-7 2 7 17.93 1.69
-7 2 7 14.75 1.6
-7 2 7 16.42 1.23
-7 2 7 15.8 1.48
7 -2 -7 19.54 1.67
7 -2 -7 14.51 1.48
7 -2 -7 15.87 1.6
7 -2 -7 17.42 1.23
7 -2 -7 15.74 0.68
-7 1 7 37.04 1.83
-7 1 7 31.25 2.01
-7 1 7 30.93 2.04
-7 1 7 36.49 1.88
-7 1 7 32.2 1.43
7 -1 -7 32.5 1.81
7 -1 -7 32.98 1.83
7 -1 -7 33.21 1.81
7 -1 -7 32.4 2.03
7 -1 -7 34.57 1.55
-7 0 7 4.86 0.63
-7 0 7 6.27 0.65
-7 0 7 5.33 0.98
-7 0 7 5.48 0.82
-7 0 7 5.07 1.12
7 0 -7 6.07 0.96
7 0 -7 5.5 0.73
7 0 -7 7.37 0.79
7 0 -7 4.99 0.96
7 0 -7 5.17 0.88
7 0 -7 5.85 0.92
-7 -1 7 34.95 1.48
-7 -1 7 32.47 2.11
-7 -1 7 33.19 1.83
-7 -1 7 34.46 1.53
7 1 -7 32.5 1.66
7 1 -7 35.57 1.73
7 1 -7 33.62 1.68
7 1 -7 31.33 1.79
-7 -2 7 16.42 1.71
-7 -2 7 17.22 0.94
-7 -2 7 15.66 0.91
-7 -2 7 17.68 1.4
-7 -2 7 19.08 1.38
7 2 -7 16.36 1.29
7 2 -7 15.02 1.22
7 2 -7 16.06 1.2
7 2 -7 17.62 1.28
-7 -3 7 8.21 1.42
-7 -3 7 7.29 0.91
7 3 -7 6.81 0.9
7 3 -7 6.54 0.86
7 3 -7 7.53 0.91
-7 -4 7 22.27 1.97
-7 -4 7 20.76 1.2
7 4 -7 20.81 1.32
7 4 -7 20.64 1.32
7 4 -7 19.22 1.2
-7 -5 7 1.1 1.04
7 5 -7 0.33 0.61
7 5 -7 1.19 0.64
7 6 -7 9.19 0.94
7 6 -7 11.45 1.07
-8 5 7 9.49 1.65
8 -5 -7 8.3 1.64
-8 4 7 9.48 1.57
-8 4 7 10.34 1.5
-8 4 7 7.1 1.39
8 -4 -7 8.31 1.62
8 -4 -7 8.98 0.99
-8 3 7 3.03 0.82
-8 3 7 3.14 1.02
-8 3 7 2.75 1.03
-8 3 7 1.07 0.96
8 -3 -7 0.73 1.05
8 -3 -7 4.07 1.12
8 -3 -7 2.46 0.77
-8 2 7 57.3 2.54
-8 2 7 52.18 2.66
-8 2 7 48.8 2.41
-8 2 7 51.74 2.05
8 -2 -7 52.05 2.59
8 -2 -7 57.12 2.72
8 -2 -7 51.37 2.46
-8 1 7 10.4 1.24
-8 1 7 9.08 1.16
-8 1 7 8.23 0.92
-8 1 7 6.92 1.26
-8 1 7 9.67 1.44
8 -1 -7 10.29 1.25
8 -1 -7 9.97 0.78
8 -1 -7 8.61 0.99
8 -1 -7 9 1.22
8 -1 -7 6.98 1.24
-8 0 7 1.01 0.47
-8 0 7 0.24 0.45
-8 0 7 -1.26 0.61
-8 0 7 -0.12 0.51
-8 0 7 0.01 0.85
8 0 -7 -0.27 0.49
8 0 -7 -0.23 0.73
8 0 -7 0.64 0.65
8 0 -7 0.11 0.68
8 0 -7 -0.17 0.61
8 0 -7 -0.13 0.4
-8 -1 7 10.69 1.23
-8 -1 7 13.23 1.61
-8 -1 7 8.86 0.97
8 1 -7 10.72 1.13
8 1 -7 8.77 1.09
8 1 -7 7.12 0.99
8 1 -7 10.68 1.19
-8 -2 7 53.39 1.65
-8 -2 7 52.86 2.2
-8 -2 7 49.76 2.74
-8 -2 7 51.24 1.65
8 2 -7 55.12 2.11
8 2 -7 51.83 2.1
8 2 -7 51.01 2.07
8 2 -7 50.75 2.12
-8 -3 7 3.65 0.77
-8 -3 7 3.21 1.24
8 3 -7 3.33 0.79
8 3 -7 3.45 0.76
8 3 -7 2.89 0.75
-8 -4 7 8.86 1.62
8 4 -7 10.08 1.03
8 4 -7 8.9 1
-8 -5 7 6.15 1.5
8 5 -7 6.63 0.9
8 5 -7 8.29 0.94
-9 5 7 -1.24 0.88
9 -5 -7 -0.46 1.08
9 -5 -7 -0.66 0.47
-9 4 7 11.35 1.57
-9 4 7 9.03 1.53
-9 4 7 12.12 1.72
9 -4 -7 7.91 1.03
9 -4 -7 5.79 1.53
-9 3 7 7.18 1.37
-9 3 7 8.69 1.42
-9 3 7 6.67 1.33
-9 3 7 7.16 1.13
9 -3 -7 7.97 1.4
9 -3 -7 8.8 1.61
-9 2 7 32.51 1.68
-9 2 7 35.6 2.2
-9 2 7 35.47 2.09
-9 2 7 30.43 2.29
9 -2 -7 28.97 2.01
9 -2 -7 29.1 2.29
9 -2 -7 34.37 2.17
-9 1 7 0.52 0.68
-9 1 7 1.97 0.84
-9 1 7 2.15 0.72
-9 1 7 1.67 1.03
9 -1 -7 2.27 0.44
9 -1 -7 1.85 0.9
9 -1 -7 1.42 0.93
9 -1 -7 0.92 0.67
9 -1 -7 2.69 0.98
-9 0 7 38.5 1.87
-9 0 7 37.91 2.47
-9 0 7 38.85 2.28
-9 0 7 38.31 1.31
-9 0 7 37.28 1.3
9 0 -7 39.78 1.78
9 0 -7 41.98 2.25
9 0 -7 38.31 2.06
9 0 -7 45.04 2.32
9 0 -7 39.78 1.72
9 0 -7 41.61 2.16
-9 -1 7 2.87 0.75
-9 -1 7 1.48 0.85
-9 -1 7 0.71 1.01
9 1 -7 1.39 0.8
9 1 -7 4.21 0.96
9 1 -7 2.66 0.83
9 1 -7 3.21 0.86
-9 -2 7 32.29 1.32
-9 -2 7 33.11 1.9
-9 -2 7 32.54 2.41
-9 -2 7 33.54 1.36
9 2 -7 36.78 1.89
9 2 -7 32.74 1.81
9 2 -7 35.17 1.87
9 2 -7 31.86 1.79
-9 -3 7 5.23 1.5
9 3 -7 8.81 1.09
9 3 -7 6.96 1
9 3 -7 7.85 1.05
-9 -4 7 7.3 1.63
9 4 -7 7.9 1.02
9 4 -7 8.51 1.04
-9 -5 7 -1.2 1.04
9 5 -7 0.61 0.66
9 5 -7 -0.42 0.58
10 -5 -7 4.79 0.79
10 -5 -7 7.86 1.74
-10 4 7 1.48 1.12
10 -4 -7 1.32 1.25
-10 3 7 7.67 1.51
-10 3 7 9.47 1.52
-10 3 7 7.23 1.16
10 -3 -7 7.77 1.57
10 -3 -7 7.59 1.45
-10 2 7 32.4 1.75
-10 2 7 30.02 2.28
-10 2 7 31.75 2.11
10 -2 -7 37.78 2.37
10 -2 -7 30.8 2.33
10 -2 -7 30.01 2.25
-10 1 7 12.99 1.73
-10 1 7 12.21 1.45
-10 1 7 11.29 1.06
10 -1 -7 7.13 1.32
10 -1 -7 12.08 1.52
10 -1 -7 12.81 1.67
-10 0 7 13.11 0.78
-10 0 7 13 1.75
-10 0 7 11.2 0.75
10 0 -7 10.36 1.37
10 0 -7 13.45 1.57
10 0 -7 13.28 1.6
-10 -1 7 12.58 1.21
-10 -1 7 16.32 2.02
10 1 -7 15 1.56
10 1 -7 12.59 1.41
10 1 -7 14.6 1.54
-10 -2 7 34.14 1.37
-10 -2 7 35.04 2.6
10 2 -7 33.62 1.97
-10 -3 7 7.64 1.61
10 3 -7 7.98 1.12
-10 -4 7 1.44 1.37
10 4 -7 0.99 0.72
-10 -5 7 6.74 1.65
10 5 -7 6.36 0.98
11 -4 -7 0.6 1.21
-11 3 7 3.35 1.31
-11 3 7 2.76 0.99
11 -3 -7 4.22 1.34
11 -3 -7 2.93 1.37
-11 2 7 11.89 1.77
-11 2 7 11.77 1.3
11 -2 -7 12.75 1.7
11 -2 -7 13.87 1.8
11 -2 -7 10.57 1.7
-11 1 7 5.46 0.88
-11 1 7 3.2 1.28
11 -1 -7 4.16 1.18
11 -1 -7 4.66 1.32
11 -1 -7 5.96 1.34
-11 0 7 1.8 1.15
11 0 -7 0.16 0.93
11 0 -7 1.11 0.92
-11 -1 7 6.03 1.51
11 1 -7 4.43 1.11
11 1 -7 4.17 1.09
-11 -2 7 12.49 0.96
-11 -2 7 14 2.02
11 2 -7 15.61 1.61
-11 -3 7 6.94 1.71
11 3 -7 3.99 1.01
-11 -4 7 0.03 1.32
11 4 -7 1.67 0.81
12 -4 -7 0.6 1.34
-12 3 7 19.27 2.21
-12 3 7 15.35 1.6
12 -3 -7 21.36 2.41
-12 2 7 1.42 1.18
-12 2 7 -0.31 0.78
12 -2 -7 0.84 1.19
-12 1 7 3.33 0.79
-12 1 7 3.23 1.45
12 -1 -7 4.69 1.34
12 -1 -7 2.44 1.13
-12 0 7 0.19 1.16
12 0 -7 1.93 1.09
12 0 -7 0.29 0.94
-12 -1 7 3.23 1.36
12 1 -7 4 1.18
-12 -2 7 0.72 1.26
12 2 -7 0.44 0.88
-12 -3 7 21.3 2.59
12 3 -7 16.72 1.64
-12 -4 7 -0.24 1.25
12 4 -7 0.66 0.76
-13 3 7 -0.86 0.87
-13 3 7 0.22 1.21
13 -3 -7 0.7 1.25
-13 2 7 19.35 1.62
-13 2 7 18.89 2.31
13 -2 -7 22.3 2.46
-13 1 7 14.69 1.13
-13 1 7 13.98 1.12
-13 1 7 12.73 2.1
13 -1 -7 14.58 2.01
13 -1 -7 15.08 2.03
-13 0 7 23.02 2.61
13 0 -7 31.59 2.42
13 0 -7 28.63 2.53
-13 -1 7 15.18 2.23
13 1 -7 15.64 1.87
-13 -2 7 17.81 2.41
13 2 -7 18.78 1.94
-13 -3 7 0.11 1.39
13 3 -7 1.08 0.9
-14 2 7 11.62 1.36
-14 2 7 10.21 1.94
14 -2 -7 8.87 1.85
-14 1 7 6.96 0.79
-14 1 7 5.55 0.74
-14 1 7 2.33 1.42
14 -1 -7 5.39 1.48
14 -1 -7 6.18 1.6
-14 0 7 8.69 1.92
14 0 -7 7.09 1.63
-14 -1 7 5.92 1.79
14 1 -7 7.23 1.52
14 2 -7 10.85 1.72
15 0 -7 1.89 1.34
11 2 8 7.77 1.61
-11 -2 -8 4.78 1.42
-11 -2 -8 5.33 1.41
11 1 8 2.62 1.25
-11 -1 -8 0.34 0.97
-11 -1 -8 2.29 1.39
11 0 8 -0.05 1.06
-11 0 -8 -1.67 0.79
-11 0 -8 -1.86 1.15
11 -1 8 1.68 1.32
-11 1 -8 1.57 0.77
-11 1 -8 1.17 1.41
-11 1 -8 1.08 1.01
11 -2 8 5.49 1.75
-11 2 -8 7.58 1.89
-11 2 -8 6.16 1.19
10 3 8 5.44 1.33
-10 -3 -8 5.11 1.46
-10 -3 -8 6.9 1.41
10 2 8 2.68 1.23
-10 -2 -8 1.17 1.07
-10 -2 -8 3.7 1.3
10 1 8 7.06 1.54
-10 -1 -8 7.37 1.67
-10 -1 -8 5.9 1.39
10 0 8 1.2 1.12
10 0 8 2.31 1.17
-10 0 -8 -1.23 1.16
-10 0 -8 1.47 0.99
10 -1 8 6.81 1.64
-10 1 -8 10.02 1.94
-10 1 -8 6.39 1.01
-10 1 -8 6.75 1.3
10 -2 8 2.86 1.48
-10 2 -8 2.06 1.53
-10 2 -8 2.47 0.95
10 -3 8 6.85 1.76
-10 3 -8 5.62 1.8
9 4 8 -1.15 0.78
-9 -4 -8 1.3 0.99
-9 -4 -8 0.58 1.08
9 3 8 1.87 1.03
-9 -3 -8 2.59 1.22
-9 -3 -8 0.16 0.91
9 2 8 -0.18 0.88
-9 -2 -8 0.24 1.03
-9 -2 -8 1.21 1.03
9 1 8 10.38 1.69
9 1 8 9.81 1.58
-9 -1 -8 7.97 1.58
-9 -1 -8 11.22 1.59
9 0 8 4 1.2
9 0 8 5.58 1.39
-9 0 -8 3.98 1.39
-9 0 -8 2.07 0.97
9 -1 8 9.82 1.7
9 -1 8 8.71 1.57
-9 1 -8 12.9 1.25
-9 1 -8 8.69 1.8
-9 1 -8 11.56 1.5
9 -2 8 -0.44 1.13
-9 2 -8 1.26 1.37
-9 2 -8 1.34 0.9
-9 2 -8 0.29 0.83
9 -3 8 0.94 1.25
-9 3 -8 1.21 1.36
9 -4 8 0.44 1.21
9 -4 8 -1.61 0.71
-9 4 -8 1.19 1.42
8 4 8 1.26 0.91
-8 -4 -8 -0.91 0.89
-8 -4 -8 1.19 0.97
8 3 8 1.37 0.97
-8 -3 -8 1.98 1.09
-8 -3 -8 0.87 0.93
8 2 8 11.64 1.56
-8 -2 -8 7.84 1.41
-8 -2 -8 7.91 1.39
8 1 8 1.33 0.98
8 1 8 2.25 0.99
-8 -1 -8 0.09 1
-8 -1 -8 1.44 0.92
8 0 8 1.59 1
8 0 8 0.22 0.93
-8 0 -8 2.01 0.61
-8 0 -8 1.96 1.23
-8 0 -8 1.51 0.9
8 -1 8 2.2 1.09
8 -1 8 1.83 1.1
-8 1 -8 1.9 0.92
-8 1 -8 -0.3 1.16
-8 1 -8 3 0.87
8 -2 8 11.39 1.63
8 -2 8 11.32 1.85
-8 2 -8 11.95 1.36
-8 2 -8 12.48 1.97
8 -3 8 3.59 1.38
-8 3 -8 1.7 1.33
8 -4 8 3.26 1.45
8 -4 8 1.04 0.78
-8 4 -8 1.68 1.35
7 5 8 1.42 0.89
-7 -5 -8 3.64 1.37
-7 -5 -8 1.51 0.86
7 4 8 1.74 0.88
-7 -4 -8 0.9 0.89
-7 -4 -8 1.22 0.99
7 3 8 10.11 1.4
-7 -3 -8 7.9 1.49
-7 -3 -8 8.89 1.35
7 2 8 16.36 1.76
7 2 8 14.58 1.53
-7 -2 -8 15.77 1.82
-7 -2 -8 14.24 1.69
7 1 8 2.75 1.02
7 1 8 3.55 1.02
-7 -1 -8 2.95 1.01
-7 -1 -8 2.04 1.08
7 0 8 25.16 2.06
7 0 8 26.96 1.87
7 0 8 27.1 2.06
-7 0 -8 25.19 1.83
-7 0 -8 27.14 2.21
-7 0 -8 27.12 1.33
-7 0 -8 27.8 2.02
7 -1 8 2.56 0.99
7 -1 8 1.9 1.03
7 -1 8 1.09 0.93
-7 1 -8 2.44 0.8
-7 1 -8 2.15 0.95
-7 1 -8 3.77 1.34
7 -2 8 12.44 1.61
7 -2 8 10.2 1.67
-7 2 -8 12.43 1.34
-7 2 -8 11.5 1.57
-7 2 -8 16.25 2.05
7 -3 8 4.99 1.24
7 -3 8 10.82 1.79
-7 3 -8 4.52 1.42
7 -4 8 -0.44 0.64
7 -4 8 -0.38 1.08
7 -4 8 0.86 0.73
-7 4 -8 0.24 1.22
7 -5 8 2.38 1.38
6 5 8 5.69 1.09
-6 -5 -8 5.68 1.45
-6 -5 -8 3.53 0.94
6 4 8 10.65 1.35
-6 -4 -8 7.59 1.23
-6 -4 -8 9.2 1.64
6 3 8 2.04 0.92
-6 -3 -8 5.55 1.15
-6 -3 -8 2.66 1.03
6 2 8 21 1.84
6 2 8 19.01 1.63
6 2 8 21.08 1.7
-6 -2 -8 19.7 1.78
-6 -2 -8 20.12 1.97
6 1 8 47.68 2.48
6 1 8 48.21 2.45
6 1 8 47.72 2.28
-6 -1 -8 50.61 2.21
-6 -1 -8 48.05 2.5
-6 -1 -8 50.42 2.59
6 0 8 0.71 0.89
6 0 8 -0.25 0.74
6 0 8 0.59 0.66
6 0 8 -0.91 0.67
-6 0 -8 -1.29 0.57
-6 0 -8 0.42 0.56
-6 0 -8 0.15 0.94
6 -1 8 45.81 2.53
6 -1 8 48.54 2.41
-6 1 -8 50.73 2.39
-6 1 -8 47.47 2.7
-6 1 -8 43.33 1.87
-6 1 -8 45.04 2.4
6 -2 8 22.01 1.99
6 -2 8 20.63 2.04
6 -2 8 17.73 1.79
-6 2 -8 15.91 1.68
-6 2 -8 21.92 1.52
-6 2 -8 14.58 1.84
-6 2 -8 20.58 1.88
6 -3 8 1.11 0.92
6 -3 8 3.41 1.27
6 -3 8 2.59 0.79
-6 3 -8 1.99 1.22
-6 3 -8 4.36 1.17
-6 3 -8 3.13 1.09
6 -4 8 8.42 0.99
6 -4 8 9.07 1.71
6 -4 8 10.6 1.03
-6 4 -8 7.31 1.61
-6 4 -8 14.19 1.82
6 -5 8 4.02 1.42
-6 5 -8 4.31 1.4
5 5 8 2.16 0.9
-5 -5 -8 2.7 1.21
-5 -5 -8 4.35 0.93
5 4 8 12.2 1.38
-5 -4 -8 12.09 1.72
-5 -4 -8 12.35 1.35
5 3 8 -0.51 0.68
-5 -3 -8 0.48 0.85
-5 -3 -8 -0.18 0.72
5 2 8 6.76 1.03
5 2 8 9.17 1.19
5 2 8 7.64 1.1
5 2 8 6.52 1.11
-5 -2 -8 5.18 1.1
-5 -2 -8 5.45 1.16
5 1 8 38.11 2.03
5 1 8 39.41 2.15
5 1 8 46.07 2.09
5 1 8 41.53 2.23
-5 -1 -8 40.88 2.25
-5 -1 -8 41.47 1.94
-5 -1 -8 39.6 2.25
5 0 8 197.03 5.26
5 0 8 202.98 5.5
5 0 8 198.26 5.29
5 0 8 197.74 4.65
5 0 8 206.07 5.55
-5 0 -8 205.29 4.39
-5 0 -8 200.47 5.63
-5 0 -8 204.57 5.25
5 -1 8 40.41 2.34
5 -1 8 40.54 1.74
5 -1 8 38.7 2.33
5 -1 8 39.13 2.08
-5 1 -8 39.71 2.16
-5 1 -8 41.69 2.13
-5 1 -8 39.12 2.42
-5 1 -8 41.57 1.75
5 -2 8 7.17 0.96
5 -2 8 6 1.12
5 -2 8 5.87 1.14
5 -2 8 6.94 1.34
-5 2 -8 5.21 1.13
-5 2 -8 7.2 1.25
-5 2 -8 5.73 0.96
-5 2 -8 4.01 1.22
5 -3 8 0.72 0.68
5 -3 8 1.56 0.7
5 -3 8 1.27 1.06
5 -3 8 1.39 0.89
-5 3 -8 1.23 0.94
-5 3 -8 2.03 1.09
-5 3 -8 1.23 1.09
5 -4 8 12.38 0.99
5 -4 8 9.25 0.87
5 -4 8 9.9 1.65
-5 4 -8 12.31 1.63
-5 4 -8 9.36 1.52
-5 4 -8 8.17 1.59
5 -5 8 2.76 1.27
-5 5 -8 4.38 1.36
4 6 8 2.55 0.9
-4 -6 -8 3.64 1.33
4 5 8 15.48 1.5
-4 -5 -8 19.64 2.13
-4 -5 -8 18.92 1.5
4 4 8 13.17 1.39
-4 -4 -8 13.43 1.37
-4 -4 -8 17.88 1.92
4 3 8 28.51 1.78
4 3 8 26.14 1.62
4 3 8 30.35 1.76
4 3 8 28.6 1.73
-4 -3 -8 31.45 2.02
-4 -3 -8 24.69 1.94
4 2 8 27.48 1.76
4 2 8 31.35 1.83
4 2 8 26.19 1.63
4 2 8 30.28 1.67
-4 -2 -8 26.44 1.79
-4 -2 -8 29.85 1.99
4 1 8 20.81 1.65
4 1 8 17.86 1.21
4 1 8 17.41 1.42
4 1 8 17.7 1.33
4 1 8 20.65 1.65
-4 -1 -8 19.34 1.39
-4 -1 -8 19.32 1.69
-4 -1 -8 20.15 1.59
4 0 8 20.56 1.68
4 0 8 20 1.46
4 0 8 19.64 1.69
4 0 8 21.77 1.51
4 0 8 19.54 1.29
-4 0 -8 20.47 1.46
-4 0 -8 20.68 1.8
-4 0 -8 21.72 1.15
4 -1 8 20.92 1.75
4 -1 8 18.45 1.67
4 -1 8 18.58 1.43
4 -1 8 17.41 1.16
-4 1 -8 21.23 1.83
-4 1 -8 19.72 1.5
-4 1 -8 20.35 1.56
-4 1 -8 17.6 1.22
4 -2 8 32.71 2.08
4 -2 8 27.04 1.44
4 -2 8 28.36 1.84
4 -2 8 30.14 1.92
4 -2 8 28.52 1.94
-4 2 -8 29.38 1.59
-4 2 -8 29.05 1.89
-4 2 -8 25.61 2.04
-4 2 -8 27.53 1.81
4 -3 8 29.99 2.19
4 -3 8 29.02 1.41
4 -3 8 28.1 1.4
4 -3 8 26.67 1.88
-4 3 -8 30.62 2.11
-4 3 -8 20.03 1.95
-4 3 -8 28.97 2.02
-4 3 -8 28.96 1.71
4 -4 8 14.6 1.85
4 -4 8 15.15 0.8
4 -4 8 15.52 0.86
-4 4 -8 14.98 1.72
-4 4 -8 10.72 1.6
-4 4 -8 13.02 1.66
4 -5 8 17.57 2.12
-4 5 -8 16.99 1.95
4 -6 8 5.41 1.46
-4 6 -8 3.32 1.33
3 6 8 2.59 0.94
-3 -6 -8 3.85 0.9
-3 -6 -8 3.05 1.22
3 5 8 10.55 1.23
-3 -5 -8 7.64 1.11
-3 -5 -8 10.79 1.64
3 4 8 6.21 1.01
3 4 8 6.05 1.01
3 4 8 5.32 1
-3 -4 -8 5.49 1.01
-3 -4 -8 6.2 1.28
3 3 8 36.65 1.93
3 3 8 37.44 1.88
3 3 8 38.28 1.96
3 3 8 37.41 1.89
3 3 8 37.57 1.83
-3 -3 -8 35.38 2.15
-3 -3 -8 36.41 2.09
3 2 8 11.05 1.12
3 2 8 10.22 1.16
3 2 8 12.86 1.3
3 2 8 12.85 1.22
-3 -2 -8 12.3 1.38
-3 -2 -8 10.48 1.27
3 1 8 30.72 1.82
3 1 8 32.76 1.82
3 1 8 32.15 1.44
3 1 8 34.93 1.7
3 1 8 33 1.72
-3 -1 -8 32.36 1.66
-3 -1 -8 36.14 1.96
3 0 8 -0.28 0.49
3 0 8 -0.59 0.54
3 0 8 -0.12 0.61
3 0 8 -0.06 0.46
3 0 8 -0.31 0.61
-3 0 -8 -0.12 0.52
-3 0 -8 -0.2 0.71
-3 0 -8 -0.88 0.45
-3 0 -8 0.47 0.68
3 -1 8 33.54 1.78
3 -1 8 35.12 2.06
3 -1 8 33.18 1.9
-3 1 -8 32.18 1.78
-3 1 -8 34.7 2.04
-3 1 -8 33.44 1.52
-3 1 -8 34.71 1.86
3 -2 8 10.3 0.96
3 -2 8 10.7 1.4
3 -2 8 11.64 1.24
3 -2 8 10.56 1.21
3 -2 8 14.01 1.1
-3 2 -8 12.59 1.39
-3 2 -8 9.65 1.38
-3 2 -8 12.41 1.35
-3 2 -8 11.8 1.08
3 -3 8 31.86 2.19
3 -3 8 37.84 1.95
3 -3 8 38.66 1.73
3 -3 8 36.09 1.44
3 -3 8 36.74 1.45
-3 3 -8 35.54 1.79
-3 3 -8 32.69 2.08
-3 3 -8 38.05 2.27
-3 3 -8 33.36 2
3 -4 8 6.22 1.28
-3 4 -8 4.76 1.16
-3 4 -8 4.89 1.2
-3 4 -8 7.13 1.26
3 -5 8 9.39 1.53
-3 5 -8 7.14 1.39
3 -6 8 3.4 1.25
-3 6 -8 2.11 1.2
2 6 8 12.47 1.43
-2 -6 -8 14.66 1.94
-2 -6 -8 15.05 1.43
2 5 8 5.47 1.05
-2 -5 -8 7.09 1.33
-2 -5 -8 6.28 1.09
2 4 8 3.96 0.91
2 4 8 2.46 0.83
-2 -4 -8 2.73 0.89
-2 -4 -8 2.24 0.91
2 3 8 5.24 0.9
2 3 8 5.92 0.95
2 3 8 5.29 0.93
2 3 8 5.12 0.89
2 3 8 6.07 0.99
2 3 8 6.63 0.95
-2 -3 -8 5.39 1.02
-2 -3 -8 5.38 1.01
2 2 8 2.03 0.66
2 2 8 1.62 0.7
2 2 8 1.63 0.7
2 2 8 1.56 0.68
-2 -2 -8 0.78 0.53
-2 -2 -8 1.75 0.79
-2 -2 -8 1.18 0.7
2 1 8 15.26 1.37
2 1 8 14.38 1.25
2 1 8 16.63 1.37
2 1 8 17.74 1.23
2 1 8 14.38 1.04
-2 -1 -8 15.58 1.43
-2 -1 -8 15.27 1.19
2 0 8 0.91 0.62
2 0 8 1.45 0.58
2 0 8 0.53 0.59
2 0 8 1.35 0.59
2 0 8 1.16 0.72
-2 0 -8 1.86 0.55
-2 0 -8 0.91 0.76
-2 0 -8 1.4 0.62
-2 0 -8 1.26 0.67
2 -1 8 16.68 1.1
2 -1 8 13.73 1.24
2 -1 8 11.57 1.27
2 -1 8 17.74 1.38
-2 1 -8 16.24 1.31
-2 1 -8 16.04 1.4
-2 1 -8 12.88 1.37
-2 1 -8 16.08 1.11
2 -2 8 2.01 0.6
2 -2 8 2.81 0.81
2 -2 8 2.92 0.61
2 -2 8 2.24 0.82
-2 2 -8 2.29 0.76
-2 2 -8 2.82 0.8
-2 2 -8 1.8 0.87
-2 2 -8 2.21 0.78
-2 2 -8 1.81 0.65
2 -3 8 4.89 0.91
2 -3 8 4.06 1.06
2 -3 8 7.1 1.02
2 -3 8 5.84 0.63
2 -3 8 5.05 0.63
-2 3 -8 4.4 0.99
-2 3 -8 6.2 1.07
-2 3 -8 6.79 1.13
-2 3 -8 6.09 1.12
-2 3 -8 4.61 0.83
2 -4 8 2.79 1.01
-2 4 -8 3.17 0.92
-2 4 -8 3.46 0.99
-2 4 -8 3.13 1.06
2 -5 8 7.52 1.39
-2 5 -8 5.22 1.22
2 -6 8 10.18 1.57
-2 6 -8 11.77 1.65
1 6 8 4.83 1.11
-1 -6 -8 4.13 1.23
-1 -6 -8 4.28 1.02
1 5 8 5.67 1.07
-1 -5 -8 5.17 1.06
-1 -5 -8 8.23 1.38
1 4 8 19.57 1.57
1 4 8 22.73 1.52
1 4 8 19.35 1.55
-1 -4 -8 20.26 1.63
-1 -4 -8 21.45 1.72
1 3 8 57.68 2.32
1 3 8 54.81 2.25
1 3 8 58.45 1.92
1 3 8 61.1 2.31
1 3 8 56.35 2.26
-1 -3 -8 57.29 2.54
-1 -3 -8 59.98 2.52
1 2 8 21.92 1.49
1 2 8 21.12 1.36
1 2 8 19.95 1.5
1 2 8 24.17 1.48
1 2 8 22.8 1.41
1 2 8 22.04 1.41
-1 -2 -8 20.98 1.63
-1 -2 -8 22.3 1.27
-1 -2 -8 19.13 1.5
1 1 8 78.8 2.57
1 1 8 72.18 2.56
1 1 8 77.64 2.16
1 1 8 74.85 2.59
1 1 8 78.27 2.18
1 1 8 76.03 2.51
-1 -1 -8 77.72 2.73
1 0 8 0.47 0.61
1 0 8 0.87 0.57
1 0 8 0.33 0.64
1 0 8 0.43 0.51
1 0 8 0.05 0.44
1 0 8 -0.51 0.55
-1 0 -8 0.91 0.53
-1 0 -8 0.83 0.57
-1 0 -8 0.07 0.54
-1 0 -8 0.86 0.75
1 -1 8 77.54 2.18
1 -1 8 75.36 2.77
1 -1 8 73.94 2.5
1 -1 8 75.85 2.64
1 -1 8 75.96 2.17
-1 1 -8 78.73 2.62
-1 1 -8 77.16 2.21
-1 1 -8 77.61 2.8
-1 1 -8 80.95 2.73
-1 1 -8 77.4 2.63
1 -2 8 22.34 1.08
1 -2 8 20.76 1.32
1 -2 8 22.64 1.69
1 -2 8 21.9 1.07
-1 2 -8 20.51 1.41
-1 2 -8 22.42 1.51
-1 2 -8 20.68 1.23
-1 2 -8 21.2 1.57
-1 2 -8 20.98 1.49
1 -3 8 55.54 2.16
1 -3 8 55.42 1.28
1 -3 8 56.87 2.53
1 -3 8 58.71 2.21
1 -3 8 56.95 1.32
-1 3 -8 56.52 2.46
-1 3 -8 57.41 2.04
-1 3 -8 56.99 2.42
-1 3 -8 56.46 2.33
-1 3 -8 55.13 2.48
1 -4 8 21.44 1.01
1 -4 8 17.15 1.34
1 -4 8 20.35 1.75
-1 4 -8 18.18 1.64
-1 4 -8 17.83 1.62
-1 4 -8 20.35 1.65
1 -5 8 6.36 1.25
-1 5 -8 8.57 1.28
1 -6 8 7.22 1.34
-1 6 -8 6.47 1.3
0 6 8 0.41 0.8
0 -6 -8 -0.34 0.78
0 -6 -8 2.48 0.93
0 5 8 5.96 1.1
0 -5 -8 5.85 1.14
0 -5 -8 8.41 1.31
0 4 8 13.78 1.33
0 4 8 16.17 1.46
0 4 8 12.64 1.35
0 4 8 15.27 1.42
0 -4 -8 12.26 1.42
0 -4 -8 15.29 1.47
0 3 8 73.28 2.19
0 3 8 77.15 2.67
0 3 8 77.6 2.64
0 3 8 74.43 2.69
0 3 8 79.09 2.73
0 -3 -8 77.52 2.84
0 -3 -8 67.91 2.69
0 2 8 2.81 0.74
0 2 8 1.79 0.71
0 2 8 2.54 0.71
0 2 8 2.11 0.54
0 2 8 2.56 0.68
0 -2 -8 2.66 0.8
0 -2 -8 1.62 0.68
0 -2 -8 1.74 0.59
0 1 8 1.64 0.6
0 1 8 2.25 0.71
0 1 8 1.13 0.62
0 1 8 2.15 0.65
0 1 8 1.89 0.56
0 1 8 2.53 0.57
0 1 8 1.59 0.69
0 1 8 1.63 0.71
0 -1 -8 1.35 0.75
0 0 8 65.47 1.95
0 0 8 62.2 2.3
0 0 8 61.4 1.88
0 0 8 62.13 2.37
0 0 8 65.93 2.24
0 0 8 63.14 2.26
0 0 8 62.27 2.26
0 0 -8 64 1.91
0 0 -8 64.33 2.27
0 0 -8 63.39 2.42
0 -1 8 1.3 0.52
0 -1 8 1.33 0.63
0 -1 8 1.85 0.72
0 -1 8 1.38 0.53
0 -1 8 2.27 0.71
0 1 -8 2.98 0.73
0 1 -8 1.55 0.57
0 1 -8 1.26 0.66
0 1 -8 0.58 0.72
0 1 -8 2.34 0.74
0 -2 8 3.89 0.73
0 -2 8 2.33 0.65
0 -2 8 2.37 0.5
0 -2 8 2.35 0.79
0 -2 8 2.83 0.49
0 2 -8 2.55 0.81
0 2 -8 3.25 0.67
0 2 -8 2.64 0.77
0 2 -8 2.99 0.75
0 2 -8 3.01 0.76
0 -3 8 72.97 2.35
0 -3 8 67.6 2.34
0 -3 8 73.02 2.75
0 3 -8 72.08 2.71
0 3 -8 70.99 2.67
0 3 -8 72.2 2.61
0 3 -8 73.83 2.27
0 3 -8 66.75 2.49
0 -4 8 14.13 1.17
0 -4 8 14.35 1.49
0 -4 8 13.98 0.97
0 -4 8 14.62 1.17
0 4 -8 13.69 1.43
0 4 -8 15.19 1.29
0 4 -8 13.12 1.33
0 4 -8 14.79 1.45
0 4 -8 13.9 1.42
0 -5 8 6.04 1.21
0 5 -8 4.87 1.06
0 -6 8 0.66 0.9
0 6 -8 0.35 0.84
-1 6 8 1.72 0.93
1 -6 -8 5.25 1.22
1 -6 -8 4.04 1.1
-1 5 8 3.58 0.97
1 -5 -8 4.32 1
1 -5 -8 3.13 1
-1 4 8 24.58 1.71
-1 4 8 26.2 1.71
-1 4 8 27.59 1.41
-1 4 8 20.71 1.6
-1 4 8 27.64 1.77
1 -4 -8 23.02 1.66
1 -4 -8 25.22 1.77
-1 3 8 4.81 0.9
-1 3 8 4.18 0.86
-1 3 8 3.29 0.8
-1 3 8 3.04 0.66
-1 3 8 3.65 0.83
1 -3 -8 5.09 1
1 -3 -8 3.08 0.75
-1 2 8 12.31 1.15
-1 2 8 15.61 1.34
-1 2 8 11.97 1.15
-1 2 8 12.28 0.94
-1 2 8 9.97 1.11
1 -2 -8 12.18 1.04
1 -2 -8 9.61 1.16
-1 1 8 19.22 1.53
-1 1 8 19.28 1.3
-1 1 8 21.24 1.07
-1 1 8 17.92 1.4
-1 1 8 18.03 1.29
-1 1 8 18.74 1.09
-1 1 8 17.44 1.29
1 -1 -8 19.7 1.5
1 -1 -8 18.56 1.33
-1 0 8 42.11 1.79
-1 0 8 40.73 1.77
-1 0 8 39.89 1.91
-1 0 8 41.89 1.51
-1 0 8 38.11 1.76
-1 0 8 41.46 1.74
1 0 -8 38.87 1.47
1 0 -8 43.1 2.08
1 0 -8 42.08 1.9
1 0 -8 38.87 1.78
-1 -1 8 17.67 1.45
-1 -1 8 18.32 0.96
-1 -1 8 18.24 1.18
-1 -1 8 20.63 1.29
-1 -1 8 18.76 0.98
1 1 -8 20.5 1.11
1 1 -8 20.09 1.39
1 1 -8 18.63 1.42
1 1 -8 17.98 1.42
1 1 -8 20.1 1.31
1 1 -8 20.61 1.11
-1 -2 8 10.67 1.01
-1 -2 8 12.94 0.64
-1 -2 8 11.45 0.64
-1 -2 8 11.74 1.02
-1 -2 8 11.22 1.15
1 2 -8 11.12 1.14
1 2 -8 13.16 1
1 2 -8 10.43 1.06
1 2 -8 12.42 1.13
1 2 -8 12 0.95
1 2 -8 11.89 1.13
-1 -3 8 4.7 0.94
-1 -3 8 3.99 0.75
-1 -3 8 4.35 0.72
1 3 -8 3.58 0.82
1 3 -8 3.37 0.81
1 3 -8 4.85 0.83
1 3 -8 4.23 0.73
1 3 -8 3.79 0.86
-1 -4 8 24.11 1.28
-1 -4 8 24.04 1.74
-1 -4 8 25.01 1.32
-1 -4 8 23.5 1.21
1 4 -8 23.45 1.64
1 4 -8 26.89 1.64
1 4 -8 26.18 1.59
1 4 -8 27.87 1.82
-1 -5 8 4.8 1.05
-1 -5 8 3.59 0.53
1 5 -8 4 0.96
-1 -6 8 4.86 1.08
1 6 -8 3.73 1
-2 6 8 0.78 0.92
2 -6 -8 -0.43 0.75
2 -6 -8 -0.37 0.9
-2 5 8 11.43 1.46
2 -5 -8 11.8 1.41
2 -5 -8 11.84 1.49
-2 4 8 13.62 1.45
-2 4 8 14.57 1.2
-2 4 8 14.05 1.43
-2 4 8 15.01 1.46
-2 4 8 13.19 1.41
2 -4 -8 11.88 1.41
2 -4 -8 15.07 1.42
-2 3 8 2.45 0.79
-2 3 8 4.63 0.9
-2 3 8 4.2 0.9
-2 3 8 3.48 0.88
-2 3 8 3.02 0.65
2 -3 -8 3.57 0.75
2 -3 -8 4.07 0.73
2 -3 -8 3.32 0.77
2 -3 -8 3.42 0.95
-2 2 8 43.62 2.09
-2 2 8 42.05 1.59
-2 2 8 43.94 1.94
-2 2 8 43.95 1.99
-2 2 8 43.43 1.98
2 -2 -8 44.43 1.87
2 -2 -8 46.76 2.16
2 -2 -8 44.04 1.83
-2 1 8 6.19 0.69
-2 1 8 4.92 0.81
-2 1 8 5.5 0.68
-2 1 8 5.11 0.85
-2 1 8 5.33 0.92
-2 1 8 5.77 0.95
2 -1 -8 4.46 0.94
2 -1 -8 5.3 0.87
2 -1 -8 6.4 0.76
2 -1 -8 5.78 0.86
-2 0 8 12.62 1.14
-2 0 8 16.61 1.01
-2 0 8 16.23 1.38
-2 0 8 16.6 1.22
-2 0 8 15.31 1.14
2 0 -8 15.95 1.37
2 0 -8 14.8 1.09
2 0 -8 15.87 1.24
2 0 -8 15.59 1.26
-2 -1 8 7.44 0.89
-2 -1 8 5.73 0.86
-2 -1 8 5.69 0.9
-2 -1 8 5.69 0.63
-2 -1 8 5.01 0.61
2 1 -8 4.94 0.78
2 1 -8 4.68 0.87
2 1 -8 4.61 0.7
2 1 -8 3.66 0.76
2 1 -8 6.07 0.85
2 1 -8 5.83 0.73
-2 -2 8 43.31 1.94
-2 -2 8 47.81 1.7
-2 -2 8 40.55 1.67
-2 -2 8 44.1 1.68
2 2 -8 45.97 1.88
2 2 -8 43.24 1.89
2 2 -8 45.03 1.56
2 2 -8 41.42 1.76
2 2 -8 42.52 1.84
2 2 -8 45.68 1.54
-2 -3 8 4.09 0.85
-2 -3 8 3.64 0.64
-2 -3 8 4.4 0.71
-2 -3 8 2.64 0.75
2 3 -8 3.1 0.79
2 3 -8 3.32 0.77
2 3 -8 1.9 0.68
2 3 -8 4.73 0.83
2 3 -8 3.55 0.65
-2 -4 8 14.16 1.33
-2 -4 8 13.36 1.19
-2 -4 8 16.07 0.93
-2 -4 8 13.79 0.88
2 4 -8 11.95 1.27
2 4 -8 11.81 1.23
2 4 -8 13.17 1.24
2 4 -8 15.23 1.3
-2 -5 8 9.48 1.19
2 5 -8 10.75 1.24
-2 -6 8 1.24 0.79
2 6 -8 0.9 0.82
-3 6 8 5.69 1.32
3 -6 -8 6.85 1.38
-3 5 8 6.7 1.22
3 -5 -8 6.03 1.27
3 -5 -8 8.53 1.16
-3 4 8 18 1.66
-3 4 8 20.17 1.78
-3 4 8 24.36 1.75
3 -4 -8 21 1.48
3 -4 -8 24 1.85
3 -4 -8 19.83 1.41
-3 3 8 7.64 0.9
-3 3 8 5.4 0.97
-3 3 8 6.99 1.11
-3 3 8 5.44 0.97
-3 3 8 7.53 1.04
3 -3 -8 7.06 0.94
3 -3 -8 6.66 0.96
3 -3 -8 6.47 0.88
3 -3 -8 6.25 1.14
-3 2 8 6.93 0.96
-3 2 8 5.87 0.97
-3 2 8 6.84 1.05
-3 2 8 6.1 0.93
-3 2 8 5.16 0.74
3 -2 -8 4.9 0.65
3 -2 -8 7.46 0.98
3 -2 -8 5.17 0.99
-3 1 8 181.16 4.7
-3 1 8 185 4.54
-3 1 8 182.93 4.51
-3 1 8 183.24 4.57
-3 1 8 175.73 3.93
3 -1 -8 179.18 4.67
3 -1 -8 184.01 4.51
3 -1 -8 182.75 4.52
-3 0 8 4.86 0.87
-3 0 8 3.45 0.71
-3 0 8 3.84 0.63
-3 0 8 4.96 0.83
-3 0 8 3.97 0.62
3 0 -8 3.49 0.76
3 0 -8 4.1 0.79
3 0 -8 4.33 0.93
3 0 -8 3.85 0.68
3 0 -8 5.53 0.9
-3 -1 8 180.26 4.56
-3 -1 8 181.06 4.29
-3 -1 8 181.73 4.33
-3 -1 8 180.95 3.61
-3 -1 8 182.24 3.61
3 1 -8 181.34 4.43
3 1 -8 186.88 3.9
3 1 -8 185.07 3.88
3 1 -8 181.06 4.49
3 1 -8 180.61 4.47
3 1 -8 188.31 4.58
-3 -2 8 5.32 0.7
-3 -2 8 5.2 0.85
-3 -2 8 4.79 0.73
-3 -2 8 5.08 0.67
3 2 -8 5.69 0.69
3 2 -8 5.2 0.86
3 2 -8 5.4 0.81
3 2 -8 5.1 0.79
-3 -3 8 7.37 0.98
-3 -3 8 6.42 0.69
-3 -3 8 6.03 0.71
-3 -3 8 6.24 0.91
-3 -3 8 6.69 1.02
3 3 -8 6.34 0.9
3 3 -8 7.34 0.94
3 3 -8 6.19 0.87
3 3 -8 6.42 0.89
-3 -4 8 21.34 1.47
-3 -4 8 21.02 1.5
3 4 -8 20.6 1.5
3 4 -8 20.63 1.42
3 4 -8 21.41 1.39
-3 -5 8 6.09 0.95
3 5 -8 7.8 1.05
-3 -6 8 6.18 0.98
3 6 -8 6.64 1.06
-4 6 8 6.78 1.36
4 -6 -8 7.66 1.48
-4 5 8 4.18 1.15
4 -5 -8 3.63 1.16
4 -5 -8 4.02 0.84
-4 4 8 28.5 2.01
-4 4 8 30.07 1.95
-4 4 8 25.34 2
4 -4 -8 29.46 1.54
4 -4 -8 29 1.77
4 -4 -8 25.99 2.05
-4 3 8 3.32 0.89
-4 3 8 6.6 1.13
-4 3 8 3.88 0.94
-4 3 8 5.02 0.98
-4 3 8 3.72 0.74
4 -3 -8 4.94 0.73
4 -3 -8 6.2 1.12
4 -3 -8 5.21 1.01
4 -3 -8 4.72 0.87
-4 2 8 3.24 0.79
-4 2 8 2.74 0.74
-4 2 8 3.65 0.88
-4 2 8 4.44 0.86
-4 2 8 2.91 0.61
4 -2 -8 4.1 0.68
4 -2 -8 2.68 0.88
4 -2 -8 4.37 0.8
4 -2 -8 3.02 0.82
-4 1 8 23.44 1.23
-4 1 8 23.77 1.46
-4 1 8 24 1.63
-4 1 8 22.24 1.43
4 -1 -8 24.08 1.54
4 -1 -8 24.63 1.49
4 -1 -8 24.49 1.77
-4 0 8 45.02 1.87
-4 0 8 43.18 1.87
-4 0 8 43.91 2.09
-4 0 8 45.91 1.52
-4 0 8 42.99 1.49
4 0 -8 46.94 2
4 0 -8 47.68 1.98
4 0 -8 42.81 1.6
4 0 -8 44.31 2.09
4 0 -8 46.49 2
-4 -1 8 22.56 1.26
-4 -1 8 23.04 1.3
-4 -1 8 23 0.87
-4 -1 8 24.1 0.88
-4 -1 8 20.28 1.49
4 1 -8 24.09 1.21
4 1 -8 22.92 1.56
4 1 -8 24.29 1.46
4 1 -8 24.02 1.45
4 1 -8 23.69 1.42
4 1 -8 22.82 1.11
-4 -2 8 2.94 0.57
-4 -2 8 4.24 1
-4 -2 8 4.24 0.67
-4 -2 8 1.7 0.68
4 2 -8 3.28 0.71
4 2 -8 3.17 0.72
4 2 -8 4.04 0.73
4 2 -8 3.32 0.74
4 2 -8 3.44 0.74
4 2 -8 3.93 0.62
-4 -3 8 6.38 1.06
-4 -3 8 4.61 0.59
-4 -3 8 5.05 0.84
-4 -3 8 6.73 0.9
-4 -3 8 6.01 0.6
4 3 -8 5.16 0.84
4 3 -8 5.36 0.81
4 3 -8 4.49 0.79
-4 -4 8 27.38 1.52
-4 -4 8 26.21 1.76
4 4 -8 26.74 1.51
4 4 -8 25.68 1.59
4 4 -8 27.46 1.5
-4 -5 8 4.43 0.83
4 5 -8 3.94 0.83
4 5 -8 4 0.92
-4 -6 8 7.58 0.92
4 6 -8 7.28 1.06
-5 6 8 12.09 1.75
5 -6 -8 6.88 1.51
-5 5 8 17.93 1.88
5 -5 -8 18.63 1.99
-5 4 8 13.51 1.6
-5 4 8 13.82 1.53
5 -4 -8 14.07 1.07
5 -4 -8 11.24 1.54
5 -4 -8 12.25 1.41
-5 3 8 17.99 1.65
-5 3 8 21.44 1.77
-5 3 8 21.11 1.64
-5 3 8 17.89 1.75
-5 3 8 17.28 1.21
5 -3 -8 20.86 1.87
5 -3 -8 20.27 1.53
5 -3 -8 18.69 1.1
5 -3 -8 19.17 1.1
-5 2 8 11.52 1.36
-5 2 8 11.07 0.98
-5 2 8 12.61 1.27
-5 2 8 11.05 1.2
-5 2 8 10.59 1.21
5 -2 -8 12.48 1.28
5 -2 -8 12.73 1.01
5 -2 -8 9.44 1.23
5 -2 -8 12.62 1.26
-5 1 8 32.88 1.67
-5 1 8 32.17 1.85
-5 1 8 31.85 1.68
-5 1 8 30.22 1.36
5 -1 -8 26.48 1.74
5 -1 -8 30.65 1.67
5 -1 -8 31.31 1.74
5 -1 -8 30.19 1.39
-5 0 8 21.29 1.05
-5 0 8 19.71 1.34
-5 0 8 21.37 1.07
-5 0 8 21.33 1.62
5 0 -8 20.22 1.36
5 0 -8 18.63 1.43
5 0 -8 19.78 1.64
5 0 -8 21.48 1.46
5 0 -8 21.66 1.22
-5 -1 8 32.03 0.87
-5 -1 8 29.74 1.71
-5 -1 8 30.18 1.41
-5 -1 8 31.29 1.47
-5 -1 8 31.23 1.92
-5 -1 8 30.65 1.46
5 1 -8 34.85 1.66
5 1 -8 32.92 1.34
5 1 -8 32.88 1.31
5 1 -8 30.67 1.71
5 1 -8 30.69 1.6
5 1 -8 32.79 1.61
-5 -2 8 13.5 1.18
-5 -2 8 10.94 0.85
-5 -2 8 15.06 1.26
-5 -2 8 12.14 1.44
-5 -2 8 12 0.92
5 2 -8 10.17 1.06
5 2 -8 12.03 1.1
5 2 -8 9.33 1
5 2 -8 12.61 0.89
5 2 -8 9.17 1.01
-5 -3 8 18.37 0.75
-5 -3 8 17.24 1.65
-5 -3 8 16.27 1.34
5 3 -8 19.35 1.33
5 3 -8 18.38 1.25
5 3 -8 19.92 1.38
5 3 -8 16.87 1.26
-5 -4 8 13.05 1.16
-5 -4 8 15.42 1.58
5 4 -8 13.57 1.2
5 4 -8 14.39 1.18
-5 -5 8 17.18 1.69
-5 -5 8 18.71 1.25
5 5 -8 21.78 1.52
5 5 -8 16.11 1.3
5 6 -8 5.96 0.97
-6 6 8 -0.95 0.99
6 -6 -8 0.65 1.07
-6 5 8 5.38 1.31
6 -5 -8 4.15 1.31
-6 4 8 10.05 1.44
-6 4 8 8.27 1.41
6 -4 -8 7.79 0.74
6 -4 -8 10.12 1.55
6 -4 -8 10.92 0.87
6 -4 -8 11.16 1.43
-6 3 8 67.3 2.97
-6 3 8 64.67 2.37
-6 3 8 64.23 2.87
-6 3 8 67.74 2.86
6 -3 -8 68.82 2.82
6 -3 -8 67.15 1.93
6 -3 -8 66.55 2.14
6 -3 -8 69.21 3.08
-6 2 8 3.44 0.89
-6 2 8 4 0.99
-6 2 8 3.34 0.96
-6 2 8 3.99 0.8
6 -2 -8 4 0.95
6 -2 -8 3.72 0.84
6 -2 -8 4.69 0.78
6 -2 -8 2.86 0.96
-6 1 8 23.67 1.6
-6 1 8 25.65 1.77
-6 1 8 25.88 1.3
-6 1 8 26.51 1.56
6 -1 -8 25.6 1.59
6 -1 -8 27.95 1.67
6 -1 -8 22.98 1.72
6 -1 -8 28.31 1.4
-6 0 8 6.94 0.72
-6 0 8 6.91 1.1
-6 0 8 4.7 0.94
-6 0 8 7.17 0.97
-6 0 8 7.79 0.74
6 0 -8 7.46 1.05
6 0 -8 6.01 0.75
6 0 -8 5.69 0.93
6 0 -8 7.92 1.03
6 0 -8 6.25 0.92
-6 -1 8 26.56 1.67
-6 -1 8 27.56 1.4
-6 -1 8 28.78 1.95
-6 -1 8 27.24 1.37
6 1 -8 26.05 1.53
6 1 -8 25.79 1.61
6 1 -8 25.43 1.24
6 1 -8 25.45 1.52
6 1 -8 25.67 1.51
-6 -2 8 3.98 0.62
-6 -2 8 4.62 0.69
-6 -2 8 4.1 0.83
-6 -2 8 3.52 1.03
-6 -2 8 3.22 0.76
6 2 -8 3.74 0.77
6 2 -8 4.58 0.64
6 2 -8 4.12 0.79
6 2 -8 4.34 0.82
6 2 -8 4.03 0.8
-6 -3 8 61.05 2.9
-6 -3 8 66.48 2.34
6 3 -8 62.77 2.28
6 3 -8 70.72 2.37
6 3 -8 68.46 2.2
6 3 -8 65.54 2.25
-6 -4 8 11.35 1.04
-6 -4 8 9.12 1.41
6 4 -8 9.44 1.04
6 4 -8 8.44 0.98
6 4 -8 11.26 1.09
-6 -5 8 6.22 0.76
-6 -5 8 5.16 1.2
6 5 -8 3.79 0.77
6 5 -8 3.78 0.88
6 6 -8 1.24 0.69
-7 6 8 1.19 1.16
7 -6 -8 1.12 1.21
-7 5 8 17.53 1.98
7 -5 -8 16.42 2.04
-7 4 8 4.42 1.18
-7 4 8 3.22 1.12
-7 4 8 7.12 1.35
7 -4 -8 5.17 1.38
7 -4 -8 4.19 0.73
-7 3 8 36.73 2.25
-7 3 8 37.91 2.35
-7 3 8 39.29 2.33
-7 3 8 31.96 1.69
7 -3 -8 35.84 2.35
7 -3 -8 36.9 1.65
7 -3 -8 31.02 2.04
7 -3 -8 37.8 1.12
-7 2 8 27.25 1.99
-7 2 8 25.99 1.4
-7 2 8 26.63 2.06
-7 2 8 24.66 1.82
-7 2 8 24.1 1.71
7 -2 -8 23.99 1.74
7 -2 -8 25.37 1.43
7 -2 -8 29.37 1.84
-7 1 8 25.82 1.94
-7 1 8 28.47 1.7
-7 1 8 27.45 1.68
-7 1 8 24.16 1.8
-7 1 8 26.29 1.35
7 -1 -8 28.02 1.49
7 -1 -8 26.5 1.86
7 -1 -8 29.33 1.8
7 -1 -8 25.73 1.7
-7 0 8 61.58 2.82
-7 0 8 56.05 2.19
-7 0 8 56.88 1.7
-7 0 8 57.1 1.72
-7 0 8 54.28 2.44
7 0 -8 54.61 2.34
7 0 -8 57.37 2.37
7 0 -8 58.07 2.38
7 0 -8 51.38 1.92
7 0 -8 54.8 2.43
-7 -1 8 27.63 1.44
-7 -1 8 26.4 1.97
-7 -1 8 30.68 1.78
-7 -1 8 29.3 1.47
7 1 -8 28.79 1.68
7 1 -8 27.12 1.7
7 1 -8 26.09 1.6
7 1 -8 27.85 1.58
-7 -2 8 29.16 2.06
-7 -2 8 27.89 1.68
-7 -2 8 26.49 1.22
-7 -2 8 28.83 1.3
7 2 -8 28.74 1.6
7 2 -8 29.35 1.61
7 2 -8 25.97 1.6
7 2 -8 25.61 1.56
-7 -3 8 33.92 2.26
-7 -3 8 38.66 1.79
7 3 -8 36.93 1.75
7 3 -8 37.22 1.81
7 3 -8 37.01 1.77
-7 -4 8 4.19 0.78
-7 -4 8 5.06 1.29
7 4 -8 5.05 0.88
7 4 -8 4.11 0.81
-7 -5 8 15.52 1.83
7 5 -8 15.06 1.31
7 5 -8 18.55 1.42
7 6 -8 1.2 0.73
-8 5 8 12.25 1.84
8 -5 -8 11.56 1.85
-8 4 8 0.28 0.92
-8 4 8 0.13 0.93
-8 4 8 0.58 1.03
8 -4 -8 0.09 1.12
8 -4 -8 0.54 0.65
-8 3 8 9.16 1.17
-8 3 8 10.21 1.58
-8 3 8 10.24 1.48
-8 3 8 9.02 1.36
8 -3 -8 12.39 1.75
8 -3 -8 11.62 1.53
8 -3 -8 9.13 1.07
-8 2 8 8.42 1.3
-8 2 8 10.12 1.11
-8 2 8 9.67 1.5
-8 2 8 13.04 1.65
-8 2 8 11.76 1.44
8 -2 -8 11.36 0.66
8 -2 -8 12.26 1.63
8 -2 -8 11.28 1.44
8 -2 -8 11.67 1.5
-8 1 8 12.37 1.53
-8 1 8 11.63 1.33
-8 1 8 14.97 1.11
-8 1 8 15.1 1.47
-8 1 8 14.34 1.68
8 -1 -8 12.96 1.54
8 -1 -8 12.46 1.44
8 -1 -8 11.79 1.13
8 -1 -8 14.52 0.98
8 -1 -8 13.48 1.44
-8 0 8 102.36 3.09
-8 0 8 95.49 3.37
-8 0 8 94.97 2.35
8 0 -8 95.07 3.28
8 0 -8 81.67 2.78
8 0 -8 98.2 3.27
8 0 -8 96.46 3.41
8 0 -8 98.84 3.29
8 0 -8 98.5 2.77
-8 -1 8 11.9 1.12
-8 -1 8 11.92 1.3
-8 -1 8 13.44 1.67
8 1 -8 15.17 1.36
8 1 -8 12.75 1.32
8 1 -8 12.43 1.26
8 1 -8 9.98 1.25
-8 -2 8 9.4 0.86
-8 -2 8 7.6 1.1
-8 -2 8 8.56 1.52
-8 -2 8 10.08 0.88
8 2 -8 11.37 1.22
8 2 -8 9.76 1.15
8 2 -8 10.16 1.19
8 2 -8 10.08 1.13
-8 -3 8 11.01 1.62
-8 -3 8 11.84 1.17
8 3 -8 9.72 1.11
8 3 -8 8.56 1.08
8 3 -8 10.53 1.15
-8 -4 8 0.64 1.09
-8 -4 8 1.22 0.63
8 4 -8 -0.04 0.62
8 4 -8 0.5 0.65
-8 -5 8 10.57 1.7
8 5 -8 11.22 1.15
8 5 -8 10.2 1.09
-9 5 8 3.82 1.34
9 -5 -8 3.12 1.35
9 -5 -8 1.88 0.57
-9 4 8 1.34 1.12
-9 4 8 1.65 1.14
-9 4 8 2.31 1.1
9 -4 -8 4.89 1.42
9 -4 -8 2.38 0.77
-9 3 8 30.99 2.2
-9 3 8 31.88 1.84
-9 3 8 32.92 2.25
-9 3 8 32.31 2.38
9 -3 -8 26.5 2.1
9 -3 -8 29.37 2.37
-9 2 8 8.81 1.11
-9 2 8 7.63 1.33
-9 2 8 11.77 1.49
-9 2 8 6.34 1.39
9 -2 -8 6.99 1.4
9 -2 -8 10.69 1.48
9 -2 -8 7.29 1.26
-9 1 8 7.77 1.11
-9 1 8 9.71 1
-9 1 8 7.79 1.41
-9 1 8 9.25 1.31
-9 1 8 10.6 1.59
9 -1 -8 7.39 1.34
9 -1 -8 9 0.79
9 -1 -8 9.12 1.36
9 -1 -8 8.68 1.32
9 -1 -8 8.61 1.09
-9 0 8 10.27 1.37
-9 0 8 10.17 0.81
-9 0 8 10.4 0.81
-9 0 8 7.53 1.47
9 0 -8 10.37 1.39
9 0 -8 10.26 1.36
9 0 -8 11.38 1.37
9 0 -8 11.71 1.15
9 0 -8 7.8 1.23
-9 -1 8 7.58 1.2
-9 -1 8 9.36 1.57
-9 -1 8 7.88 1
9 1 -8 6.58 1.14
9 1 -8 9.31 1.2
9 1 -8 8.37 1.21
9 1 -8 9.53 1.18
-9 -2 8 10.67 0.93
-9 -2 8 9.37 1.6
-9 -2 8 12.85 1.36
-9 -2 8 9.24 0.88
9 2 -8 11.21 1.26
9 2 -8 9.11 1.15
9 2 -8 9.22 1.18
9 2 -8 8.97 1.2
-9 -3 8 32.36 2.57
-9 -3 8 32.99 1.82
9 3 -8 28.37 1.71
9 3 -8 29.71 1.81
-9 -4 8 1.82 1.18
9 4 -8 4.09 0.9
9 4 -8 3.21 0.83
-9 -5 8 0.53 1.18
9 5 -8 2.34 0.79
10 -5 -8 2.36 1.42
10 -5 -8 1.47 0.63
-10 4 8 0.1 1.04
10 -4 -8 -0.76 1.08
-10 3 8 19.01 1.65
-10 3 8 20.48 2.14
10 -3 -8 17.07 1.96
10 -3 -8 20.55 2.29
-10 2 8 1.63 1.14
-10 2 8 3.58 1.1
-10 2 8 4.13 0.95
10 -2 -8 2.76 1.25
10 -2 -8 2.59 1.12
10 -2 -8 4.71 1.23
-10 1 8 2.58 0.94
-10 1 8 1.21 0.71
-10 1 8 3.29 1.23
10 -1 -8 2.52 1.03
10 -1 -8 2.28 1.03
10 -1 -8 0.74 1.04
-10 0 8 10.29 1.66
-10 0 8 11.23 0.79
-10 0 8 11.78 0.79
10 0 -8 12.94 1.6
10 0 -8 10.89 1.42
10 0 -8 10.81 1.51
-10 -1 8 2.22 0.79
-10 -1 8 2.06 1.17
-10 -1 8 2.58 1.02
10 1 -8 2.26 0.96
10 1 -8 0.48 0.86
10 1 -8 3 0.98
-10 -2 8 1.66 1.25
-10 -2 8 3.53 0.7
10 2 -8 3.78 0.97
-10 -3 8 19.11 2.23
10 3 -8 18.37 1.53
-10 -4 8 -0.16 1.22
10 4 -8 1 0.75
-10 -5 8 0.21 1.2
10 5 -8 0.73 0.75
-11 4 8 1.99 1.35
11 -4 -8 0.72 1.33
-11 3 8 3.32 1.04
-11 3 8 4.12 1.41
11 -3 -8 1.84 1.24
11 -3 -8 1.99 1.3
-11 2 8 11.04 1.28
-11 2 8 11.71 1.84
11 -2 -8 10.52 1.59
11 -2 -8 11.79 1.74
11 -2 -8 11.77 1.88
-11 1 8 29.37 1.51
-11 1 8 27.23 2.37
11 -1 -8 30.55 2.31
11 -1 -8 32.13 2.29
-11 0 8 1.44 0.34
-11 0 8 3.53 1.28
11 0 -8 1.86 1.08
11 0 -8 1.67 0.99
-11 -1 8 27.67 2.45
11 1 -8 31.22 2.14
11 1 -8 30.01 2.12
-11 -2 8 8.42 1.81
11 2 -8 10.51 1.37
-11 -3 8 2.26 1.5
11 3 -8 3.72 1.01
-11 -4 8 -0.56 1.19
11 4 -8 0.66 0.78
12 -4 -8 6.6 1.73
-12 3 8 36.37 2.78
-12 3 8 30.3 2
12 -3 -8 32.13 2.9
-12 2 8 0.05 0.8
-12 2 8 1.48 1.18
12 -2 -8 0.91 1.23
-12 1 8 2.65 1.32
-12 1 8 2.68 0.76
-12 1 8 2.49 0.75
12 -1 -8 3.91 1.32
12 -1 -8 1.72 1.09
-12 0 8 0.91 1.27
12 0 -8 2.03 1.17
12 0 -8 5.64 1.37
-12 -1 8 2.11 1.32
12 1 -8 1.38 1.01
-12 -2 8 0.73 1.23
12 2 -8 -0.14 0.85
-12 -3 8 31.03 3.04
12 3 -8 29.45 1.99
-12 -4 8 9.65 2.06
12 4 -8 7.77 1.27
-13 3 8 1.99 1.03
-13 3 8 1.16 1.31
13 -3 -8 1.16 1.33
-13 2 8 2.83 0.94
-13 2 8 3.73 1.49
13 -2 -8 6.5 1.63
-13 1 8 4.12 0.81
-13 1 8 5.43 1.64
-13 1 8 6.72 0.88
13 -1 -8 6.69 1.52
13 -1 -8 5.02 1.55
-13 0 8 1.24 1.29
13 0 -8 3.45 1.29
13 0 -8 1.53 1.14
-13 -1 8 5.48 1.64
13 1 -8 5.02 1.31
-13 -2 8 2.58 1.56
13 2 -8 1.81 1.09
-13 -3 8 1.23 1.55
13 3 -8 -0.33 0.86
-14 2 8 1.29 0.95
-14 2 8 2.56 1.57
14 -2 -8 2.92 1.46
-14 1 8 10.24 2
-14 1 8 13.46 0.99
14 -1 -8 11.82 1.94
14 -1 -8 12.98 2
-14 0 8 2.4 1.49
14 0 -8 0.98 1.17
-14 -1 8 9.51 2.07
14 1 -8 12.43 1.81
14 2 -8 3.15 1.23
15 0 -8 0.48 1.18
-11 -1 -9 3.81 1.31
11 0 9 29.17 2.86
-11 0 -9 24.19 2.7
-11 0 -9 24.37 2.34
10 2 9 2.43 1.24
-10 -2 -9 3.25 1.26
-10 -2 -9 1.41 1.25
10 1 9 3.78 1.36
-10 -1 -9 3.08 1.2
-10 -1 -9 1.4 1.3
10 0 9 8.82 1.7
10 0 9 11.65 1.92
-10 0 -9 8.56 1.9
-10 0 -9 8.51 1.52
10 -1 9 3.34 1.42
-10 1 -9 2.24 1.54
-10 1 -9 2.41 0.86
-10 1 -9 2.04 1.05
10 -2 9 1.18 1.36
-10 2 -9 1.52 1.5
-10 2 -9 1.96 1.03
9 3 9 8.5 1.5
-9 -3 -9 6.76 1.61
-9 -3 -9 3.23 1.22
9 2 9 4.16 1.31
-9 -2 -9 3.71 1.31
-9 -2 -9 1.77 1.07
9 1 9 3.76 1.29
-9 -1 -9 4.77 1.49
-9 -1 -9 2.79 1.16
9 0 9 3.34 1.34
9 0 9 3.27 1.28
-9 0 -9 2.15 1.03
-9 0 -9 1.98 1.32
9 -1 9 3.63 1.36
9 -1 9 6.55 1.53
-9 1 -9 5.04 0.98
-9 1 -9 5.54 1.72
-9 1 -9 3.9 1.17
9 -2 9 4.37 1.53
-9 2 -9 4.57 1.03
-9 2 -9 0.35 1.34
-9 2 -9 3.72 1.17
9 -3 9 2.82 1.51
-9 3 -9 2.66 1.52
8 4 9 5.28 1.24
-8 -4 -9 7.4 1.58
-8 -4 -9 6.51 1.32
8 3 9 1.06 1.01
-8 -3 -9 1.25 1.04
-8 -3 -9 -0.03 0.89
8 2 9 2.48 1.11
-8 -2 -9 0.87 1.09
-8 -2 -9 2.13 1.05
8 1 9 -0.27 0.86
8 1 9 1 0.97
-8 -1 -9 0.92 1.1
-8 -1 -9 0.71 0.89
8 0 9 7.13 1.46
8 0 9 7.91 1.54
-8 0 -9 6.44 1.32
-8 0 -9 6.44 1.54
8 -1 9 1.26 1.12
8 -1 9 0.43 0.96
-8 1 -9 0.61 1.24
-8 1 -9 0.22 0.76
-8 1 -9 0.4 0.85
8 -2 9 3.65 1.37
-8 2 -9 2.61 1.38
-8 2 -9 3.09 0.98
8 -3 9 0.8 1.29
-8 3 -9 1.44 1.33
8 -4 9 4.66 1.01
8 -4 9 7.26 1.76
-8 4 -9 5.25 1.61
7 4 9 2.25 1.04
-7 -4 -9 2.07 1.17
-7 -4 -9 1.6 1.03
7 3 9 11.79 1.56
-7 -3 -9 9.7 1.48
-7 -3 -9 11.49 1.69
7 2 9 6.17 1.24
-7 -2 -9 2.84 1.11
-7 -2 -9 3.57 1.22
7 1 9 -0.29 0.88
7 1 9 1.43 0.97
-7 -1 -9 -0.17 1.01
-7 -1 -9 0.61 0.88
7 0 9 69.99 3.24
7 0 9 70.37 3.29
-7 0 -9 68.27 3.39
-7 0 -9 67.88 2.12
-7 0 -9 66.92 3.09
7 -1 9 0.77 0.87
7 -1 9 -0.66 0.95
7 -1 9 2.18 1.03
-7 1 -9 -0.34 1.08
-7 1 -9 0.99 0.74
7 -2 9 5.15 1.4
7 -2 9 5.19 1.26
-7 2 -9 3.11 0.98
-7 2 -9 4.13 1.39
7 -3 9 9.73 1.83
-7 3 -9 9.74 1.75
7 -4 9 1.07 0.74
7 -4 9 2.87 1.44
-7 4 -9 3.22 1.46
6 5 9 7.3 1.27
-6 -5 -9 6.55 1.18
-6 -5 -9 6.13 1.51
6 4 9 7.84 1.31
-6 -4 -9 8.07 1.28
-6 -4 -9 8.59 1.61
6 3 9 0.53 0.81
-6 -3 -9 0.33 0.91
-6 -3 -9 0.17 0.88
6 2 9 6.95 1.26
6 2 9 7.62 1.21
-6 -2 -9 5.61 1.23
-6 -2 -9 5.58 1.28
6 1 9 31.43 2.15
6 1 9 35.36 2.04
6 1 9 31.89 2.23
-6 -1 -9 31.63 2.16
-6 -1 -9 34.7 2.35
6 0 9 31.03 2.25
6 0 9 31.19 2
6 0 9 33.9 2.34
-6 0 -9 34.19 1.55
-6 0 -9 32.51 1.95
-6 0 -9 33.51 2.4
6 -1 9 32.91 2.09
6 -1 9 35.68 2.37
-6 1 -9 31.83 2.08
-6 1 -9 33.12 1.67
-6 1 -9 26.52 2.39
6 -2 9 4.71 1.18
6 -2 9 6.05 1.39
-6 2 -9 2.63 1.06
-6 2 -9 6.88 1.09
-6 2 -9 5.54 1.28
-6 2 -9 6.46 1.49
6 -3 9 1.42 1.14
6 -3 9 -1.08 0.82
6 -3 9 -0.75 0.6
-6 3 -9 1.99 1.11
-6 3 -9 0.24 1.11
-6 3 -9 0.93 0.99
6 -4 9 5.85 1.57
6 -4 9 7.8 0.99
6 -4 9 7.79 0.95
-6 4 -9 9.45 1.79
-6 4 -9 6.36 1.5
6 -5 9 6.09 1.61
-6 5 -9 3.95 1.45
5 5 9 15.19 1.59
-5 -5 -9 15.77 2.05
-5 -5 -9 16.69 1.55
5 4 9 18.82 1.74
-5 -4 -9 21.03 2.19
-5 -4 -9 19.78 1.72
5 3 9 9.98 1.35
-5 -3 -9 13.96 1.56
-5 -3 -9 12.38 1.69
5 2 9 3.5 0.97
5 2 9 2.61 0.96
5 2 9 2.75 0.92
-5 -2 -9 3.15 1.09
-5 -2 -9 1.24 0.85
5 1 9 33.73 2.12
5 1 9 32.29 1.99
5 1 9 37.87 2.18
-5 -1 -9 38.81 2.31
-5 -1 -9 32.72 2.25
5 0 9 6.6 1.16
5 0 9 7.64 0.98
5 0 9 8.4 1.3
5 0 9 8.57 1.39
-5 0 -9 8.1 1.42
-5 0 -9 8.75 1.25
-5 0 -9 7.42 0.91
5 -1 9 31.59 1.66
5 -1 9 33.62 2.03
5 -1 9 37.73 2.28
5 -1 9 34.71 2.26
-5 1 -9 31.74 2.27
-5 1 -9 34.23 2.14
-5 1 -9 31.26 1.96
-5 1 -9 31.44 1.62
5 -2 9 1.93 0.91
5 -2 9 2.31 1.07
5 -2 9 2.26 0.76
5 -2 9 2.42 0.94
-5 2 -9 2.16 0.98
-5 2 -9 1.85 0.84
-5 2 -9 3.49 1.28
-5 2 -9 4.21 1.13
5 -3 9 14.09 1.84
5 -3 9 12.3 1.18
5 -3 9 11.21 1.13
5 -3 9 12.4 1.54
-5 3 -9 15.19 1.77
-5 3 -9 8.81 1.57
-5 3 -9 15.1 1.78
5 -4 9 19.01 1.14
5 -4 9 18.07 2.12
5 -4 9 21.52 1.26
-5 4 -9 19.35 2.17
-5 4 -9 18.35 2.06
5 -5 9 13.9 2.02
-5 5 -9 14.44 1.93
4 5 9 1.75 0.89
-4 -5 -9 0.25 0.93
-4 -5 -9 0.36 0.82
4 4 9 26.21 1.85
-4 -4 -9 26.97 2.44
-4 -4 -9 28.74 2.03
4 3 9 8.24 1.22
-4 -3 -9 11.38 1.57
-4 -3 -9 8.97 1.32
4 2 9 18.45 1.63
4 2 9 16.03 1.47
4 2 9 17.95 1.61
4 2 9 15.59 1.44
-4 -2 -9 19.94 1.88
-4 -2 -9 17.41 1.67
4 1 9 5.55 1.07
4 1 9 4.49 0.83
4 1 9 4.51 0.91
4 1 9 4.38 0.92
4 1 9 4.69 1.02
-4 -1 -9 3.5 0.82
-4 -1 -9 5.26 1.16
-4 -1 -9 3.65 1
4 0 9 0.76 0.82
4 0 9 2.26 0.8
4 0 9 1.86 0.81
4 0 9 0.61 0.71
4 0 9 0.98 0.68
-4 0 -9 2.48 0.82
-4 0 -9 -0.61 0.84
-4 0 -9 1.75 0.62
-4 0 -9 1.8 0.7
4 -1 9 2.67 0.97
4 -1 9 3.3 0.93
4 -1 9 5.75 1.05
-4 1 -9 3.8 1.12
-4 1 -9 5.5 1.06
-4 1 -9 3.83 0.77
-4 1 -9 4.32 1
4 -2 9 19.51 1.31
4 -2 9 18.64 1.32
4 -2 9 20.23 1.95
4 -2 9 15.23 1.53
4 -2 9 14.61 1.51
-4 2 -9 18.07 1.68
-4 2 -9 17.76 1.43
-4 2 -9 13.02 1.62
-4 2 -9 16.85 1.69
4 -3 9 9.01 1.29
4 -3 9 10.09 1.03
4 -3 9 9.33 1.53
4 -3 9 8.52 0.99
-4 3 -9 9.42 1.52
-4 3 -9 9.86 1.43
-4 3 -9 9.77 1.45
4 -4 9 24.99 2.27
4 -4 9 26.62 1.12
4 -4 9 25.48 1.07
-4 4 -9 27.86 2.27
4 -5 9 -0.47 0.96
-4 5 -9 -0.13 1
3 6 9 2.06 0.92
-3 -6 -9 -0.01 0.92
-3 -6 -9 1.54 0.84
3 5 9 1.18 0.83
-3 -5 -9 1.4 0.99
-3 -5 -9 0.71 0.8
3 4 9 44.39 2.28
-3 -4 -9 45.37 2.37
-3 -4 -9 41.33 2.55
3 3 9 1.52 0.76
3 3 9 0.64 0.79
3 3 9 1.28 0.79
3 3 9 -0.54 0.68
3 3 9 1.02 0.7
-3 -3 -9 0.78 0.87
-3 -3 -9 -0.01 0.7
3 2 9 54.45 2.35
3 2 9 55.98 2.52
3 2 9 60.23 2.49
3 2 9 60.09 2.36
-3 -2 -9 58.44 2.7
-3 -2 -9 56.3 2.55
3 1 9 9.6 1.18
3 1 9 10.92 1.19
3 1 9 9.62 1.22
3 1 9 8.92 0.93
3 1 9 7.78 1.04
-3 -1 -9 9.64 1.33
-3 -1 -9 10.45 1.13
3 0 9 15.03 1.42
3 0 9 9.15 1.11
3 0 9 11.82 1.36
3 0 9 13.44 1.14
3 0 9 14.68 1.44
-3 0 -9 14.76 1.11
-3 0 -9 14.84 1.35
-3 0 -9 14.48 1.35
-3 0 -9 12.24 1.46
3 -1 9 7.65 1.23
3 -1 9 9.07 1.22
3 -1 9 9.35 1.18
-3 1 -9 8.99 1.21
-3 1 -9 8.78 1.18
-3 1 -9 9.87 0.97
-3 1 -9 10.18 1.41
3 -2 9 55.25 2.42
3 -2 9 53.79 1.99
3 -2 9 51.62 2.47
3 -2 9 59.75 2.71
3 -2 9 58.69 2.05
-3 2 -9 59.15 2.19
-3 2 -9 61.25 2.59
-3 2 -9 57.47 2.72
-3 2 -9 56.84 2.54
3 -3 9 0.92 0.86
3 -3 9 0.22 0.56
3 -3 9 -0.34 0.51
3 -3 9 0.37 0.88
-3 3 -9 -0.13 0.82
-3 3 -9 0.16 0.9
-3 3 -9 0.53 0.68
-3 3 -9 0.31 0.85
3 -4 9 44.28 2.6
-3 4 -9 41.95 2.55
-3 4 -9 45.42 2.54
-3 4 -9 49.08 2.69
3 -5 9 0.61 1.06
-3 5 -9 1.9 1.08
3 -6 9 0.52 1.05
-3 6 -9 0.79 1.07
2 6 9 1.69 0.91
-2 -6 -9 1.63 0.92
-2 -6 -9 0.59 1.03
2 5 9 1.08 0.85
-2 -5 -9 1.94 0.89
-2 -5 -9 1.23 0.89
2 4 9 30.63 1.89
-2 -4 -9 26.03 2.07
-2 -4 -9 27.49 1.92
2 3 9 15.01 1.42
2 3 9 16.4 1.45
2 3 9 15.16 1.39
2 3 9 17.17 1.46
2 3 9 17.31 1.5
2 3 9 16.49 1.53
-2 -3 -9 14.86 1.63
-2 -3 -9 15.78 1.55
2 2 9 5.42 0.99
2 2 9 4.9 0.9
2 2 9 2.86 0.83
2 2 9 4.24 0.85
2 2 9 4.28 0.84
-2 -2 -9 3.73 0.92
-2 -2 -9 3.78 0.96
-2 -2 -9 4.71 0.79
2 1 9 21.62 1.66
2 1 9 25.81 1.58
2 1 9 28.4 1.6
2 1 9 28.51 1.39
2 1 9 27.48 1.75
-2 -1 -9 28.25 1.86
-2 -1 -9 29.02 1.6
2 0 9 90.42 3.02
2 0 9 96.31 2.66
2 0 9 93.75 3.2
2 0 9 104.53 3.13
2 0 9 95.85 3.18
-2 0 -9 94.82 3.32
-2 0 -9 96.22 3.1
-2 0 -9 90.23 2.53
-2 0 -9 95.55 3.08
-2 0 -9 95.84 3.08
2 -1 9 27.35 1.8
2 -1 9 26.58 1.38
2 -1 9 25.33 1.57
2 -1 9 28.02 1.79
-2 1 -9 27.89 1.85
-2 1 -9 27.39 1.68
-2 1 -9 28.7 1.42
-2 1 -9 27.96 1.76
2 -2 9 3.68 0.85
2 -2 9 4.17 1.05
2 -2 9 3.76 0.71
2 -2 9 4.36 0.93
2 -2 9 4.6 0.76
-2 2 -9 2.92 0.97
-2 2 -9 3.24 0.9
-2 2 -9 4.4 0.79
-2 2 -9 4.69 0.97
-2 2 -9 3.35 0.91
2 -3 9 14.45 0.95
2 -3 9 13.8 1.59
2 -3 9 12.92 0.89
2 -3 9 14.02 1.39
-2 3 -9 12.46 1.48
-2 3 -9 13.61 1.28
-2 3 -9 11.56 1.47
-2 3 -9 14.79 1.55
2 -4 9 30.55 2.17
-2 4 -9 27.02 2.02
-2 4 -9 30.53 2.09
-2 4 -9 33.84 2.22
2 -5 9 3.04 1.11
-2 5 -9 0.42 0.94
2 -6 9 1.73 1.15
-2 6 -9 2.89 1.15
1 6 9 1.47 0.89
-1 -6 -9 -0.54 0.87
-1 -6 -9 0.67 0.92
1 5 9 0.68 0.8
-1 -5 -9 1.64 0.87
-1 -5 -9 1.06 0.91
1 4 9 7.23 1.18
-1 -4 -9 9.94 1.41
-1 -4 -9 7.49 1.21
1 3 9 14.08 1.37
1 3 9 14.1 1.13
1 3 9 15.09 1.39
1 3 9 11.62 1.32
1 3 9 15.09 1.44
-1 -3 -9 12.22 1.43
-1 -3 -9 12.2 1.42
1 2 9 4.77 0.84
1 2 9 5.58 0.9
1 2 9 7.11 1.05
1 2 9 6.31 0.99
1 2 9 4.36 0.74
1 2 9 5.52 0.9
1 2 9 7.55 0.83
1 2 9 5.68 1.01
-1 -2 -9 5.85 1.09
-1 -2 -9 6.04 1.06
-1 -2 -9 5.92 0.84
1 1 9 5.94 0.95
1 1 9 5.97 0.75
1 1 9 6.85 0.96
1 1 9 6.35 0.9
1 1 9 6.5 0.81
1 1 9 6.82 1.02
1 1 9 6.39 0.97
-1 -1 -9 4.51 0.96
1 0 9 3.17 0.65
1 0 9 3.36 0.77
1 0 9 2.85 0.79
1 0 9 2.31 0.74
1 0 9 3.24 0.76
1 0 9 3.1 0.66
-1 0 -9 2.35 0.69
-1 0 -9 2.15 0.71
-1 0 -9 2.72 0.86
-1 0 -9 2.52 0.63
1 -1 9 7.53 0.84
1 -1 9 5.48 0.89
1 -1 9 6.35 0.79
1 -1 9 6.86 1.08
1 -1 9 8.92 1.06
-1 1 -9 6.88 0.84
-1 1 -9 5.67 0.96
-1 1 -9 5.55 1.04
-1 1 -9 4.58 0.87
1 -2 9 4.11 0.9
1 -2 9 5.89 1.07
1 -2 9 6.17 0.73
1 -2 9 5.03 0.7
-1 2 -9 5.96 1.02
-1 2 -9 4.77 1.05
-1 2 -9 3.87 0.74
-1 2 -9 5.73 0.97
-1 2 -9 4.46 0.92
1 -3 9 12.64 1.47
1 -3 9 12.57 1.28
1 -3 9 12.12 0.71
1 -3 9 13.39 0.7
-1 3 -9 13.68 1.23
-1 3 -9 12.49 1.41
-1 3 -9 11.77 1.38
-1 3 -9 14.64 1.46
-1 3 -9 11.77 1.41
1 -4 9 9.41 1.36
1 -4 9 8.78 0.87
-1 4 -9 8.23 1.25
-1 4 -9 6.75 1.24
-1 4 -9 8.27 1.22
1 -5 9 0.87 0.91
-1 5 -9 0.78 0.94
1 -6 9 0.38 0.96
-1 6 -9 1.23 0.99
0 6 9 0.41 0.86
0 -6 -9 1.55 0.98
0 -6 -9 1.92 0.94
0 5 9 2.28 0.93
0 -5 -9 2.7 1
0 -5 -9 2.32 0.95
0 4 9 9.86 1.24
0 4 9 8.54 1.24
0 4 9 11.69 1.36
0 -4 -9 8.02 1.24
0 -4 -9 10.61 1.35
0 3 9 22.19 1.39
0 3 9 25.8 1.74
0 3 9 26.39 1.75
0 3 9 26.1 1.67
0 3 9 24.34 1.64
0 -3 -9 23.14 1.75
0 -3 -9 24.02 1.68
0 2 9 10.05 0.91
0 2 9 9.44 1.1
0 2 9 6.52 1
0 2 9 7.72 1.04
0 2 9 11.47 1.19
0 -2 -9 11.05 1.27
0 -2 -9 8.53 0.98
0 1 9 41.59 1.57
0 1 9 46.92 2.05
0 1 9 46.51 2.07
0 1 9 41.99 1.92
0 1 9 43.25 1.94
0 1 9 42.32 1.88
0 1 9 42.83 1.64
0 -1 -9 42.87 2.15
0 0 9 -0.03 0.58
0 0 9 0.06 0.44
0 0 9 -0.32 0.62
0 0 9 -0.8 0.43
0 0 9 0.04 0.55
0 0 9 -0.28 0.53
0 0 -9 0.1 0.51
0 0 -9 -0.61 0.5
0 0 -9 0.05 0.69
0 -1 9 42.63 2.12
0 -1 9 40.64 1.82
0 -1 9 44.09 1.94
0 -1 9 40.31 1.52
0 -1 9 41.18 1.52
0 -1 9 40.9 1.95
0 1 -9 42.86 1.98
0 1 -9 39.55 1.99
0 1 -9 42.21 1.58
0 1 -9 42.05 1.93
0 1 -9 42.92 2.1
0 -2 9 6.67 0.98
0 -2 9 10.08 1.24
0 -2 9 10.53 1.13
0 -2 9 7.97 0.74
0 -2 9 8.64 0.73
0 2 -9 7.95 1.07
0 2 -9 7.2 1.01
0 2 -9 10.43 0.99
0 2 -9 10.62 1.26
0 2 -9 8.01 1.05
0 -3 9 23.66 1.45
0 -3 9 24.49 1.8
0 -3 9 24.11 1.49
0 -3 9 24.9 1.5
0 3 -9 24.62 1.79
0 3 -9 26.29 1.76
0 3 -9 24.85 1.61
0 3 -9 24.08 1.42
0 3 -9 25.12 1.71
0 -4 9 8.2 1.27
0 -4 9 9.15 1.03
0 -4 9 8.68 0.93
0 4 -9 9.24 1.26
0 4 -9 8.44 1.23
0 4 -9 9.18 1.27
0 -5 9 3.75 1.08
0 5 -9 2.6 1.02
0 -6 9 0.79 0.98
0 6 -9 0.32 0.88
-1 6 9 0.2 0.91
1 -6 -9 1.81 1
1 -6 -9 0.23 0.84
-1 5 9 4.23 1.08
1 -5 -9 7.67 1.29
1 -5 -9 5.19 1.18
-1 4 9 36.73 2.06
-1 4 9 35.22 2.08
-1 4 9 37.19 2.1
1 -4 -9 36.08 2.11
1 -4 -9 39.04 2.11
-1 3 9 21.61 1.63
-1 3 9 20.4 1.54
-1 3 9 20.45 1.55
-1 3 9 21.7 1.28
-1 3 9 16.9 1.52
1 -3 -9 19.05 1.5
1 -3 -9 18.34 1.63
-1 2 9 16.15 1.09
-1 2 9 13.93 1.31
-1 2 9 17.83 1.41
-1 2 9 16.05 1.42
-1 2 9 14.63 1.36
1 -2 -9 14.53 1.21
1 -2 -9 15.66 1.48
-1 1 9 8.34 0.82
-1 1 9 10.08 1.04
-1 1 9 10.28 1.08
-1 1 9 8.8 1.07
-1 1 9 9.55 1.12
-1 1 9 8.27 1.08
-1 1 9 8.78 0.87
1 -1 -9 9.34 1.2
1 -1 -9 9.86 1.06
-1 0 9 58.31 1.88
-1 0 9 61.53 2.33
-1 0 9 61.04 2.23
-1 0 9 60.56 2.41
-1 0 9 59.81 2.27
1 0 -9 63.49 2.31
1 0 -9 61.06 1.87
1 0 -9 56.65 2.39
-1 -1 9 8.32 0.78
-1 -1 9 9.21 1.16
-1 -1 9 9.19 0.79
-1 -1 9 9.41 1.1
-1 -1 9 8.76 0.97
-1 -1 9 8.97 0.99
1 1 -9 7.78 0.84
1 1 -9 8.68 1.07
1 1 -9 7.45 1.09
1 1 -9 6.61 0.93
1 1 -9 8.7 1.08
-1 -2 9 15.22 1.2
-1 -2 9 14.93 0.82
-1 -2 9 15.38 1.41
-1 -2 9 15.65 1.18
-1 -2 9 16.32 0.79
1 2 -9 13.79 1.05
1 2 -9 16.82 1.39
1 2 -9 12.76 1.23
1 2 -9 18.77 1.48
1 2 -9 13.5 1.37
-1 -3 9 19.52 1.62
-1 -3 9 18.26 1.23
-1 -3 9 17.76 1.25
1 3 -9 16.67 1.47
1 3 -9 19.31 1.46
1 3 -9 20.06 1.51
1 3 -9 17.65 1.21
1 3 -9 17.66 1.53
-1 -4 9 33.75 2.05
-1 -4 9 35.47 1.64
-1 -4 9 31.97 1.56
-1 -4 9 32.78 1.54
1 4 -9 32.22 1.95
1 4 -9 33.49 1.92
1 4 -9 33.81 1.93
-1 -5 9 7.78 1.24
1 5 -9 5.7 1.09
-1 -6 9 0.73 0.85
1 6 -9 1.76 0.96
-2 6 9 5.6 1.28
2 -6 -9 5.81 1.3
2 -6 -9 7.44 1.33
-2 5 9 1.16 0.93
2 -5 -9 -0.08 0.68
2 -5 -9 0.5 0.89
-2 4 9 -0.45 0.75
-2 4 9 0.88 0.79
-2 4 9 0.67 0.82
2 -4 -9 0.34 0.63
2 -4 -9 0.88 0.86
-2 3 9 6.71 1.12
-2 3 9 5.83 0.84
-2 3 9 5.56 1.05
-2 3 9 8.62 1.14
-2 3 9 6.42 1.06
2 -3 -9 7.28 1.19
2 -3 -9 6.64 0.91
2 -3 -9 6.58 0.99
-2 2 9 24.55 1.6
-2 2 9 23.78 1.76
-2 2 9 25.68 1.64
-2 2 9 23.77 1.27
-2 2 9 24.66 1.55
2 -2 -9 25.21 1.73
-2 1 9 7.3 0.96
-2 1 9 6.68 0.95
-2 1 9 9.54 0.88
-2 1 9 8.09 1.09
-2 1 9 8.16 1.01
-2 1 9 8.43 0.81
2 -1 -9 9.24 1.07
2 -1 -9 7.85 1.1
-2 0 9 66.95 2.32
-2 0 9 63.98 2.54
-2 0 9 62.1 2.3
-2 0 9 64.74 2.33
-2 0 9 62.23 1.9
2 0 -9 64.99 2.53
2 0 -9 65.37 1.97
2 0 -9 68.13 2.47
2 0 -9 65.65 2.35
-2 -1 9 7.82 0.94
-2 -1 9 7.2 1
-2 -1 9 9.24 1.01
-2 -1 9 8.19 0.75
-2 -1 9 7.49 0.74
2 1 -9 8.15 1.05
2 1 -9 9.03 1.06
2 1 -9 7.37 0.95
2 1 -9 8.55 1.03
2 1 -9 9.03 0.86
2 1 -9 7.5 0.8
-2 -2 9 24.29 1.34
-2 -2 9 23.63 1.37
-2 -2 9 24.52 0.74
-2 -2 9 25.07 1.65
-2 -2 9 22.88 1.36
-2 -2 9 23.98 0.75
2 2 -9 23.97 1.51
2 2 -9 24.03 1.57
2 2 -9 22.4 1.24
2 2 -9 27.15 1.34
2 2 -9 23.05 1.53
2 2 -9 25.97 1.46
-2 -3 9 7.73 0.9
-2 -3 9 5.99 1.01
-2 -3 9 6.44 0.8
-2 -3 9 5.96 1.04
2 3 -9 3.47 0.84
2 3 -9 7.74 0.91
2 3 -9 7.32 1.06
2 3 -9 6.54 1
2 3 -9 7.26 1.03
-2 -4 9 -0.23 0.72
-2 -4 9 0.41 0.51
-2 -4 9 0.96 0.69
-2 -4 9 -0.02 0.49
2 4 -9 0.28 0.69
2 4 -9 0.11 0.74
2 4 -9 -0.1 0.67
2 4 -9 0.56 0.73
-2 -5 9 0.47 0.74
2 5 -9 0.53 0.74
-2 -6 9 7.16 1.17
2 6 -9 7.42 1.18
-3 6 9 1.42 1.08
3 -6 -9 0.64 0.98
-3 5 9 0.87 0.89
3 -5 -9 1.53 1.02
3 -5 -9 0.36 0.68
-3 4 9 37.51 2.23
-3 4 9 37.55 2.21
-3 4 9 38.89 2.12
3 -4 -9 35.91 2.26
3 -4 -9 41.26 1.99
3 -4 -9 39.13 1.93
-3 3 9 16.06 1.53
-3 3 9 16.68 1.52
-3 3 9 13.89 1.44
-3 3 9 14.88 1.52
-3 3 9 14.34 1.17
3 -3 -9 14.52 1.58
3 -3 -9 15.66 1.44
3 -3 -9 15.36 1.33
3 -3 -9 13.6 1.23
-3 2 9 22.33 1.23
-3 2 9 25.59 1.59
-3 2 9 24.14 1.78
-3 2 9 25.56 1.64
-3 2 9 24.6 1.57
3 -2 -9 24.26 1.82
3 -2 -9 23.05 1.48
-3 1 9 54.23 2.34
-3 1 9 48.21 1.75
-3 1 9 52.13 1.82
-3 1 9 54.44 2.2
-3 1 9 48.54 2.15
3 -1 -9 53.14 1.81
3 -1 -9 52.19 2.14
3 -1 -9 53.65 2.31
3 -1 -9 53.46 2.18
-3 0 9 124.7 3.64
-3 0 9 126.04 3.49
-3 0 9 120.52 2.89
-3 0 9 122.51 2.94
-3 0 9 124.91 3.46
3 0 -9 121.24 3.02
3 0 -9 123.11 3.55
3 0 -9 125.92 3.54
3 0 -9 120.21 3.62
3 0 -9 119.86 3.49
-3 -1 9 51.18 1.56
-3 -1 9 53.68 2.01
-3 -1 9 51.15 1.54
-3 -1 9 55.38 2.29
-3 -1 9 52.52 1.96
3 1 -9 53.49 2.25
3 1 -9 54.21 1.8
3 1 -9 51.32 1.74
3 1 -9 51.89 2.1
3 1 -9 52.51 2.13
-3 -2 9 24.46 1.36
-3 -2 9 23.28 1.29
-3 -2 9 27.07 1.39
-3 -2 9 22.47 1.56
3 2 -9 26.91 1.25
3 2 -9 25.41 1.54
3 2 -9 23.99 1.59
3 2 -9 22.56 1.48
-3 -3 9 15.13 1.35
-3 -3 9 14.45 1.43
-3 -3 9 15.59 1.06
-3 -3 9 16.05 1.03
3 3 -9 16.2 1.37
3 3 -9 14.34 1.07
3 3 -9 13.85 1.28
3 3 -9 18.18 1.48
3 3 -9 16.66 1.28
-3 -4 9 40.06 1.33
-3 -4 9 36.73 1.93
-3 -4 9 35.21 1.25
-3 -4 9 37.55 1.94
3 4 -9 37.46 1.91
3 4 -9 37.09 2.03
-3 -5 9 -0.42 0.69
3 5 -9 0.85 0.74
-3 -6 9 1.54 0.83
3 6 -9 0.48 0.76
-4 6 9 1.69 1.11
4 -6 -9 2.81 1.2
-4 5 9 19.93 1.95
4 -5 -9 22.14 1.57
4 -5 -9 20.45 2.01
-4 4 9 10.4 1.45
-4 4 9 10.69 1.44
-4 4 9 12.74 1.59
4 -4 -9 13.73 1.62
4 -4 -9 10.71 1.34
4 -4 -9 11.43 1.16
-4 3 9 0.37 0.7
-4 3 9 1.03 0.61
-4 3 9 0.27 0.71
-4 3 9 -0.01 0.78
-4 3 9 1.18 0.77
4 -3 -9 1.22 0.79
4 -3 -9 -0.28 0.46
4 -3 -9 0.3 0.58
4 -3 -9 0.91 0.87
-4 2 9 22.88 1.78
-4 2 9 23.37 1.6
-4 2 9 27.2 1.38
-4 2 9 25.1 1.71
-4 2 9 23.36 1.57
4 -2 -9 22.29 1.21
4 -2 -9 21.9 1.55
4 -2 -9 22.83 1.55
4 -2 -9 25.72 1.89
-4 1 9 1.07 0.68
-4 1 9 1.59 0.76
-4 1 9 0.86 0.63
-4 1 9 1.22 0.5
4 -1 -9 1.73 0.84
4 -1 -9 -0.46 0.65
4 -1 -9 0.13 0.57
-4 0 9 39.81 1.5
-4 0 9 43.53 2.12
-4 0 9 41.3 1.49
-4 0 9 45.23 1.96
-4 0 9 44.55 1.9
4 0 -9 42.2 1.64
4 0 -9 42.79 1.94
4 0 -9 43.4 1.95
4 0 -9 43.15 1.97
4 0 -9 44.06 2.08
-4 -1 9 0.67 0.68
-4 -1 9 0.41 0.56
-4 -1 9 0.95 0.43
-4 -1 9 0.68 0.39
-4 -1 9 0.89 0.54
4 1 -9 -0.19 0.57
4 1 -9 0.43 0.55
4 1 -9 0.92 0.5
4 1 -9 0.48 0.68
4 1 -9 1.15 0.65
4 1 -9 1.04 0.56
-4 -2 9 25.68 1.75
-4 -2 9 24.64 1.3
-4 -2 9 25.03 1.57
-4 -2 9 19.91 1.17
4 2 -9 21.9 1.47
4 2 -9 24.96 1.5
4 2 -9 24.15 1.49
4 2 -9 26.43 1.62
4 2 -9 22.87 1.19
-4 -3 9 0.44 0.46
-4 -3 9 0.08 0.64
-4 -3 9 1.25 0.83
-4 -3 9 0.7 0.51
4 3 -9 0.46 0.68
4 3 -9 0.32 0.64
4 3 -9 -0.47 0.56
-4 -4 9 10.77 1.18
-4 -4 9 11.39 1.32
4 4 -9 11.71 1.24
4 4 -9 11.54 1.2
-4 -5 9 24.15 1.54
4 5 -9 22.66 1.54
-4 -6 9 3.41 0.82
4 6 -9 3.85 0.93
-5 6 9 22.23 2.28
5 -6 -9 22.65 2.33
-5 5 9 0.71 0.98
5 -5 -9 1.23 1.06
-5 4 9 6.99 1.38
-5 4 9 7.75 1.29
-5 4 9 8.55 1.4
5 -4 -9 8.08 1.47
5 -4 -9 9.05 0.98
-5 3 9 11.71 1.42
-5 3 9 9.32 1.04
-5 3 9 11.38 1.49
-5 3 9 10.17 1.31
5 -3 -9 7.54 1.31
5 -3 -9 9.19 0.88
5 -3 -9 10.21 0.95
5 -3 -9 9.05 1.25
-5 2 9 20.34 1.63
-5 2 9 14.86 1.42
-5 2 9 17.38 1.67
-5 2 9 15.98 1.18
5 -2 -9 17.16 1.64
5 -2 -9 16.41 1.48
5 -2 -9 19.09 1.19
5 -2 -9 19.53 1.61
-5 1 9 15.21 1.46
-5 1 9 14.87 1.07
-5 1 9 15.76 1.42
-5 1 9 16.75 1.37
5 -1 -9 15.1 1.46
5 -1 -9 17.5 1.4
5 -1 -9 17.9 1.47
-5 0 9 126.19 2.95
-5 0 9 128.01 3.81
-5 0 9 120.96 2.96
-5 0 9 115.17 3.45
5 0 -9 125.62 3.1
5 0 -9 121.19 3.71
5 0 -9 125.97 3.66
5 0 -9 123.26 3.63
5 0 -9 131.09 3.64
-5 -1 9 15.51 1.1
-5 -1 9 17.75 0.78
-5 -1 9 16.99 0.75
-5 -1 9 13.11 1.29
-5 -1 9 18.38 1.22
5 1 -9 15.55 1.37
5 1 -9 15.25 1.02
5 1 -9 16.36 1.1
5 1 -9 15.22 1.34
5 1 -9 14.35 1.29
5 1 -9 16.07 1.27
-5 -2 9 18.35 1.16
-5 -2 9 16.01 1.04
-5 -2 9 17.4 1.42
-5 -2 9 18.54 1.71
5 2 -9 18.32 1.41
5 2 -9 18.41 1.06
5 2 -9 16.94 1.37
5 2 -9 19.49 1.37
5 2 -9 17.95 1.35
-5 -3 9 9.65 1.14
-5 -3 9 8.03 1.31
-5 -3 9 10.03 0.79
-5 -3 9 10.15 0.77
5 3 -9 9.95 1.11
5 3 -9 9.95 1.09
5 3 -9 8.76 1.05
5 3 -9 9.43 1.09
-5 -4 9 8.32 1.3
-5 -4 9 7.87 1.04
5 4 -9 6.54 0.98
5 4 -9 7.56 1.06
-5 -5 9 1.51 0.72
5 5 -9 1.59 0.72
5 6 -9 20.99 1.55
-6 6 9 11.72 1.83
6 -6 -9 10.83 1.85
-6 5 9 1.9 1.09
6 -5 -9 -0.54 0.95
-6 4 9 22.38 1.99
-6 4 9 20.64 2
6 -4 -9 22.98 2.2
6 -4 -9 21.7 1.22
-6 3 9 4.88 1.08
-6 3 9 4.15 1.07
-6 3 9 3.09 1.09
-6 3 9 3.31 0.83
6 -3 -9 3.39 0.59
6 -3 -9 3.33 1.08
6 -3 -9 3.95 1.19
6 -3 -9 3.12 0.74
-6 2 9 18.74 1.62
-6 2 9 21.01 1.74
-6 2 9 23.25 1.84
-6 2 9 19.28 1.25
6 -2 -9 18.96 1.61
6 -2 -9 18.27 1.74
6 -2 -9 20.17 1.28
6 -2 -9 21.5 1.63
-6 1 9 8.27 1.18
-6 1 9 8.73 1.12
-6 1 9 8.86 0.91
-6 1 9 8.39 1.13
6 -1 -9 7.31 1.06
6 -1 -9 9.21 1.26
6 -1 -9 8.15 1.17
6 -1 -9 7.91 0.91
-6 0 9 0.43 0.62
-6 0 9 0.9 0.73
-6 0 9 1.59 0.53
-6 0 9 1.11 0.51
6 0 -9 1.51 0.76
6 0 -9 2 0.85
6 0 -9 0.57 0.62
6 0 -9 1.54 0.73
6 0 -9 2.14 0.65
-6 -1 9 9.18 1.38
-6 -1 9 9.46 0.43
-6 -1 9 9.9 0.98
-6 -1 9 10.29 1.2
-6 -1 9 7.94 0.97
6 1 -9 8.09 1.09
6 1 -9 9.53 0.93
6 1 -9 9.74 1.09
6 1 -9 11.54 1.24
6 1 -9 9.48 1.13
-6 -2 9 21.28 1.83
-6 -2 9 19.87 1.14
-6 -2 9 17.2 1.47
-6 -2 9 20.43 1.15
6 2 -9 21.16 1.46
6 2 -9 22.79 1.58
6 2 -9 20.04 1.47
6 2 -9 19.46 1.45
6 2 -9 19.09 1.14
-6 -3 9 3.67 0.52
-6 -3 9 3.36 0.83
-6 -3 9 3.52 0.49
-6 -3 9 4.63 1.16
6 3 -9 3.97 0.87
6 3 -9 4.34 0.86
6 3 -9 3.81 0.8
6 3 -9 3.47 0.83
-6 -4 9 22.52 1.48
-6 -4 9 25.12 2.01
6 4 -9 20.36 1.47
6 4 -9 20.46 1.43
6 4 -9 23.52 1.56
-6 -5 9 0.73 0.64
6 5 -9 1.2 0.68
6 6 -9 7.7 1.07
-7 5 9 6.44 1.51
7 -5 -9 7.86 1.59
-7 4 9 16.79 1.88
-7 4 9 16.34 1.81
7 -4 -9 17.54 2.03
7 -4 -9 14.72 1.05
-7 3 9 6.02 1.21
-7 3 9 6.28 1.22
-7 3 9 6.26 1.41
-7 3 9 5.39 0.97
7 -3 -9 5.56 0.59
7 -3 -9 6.1 1.22
7 -3 -9 4.6 1.31
7 -3 -9 6.15 0.92
-7 2 9 17.63 1.79
-7 2 9 24.94 1.87
-7 2 9 22.52 1.43
-7 2 9 20 1.73
7 -2 -9 24.37 1.9
7 -2 -9 26.28 1.82
7 -2 -9 21.73 2
7 -2 -9 23.2 1.38
-7 1 9 33.86 2.12
-7 1 9 31.08 2.18
-7 1 9 34.52 1.91
-7 1 9 38.07 2.03
-7 1 9 36.68 1.59
7 -1 -9 34.86 1.66
7 -1 -9 32.17 1.92
7 -1 -9 36.58 2.16
7 -1 -9 32.94 2
-7 0 9 -0.24 0.49
-7 0 9 0.05 0.9
-7 0 9 0.56 0.51
-7 0 9 -0.08 0.73
-7 0 9 2 0.78
7 0 -9 0.58 0.68
7 0 -9 -0.05 0.75
7 0 -9 1.21 0.73
7 0 -9 0.32 0.57
7 0 -9 0.28 0.74
-7 -1 9 34.62 1.99
-7 -1 9 31.62 2.2
-7 -1 9 33.75 1.62
-7 -1 9 33.29 1.6
7 1 -9 35.65 1.9
7 1 -9 39.48 1.99
7 1 -9 35.82 1.89
7 1 -9 32.73 1.76
-7 -2 9 22.9 1.28
-7 -2 9 25.27 1.63
-7 -2 9 21.39 2.02
-7 -2 9 21.11 1.19
7 2 -9 26.43 1.68
7 2 -9 23.68 1.54
7 2 -9 22.28 1.55
7 2 -9 25.63 1.66
7 2 -9 23.55 1.25
-7 -3 9 6.47 0.45
-7 -3 9 5.26 1.27
-7 -3 9 6.41 0.97
7 3 -9 5.88 1
7 3 -9 5.95 0.97
7 3 -9 5.18 0.97
-7 -4 9 14.06 1.82
-7 -4 9 16.62 1.33
7 4 -9 16.28 1.4
7 4 -9 14.4 1.34
-7 -5 9 7.17 1.48
-7 -5 9 8.82 0.91
7 5 -9 8.99 1.14
-8 5 9 3.9 1.33
8 -5 -9 2.16 1.36
-8 4 9 10.21 1.64
-8 4 9 13.67 1.76
-8 4 9 7.63 1.5
8 -4 -9 8.99 0.97
8 -4 -9 8.14 1.59
-8 3 9 1.65 0.96
-8 3 9 1.39 0.79
-8 3 9 1.54 1.07
-8 3 9 1.32 1.17
8 -3 -9 2.66 0.8
8 -3 -9 0.52 1.03
8 -3 -9 0.46 0.95
-8 2 9 15.03 1.29
-8 2 9 16.2 1.64
-8 2 9 16.86 1.95
-8 2 9 17.82 1.91
-8 2 9 19.75 1.83
8 -2 -9 19.16 2.03
8 -2 -9 19.44 1.81
8 -2 -9 14.36 1.64
-8 1 9 10.26 1.04
-8 1 9 17.29 1.86
-8 1 9 16.13 1.62
-8 1 9 12.2 1.35
-8 1 9 12.88 1.56
8 -1 -9 12.59 1.57
8 -1 -9 12.48 1.46
8 -1 -9 14.26 1.52
8 -1 -9 14.53 1.27
-8 0 9 34.07 1.33
-8 0 9 33.48 1.36
-8 0 9 37.39 2.2
-8 0 9 35.11 2.36
-8 0 9 35.17 1.83
-8 0 9 36.82 1.9
8 0 -9 30.23 2.06
8 0 -9 31.09 1.96
8 0 -9 34.6 1.59
8 0 -9 32.17 2.04
8 0 -9 31.35 1.89
-8 -1 9 13.89 1.24
-8 -1 9 12.32 1.43
-8 -1 9 11.92 1.65
8 1 -9 15.76 1.47
8 1 -9 14.86 1.46
8 1 -9 14.34 1.44
8 1 -9 14.19 1.43
-8 -2 9 14.92 1.9
-8 -2 9 15.14 1.09
-8 -2 9 15.25 1.45
-8 -2 9 17.79 1.11
8 2 -9 14.03 1.38
8 2 -9 16.41 1.46
8 2 -9 17.94 1.49
8 2 -9 12.93 1.34
-8 -3 9 1.53 0.78
-8 -3 9 1.38 1.05
8 3 -9 0.59 0.71
8 3 -9 1.18 0.75
-8 -4 9 10.88 1.72
-8 -4 9 9.51 1.06
8 4 -9 6.94 1.08
8 4 -9 8.22 1.1
-8 -5 9 4.76 1.43
8 5 -9 1.69 0.78
-9 5 9 -0.94 1.02
9 -5 -9 0.65 1.22
-9 4 9 6.83 1.49
-9 4 9 6.05 1.41
-9 4 9 4.51 1.33
9 -4 -9 5.38 1.51
9 -4 -9 2.79 0.81
-9 3 9 1.34 1.12
-9 3 9 0.96 0.85
-9 3 9 1.87 1.19
-9 3 9 1.05 0.98
9 -3 -9 -0.14 0.98
9 -3 -9 1.66 1.17
-9 2 9 9.38 1.41
-9 2 9 10.84 1.47
-9 2 9 8.6 1.11
-9 2 9 7.48 1.47
-9 2 9 9.05 1.63
9 -2 -9 13.28 1.64
9 -2 -9 7.11 1.47
9 -2 -9 6.98 1.36
-9 1 9 -0.46 0.64
-9 1 9 1.54 0.83
-9 1 9 -0.2 0.63
-9 1 9 0.71 0.97
-9 1 9 -0.47 0.94
9 -1 -9 0.49 0.45
9 -1 -9 0.65 0.92
9 -1 -9 0.83 0.96
9 -1 -9 0.92 0.83
-9 0 9 5.2 0.7
-9 0 9 2.91 0.61
-9 0 9 3.73 1.13
-9 0 9 2.85 1.22
9 0 -9 4.23 1.06
9 0 -9 6.1 1.22
9 0 -9 5.75 0.94
9 0 -9 4.78 1.08
-9 -1 9 0.72 0.85
-9 -1 9 -0.19 0.61
-9 -1 9 -0.38 0.94
9 1 -9 0.64 0.77
9 1 -9 0.25 0.83
9 1 -9 0.52 0.76
-9 -2 9 8.32 0.88
-9 -2 9 8.6 0.92
-9 -2 9 8.29 1.57
-9 -2 9 6.88 1.15
9 2 -9 7.52 1.14
9 2 -9 6.81 1.12
9 2 -9 9.29 1.21
-9 -3 9 1.08 1.15
-9 -3 9 0.78 0.73
9 3 -9 0.49 0.72
-9 -4 9 3.34 1.4
-9 -4 9 4.02 0.87
9 4 -9 4.35 0.93
-9 -5 9 0.2 1.17
9 5 -9 1.05 0.76
10 -5 -9 2.4 1.44
10 -5 -9 0.62 0.58
-10 4 9 3.44 1.34
10 -4 -9 6.8 1.63
-10 3 9 2.85 1.33
10 -3 -9 4.66 1.35
10 -3 -9 3.78 1.45
-10 2 9 19.62 2.12
10 -2 -9 26.41 2.31
10 -2 -9 19.43 2.01
10 -2 -9 20.78 2.22
-10 1 9 5.8 0.93
-10 1 9 6.62 1.5
-10 1 9 7.3 0.94
10 -1 -9 6.61 1.39
10 -1 -9 7.41 1.37
10 -1 -9 6.03 1.38
-10 0 9 3.58 0.6
-10 0 9 1.49 1.18
-10 0 9 3.04 1.13
-10 0 9 2.26 0.55
10 0 -9 3.45 1.06
10 0 -9 2.39 1.03
10 0 -9 3.07 1.06
-10 -1 9 8.05 1.34
-10 -1 9 6.42 1.5
10 1 -9 6.82 1.22
10 1 -9 4.67 1.09
-10 -2 9 22.69 1.82
-10 -2 9 19.96 1.25
-10 -2 9 20.01 2.22
10 2 -9 16.86 1.62
-10 -3 9 2.67 1.41
-10 -3 9 3.78 0.98
10 3 -9 2.26 0.89
-10 -4 9 3.94 1.52
10 4 -9 4.79 0.98
-10 -5 9 0.39 1.37
10 5 -9 0.53 0.8
-11 4 9 21.71 2.35
11 -4 -9 16.85 2.24
-11 3 9 28.78 2.66
11 -3 -9 31.01 2.46
11 -3 -9 28.19 2.68
-11 2 9 5.86 1.54
-11 2 9 6.53 1.08
11 -2 -9 6.12 1.55
11 -2 -9 8.36 1.67
11 -2 -9 8.34 1.51
-11 1 9 0.38 0.65
-11 1 9 2.06 1.24
-11 1 9 0.91 0.68
11 -1 -9 0.76 1.11
11 -1 -9 1.52 1.06
-11 0 9 1.51 1.17
-11 0 9 2.5 0.43
11 0 -9 3.24 1.23
11 0 -9 5.2 1.25
-11 -1 9 1.05 1.1
11 1 -9 0.42 0.88
11 1 -9 0.87 0.98
-11 -2 9 8.13 1.78
11 2 -9 9.8 1.4
-11 -3 9 27.53 2.79
11 3 -9 25.02 1.86
-11 -4 9 23.41 2.71
11 4 -9 20.15 1.75
12 -4 -9 2.75 1.5
-12 3 9 1.63 1.38
12 -3 -9 -0.16 1.21
-12 2 9 22.22 2.51
-12 2 9 20.56 1.65
12 -2 -9 22.34 2.44
-12 1 9 -0.24 0.65
-12 1 9 1.08 0.69
-12 1 9 0.93 1.34
12 -1 -9 0.37 1.04
12 -1 -9 1.26 1.2
-12 0 9 14.33 2.08
12 0 -9 12.24 1.75
12 0 -9 11.6 1.72
-12 -1 9 -0.72 1.1
12 1 -9 0.93 0.99
-12 -2 9 20.26 2.5
12 2 -9 24.29 1.97
-12 -3 9 -0.04 1.3
12 3 -9 0.2 0.83
-12 -4 9 4.98 1.67
12 4 -9 4.89 1.14
-13 3 9 8.71 1.89
13 -3 -9 5.27 1.65
-13 2 9 9.97 1.27
-13 2 9 8.92 1.89
13 -2 -9 12.27 2.05
-13 1 9 5.59 0.86
-13 1 9 6.58 0.91
-13 1 9 5.84 1.67
13 -1 -9 8.21 1.68
13 -1 -9 5.44 1.52
-13 0 9 -0.49 1.2
13 0 -9 0.83 1.05
13 0 -9 -0.69 1.02
-13 -1 9 5.26 1.68
13 1 -9 5.02 1.33
-13 -2 9 7.8 1.88
13 2 -9 11.38 1.66
-13 -3 9 9.72 2.11
13 3 -9 6.46 1.34
-14 2 9 13.1 2.3
-14 2 9 12.92 1.4
14 -2 -9 12.83 2.11
-14 1 9 1.42 1.37
-14 1 9 0.49 0.6
-14 1 9 0.96 0.61
14 -1 -9 1.09 1.32
14 -1 -9 -0.44 1.11
-14 0 9 13.34 2.31
14 0 -9 18.92 2.29
-14 -1 9 2.38 1.54
14 1 -9 0.06 1.06
14 2 -9 14.78 1.96
10 1 10 4.75 1.43
-10 -1 -10 4.74 1.42
-10 -1 -10 4.02 1.55
10 0 10 13.05 1.99
10 0 10 16.78 2.19
-10 0 -10 15.43 1.94
-10 0 -10 12.91 2.16
10 -1 10 4.98 1.59
-10 1 -10 3.45 1.19
-10 1 -10 5.28 1.79
-10 1 -10 4.65 0.97
9 3 10 6.88 1.5
-9 -3 -10 5.67 1.56
-9 -3 -10 9.44 1.59
9 2 10 6.41 1.47
-9 -2 -10 7.5 1.65
-9 -2 -10 4.15 1.29
9 1 10 9.38 1.76
-9 -1 -10 6.81 1.67
-9 -1 -10 7.58 1.53
9 0 10 -0.55 1.04
9 0 10 -0.44 0.99
-9 0 -10 -1.15 0.82
-9 0 -10 0.45 1.31
9 -1 10 8 1.69
-9 1 -10 8.71 1.13
-9 1 -10 6.35 1.42
-9 1 -10 5.99 1.73
9 -2 10 5.89 1.62
-9 2 -10 6.35 1.37
-9 2 -10 6.69 1.17
-9 2 -10 6.25 1.81
9 -3 10 5.75 1.7
-9 3 -10 6.75 1.87
8 3 10 11.39 1.64
-8 -3 -10 8.87 1.54
-8 -3 -10 7.29 1.58
8 2 10 14.47 1.85
-8 -2 -10 10.84 1.72
-8 -2 -10 13.12 1.82
8 1 10 3.17 1.22
8 1 10 2.35 1.16
-8 -1 -10 2.03 1.13
-8 -1 -10 1.25 1.27
8 0 10 -1.86 0.77
8 0 10 0.59 1.03
-8 0 -10 1.16 1.22
-8 0 -10 -0.63 0.8
8 -1 10 3.83 1.37
8 -1 10 1.42 1.12
-8 1 -10 2.57 1.13
-8 1 -10 2.83 1.37
-8 1 -10 1.51 0.83
8 -2 10 11.92 1.93
-8 2 -10 10.77 1.38
-8 2 -10 11.98 2.02
8 -3 10 7.63 1.75
-8 3 -10 3.8 1.58
7 4 10 17.84 1.9
-7 -4 -10 14.52 2.05
-7 -4 -10 19.4 1.95
7 3 10 5.12 1.27
-7 -3 -10 7.66 1.59
-7 -3 -10 7.33 1.41
7 2 10 2.98 1.13
-7 -2 -10 2.89 1.15
-7 -2 -10 1.7 1.16
7 1 10 -0.66 0.83
7 1 10 0.88 0.93
-7 -1 -10 1.91 0.98
-7 -1 -10 0.59 1.1
7 0 10 0.3 1.03
7 0 10 2.59 1.11
-7 0 -10 1.39 1.23
-7 0 -10 0.72 0.87
7 -1 10 -0.48 0.86
7 -1 10 0.28 1.07
-7 1 -10 1.03 1.22
-7 1 -10 0.23 0.76
7 -2 10 3.32 1.23
7 -2 10 2.03 1.2
-7 2 -10 2.93 0.98
-7 2 -10 -0.02 1.2
7 -3 10 4 0.97
7 -3 10 3.41 1.43
-7 3 -10 7.51 1.71
7 -4 10 16.72 2.24
7 -4 10 17.82 1.44
-7 4 -10 14.74 2.17
6 4 10 7.43 1.35
-6 -4 -10 8.01 1.4
-6 -4 -10 8.13 1.65
6 3 10 2.5 1.04
-6 -3 -10 3.27 1.17
-6 -3 -10 0.95 0.99
6 2 10 -0.04 0.84
6 2 10 0.37 0.88
-6 -2 -10 1.29 1.05
-6 -2 -10 -0.08 0.85
6 1 10 18.28 1.88
6 1 10 22.18 1.98
-6 -1 -10 13.64 1.69
-6 -1 -10 15.66 1.89
6 0 10 1.91 1
6 0 10 1.9 0.99
6 0 10 1.05 1
-6 0 -10 0.82 0.64
-6 0 -10 1.41 1.16
6 -1 10 17.07 1.79
6 -1 10 18.63 2
6 -1 10 16.9 1.93
-6 1 -10 17.63 2.08
-6 1 -10 18.44 1.48
6 -2 10 -0.49 0.97
6 -2 10 1.27 1.1
-6 2 -10 -1.29 1.04
-6 2 -10 1.33 0.9
6 -3 10 1.16 0.78
6 -3 10 2.48 1.25
-6 3 -10 2.53 1.31
6 -4 10 8.41 1.01
6 -4 10 5.09 0.9
6 -4 10 5.44 1.57
-6 4 -10 6.29 1.62
5 5 10 17.87 1.8
-5 -5 -10 16.61 2.16
-5 -5 -10 19.23 1.75
5 4 10 0.65 0.87
-5 -4 -10 0.31 0.9
-5 -4 -10 -0.59 0.85
5 3 10 15.66 1.72
-5 -3 -10 17.01 1.94
-5 -3 -10 15.5 1.74
5 2 10 4.44 1.09
5 2 10 7.52 1.3
-5 -2 -10 6.2 1.3
-5 -2 -10 5.15 1.25
5 1 10 0.88 0.88
5 1 10 2.51 0.98
5 1 10 1.58 0.93
-5 -1 -10 2.35 1.15
-5 -1 -10 1.43 0.89
5 0 10 2.49 0.98
5 0 10 2.09 0.93
5 0 10 2.98 1.05
-5 0 -10 1.61 1.11
-5 0 -10 3.31 0.75
-5 0 -10 1.09 0.94
5 -1 10 1.5 1.04
5 -1 10 2.11 0.99
5 -1 10 2.46 1.02
-5 1 -10 2.6 1.08
-5 1 -10 0.98 0.86
-5 1 -10 2.69 1.2
-5 1 -10 2 0.83
5 -2 10 5.16 1.3
5 -2 10 4.85 1.16
-5 2 -10 6.55 1.32
-5 2 -10 6 1.08
-5 2 -10 5.31 1.43
-5 2 -10 5.55 1.21
5 -3 10 14.88 1.97
5 -3 10 17.19 1.4
5 -3 10 16.28 1.35
-5 3 -10 14.97 1.8
-5 3 -10 16.29 1.89
-5 3 -10 14.22 1.86
5 -4 10 -0.09 1.08
5 -4 10 0.28 0.56
5 -4 10 0.21 0.58
-5 4 -10 1.91 1.11
-5 4 -10 -0.06 1.12
5 -5 10 15.75 2.19
-5 5 -10 15 2.04
4 5 10 4.54 1.16
-4 -5 -10 5.23 1.41
-4 -5 -10 4.64 1.11
4 4 10 1.22 0.89
-4 -4 -10 0.67 0.93
-4 -4 -10 0.34 0.91
4 3 10 3.5 1.06
-4 -3 -10 2.49 1.04
-4 -3 -10 3.32 1.1
4 2 10 21.72 1.83
4 2 10 20.94 1.64
4 2 10 23.64 1.99
-4 -2 -10 18.05 1.8
-4 -2 -10 18.87 1.84
4 1 10 8.42 1.29
4 1 10 10 1.11
4 1 10 11.57 1.44
4 1 10 7.71 1.16
-4 -1 -10 9.95 1.49
4 0 10 8.95 1.38
4 0 10 4.68 1.07
4 0 10 7.65 1.03
4 0 10 6.9 1.15
-4 0 -10 4.19 1.22
-4 0 -10 6.38 0.9
-4 0 -10 4.56 1.03
-4 0 -10 5.73 1.02
-4 0 -10 6.38 1.07
4 -1 10 9.5 1.35
4 -1 10 7.77 1.35
4 -1 10 9.69 1.32
-4 1 -10 6.67 1.36
-4 1 -10 8.65 1.03
-4 1 -10 6.9 1.23
-4 1 -10 8.03 1.25
4 -2 10 18.87 2
4 -2 10 22.26 1.94
4 -2 10 17.72 1.33
4 -2 10 16 1.36
4 -2 10 20.87 1.9
-4 2 -10 23.67 2.01
-4 2 -10 16.7 1.9
-4 2 -10 20.86 1.87
-4 2 -10 22.25 1.57
4 -3 10 4.27 1.09
4 -3 10 3.79 1.23
4 -3 10 3.37 0.79
4 -3 10 3 0.76
-4 3 -10 2.61 1.16
-4 3 -10 2.72 1.09
-4 3 -10 2.38 1.18
4 -4 10 0.23 0.51
4 -4 10 0.86 1.04
4 -4 10 1.37 0.5
-4 4 -10 -0.27 0.97
-4 4 -10 1.34 1.17
4 -5 10 2.65 1.27
-4 5 -10 4.32 1.38
3 5 10 16.27 1.72
-3 -5 -10 18.04 1.68
-3 -5 -10 18.69 2.19
3 4 10 3.74 1.05
-3 -4 -10 2.14 1
-3 -4 -10 4.44 1.14
3 3 10 13.71 1.47
3 3 10 16.25 1.66
-3 -3 -10 11.51 1.53
-3 -3 -10 13.82 1.64
3 2 10 20.04 1.72
3 2 10 22.3 1.77
3 2 10 17.88 1.44
-3 -2 -10 21.07 1.92
-3 -2 -10 16.44 1.72
3 1 10 56.98 2.14
3 1 10 54.3 2.44
3 1 10 55.88 2.49
3 1 10 54.82 2.6
3 1 10 65.11 2.76
-3 -1 -10 58.86 2.36
-3 -1 -10 56.57 2.71
3 0 10 9.53 1.34
3 0 10 5.12 1.12
3 0 10 6.11 0.87
3 0 10 4.35 1.03
-3 0 -10 4.74 0.97
-3 0 -10 4.6 0.99
-3 0 -10 6.4 0.85
-3 0 -10 6.28 1.04
-3 0 -10 5.9 1.23
3 -1 10 53.63 2.08
3 -1 10 58.78 2.68
3 -1 10 54.57 2.46
3 -1 10 56.52 2.74
-3 1 -10 59.99 2.58
-3 1 -10 53.12 2.72
-3 1 -10 53.75 2.03
-3 1 -10 58.8 2.59
3 -2 10 17.63 1.84
3 -2 10 20.49 1.38
3 -2 10 17.04 1.23
3 -2 10 19.81 1.76
3 -2 10 16.32 1.62
-3 2 -10 17.06 1.45
-3 2 -10 21.98 1.76
-3 2 -10 19.82 1.78
-3 2 -10 20.11 1.95
3 -3 10 13.87 1.09
3 -3 10 11.71 1.42
3 -3 10 11.02 1.57
3 -3 10 12.11 1.03
-3 3 -10 11.76 1.55
-3 3 -10 13.87 1.61
-3 3 -10 11.79 1.65
3 -4 10 4.15 1.23
-3 4 -10 3.78 1.29
-3 4 -10 1.89 1.07
3 -5 10 16.13 2.01
-3 5 -10 14.27 1.89
2 5 10 0.69 0.88
-2 -5 -10 0.75 0.95
-2 -5 -10 1.95 0.95
2 4 10 2.23 0.94
-2 -4 -10 1.45 0.94
-2 -4 -10 1.11 0.91
2 3 10 31.84 2.01
2 3 10 31.82 1.94
2 3 10 28.24 1.79
2 3 10 31.92 1.96
-2 -3 -10 34.43 2.25
-2 -3 -10 30.22 2.09
2 2 10 8.96 1.22
2 2 10 10.06 1.33
2 2 10 7.42 1.17
2 2 10 8.68 1.26
2 2 10 10.54 1.22
-2 -2 -10 8.06 1.29
-2 -2 -10 9.8 1.36
2 1 10 54.94 2.54
2 1 10 52.25 2.27
2 1 10 53.3 1.99
2 1 10 57.49 2.55
2 1 10 58.12 2.44
-2 -1 -10 55.81 2.64
2 0 10 0.41 0.61
2 0 10 2.1 0.84
2 0 10 1.71 0.79
2 0 10 1.67 0.64
2 0 10 1.42 0.81
-2 0 -10 0.61 0.86
-2 0 -10 1.45 0.69
-2 0 -10 1.28 0.67
-2 0 -10 0.81 0.6
2 -1 10 52.37 1.95
2 -1 10 56.34 2.51
2 -1 10 51.97 2.29
2 -1 10 51.61 2.54
2 -1 10 55.73 1.98
-2 1 -10 47.52 2.29
-2 1 -10 50.27 1.96
-2 1 -10 52.64 2.35
-2 1 -10 50.27 2.53
2 -2 10 8.02 0.95
2 -2 10 8.95 1.36
2 -2 10 9.77 0.97
2 -2 10 8.7 1.18
2 -2 10 9.14 1.28
-2 2 -10 9.49 1.28
-2 2 -10 9.23 1.4
-2 2 -10 8.8 1.34
-2 2 -10 8.62 1.1
2 -3 10 28.59 1.29
2 -3 10 30.14 1.82
2 -3 10 27.65 1.24
2 -3 10 27.78 2.18
-2 3 -10 32.13 2.09
-2 3 -10 29.02 2.05
-2 3 -10 27.61 2.07
2 -4 10 3.23 1.12
-2 4 -10 2.29 1.13
-2 4 -10 3.89 1.15
2 -5 10 0.49 1
-2 5 -10 1.09 1.02
1 6 10 1.06 0.92
-1 -6 -10 2.18 1.16
-1 -6 -10 3.31 1.04
1 5 10 10.88 1.44
-1 -5 -10 11.02 1.6
-1 -5 -10 9.78 1.4
1 4 10 6.07 1.18
-1 -4 -10 6.27 1.22
-1 -4 -10 4.67 1.16
1 3 10 1.54 0.78
1 3 10 1.22 0.85
1 3 10 1.6 0.78
1 3 10 1.67 0.83
1 3 10 0.06 0.72
1 3 10 0.63 0.67
1 3 10 0.5 0.7
-1 -3 -10 1 0.8
-1 -3 -10 1.77 0.93
1 2 10 0 0.69
1 2 10 0.99 0.78
1 2 10 -0.93 0.62
1 2 10 -0.13 0.55
1 2 10 1.25 0.59
1 2 10 0.96 0.72
-1 -2 -10 -0.86 0.49
-1 -2 -10 0.14 0.65
-1 -2 -10 0.19 0.84
1 1 10 42.66 2.18
1 1 10 43.91 1.77
1 1 10 45.82 2.24
1 1 10 45.33 2.07
1 1 10 45.84 2.2
1 1 10 43.72 1.76
1 1 10 45.34 2.15
-1 -1 -10 46.64 2.36
1 0 10 6.54 1.09
1 0 10 4.92 0.96
1 0 10 5.72 0.8
1 0 10 6.14 0.96
1 0 10 7.41 0.9
-1 0 -10 6.09 0.83
-1 0 -10 8.12 1.11
-1 0 -10 4.71 1.04
1 -1 10 44.01 2.07
1 -1 10 42.06 2.14
1 -1 10 41.3 2.18
1 -1 10 43.88 1.71
1 -1 10 41.76 1.68
-1 1 -10 42.01 1.74
-1 1 -10 45.85 2.18
-1 1 -10 42.29 2.09
1 -2 10 -0.17 0.5
1 -2 10 -0.54 0.72
1 -2 10 0.13 0.5
1 -2 10 -0.46 0.61
-1 2 -10 -0.27 0.65
-1 2 -10 0.09 0.58
-1 2 -10 0.12 0.85
-1 2 -10 1.36 0.8
-1 2 -10 -0.03 0.66
1 -3 10 -0.92 0.75
1 -3 10 0.55 0.66
1 -3 10 1.06 0.45
1 -3 10 0.54 0.45
-1 3 -10 0.37 0.9
-1 3 -10 4.07 1.08
-1 3 -10 1.09 0.83
-1 3 -10 0.6 0.74
1 -4 10 7.02 1.33
-1 4 -10 6.89 1.28
-1 4 -10 5.51 1.18
1 -5 10 12.28 1.63
-1 5 -10 10.89 1.54
1 -6 10 3.59 1.21
-1 6 -10 2.43 1.11
0 6 10 1.12 1.03
0 -6 -10 3.34 1.13
0 -6 -10 3.2 1.17
0 5 10 0.5 0.83
0 -5 -10 -0.56 0.82
0 -5 -10 -0.14 0.78
0 4 10 6.17 1.17
0 -4 -10 5.83 1.22
0 -4 -10 7.89 1.29
0 3 10 43.65 2.27
0 3 10 45.84 2.3
0 3 10 38.97 2.12
0 3 10 44.12 1.9
0 3 10 47.2 2.27
0 -3 -10 42.95 2.27
0 -3 -10 45.73 2.42
0 2 10 7.2 0.89
0 2 10 6.61 1.03
0 2 10 6.43 1.12
0 2 10 8.88 1.23
0 2 10 4.75 1.02
0 2 10 7.36 1.07
0 2 10 5.32 1.01
0 2 10 8.01 0.92
0 -2 -10 6.95 1.16
0 -2 -10 9.14 1.03
0 1 10 48.17 2.31
0 1 10 49.88 2.12
0 1 10 48.05 2.24
0 1 10 46.73 1.8
0 1 10 49.03 2.19
0 1 10 50.89 2.26
0 1 10 48.01 1.77
0 -1 -10 49.42 2.43
0 0 10 11.1 1
0 0 10 12.83 1.35
0 0 10 12.97 1.24
0 0 10 11.94 1.33
0 0 10 10.09 1.16
0 0 10 11.77 1.02
0 0 -10 12.38 1
0 0 -10 12.53 1.22
0 0 -10 10.89 1.33
0 -1 10 45.49 2.22
0 -1 10 49.54 2.22
0 -1 10 50.01 2.13
0 -1 10 49.19 2.18
0 -1 10 47.27 1.71
0 -1 10 45.87 1.7
0 1 -10 50.17 2.2
0 1 -10 48.15 2.16
0 1 -10 48.25 2.35
0 1 -10 45.3 2.25
0 1 -10 48.97 1.84
0 -2 10 7.57 1.09
0 -2 10 7.58 1.08
0 -2 10 7.17 0.74
0 -2 10 7 0.78
0 -2 10 4.47 1.03
0 2 -10 5.94 1.03
0 2 -10 6.95 1.08
0 2 -10 8.89 1.19
0 2 -10 6.63 1.15
0 2 -10 7.05 0.95
0 -3 10 47.38 2.44
0 -3 10 41.79 2
0 -3 10 42.26 2.02
0 3 -10 46.74 1.96
0 3 -10 43.65 2.28
0 3 -10 44.47 2.28
0 3 -10 42.11 2.22
0 -4 10 6.88 0.96
0 -4 10 8.39 1.33
0 4 -10 7.38 1.25
0 4 -10 6 1.2
0 -5 10 1.46 1
0 5 -10 0.61 0.88
0 -6 10 2.79 1.13
0 6 -10 -0.08 0.97
-1 6 10 0.9 0.94
1 -6 -10 -0.25 0.83
1 -6 -10 0.05 0.93
-1 5 10 6.17 1.28
1 -5 -10 4.16 1.06
1 -5 -10 5.12 1.2
-1 4 10 0.52 0.82
-1 4 10 2.08 0.9
1 -4 -10 1.1 0.93
1 -4 -10 1.79 0.84
-1 3 10 5.04 1.06
-1 3 10 5.16 0.86
-1 3 10 4.36 0.92
-1 3 10 3.99 0.98
-1 3 10 6.19 1.1
1 -3 -10 5.39 1
1 -3 -10 5.18 1.13
-1 2 10 1.1 0.75
-1 2 10 0.34 0.64
-1 2 10 0.1 0.69
-1 2 10 0.35 0.54
-1 2 10 0.18 0.49
-1 2 10 -0.08 0.67
1 -2 -10 0.82 0.61
1 -2 -10 0.13 0.79
-1 1 10 1.66 0.66
-1 1 10 1.53 0.68
-1 1 10 0.95 0.69
-1 1 10 1.64 0.78
-1 1 10 0.51 0.51
-1 1 10 1.44 0.54
-1 1 10 0.41 0.63
1 -1 -10 0.26 0.58
1 -1 -10 0.42 0.79
-1 0 10 24.06 1.48
-1 0 10 23.59 1.54
-1 0 10 26.47 1.26
-1 0 10 25.07 1.71
-1 0 10 20.35 1.48
1 0 -10 26.65 1.85
1 0 -10 22.34 1.58
-1 -1 10 1.06 0.6
-1 -1 10 0.11 0.51
-1 -1 10 0.98 0.6
-1 -1 10 0.58 0.72
-1 -1 10 0.57 0.48
-1 -1 10 0.31 0.63
1 1 -10 0.92 0.66
1 1 -10 1.25 0.78
1 1 -10 1.54 0.72
1 1 -10 0.35 0.65
1 1 -10 1.07 0.54
-1 -2 10 -0.1 0.6
-1 -2 10 -0.01 0.44
-1 -2 10 0.53 0.56
-1 -2 10 0.71 0.71
-1 -2 10 0.07 0.42
1 2 -10 0.6 0.67
1 2 -10 1.02 0.64
1 2 -10 1.54 0.73
1 2 -10 1.76 0.85
1 2 -10 0.14 0.67
-1 -3 10 5.23 0.92
-1 -3 10 5.77 0.92
-1 -3 10 5.2 1.08
1 3 -10 5.29 1.05
1 3 -10 4.23 1.04
1 3 -10 4.85 1.01
1 3 -10 4.86 1
1 3 -10 4.19 0.89
-1 -4 10 1.18 0.73
-1 -4 10 1.18 0.86
-1 -4 10 0.67 0.65
1 4 -10 1.72 0.87
1 4 -10 2.27 0.94
-1 -5 10 6.5 1.21
1 5 -10 3.76 1.07
-1 -6 10 2.31 1.03
1 6 -10 1.67 0.96
-2 6 10 2.54 1.14
2 -6 -10 1.11 0.94
2 -6 -10 1.54 1.05
-2 5 10 24.85 2.05
2 -5 -10 30.37 2.04
2 -5 -10 26.15 2.09
-2 4 10 13.08 1.47
-2 4 10 11.6 1.51
-2 4 10 12.47 1.5
2 -4 -10 10.59 1.47
2 -4 -10 12.85 1.41
-2 3 10 35.24 2.11
-2 3 10 35.4 2.05
-2 3 10 32.56 1.63
-2 3 10 37.05 2.07
-2 3 10 37.24 2.12
2 -3 -10 36.26 2.23
2 -3 -10 34.7 1.93
-2 2 10 7.8 0.87
-2 2 10 11.04 1.33
-2 2 10 7.62 1.09
-2 2 10 10.59 1.29
-2 2 10 8.71 1.15
2 -2 -10 7.31 1.18
-2 1 10 16.45 1.45
-2 1 10 13.15 1.42
-2 1 10 15.26 1.38
-2 1 10 14.34 1.3
-2 1 10 15.69 1.11
-2 1 10 14.02 1.11
-2 1 10 15.66 1.36
2 -1 -10 17.75 1.45
2 -1 -10 13.46 1.4
-2 0 10 9.29 1.11
-2 0 10 8.34 0.83
-2 0 10 8.41 1.13
-2 0 10 8.77 1.08
-2 0 10 8.97 1.03
2 0 -10 8.41 0.88
2 0 -10 9.62 1.24
2 0 -10 10.79 1.18
-2 -1 10 16.08 1.49
-2 -1 10 14.68 0.94
-2 -1 10 15.64 0.99
-2 -1 10 12.08 1.19
-2 -1 10 14.77 1.16
2 1 -10 14.9 1.34
2 1 -10 16.35 1.09
2 1 -10 14.39 1.43
2 1 -10 12.04 1.23
2 1 -10 15.53 1.04
2 1 -10 11.9 1.23
-2 -2 10 9.32 1.03
-2 -2 10 7.74 0.59
-2 -2 10 8.78 0.99
-2 -2 10 11.34 1.29
-2 -2 10 7.96 0.61
2 2 -10 9.05 1.14
2 2 -10 9.76 1.28
2 2 -10 8.3 0.92
2 2 -10 10.53 1.17
2 2 -10 10.83 0.98
-2 -3 10 32.17 2.02
-2 -3 10 34.09 1.64
-2 -3 10 32.9 1.65
2 3 -10 32.79 1.91
2 3 -10 35.48 1.91
2 3 -10 31.87 1.88
2 3 -10 33.49 1.98
2 3 -10 34.57 1.64
-2 -4 10 12.21 1.27
-2 -4 10 12.9 1.1
-2 -4 10 12.11 1.4
2 4 -10 10.84 1.32
-2 -5 10 27.29 1.1
-2 -5 10 25.44 1.87
2 5 -10 23.85 1.84
-2 -6 10 2.13 0.95
2 6 -10 2.22 0.98
-3 6 10 6.92 1.48
3 -6 -10 8.1 1.5
-3 5 10 19.04 1.94
3 -5 -10 16.96 1.86
3 -5 -10 17.32 1.65
-3 4 10 21.31 1.85
-3 4 10 19.38 1.83
-3 4 10 18.76 1.8
3 -4 -10 20.03 1.54
3 -4 -10 19.03 1.86
-3 3 10 21.96 1.78
-3 3 10 19.38 1.71
-3 3 10 23.56 1.44
-3 3 10 23.07 1.94
-3 3 10 23.16 1.68
3 -3 -10 20.92 1.87
3 -3 -10 19.95 1.57
3 -3 -10 20.52 1.48
-3 2 10 19.24 1.59
-3 2 10 16.92 1.58
-3 2 10 21.54 1.55
-3 2 10 18.71 1.5
-3 2 10 19.82 1.27
3 -2 -10 19.79 1.49
3 -2 -10 15.48 1.61
-3 1 10 58.46 2.37
-3 1 10 52.79 1.9
-3 1 10 55.1 2.5
-3 1 10 54.12 1.85
-3 1 10 55.59 2.3
3 -1 -10 52.69 1.86
3 -1 -10 55.45 2.27
3 -1 -10 56.64 2.47
-3 0 10 26.11 1.55
-3 0 10 26.02 1.28
-3 0 10 26.96 1.26
-3 0 10 27.34 1.64
-3 0 10 26.39 1.74
-3 0 10 27.39 1.6
3 0 -10 29.02 1.71
3 0 -10 24.65 1.61
3 0 -10 25.95 1.4
3 0 -10 26.48 1.81
-3 -1 10 56.87 2.2
-3 -1 10 53.79 2.13
-3 -1 10 51.66 2.32
-3 -1 10 53.61 1.67
-3 -1 10 54.73 1.67
3 1 -10 54.26 1.91
3 1 -10 58.82 2.43
3 1 -10 52.71 2.24
3 1 -10 54.86 1.88
3 1 -10 54.98 2.3
-3 -2 10 19.3 1.32
-3 -2 10 19.03 1.29
-3 -2 10 17.88 1.24
-3 -2 10 19.02 1.58
3 2 -10 15.99 1.4
3 2 -10 18.23 1.46
3 2 -10 18.75 1.17
3 2 -10 19.31 1.48
3 2 -10 19.45 1.59
-3 -3 10 19.88 1.23
-3 -3 10 20.67 1.62
-3 -3 10 22.68 1.72
-3 -3 10 20.53 1.27
3 3 -10 21.34 1.68
3 3 -10 19.32 1.49
3 3 -10 20.76 1.65
3 3 -10 19.05 1.52
3 3 -10 19.09 1.3
-3 -4 10 19.3 1.62
-3 -4 10 16.91 1.53
-3 -4 10 19.66 1.12
3 4 -10 17.17 1.54
-3 -5 10 15.99 1.53
3 5 -10 13.59 1.46
-3 -6 10 6.1 1.12
3 6 -10 5.19 1.12
-4 6 10 0.33 1.01
4 -6 -10 -0.91 0.93
-4 5 10 13.52 1.73
4 -5 -10 13.73 1.8
4 -5 -10 15.51 1.5
-4 4 10 0.78 0.79
-4 4 10 0.91 0.9
-4 4 10 0.62 0.93
4 -4 -10 1.39 0.98
4 -4 -10 0.66 0.61
-4 3 10 27.29 1.5
-4 3 10 26.59 2.04
-4 3 10 27.29 1.97
-4 3 10 27.14 1.82
4 -3 -10 25.44 1.82
4 -3 -10 26.91 2.02
4 -3 -10 26.08 1.57
-4 2 10 37.18 1.66
-4 2 10 32.02 1.88
-4 2 10 33.87 2.05
-4 2 10 39.34 2.03
-4 2 10 34.82 2.07
4 -2 -10 34.91 1.51
4 -2 -10 35.46 1.92
4 -2 -10 35.97 1.95
4 -2 -10 39.01 2.29
-4 1 10 65.19 2.55
-4 1 10 68.02 2.81
-4 1 10 65.16 2.6
-4 1 10 64.82 2.12
4 -1 -10 71.01 2.59
4 -1 -10 64.65 2.71
4 -1 -10 66.85 2.63
-4 0 10 35.88 1.79
-4 0 10 36.13 1.42
-4 0 10 36.13 1.44
-4 0 10 35.07 1.78
4 0 -10 36.87 1.87
4 0 -10 34.86 1.82
4 0 -10 32.4 1.54
4 0 -10 37.03 1.87
4 0 -10 34.92 1.96
-4 -1 10 64.62 1.78
-4 -1 10 67.66 1.8
-4 -1 10 64.66 2.3
-4 -1 10 64.9 2.61
-4 -1 10 64.21 2.35
4 1 -10 67.16 2.55
4 1 -10 58.94 2.4
4 1 -10 66.84 2.51
4 1 -10 66.12 2.08
4 1 -10 63.64 2.54
4 1 -10 66.44 2.11
-4 -2 10 36.46 1.67
-4 -2 10 33.89 1.58
-4 -2 10 36.03 1.6
-4 -2 10 34.29 1.94
4 2 -10 34.67 1.89
4 2 -10 39.46 2
4 2 -10 34.52 1.86
4 2 -10 35.96 1.51
-4 -3 10 25.92 1.31
-4 -3 10 25.11 1.91
-4 -3 10 26.48 1.33
-4 -3 10 26.51 1.76
4 3 -10 25.89 1.68
4 3 -10 23.47 1.71
4 3 -10 28.05 1.81
-4 -4 10 0.43 0.43
-4 -4 10 1.53 0.88
-4 -4 10 -0.08 0.42
-4 -4 10 0.68 0.76
4 4 -10 -0.31 0.64
-4 -5 10 12.98 1.34
4 5 -10 11.11 1.33
-4 -6 10 1.48 0.84
4 6 -10 0.45 0.78
-5 6 10 0.21 1.05
5 -6 -10 2.42 1.22
-5 5 10 16.53 1.91
5 -5 -10 10.93 1.7
-5 4 10 8.61 1.48
-5 4 10 8.87 1.47
-5 4 10 9.17 1.39
5 -4 -10 8.34 1.53
5 -4 -10 7.57 0.96
-5 3 10 13.05 1.56
-5 3 10 14.48 1.7
-5 3 10 14.93 1.56
-5 3 10 11.72 1.19
5 -3 -10 13.15 1.49
5 -3 -10 11.72 1.08
5 -3 -10 11.43 1.03
5 -3 -10 12.16 1.59
-5 2 10 14.92 1.5
-5 2 10 14.1 1.56
-5 2 10 11.82 1.12
-5 2 10 12.65 1.39
5 -2 -10 13.6 1.51
5 -2 -10 14.6 1.64
5 -2 -10 13.83 1.41
5 -2 -10 12.21 1.1
-5 1 10 10.38 0.99
-5 1 10 8.06 1.23
-5 1 10 8.8 1.15
-5 1 10 7.56 1.11
5 -1 -10 7.67 1.27
5 -1 -10 12.03 1.37
5 -1 -10 8.89 1.13
-5 0 10 2.54 0.58
-5 0 10 1.61 0.71
-5 0 10 0.65 0.63
-5 0 10 1.84 0.57
-5 0 10 1.17 0.78
5 0 -10 0.48 0.81
5 0 -10 2.81 0.84
5 0 -10 1.6 0.63
5 0 -10 0.69 0.67
5 0 -10 0.28 0.65
-5 -1 10 9.98 0.74
-5 -1 10 8.55 0.68
-5 -1 10 8.75 1.15
-5 -1 10 9.09 1.01
-5 -1 10 9.55 1.07
5 1 -10 8.46 1.08
5 1 -10 10.46 1.2
5 1 -10 8.03 1.12
5 1 -10 11.67 1
5 1 -10 12.15 1.03
5 1 -10 10.95 1.23
-5 -2 10 12.2 1.09
-5 -2 10 12.68 1.08
-5 -2 10 11.84 1.3
-5 -2 10 11.17 1.47
5 2 -10 12.7 1.31
5 2 -10 11.19 1.22
5 2 -10 12.11 1.25
5 2 -10 11.22 1.01
5 2 -10 10.91 1.26
-5 -3 10 12.31 1.3
-5 -3 10 11.79 0.99
-5 -3 10 10.5 0.92
-5 -3 10 11.87 1.57
5 3 -10 11.38 1.23
5 3 -10 11.4 1.26
5 3 -10 12.87 1.3
5 3 -10 11.96 1.28
-5 -4 10 8.9 1.14
-5 -4 10 10.96 1.47
5 4 -10 7.74 1.1
-5 -5 10 14.32 1.34
5 5 -10 12.16 1.32
5 6 -10 2.05 0.87
-6 6 10 2.62 1.26
6 -6 -10 -1.06 1.05
-6 5 10 3.67 1.24
6 -5 -10 4.37 1.35
-6 4 10 6.95 1.35
-6 4 10 8.06 1.53
-6 4 10 8.88 1.43
6 -4 -10 6.47 0.85
6 -4 -10 7.67 1.52
-6 3 10 5.97 1.23
-6 3 10 7.14 1.3
-6 3 10 6.43 1
-6 3 10 4.46 1.21
6 -3 -10 5.75 0.86
6 -3 -10 6.99 0.82
6 -3 -10 5.03 1.24
6 -3 -10 5.24 1.3
-6 2 10 4.11 1.02
-6 2 10 2.7 0.95
-6 2 10 2.76 0.76
-6 2 10 3.64 1.07
6 -2 -10 4.14 0.79
6 -2 -10 2.57 0.94
6 -2 -10 3.29 1.07
6 -2 -10 4.05 0.98
-6 1 10 46.97 1.79
-6 1 10 47.18 2.42
-6 1 10 43.54 1.79
-6 1 10 46.81 2.25
-6 1 10 46.62 2.19
6 -1 -10 46.7 2.27
6 -1 -10 46.88 1.84
6 -1 -10 46.94 2.43
6 -1 -10 47.46 2.28
-6 0 10 2.93 0.95
-6 0 10 2.9 0.64
-6 0 10 3.79 0.88
-6 0 10 2.97 0.62
6 0 -10 1.44 0.78
6 0 -10 1.54 0.81
6 0 -10 3.32 0.9
6 0 -10 3.69 0.77
6 0 -10 3.01 0.99
-6 -1 10 45.16 1.23
-6 -1 10 44.85 1.91
-6 -1 10 46.42 2.3
-6 -1 10 47.95 2.58
-6 -1 10 45.84 1.91
6 1 -10 45.61 2.12
6 1 -10 47.85 2.2
6 1 -10 45.82 2.23
6 1 -10 45.7 2.18
6 1 -10 46.19 1.8
-6 -2 10 5.76 0.85
-6 -2 10 3.77 1.21
-6 -2 10 2.96 0.69
-6 -2 10 4.04 0.96
6 2 -10 3.44 0.87
6 2 -10 3.78 0.74
6 2 -10 3.52 0.93
6 2 -10 4.08 0.93
6 2 -10 4.48 0.92
-6 -3 10 7.01 1.38
-6 -3 10 5.88 0.7
-6 -3 10 5.95 0.73
-6 -3 10 6.86 1.08
6 3 -10 6.99 1.03
6 3 -10 4.29 0.94
6 3 -10 6.61 1.05
-6 -4 10 9.06 1.14
-6 -4 10 8.43 1.45
6 4 -10 10.11 1.22
6 4 -10 8.58 1.13
-6 -5 10 2.56 0.8
6 5 -10 3.77 0.89
6 5 -10 2.89 0.91
6 6 -10 0.15 0.7
-7 5 10 22 2.33
7 -5 -10 20.88 2.35
-7 4 10 3.19 1.16
-7 4 10 4 1.29
7 -4 -10 2.89 0.7
7 -4 -10 1.84 1.15
-7 3 10 1.12 0.77
-7 3 10 1.26 1
-7 3 10 1.19 1.07
-7 3 10 1.14 0.93
7 -3 -10 0.06 0.66
7 -3 -10 0.23 1.06
7 -3 -10 0.81 0.45
7 -3 -10 -0.18 0.85
-7 2 10 26.77 2
-7 2 10 32.93 2
-7 2 10 29.36 1.61
-7 2 10 28.89 2.14
7 -2 -10 27.86 1.96
7 -2 -10 28.44 2.04
7 -2 -10 30.83 2.21
7 -2 -10 30.74 1.53
-7 1 10 26.29 1.98
-7 1 10 22.21 1.7
-7 1 10 21.12 1.31
-7 1 10 21.78 1.3
-7 1 10 26.15 1.83
7 -1 -10 26.13 2.11
7 -1 -10 26.67 1.48
7 -1 -10 23.12 1.74
7 -1 -10 22.54 1.77
-7 0 10 8.93 1.5
-7 0 10 8.86 1.29
-7 0 10 11.72 0.95
-7 0 10 11.96 1.26
-7 0 10 12.21 0.96
7 0 -10 13.61 1.44
7 0 -10 11.59 1.13
7 0 -10 11.76 1.41
7 0 -10 12.69 1.38
7 0 -10 9.71 1.29
-7 -1 10 25.29 2.04
-7 -1 10 25.08 1.5
-7 -1 10 22.9 1.47
-7 -1 10 24.28 1.81
7 1 -10 22.2 1.68
7 1 -10 23.69 1.68
7 1 -10 25.86 1.75
7 1 -10 20.8 1.74
-7 -2 10 29.34 1.49
-7 -2 10 29.84 1.46
-7 -2 10 28.33 2.18
-7 -2 10 30.73 1.94
7 2 -10 30.64 1.81
7 2 -10 25.22 1.77
7 2 -10 28.99 1.46
7 2 -10 30.51 1.82
7 2 -10 29.73 1.91
-7 -3 10 1.1 0.46
-7 -3 10 2.14 1.06
-7 -3 10 1.08 0.47
-7 -3 10 1.49 0.79
7 3 -10 2.41 0.82
7 3 -10 1.02 0.75
7 3 -10 -0.29 0.7
-7 -4 10 3.59 0.88
-7 -4 10 3.84 1.26
7 4 -10 3.55 0.94
-7 -5 10 21.92 1.46
7 5 -10 21.4 1.62
-8 5 10 1.93 1.23
8 -5 -10 5.69 1.54
-8 4 10 2.47 1.28
-8 4 10 3.17 1.22
-8 4 10 1.8 1.08
8 -4 -10 2.91 0.79
8 -4 -10 3.57 1.35
-8 3 10 18.14 1.92
-8 3 10 15.49 1.88
-8 3 10 16.38 1.78
-8 3 10 17.3 2.04
8 -3 -10 16.99 1.82
8 -3 -10 14.42 1.31
8 -3 -10 17.51 2.01
-8 2 10 20.62 2.1
-8 2 10 18.09 1.99
-8 2 10 18.73 1.33
-8 2 10 20.15 1.85
-8 2 10 18.72 1.82
8 -2 -10 18.33 1.76
8 -2 -10 17.65 1.79
8 -2 -10 17 1.38
8 -2 -10 19.95 2.1
-8 1 10 6.39 1.05
-8 1 10 2.25 1.03
-8 1 10 3.09 1.21
-8 1 10 2.74 0.74
-8 1 10 2.86 0.97
-8 1 10 3.4 0.75
8 -1 -10 3.97 1.1
8 -1 -10 2.86 0.82
8 -1 -10 4.01 1.18
8 -1 -10 6.43 1.17
-8 0 10 2.29 0.63
-8 0 10 2.27 0.63
-8 0 10 -0.36 0.99
-8 0 10 1.74 0.95
-8 0 10 2.9 0.85
-8 0 10 2.68 0.78
8 0 -10 2.06 0.89
8 0 -10 2.8 0.97
8 0 -10 1.35 0.94
8 0 -10 1.52 0.73
8 0 -10 2.16 0.92
-8 -1 10 3.35 1.01
-8 -1 10 2.76 0.79
-8 -1 10 2.59 1.18
8 1 -10 3.52 0.92
8 1 -10 6.23 1.13
8 1 -10 2.57 0.9
8 1 -10 3.94 1.05
-8 -2 10 20.1 2.13
-8 -2 10 16.77 1.2
-8 -2 10 19.24 1.69
-8 -2 10 17.9 1.19
8 2 -10 20.27 1.65
8 2 -10 18.51 1.59
8 2 -10 18.46 1.6
8 2 -10 17.01 1.56
-8 -3 10 16.74 0.78
-8 -3 10 16.48 1.5
-8 -3 10 14.48 1.9
-8 -3 10 18.17 0.79
8 3 -10 15.92 1.51
-8 -4 10 4.27 0.91
-8 -4 10 3.2 1.34
8 4 -10 3.59 0.91
-8 -5 10 3.25 1.29
8 5 -10 2.41 0.87
-9 5 10 2.09 1.29
9 -5 -10 2.09 1.36
-9 4 10 2.02 1.31
-9 4 10 3.87 1.29
9 -4 -10 3.83 0.9
9 -4 -10 1.65 1.19
-9 3 10 25.09 2.24
-9 3 10 23.62 2.36
-9 3 10 21.53 2.1
9 -3 -10 19.13 2.18
9 -3 -10 24.56 2.23
-9 2 10 4.34 1.32
-9 2 10 6.53 1.24
-9 2 10 3.09 1.13
-9 2 10 4.36 0.94
-9 2 10 3.62 1.32
9 -2 -10 3.42 1.22
9 -2 -10 4.24 1.33
9 -2 -10 4.32 1.09
-9 1 10 3.84 1.29
-9 1 10 4.36 0.87
-9 1 10 5.24 0.89
-9 1 10 3.64 1.04
-9 1 10 5.6 1.28
9 -1 -10 5.05 1.17
9 -1 -10 4.69 1.29
9 -1 -10 4.39 1.24
-9 0 10 3.16 1.09
-9 0 10 1.48 0.58
-9 0 10 1.84 1.17
-9 0 10 1.69 0.58
9 0 -10 2.52 0.97
9 0 -10 1.43 0.95
9 0 -10 1.97 1.02
-9 -1 10 3.36 1.06
-9 -1 10 5.38 0.95
-9 -1 10 4.38 1.34
9 1 -10 4.76 1.15
9 1 -10 4.56 1.12
9 1 -10 5.86 1.15
-9 -2 10 4.66 1.06
-9 -2 10 4.21 0.8
-9 -2 10 4.88 1.41
9 2 -10 4.58 1.01
-9 -3 10 21.38 2.29
-9 -3 10 23.87 1.74
9 3 -10 22.08 1.69
-9 -4 10 3.19 0.88
-9 -4 10 2.85 1.37
9 4 -10 2.72 0.91
-9 -5 10 3.39 1.47
9 5 -10 2.6 0.93
-10 4 10 7.01 1.64
10 -4 -10 5.25 1.6
-10 3 10 13.83 1.93
10 -3 -10 11.38 1.83
10 -3 -10 17.54 2.12
-10 2 10 11.4 1.27
-10 2 10 12.84 1.9
10 -2 -10 12.5 1.67
10 -2 -10 14.72 1.98
10 -2 -10 13.34 1.73
-10 1 10 30.12 1.62
-10 1 10 33.33 2.45
-10 1 10 32.43 1.64
-10 1 10 32.15 2.52
10 -1 -10 35.42 2.35
10 -1 -10 31.71 2.31
10 -1 -10 38.95 2.49
-10 0 10 6.7 0.72
-10 0 10 7.73 1.6
-10 0 10 6.39 1.31
-10 0 10 7.62 0.75
10 0 -10 6.49 1.36
10 0 -10 7.31 1.39
10 0 -10 5.89 1.22
-10 -1 10 34.52 2.25
-10 -1 10 33.24 2.6
10 1 -10 34.39 2.25
10 1 -10 28.71 2.07
-10 -2 10 14.49 2.03
-10 -2 10 12.6 1.49
10 2 -10 8.64 1.32
-10 -3 10 14.68 2.06
-10 -3 10 17.08 1.59
10 3 -10 16.61 1.61
-10 -4 10 8.85 1.17
-10 -4 10 8.77 1.81
10 4 -10 7.35 1.19
-11 4 10 5.16 1.59
11 -4 -10 6.66 1.73
-11 3 10 4.63 1.48
11 -3 -10 3.21 1.43
-11 2 10 1.76 0.84
-11 2 10 1.77 1.26
11 -2 -10 1.83 1.28
-11 1 10 3.37 0.81
-11 1 10 5.44 1.49
-11 1 10 2.3 0.78
11 -1 -10 3.58 1.25
11 -1 -10 1.38 1.13
-11 0 10 17.82 0.83
-11 0 10 16.14 0.84
-11 0 10 16.63 2.2
-11 0 10 17.13 1.98
11 0 -10 18.27 1.91
11 0 -10 17.9 1.97
-11 -1 10 0.34 1.18
-11 -1 10 3.81 1.19
11 1 -10 1.96 1
11 1 -10 3.63 1.15
-11 -2 10 2.05 1.3
-11 -2 10 1.26 0.97
11 2 -10 3.17 1.06
-11 -3 10 1.62 1.5
11 3 -10 4.11 1.08
-11 -4 10 8.74 1.96
11 4 -10 7.99 1.27
-12 3 10 14.41 2.2
12 -3 -10 18.61 2.42
-12 2 10 1.41 1.24
-12 2 10 -0.12 0.79
12 -2 -10 0.54 1.18
-12 1 10 18.58 1.31
-12 1 10 17.64 2.26
-12 1 10 19.69 1.37
12 -1 -10 20.86 2.3
12 -1 -10 21.83 2.29
-12 0 10 2.67 1.41
12 0 -10 5.5 1.37
12 0 -10 6 1.47
-12 -1 10 16.68 2.28
12 1 -10 20.94 2.09
-12 -2 10 1.56 1.36
12 2 -10 0.69 0.9
-12 -3 10 17.31 2.46
12 3 -10 13.1 1.64
-13 3 10 21.29 2.53
-13 2 10 -1.02 0.71
-13 2 10 1.79 1.38
13 -2 -10 -1.38 1.13
-13 1 10 10.37 1.05
-13 1 10 9.02 1.96
-13 1 10 8.97 1
13 -1 -10 7.38 1.63
13 -1 -10 8.05 1.72
-13 0 10 4.25 1.62
13 0 -10 1.7 1.24
13 0 -10 2.25 1.21
-13 -1 10 10.57 2.14
13 1 -10 11.98 1.76
-13 -2 10 0.93 1.54
13 2 -10 -0.68 0.93
13 3 -10 23.98 2.13
-14 2 10 -0.76 0.77
-14 2 10 1.44 1.45
14 -2 -10 -0.02 1.25
-14 1 10 6.7 0.82
-14 1 10 7.72 1.92
-14 1 10 8.18 0.88
14 -1 -10 7.09 1.75
-14 0 10 3.9 1.63
14 0 -10 7 1.63
-14 -1 10 7.15 1.95
14 1 -10 5.27 1.51
14 2 -10 0.3 0.96
9 2 11 1.05 1.17
-9 -2 -11 0.68 1.24
-9 -2 -11 -0.61 1.04
9 1 11 -0.2 1.05
-9 -1 -11 -0.67 0.92
-9 -1 -11 0.38 1.31
9 0 11 -0.77 1.08
9 0 11 1.97 1.23
-9 0 -11 -1.14 1.17
-9 0 -11 -1.25 0.8
9 -1 11 -1.04 1.13
-9 1 -11 -0.52 0.77
-9 1 -11 0.19 1.34
-9 1 -11 0.35 0.98
9 -2 11 1.18 1.39
-9 2 -11 -0.89 1.23
-9 2 -11 0.49 1.03
-9 2 -11 1.57 1.04
8 3 11 3.22 1.21
-8 -3 -11 0.15 1.08
-8 -3 -11 2.45 1.55
8 2 11 5.58 1.43
-8 -2 -11 5.25 1.38
-8 -2 -11 5.78 1.48
8 1 11 0.18 1.04
-8 -1 -11 0.65 1.27
-8 -1 -11 -0.06 0.92
8 0 11 10.19 1.74
8 0 11 8.49 1.65
-8 0 -11 7.52 1.48
-8 0 -11 9.24 1.85
8 -1 11 -0.34 1.18
-8 1 -11 1.49 0.87
-8 1 -11 -0.55 0.91
-8 1 -11 2.43 1.44
8 -2 11 5.14 1.58
-8 2 -11 4.86 1.14
-8 2 -11 5.01 1.74
8 -3 11 1.73 1.37
8 -3 11 0.76 0.87
-8 3 -11 0.4 1.39
7 3 11 3.77 1.25
-7 -3 -11 3.36 1.33
-7 -3 -11 0.01 1.05
7 2 11 4.22 1.3
-7 -2 -11 4.18 1.35
-7 -2 -11 2.71 1.16
7 1 11 11.99 1.71
7 1 11 10.95 1.65
-7 -1 -11 8.86 1.64
-7 -1 -11 8.99 1.54
7 0 11 33.3 2.46
7 0 11 33.68 2.61
-7 0 -11 32.75 2.39
-7 0 -11 33.63 2.72
7 -1 11 11.8 1.89
-7 1 -11 8.74 1.17
-7 1 -11 8.42 1.77
7 -2 11 1.92 1.31
-7 2 -11 1.28 1.32
-7 2 -11 2.06 0.99
7 -3 11 1.27 1.31
7 -3 11 0.66 0.85
-7 3 -11 0.17 1.22
6 4 11 11.83 1.66
-6 -4 -11 11 1.67
-6 -4 -11 11.55 1.82
6 3 11 2.53 1.09
-6 -3 -11 2.27 1.18
-6 -3 -11 1.62 1.11
6 2 11 9.43 1.53
-6 -2 -11 9.77 1.64
-6 -2 -11 10.85 1.73
6 1 11 1.28 1
6 1 11 1.96 1.06
-6 -1 -11 1.79 1.06
-6 -1 -11 -0.08 1.08
6 0 11 17.79 2.01
6 0 11 17.95 2.01
-6 0 -11 13.61 1.91
6 -1 11 1.84 1.17
6 -1 11 0.72 0.99
6 -1 11 0.39 0.94
-6 1 -11 0.95 0.79
-6 1 -11 -0.17 1.12
6 -2 11 12.05 1.87
6 -2 11 9.4 1.64
-6 2 -11 7.22 1.21
-6 2 -11 8.35 1.7
6 -3 11 3.13 1.36
6 -3 11 1.05 0.8
-6 3 -11 3.11 1.41
6 -4 11 9.41 1.09
6 -4 11 11.89 1.91
6 -4 11 11.77 1.16
-6 4 -11 11.27 1.97
5 4 11 11.7 1.62
-5 -4 -11 12.23 1.91
-5 -4 -11 11.42 1.59
5 3 11 5.64 1.27
-5 -3 -11 6.8 1.44
-5 -3 -11 4.73 1.29
5 2 11 4.23 1.23
5 2 11 3.39 1.08
-5 -2 -11 4.05 1.17
-5 -2 -11 4.37 1.29
5 1 11 18.11 1.82
5 1 11 17.44 1.86
-5 -1 -11 15.86 1.8
-5 -1 -11 15.53 1.84
5 0 11 28.81 2.25
5 0 11 28.78 2.03
5 0 11 31.75 2.5
-5 0 -11 29.37 1.52
-5 0 -11 31.38 2.46
5 -1 11 17 1.78
5 -1 11 19.69 2.02
5 -1 11 21.85 2.19
-5 1 -11 15.64 2
-5 1 -11 18.53 1.83
-5 1 -11 15.94 1.4
5 -2 11 4.8 0.98
5 -2 11 1.81 1.14
5 -2 11 4.37 1.19
-5 2 -11 3.97 1.02
-5 2 -11 4.14 1.34
-5 2 -11 5.53 1.3
5 -3 11 2.45 0.82
5 -3 11 2.87 1.31
-5 3 -11 3.19 1.4
-5 3 -11 4.45 1.32
-5 3 -11 6.75 1.41
5 -4 11 10.16 1.02
5 -4 11 14.33 2.05
5 -4 11 10.8 0.97
-5 4 -11 10.68 1.85
-5 4 -11 7.76 1.63
4 5 11 3.02 1.06
-4 -5 -11 0.19 1.02
-4 -5 -11 0.98 1
4 4 11 13.18 1.63
-4 -4 -11 15.49 2.05
-4 -4 -11 17.03 1.83
4 3 11 1.86 1.01
-4 -3 -11 2.65 1.12
-4 -3 -11 3.81 1.22
4 2 11 5.6 1.19
4 2 11 6.26 1.26
-4 -2 -11 4.02 1.14
-4 -2 -11 2.49 1.13
4 1 11 5.4 1.1
4 1 11 6.41 1.3
4 1 11 5.41 1.21
-4 -1 -11 4.63 1.24
4 0 11 42.85 2.45
4 0 11 41.41 2.46
4 0 11 40.4 2.25
-4 0 -11 37.81 2.52
-4 0 -11 38.18 1.72
-4 0 -11 42.4 2.33
4 -1 11 5.05 1.27
4 -1 11 5.14 1.12
4 -1 11 6 1.26
4 -1 11 4.73 0.95
-4 1 -11 4.53 0.94
-4 1 -11 7.24 1.48
-4 1 -11 6.22 1.27
-4 1 -11 3.68 1.06
4 -2 11 3.3 0.9
4 -2 11 5.68 1.37
4 -2 11 3.5 1.14
-4 2 -11 3.47 1.12
-4 2 -11 3.6 1.27
-4 2 -11 4.12 0.93
-4 2 -11 4.22 1.15
4 -3 11 3.55 0.83
4 -3 11 5.09 1.4
4 -3 11 3.44 0.83
-4 3 -11 2.98 1.33
-4 3 -11 5.34 1.3
-4 3 -11 4.2 1.25
4 -4 11 15.76 1.03
4 -4 11 16.46 0.96
4 -4 11 17.76 2.17
-4 4 -11 14.37 1.95
-4 4 -11 15 1.89
4 -5 11 3.64 1.38
-4 5 -11 1.25 1.24
3 5 11 1.11 0.98
-3 -5 -11 2.03 1.22
-3 -5 -11 0.44 0.94
3 4 11 3.37 1.07
-3 -4 -11 2.76 1.14
-3 -4 -11 6.3 1.31
3 3 11 5.28 1.2
-3 -3 -11 3.46 1.19
-3 -3 -11 6.51 1.33
3 2 11 4.48 1.08
3 2 11 4.7 1.12
3 2 11 4.59 0.97
-3 -2 -11 5.15 1.15
-3 -2 -11 7.12 1.36
3 1 11 8.8 1.37
3 1 11 8.56 1.36
3 1 11 7.35 1.01
3 1 11 6.85 1.18
-3 -1 -11 6.63 1.33
3 0 11 16.2 1.36
3 0 11 15.78 1.32
3 0 11 17.17 1.76
3 0 11 14.45 1.52
3 0 11 16.55 1.69
-3 0 -11 16.09 1.27
-3 0 -11 16.79 1.58
-3 0 -11 18.26 1.65
3 -1 11 7.9 1.39
3 -1 11 11.19 1.5
3 -1 11 8.64 1.29
3 -1 11 7.95 1.03
-3 1 -11 7.64 1.06
-3 1 -11 7.08 1.33
-3 1 -11 7.78 1.41
-3 1 -11 8.34 1.26
3 -2 11 5.02 0.86
3 -2 11 3.75 1.07
3 -2 11 4.41 1.24
3 -2 11 4.26 0.85
-3 2 -11 3.96 1.11
-3 2 -11 4.49 1.12
-3 2 -11 4.33 0.99
-3 2 -11 3.86 1.24
3 -3 11 5.62 1.2
3 -3 11 6.08 0.89
3 -3 11 6.43 1.45
3 -3 11 5.84 0.85
-3 3 -11 6.23 1.43
-3 3 -11 5.09 1.25
-3 3 -11 5.87 1.29
3 -4 11 4.33 1.36
-3 4 -11 3.45 1.33
-3 4 -11 3.27 1.2
3 -5 11 2.66 1.25
-3 5 -11 1.66 1.18
2 5 11 0.66 0.95
-2 -5 -11 5.07 1.38
-2 -5 -11 2.72 1.09
2 4 11 5.88 1.25
-2 -4 -11 5.03 1.21
-2 -4 -11 8.06 1.51
2 3 11 7.06 1.26
2 3 11 10.13 1.36
-2 -3 -11 9.14 1.44
-2 -3 -11 9.58 1.5
2 2 11 33.56 1.72
2 2 11 32.12 2
2 2 11 29.9 2.08
2 2 11 29.83 1.92
2 2 11 30.88 2.12
-2 -2 -11 30.78 2.17
-2 -2 -11 32.03 2.23
2 1 11 18.12 1.72
2 1 11 15.23 1.48
2 1 11 17.94 1.74
2 1 11 17.74 1.31
2 1 11 14.81 1.28
2 1 11 16.5 1.52
-2 -1 -11 13.4 1.6
2 0 11 0.93 0.74
2 0 11 -0.53 0.65
2 0 11 -0.35 0.5
2 0 11 -0.85 0.54
2 0 11 -0.35 0.75
-2 0 -11 0.27 0.67
-2 0 -11 -0.94 0.56
-2 0 -11 -0.25 0.86
-2 0 -11 -0.34 0.65
2 -1 11 14.49 1.51
2 -1 11 16.4 1.54
2 -1 11 16.29 1.32
2 -1 11 15.04 1.25
2 -1 11 18.89 1.82
-2 1 -11 16.64 1.78
-2 1 -11 15.21 1.55
-2 1 -11 13.52 1.24
-2 1 -11 16.29 1.61
2 -2 11 29.3 1.53
2 -2 11 32.76 1.63
2 -2 11 31.15 2.28
2 -2 11 32.78 1.95
2 -2 11 33.31 2.08
-2 2 -11 32.33 2.26
-2 2 -11 35.11 2.2
-2 2 -11 32.11 2.14
-2 2 -11 31.22 1.74
2 -3 11 9.11 1.51
2 -3 11 6.51 1.13
2 -3 11 8.19 0.85
2 -3 11 8.74 0.88
-2 3 -11 7.63 1.33
-2 3 -11 7.61 1.34
-2 3 -11 6.76 1.38
2 -4 11 8.36 1.5
-2 4 -11 6.02 1.34
-2 4 -11 7.52 1.45
2 -5 11 4.75 1.33
-2 5 -11 3.68 1.28
1 5 11 4.34 1.17
-1 -5 -11 4.88 1.28
-1 -5 -11 4.43 1.21
1 4 11 28.91 2.13
-1 -4 -11 32.69 2.3
-1 -4 -11 30.65 2.18
1 3 11 8.48 1.31
1 3 11 9.01 1.35
1 3 11 9.42 1.36
-1 -3 -11 8.05 1.33
-1 -3 -11 6.27 1.32
1 2 11 17.17 1.68
1 2 11 16.03 1.3
1 2 11 15.27 1.6
1 2 11 20.94 1.78
1 2 11 14.37 1.43
-1 -2 -11 14.73 1.64
-1 -2 -11 14.27 1.66
1 1 11 0.42 0.7
1 1 11 0.39 0.67
1 1 11 0.54 0.78
1 1 11 1.32 0.64
1 1 11 1.39 0.88
1 1 11 -0.15 0.56
1 1 11 1.02 0.81
-1 -1 -11 2.34 1
1 0 11 4.94 1.03
1 0 11 4.99 1.09
1 0 11 4.25 1
1 0 11 3.24 0.76
1 0 11 2.2 0.81
1 0 11 4.25 0.79
-1 0 -11 5.41 1.02
-1 0 -11 4.55 1.12
-1 0 -11 4.13 0.78
1 -1 11 0.44 0.55
1 -1 11 0.51 0.71
1 -1 11 1.35 0.88
1 -1 11 1.33 0.67
1 -1 11 1.06 0.74
-1 1 -11 1.67 0.66
-1 1 -11 0.08 0.75
-1 1 -11 0.6 0.78
-1 1 -11 0.13 0.87
1 -2 11 14.65 1.13
1 -2 11 15.18 1.53
1 -2 11 16.73 1.74
1 -2 11 16.27 1.1
-1 2 -11 17.38 1.69
-1 2 -11 14.98 1.57
-1 2 -11 17.83 1.41
-1 2 -11 12.9 1.62
1 -3 11 6.79 0.71
1 -3 11 5.78 1.3
1 -3 11 6.97 1.12
1 -3 11 7.88 0.74
-1 3 -11 7.1 1.27
-1 3 -11 9.23 1.42
-1 3 -11 7.36 1.34
1 -4 11 31.37 2.29
-1 4 -11 27.54 2.13
-1 4 -11 29.19 2.17
1 -5 11 4.76 1.28
-1 5 -11 6.18 1.37
0 5 11 -0.04 0.85
0 -5 -11 0.51 0.86
0 -5 -11 -0.05 0.88
0 4 11 14.62 1.64
0 -4 -11 12.95 1.63
0 -4 -11 11.42 1.58
0 3 11 5.14 1.13
0 3 11 10 1.4
0 3 11 7.54 1.19
0 -3 -11 7.39 1.3
0 -3 -11 8.07 1.3
0 2 11 28.33 1.57
0 2 11 27.24 1.81
0 2 11 32.02 1.98
0 2 11 28.63 1.93
0 2 11 31.23 2.03
0 2 11 29.93 2.01
0 2 11 28.67 1.89
0 2 11 29.15 1.55
0 -2 -11 29.69 2.13
0 -2 -11 26.31 1.72
0 1 11 7.58 0.94
0 1 11 8.02 1.12
0 1 11 8.36 1.22
0 1 11 8.78 0.97
0 1 11 7.92 1.09
0 1 11 9.79 1.26
0 1 11 9.6 1.23
0 -1 -11 8.02 1.27
0 -1 -11 7.69 1.06
0 0 11 14.01 1.47
0 0 11 12.44 1.4
0 0 11 11.69 1.26
0 0 11 12.09 1.09
0 0 11 14.58 1.43
0 0 -11 11.85 1.44
0 0 -11 14.01 1.4
0 -1 11 7.04 1.07
0 -1 11 7.26 0.87
0 -1 11 7.38 1.17
0 -1 11 7.93 1.15
0 -1 11 7.87 0.93
0 -1 11 7.99 1.1
0 1 -11 8.88 1.22
0 1 -11 10.74 1.33
0 1 -11 7.64 1.24
0 1 -11 9.18 1.02
0 -2 11 27.43 1.73
0 -2 11 26.28 1.94
0 -2 11 27.14 1.27
0 -2 11 26.91 1.29
0 -2 11 27.9 1.68
0 2 -11 28.84 2.04
0 2 -11 29.67 1.59
0 2 -11 25.91 1.9
0 2 -11 29.42 2.03
0 2 -11 29.61 1.93
0 -3 11 7.2 0.51
0 -3 11 7.08 1.09
0 -3 11 9.1 1.41
0 -3 11 6.68 0.48
0 3 -11 6.77 1.29
0 3 -11 6.69 1.27
0 3 -11 9.39 1.34
0 -4 11 15.21 1.74
0 4 -11 12.25 1.56
0 4 -11 10.83 1.52
0 -5 11 0.3 0.92
0 5 -11 1.47 0.99
-1 6 11 0.1 0.94
1 -6 -11 1.76 1.08
1 -6 -11 1.52 1
-1 5 11 1.42 0.97
1 -5 -11 0.21 0.82
1 -5 -11 1.4 0.98
-1 4 11 17.74 1.77
-1 4 11 19.75 1.83
1 -4 -11 19.14 1.89
1 -4 -11 21.98 1.83
-1 3 11 4.23 1.06
-1 3 11 1.87 0.88
-1 3 11 2.53 0.97
1 -3 -11 3.76 1.13
1 -3 -11 3.46 0.94
-1 2 11 1.61 0.86
-1 2 11 3.02 0.7
-1 2 11 2.19 0.7
-1 2 11 2.56 0.83
-1 2 11 2.92 0.89
-1 2 11 2.09 0.89
-1 2 11 1.2 0.82
1 -2 -11 0.67 0.93
1 -2 -11 3.57 0.83
-1 1 11 3.26 0.73
-1 1 11 2.32 0.7
-1 1 11 3.89 0.94
-1 1 11 4.9 0.98
-1 1 11 3.74 0.97
-1 1 11 5.1 1.01
1 -1 -11 3.13 1.05
1 -1 -11 3.81 0.9
-1 0 11 45.37 2.11
-1 0 11 45.35 2.22
-1 0 11 48.91 2.37
-1 0 11 48.46 2.2
-1 0 11 49.94 1.79
1 0 -11 45.66 2.37
1 0 -11 45.83 2.15
-1 -1 11 3.43 0.68
-1 -1 11 2.18 0.78
-1 -1 11 2.73 0.83
-1 -1 11 4.33 0.92
-1 -1 11 4.44 0.73
-1 -1 11 3.83 1
1 1 -11 3.5 0.9
1 1 -11 2.72 0.83
1 1 -11 4.8 1
1 1 -11 2.25 0.97
1 1 -11 3.15 0.75
-1 -2 11 1.98 0.55
-1 -2 11 3.43 0.83
-1 -2 11 2.77 0.82
-1 -2 11 1.51 0.83
-1 -2 11 1.99 0.57
1 2 -11 2.9 0.94
1 2 -11 3.12 0.91
1 2 -11 2.33 0.73
1 2 -11 3.58 0.92
1 2 -11 2.2 0.94
-1 -3 11 3.11 0.83
-1 -3 11 3.12 0.98
-1 -3 11 2.79 0.84
1 3 -11 2.49 0.99
1 3 -11 3.28 0.94
1 3 -11 4.36 1.07
-1 -4 11 19.28 1.51
-1 -4 11 18.23 1.8
1 4 -11 18.2 1.75
1 4 -11 18.35 1.75
-1 -5 11 0.48 0.89
1 5 -11 0.63 0.93
-1 -6 11 1.62 1.05
1 6 -11 0.99 0.96
-2 6 11 11.67 1.72
2 -6 -11 10.47 1.63
-2 5 11 0.21 0.93
2 -5 -11 1.22 1.02
2 -5 -11 0.22 0.76
-2 4 11 20.55 1.94
-2 4 11 24.01 1.98
2 -4 -11 22.73 2.06
2 -4 -11 26.91 1.87
-2 3 11 12 1.46
-2 3 11 11.31 1.41
-2 3 11 10.87 1.43
2 -3 -11 11.44 1.34
2 -3 -11 11.7 1.53
-2 2 11 30.02 1.99
-2 2 11 27.88 1.79
-2 2 11 31.26 1.49
-2 2 11 29.93 1.93
-2 2 11 31.18 1.91
-2 2 11 28.52 1.53
2 -2 -11 27.49 2.05
-2 1 11 33.98 1.92
-2 1 11 29.29 1.48
-2 1 11 27.7 1.75
-2 1 11 31.25 1.52
-2 1 11 30.82 2.05
2 -1 -11 29.14 1.97
2 -1 -11 29.54 1.75
-2 0 11 47.82 2.18
-2 0 11 47.91 1.78
-2 0 11 45.73 2.09
-2 0 11 49.43 1.82
-2 0 11 49.9 2.46
-2 0 11 48.56 2.19
2 0 -11 50.76 2.5
2 0 -11 48.61 2.24
-2 -1 11 27.51 1.32
-2 -1 11 29.19 1.7
-2 -1 11 29.92 1.98
-2 -1 11 27.98 1.61
-2 -1 11 29.2 1.34
2 1 -11 28.33 1.8
2 1 -11 28.37 1.47
2 1 -11 30.94 2.02
2 1 -11 27.15 1.43
2 1 -11 30.51 1.93
-2 -2 11 29.58 1.99
-2 -2 11 28.31 1.63
-2 -2 11 27.17 1.66
-2 -2 11 26.93 1.1
-2 -2 11 28.31 1.07
2 2 -11 27.33 2
2 2 -11 30.57 1.6
2 2 -11 28.36 1.91
2 2 -11 31.31 1.89
2 2 -11 29.26 1.44
-2 -3 11 12.62 1.22
-2 -3 11 10.57 1.18
-2 -3 11 12.97 1.52
2 3 -11 9.57 1.27
2 3 -11 12.41 1.39
2 3 -11 11.6 1.4
-2 -4 11 23.03 1.75
-2 -4 11 19.47 1.8
2 4 -11 21.93 1.74
-2 -5 11 0.42 0.87
2 5 -11 -0.03 0.8
-2 -6 11 10.24 1.45
2 6 -11 7.6 1.33
-3 6 11 3.66 1.26
3 -6 -11 4.11 1.28
-3 5 11 1.47 1.04
3 -5 -11 1.99 1.07
3 -5 -11 2.94 0.92
-3 4 11 10.26 1.48
-3 4 11 10.61 1.5
3 -4 -11 13.68 1.71
3 -4 -11 9.68 1.27
-3 3 11 50.55 2.49
-3 3 11 49.62 2.54
-3 3 11 51.96 2.54
3 -3 -11 49.02 2.29
3 -3 -11 47.48 2.65
-3 2 11 49.05 2.33
-3 2 11 45.11 2.33
-3 2 11 41.08 1.82
-3 2 11 42.97 2.41
-3 2 11 42.02 2.18
3 -2 -11 44.61 2.4
-3 1 11 14.78 1.45
-3 1 11 12.34 1.41
-3 1 11 13.51 1.12
-3 1 11 16.2 1.24
-3 1 11 15.14 1.47
3 -1 -11 16.7 1.2
3 -1 -11 19.44 1.49
3 -1 -11 14.84 1.62
-3 0 11 2.44 0.82
-3 0 11 4.38 0.71
-3 0 11 2.37 0.64
-3 0 11 3.13 0.81
-3 0 11 3.71 0.86
-3 0 11 3.67 0.98
3 0 -11 2.06 0.94
3 0 -11 2.25 0.82
3 0 -11 4.4 0.77
-3 -1 11 16.46 1.04
-3 -1 11 15.79 1.39
-3 -1 11 14.48 1.48
-3 -1 11 17.63 1.33
-3 -1 11 14.54 0.98
3 1 -11 15.54 1.47
3 1 -11 16.46 1.48
3 1 -11 15.11 1.51
3 1 -11 15.52 1.21
3 1 -11 15.26 1.14
-3 -2 11 38.12 1.82
-3 -2 11 42.28 1.87
-3 -2 11 41.43 2.23
-3 -2 11 41.64 1.9
-3 -2 11 41.05 1.05
3 2 -11 43.38 1.76
3 2 -11 40.76 2.12
3 2 -11 45.36 2.22
3 2 -11 38.15 2.07
3 2 -11 40.93 2.25
-3 -3 11 43.46 2.4
-3 -3 11 51.94 2.42
-3 -3 11 47.1 1.96
-3 -3 11 48.57 1.95
3 3 -11 47.52 2.29
3 3 -11 47.92 2.37
-3 -4 11 11.81 1.41
-3 -4 11 10.52 1.36
-3 -4 11 10.55 1.01
3 4 -11 10.59 1.35
-3 -5 11 1.06 0.87
3 5 -11 0.43 0.85
-3 -6 11 3.72 1.09
3 6 -11 2.76 1.07
-4 6 11 4.84 1.44
4 -6 -11 4.9 1.36
-4 5 11 5.62 1.34
4 -5 -11 3.6 1.29
4 -5 -11 4.55 1.01
-4 4 11 6.07 1.34
-4 4 11 6.91 1.3
4 -4 -11 3.79 1.21
4 -4 -11 3.27 0.86
-4 3 11 23.86 1.83
-4 3 11 27.42 2.04
-4 3 11 25.89 2
4 -3 -11 24.26 1.78
4 -3 -11 26.71 1.69
4 -3 -11 25.01 2.16
-4 2 11 47.08 2.48
-4 2 11 47.13 2.41
-4 2 11 47.82 1.92
-4 2 11 50.75 2.39
4 -2 -11 46.59 1.84
4 -2 -11 48.91 2.33
4 -2 -11 47.6 2.28
4 -2 -11 47.61 2.59
-4 1 11 1.49 0.59
-4 1 11 -0.04 0.76
-4 1 11 0.49 0.76
-4 1 11 1.88 0.79
4 -1 -11 2.4 1
4 -1 -11 0.36 0.65
4 -1 -11 2.27 0.88
-4 0 11 15.42 1.56
-4 0 11 19.13 1.58
-4 0 11 18.42 1.11
-4 0 11 15.17 1.08
-4 0 11 17.42 1.39
-4 0 11 17.48 1.37
4 0 -11 18.6 1.63
4 0 -11 18.91 1.71
4 0 -11 18.64 1.22
4 0 -11 16.1 1.48
-4 -1 11 1.49 0.82
-4 -1 11 2.07 0.55
-4 -1 11 1.48 0.67
-4 -1 11 0.43 0.6
-4 -1 11 0.05 0.64
-4 -1 11 1.19 0.51
4 1 -11 0.52 0.7
4 1 -11 2.81 0.96
4 1 -11 0.62 0.61
4 1 -11 1.16 0.74
4 1 -11 1.15 0.68
-4 -2 11 48.34 2.32
-4 -2 11 45.68 1.94
-4 -2 11 45.61 1.95
-4 -2 11 47.85 2.01
4 2 -11 46.27 2.24
4 2 -11 44.57 1.8
4 2 -11 47.37 2.26
4 2 -11 48.17 2.32
-4 -3 11 24.26 1.4
-4 -3 11 25.31 1.98
-4 -3 11 23.1 1.73
-4 -3 11 26.02 1.42
4 3 -11 25.43 1.48
4 3 -11 27.02 1.85
4 3 -11 25.64 1.75
4 3 -11 27.41 1.82
4 3 -11 23.78 1.87
-4 -4 11 4.27 0.69
-4 -4 11 3.68 1
-4 -4 11 4.11 1.16
4 4 -11 3.89 0.97
-4 -5 11 3.91 0.99
4 5 -11 1.32 0.87
-4 -6 11 7.75 1.2
4 6 -11 3.92 1.05
-5 5 11 2.71 1.21
5 -5 -11 5.45 1.41
-5 4 11 7.17 1.42
-5 4 11 5.81 1.32
5 -4 -11 6.78 1.46
5 -4 -11 5.95 0.96
-5 3 11 21.13 1.95
-5 3 11 21.98 1.93
-5 3 11 22.07 2.12
5 -3 -11 22.94 1.8
5 -3 -11 20.26 1.43
5 -3 -11 21.68 2.03
-5 2 11 57.94 2.61
-5 2 11 57.3 2.6
-5 2 11 58.98 2.79
-5 2 11 57.96 2.21
5 -2 -11 62.64 2.16
5 -2 -11 62.41 2.91
5 -2 -11 57.08 2.62
5 -2 -11 59.08 2.55
-5 1 11 1.23 0.86
-5 1 11 0.63 0.82
-5 1 11 1.14 0.57
-5 1 11 2.33 0.8
5 -1 -11 3.59 1.04
5 -1 -11 1.59 0.97
5 -1 -11 1.23 0.76
-5 0 11 117.95 3.62
-5 0 11 118.53 3.02
-5 0 11 125.55 3.73
-5 0 11 122.4 3.94
-5 0 11 118.65 2.98
5 0 -11 119.63 3.91
5 0 -11 115.11 3.69
5 0 -11 119.57 3.2
5 0 -11 115.79 3.75
5 0 -11 115.41 3.72
-5 -1 11 1.36 0.51
-5 -1 11 1.38 0.63
-5 -1 11 2.06 0.87
-5 -1 11 1.99 0.75
-5 -1 11 1.45 0.47
5 1 -11 2.69 0.88
5 1 -11 1.09 0.55
5 1 -11 2.06 0.83
5 1 -11 2.94 0.81
5 1 -11 0.52 0.83
5 1 -11 2.5 0.73
-5 -2 11 58.36 2.21
-5 -2 11 57.4 2.83
-5 -2 11 57.35 2.17
-5 -2 11 57.14 2.56
5 2 -11 59.33 2.55
5 2 -11 60.22 2.55
5 2 -11 58.96 2.07
5 2 -11 58.81 2.5
-5 -3 11 19.6 1.93
-5 -3 11 20.05 1.2
-5 -3 11 19.89 1.26
-5 -3 11 19.41 1.67
5 3 -11 21.68 1.74
5 3 -11 20.67 1.62
-5 -4 11 6.75 1.31
-5 -4 11 6.33 1.11
-5 -4 11 7.3 0.62
5 4 -11 6.28 1.14
5 4 -11 4.78 1.04
-5 -5 11 5.35 1.05
5 5 -11 5.12 1.05
-6 5 11 2.48 1.23
6 -5 -11 4.2 1.35
-6 4 11 9.21 1.58
-6 4 11 9.73 1.62
6 -4 -11 7.63 1.56
-6 3 11 1.04 0.94
-6 3 11 1.6 1.04
-6 3 11 0.89 0.87
6 -3 -11 0.49 1
6 -3 -11 2.65 0.66
6 -3 -11 4.09 1.14
6 -3 -11 1.17 0.66
-6 2 11 14.77 1.55
-6 2 11 11.83 1.56
-6 2 11 16.7 1.39
-6 2 11 12.29 1.49
6 -2 -11 14.84 1.68
6 -2 -11 12.69 1.21
6 -2 -11 19.52 1.75
6 -2 -11 9.19 1.46
-6 1 11 13.27 1.59
-6 1 11 10.18 1.28
-6 1 11 10.12 1.06
-6 1 11 9.95 1.02
-6 1 11 11.91 1.4
6 -1 -11 12.53 1.46
6 -1 -11 9.56 1.41
6 -1 -11 11.81 1.49
6 -1 -11 8.79 1.04
-6 0 11 67.46 2.09
-6 0 11 58.14 2.73
-6 0 11 68.49 2.07
-6 0 11 67.41 2.6
6 0 -11 64.47 2.28
6 0 -11 62.33 2.69
6 0 -11 64.23 2.77
6 0 -11 64.95 2.89
6 0 -11 66.46 2.73
-6 -1 11 8.73 1.12
-6 -1 11 8.69 1.48
-6 -1 11 12.04 1.44
-6 -1 11 11.08 1.14
-6 -1 11 11.01 0.74
-6 -1 11 9.53 0.7
6 1 -11 9.01 1.31
6 1 -11 9.73 1.2
6 1 -11 9.46 1.21
6 1 -11 11.97 1.12
6 1 -11 9.72 1.27
-6 -2 11 14.42 1.21
-6 -2 11 15.17 1.77
-6 -2 11 15.33 1.29
-6 -2 11 17.57 1.62
6 2 -11 16.49 1.2
6 2 -11 12.2 1.38
6 2 -11 14.78 1.45
6 2 -11 15.51 1.48
6 2 -11 13.72 1.45
-6 -3 11 0.81 0.54
-6 -3 11 0.39 0.78
-6 -3 11 1.6 1.1
-6 -3 11 1.65 0.59
6 3 -11 0.97 0.81
-6 -4 11 10.54 1.59
-6 -4 11 11.11 1.28
6 4 -11 9.73 1.3
-6 -5 11 2.73 0.91
6 5 -11 1.54 0.82
6 5 -11 3.08 0.95
-7 5 11 2.55 1.25
7 -5 -11 0.16 1.16
-7 4 11 11.92 1.88
-7 4 11 15.3 1.92
7 -4 -11 13.52 1.92
-7 3 11 0.81 0.94
-7 3 11 0.06 0.98
-7 3 11 0.8 1.06
7 -3 -11 0.93 1.02
7 -3 -11 0.46 1.07
7 -3 -11 0.9 0.52
7 -3 -11 1.89 0.76
-7 2 11 2.31 0.74
-7 2 11 1.1 0.88
-7 2 11 1.52 1.02
-7 2 11 0.22 0.77
7 -2 -11 0.66 1.02
7 -2 -11 0.63 0.8
7 -2 -11 1.38 0.68
7 -2 -11 0.65 1.02
-7 1 11 2.18 0.84
-7 1 11 4.2 0.81
-7 1 11 2.9 0.73
-7 1 11 2.24 1.06
-7 1 11 2.9 0.96
7 -1 -11 1.3 0.7
7 -1 -11 0.34 0.93
7 -1 -11 3.77 1.02
7 -1 -11 2.86 1.04
-7 0 11 4.22 1.26
-7 0 11 5.01 0.76
-7 0 11 4.98 0.99
-7 0 11 4.33 0.72
-7 0 11 4.1 1.1
7 0 -11 4.15 1.04
7 0 -11 3.1 1
7 0 -11 5.52 1.22
7 0 -11 4.35 1.06
7 0 -11 5.67 0.92
-7 -1 11 3.38 0.85
-7 -1 11 2.46 0.75
-7 -1 11 2.67 0.35
-7 -1 11 3.29 0.99
-7 -1 11 3.05 1.19
7 1 -11 1.94 0.94
7 1 -11 3.17 1.01
7 1 -11 3.41 0.94
7 1 -11 3.02 0.94
-7 -2 11 0 1.02
-7 -2 11 1.46 0.67
-7 -2 11 0.47 0.62
-7 -2 11 1.4 0.86
7 2 -11 3.36 1
7 2 -11 1.85 0.85
7 2 -11 0.51 0.85
-7 -3 11 0.36 0.98
-7 -3 11 1.1 0.86
-7 -3 11 1.67 0.58
7 3 -11 0.82 0.8
-7 -4 11 13.44 1.82
-7 -4 11 12.3 1.35
7 4 -11 11.7 1.38
-7 -5 11 0.75 0.74
7 5 -11 -1.24 0.7
-8 5 11 3.35 1.32
8 -5 -11 2.61 1.34
-8 4 11 8.79 1.61
-8 4 11 14.68 2.01
8 -4 -11 10.87 1.08
8 -4 -11 12.82 1.96
-8 3 11 2.45 1.25
-8 3 11 3.88 1.17
-8 3 11 2.02 1.06
-8 3 11 1.46 1.19
8 -3 -11 -0.21 1.06
8 -3 -11 1.17 1.15
-8 2 11 0.84 0.83
-8 2 11 1.47 0.78
-8 2 11 2.97 1.27
-8 2 11 1.91 1.12
-8 2 11 0.52 0.97
8 -2 -11 0.89 0.84
8 -2 -11 1.64 1.16
8 -2 -11 1.68 1.02
-8 1 11 4.31 1.06
-8 1 11 3.97 1.24
-8 1 11 4.08 0.97
-8 1 11 6.1 0.92
-8 1 11 2.86 1.23
-8 1 11 4.92 0.84
8 -1 -11 4.81 1.3
8 -1 -11 5.65 1.23
8 -1 -11 4.06 1.09
-8 0 11 6.26 1.08
-8 0 11 6.65 1.47
-8 0 11 5.02 1.2
-8 0 11 7.72 0.84
-8 0 11 6.07 0.81
8 0 -11 6.91 1.23
8 0 -11 9.04 1.1
8 0 -11 7.02 1.34
8 0 -11 6.23 1.2
-8 -1 11 4.87 0.95
-8 -1 11 2.43 1.01
-8 -1 11 3.66 1.32
8 1 -11 2.48 0.94
8 1 -11 4.25 1.13
8 1 -11 5.21 1.07
-8 -2 11 2.75 0.97
-8 -2 11 1.55 0.71
-8 -2 11 0.81 1.06
8 2 -11 1.32 0.83
8 2 -11 1.33 0.9
-8 -3 11 2.33 0.91
-8 -3 11 2.06 1.22
-8 -3 11 2.17 0.57
8 3 -11 2.12 0.89
-8 -4 11 12.13 1.34
-8 -4 11 12.39 1.89
8 4 -11 12.01 1.38
-8 -5 11 0.24 0.69
8 5 -11 0.93 0.81
9 -5 -11 8.72 1.9
-9 4 11 15.51 2.08
9 -4 -11 12.35 1.93
-9 3 11 0.27 1.13
-9 3 11 1.57 1.17
9 -3 -11 -0.52 1.08
9 -3 -11 1.18 1.1
-9 2 11 13 1.83
-9 2 11 10.91 1.68
-9 2 11 12.83 1.71
-9 2 11 13.7 1.33
9 -2 -11 12.84 1.85
9 -2 -11 12.32 1.63
9 -2 -11 14.81 1.86
-9 1 11 31.78 2.43
-9 1 11 31.69 2.04
-9 1 11 32.06 1.61
-9 1 11 31.95 1.6
-9 1 11 29.72 2.43
9 -1 -11 28.41 2.23
9 -1 -11 29.65 2.17
9 -1 -11 31.08 2.42
-9 0 11 2.14 1.22
-9 0 11 0.68 0.91
-9 0 11 2.47 0.63
-9 0 11 2.75 0.65
-9 0 11 3.25 0.94
9 0 -11 1.88 1.11
9 0 -11 2.63 1.11
9 0 -11 0.94 0.88
-9 -1 11 31.6 2.52
-9 -1 11 30.35 2.19
9 1 -11 31.51 2.08
9 1 -11 32.16 2.2
-9 -2 11 17.09 2.15
-9 -2 11 10.94 1.42
9 2 -11 10.56 1.4
-9 -3 11 0.59 0.82
-9 -3 11 1.12 1.22
-9 -3 11 0.51 0.41
9 3 -11 -0.3 0.76
-9 -4 11 15.26 2.12
-9 -4 11 15.94 1.47
9 4 -11 13.25 1.48
9 5 -11 9.44 1.31
-10 4 11 4.84 1.61
10 -4 -11 2.75 1.49
-10 3 11 0.16 1.23
10 -3 -11 1.85 1.26
-10 2 11 17.14 2.18
-10 2 11 20.08 2.28
-10 2 11 21.39 1.55
10 -2 -11 23.79 2.21
10 -2 -11 21.69 2.24
-10 1 11 25.51 1.51
-10 1 11 27.84 2.44
-10 1 11 31.05 2.44
-10 1 11 23.63 1.5
10 -1 -11 23.75 2.24
10 -1 -11 23.15 2.17
10 -1 -11 25.75 2.14
-10 0 11 0.12 0.95
-10 0 11 0.97 0.57
-10 0 11 0.73 0.52
-10 0 11 0.53 1.1
10 0 -11 1.21 0.96
10 0 -11 -0.23 1.03
-10 -1 11 30.24 2.55
-10 -1 11 24.71 2.16
10 1 -11 26.67 2.02
10 1 -11 26.74 2.22
-10 -2 11 21.47 2.35
-10 -2 11 18.63 1.82
10 2 -11 25.55 1.9
-10 -3 11 1.96 0.95
-10 -3 11 1.55 1.29
10 3 -11 1.39 0.92
-10 -4 11 7.21 1.13
-10 -4 11 2.53 1.33
10 4 -11 5.82 1.16
-11 4 11 0.02 1.32
11 -4 -11 -0.91 1.23
-11 3 11 0.82 1.32
11 -3 -11 -2.17 1.03
-11 2 11 10.09 1.28
-11 2 11 8.87 1.8
11 -2 -11 9.49 1.72
-11 1 11 1.28 0.75
-11 1 11 1.73 1.29
-11 1 11 0.73 0.69
-11 1 11 1.6 1.19
11 -1 -11 1.7 1.09
11 -1 -11 1.97 1.2
-11 0 11 1.14 1.12
-11 0 11 3.37 0.54
-11 0 11 3.63 0.56
-11 0 11 2.31 1.34
11 0 -11 5.63 1.32
11 0 -11 2.95 1.25
-11 -1 11 1.82 1.1
-11 -1 11 0.28 1.2
11 1 -11 0.53 0.99
11 1 -11 1.89 1.06
-11 -2 11 9.92 1.96
-11 -2 11 11.62 1.56
11 2 -11 10.77 1.52
-11 -3 11 -0.58 0.84
-11 -3 11 -0.81 1.32
11 3 -11 1.09 0.9
-11 -4 11 1.31 1.46
11 4 -11 -0.03 0.85
-12 3 11 1.27 1.42
12 -3 -11 0.32 1.37
-12 2 11 8.86 1.21
-12 2 11 11.24 1.92
12 -2 -11 12.16 2.01
-12 1 11 1.05 0.73
-12 1 11 0.32 0.66
-12 1 11 0.15 1.3
12 -1 -11 1.88 1.19
12 -1 -11 2.03 1.3
-12 0 11 -1.44 1.08
12 0 -11 -0.25 0.97
12 0 -11 -1.33 0.99
-12 -1 11 -1.23 1.15
12 1 -11 -0.56 0.91
-12 -2 11 12.6 2.2
12 2 -11 9.44 1.52
-12 -3 11 -0.17 1.28
12 3 -11 0.09 0.91
-13 2 11 13.03 2.15
-13 2 11 9.49 1.28
13 -2 -11 12.88 2.11
-13 1 11 4.23 1.75
-13 1 11 4.46 0.85
-13 1 11 4.84 0.89
13 -1 -11 5.33 1.51
13 -1 -11 6.82 1.68
-13 0 11 7.36 1.92
13 0 -11 9.74 1.75
-13 -1 11 6.04 1.75
13 1 -11 5.44 1.45
-13 -2 11 10.39 2.15
13 2 -11 12.47 1.75
-14 1 11 1.8 0.65
-14 1 11 1.77 1.49
-14 1 11 1 0.63
14 -1 -11 2.36 1.39
-14 0 11 13.29 2.39
14 0 -11 16.73 2.2
14 1 -11 2.92 1.27
9 1 12 6.78 1.66
-9 -1 -12 5.07 1.7
-9 -1 -12 6.79 1.54
9 0 12 2.26 1.35
-9 0 -12 -0.62 1.34
-9 0 -12 -0.35 0.97
9 -1 12 8.24 1.8
-9 1 -12 7.5 1.16
-9 1 -12 7.08 1.94
-9 1 -12 7.63 1.57
8 2 12 2.57 1.28
-8 -2 -12 1.91 1.19
-8 -2 -12 0.96 1.28
8 1 12 14.5 1.99
-8 -1 -12 13.62 2.11
-8 -1 -12 14.53 1.97
8 0 12 1.38 1.22
8 0 12 1.03 1.24
-8 0 -12 0.49 0.96
-8 0 -12 0.59 1.32
8 -1 12 15.21 2.19
-8 1 -12 14.98 1.43
-8 1 -12 12.54 2.14
-8 1 -12 15.34 1.94
8 -2 12 2.26 1.43
-8 2 -12 -1.03 0.9
-8 2 -12 0.27 1.38
7 3 12 2.22 1.18
-7 -3 -12 -1.45 0.87
-7 -3 -12 0.72 1.16
7 2 12 7.38 1.55
-7 -2 -12 6.99 1.59
-7 -2 -12 5.4 1.4
7 1 12 16.82 2.05
7 1 12 13.68 1.85
-7 -1 -12 14.34 2.05
-7 -1 -12 12.38 1.81
7 0 12 -0.63 1.05
7 0 12 -0.5 0.94
-7 0 -12 -1.15 1.14
-7 0 -12 0.61 0.93
7 -1 12 14.72 2
-7 1 -12 11.73 1.98
-7 1 -12 13.37 1.41
7 -2 12 5.06 1.6
-7 2 -12 5.15 1.16
-7 2 -12 8.37 1.9
7 -3 12 1.2 0.92
7 -3 12 -0.26 1.22
-7 3 -12 0.43 1.36
6 4 12 0.83 1.06
-6 -4 -12 0.02 1.05
-6 -4 -12 1.14 1.15
6 3 12 20.32 2.14
-6 -3 -12 18.11 2.18
-6 -3 -12 19.83 2.17
6 2 12 4.15 1.3
-6 -2 -12 5.33 1.34
-6 -2 -12 4.19 1.37
6 1 12 10.3 1.63
6 1 12 10.69 1.65
-6 -1 -12 10.16 1.66
-6 -1 -12 11.47 1.8
6 0 12 1.42 1.13
6 0 12 0.55 1
-6 0 -12 0.02 1.13
6 -1 12 11.76 1.83
-6 1 -12 9.81 1.83
-6 1 -12 10.9 1.3
6 -2 12 5.43 1.12
6 -2 12 4.94 1.55
6 -2 12 6.68 1.45
-6 2 -12 4.4 1.12
-6 2 -12 5.85 1.59
6 -3 12 22.27 2.53
6 -3 12 19.46 1.63
-6 3 -12 15.28 2.17
6 -4 12 -0.07 1.24
6 -4 12 2.72 0.8
-6 4 -12 -0.05 1.3
5 4 12 11.82 1.71
-5 -4 -12 10.28 1.6
-5 -4 -12 11.87 1.94
5 3 12 6.51 1.37
-5 -3 -12 5.14 1.37
-5 -3 -12 3.79 1.34
5 2 12 -0.37 0.89
5 2 12 0.46 0.92
-5 -2 -12 1.32 1.02
-5 -2 -12 1.58 1.17
5 1 12 29.85 2.42
5 1 12 27.57 2.27
-5 -1 -12 34.56 2.56
-5 -1 -12 34.12 2.41
5 0 12 18.55 2.01
5 0 12 21.13 2.12
-5 0 -12 19.1 2.18
5 -1 12 27.08 2.24
5 -1 12 27.33 2.51
5 -1 12 28.96 2.12
5 -1 12 27.89 1.85
-5 1 -12 24.63 2.45
-5 1 -12 28.67 1.71
5 -2 12 1.44 0.8
5 -2 12 -0.45 0.9
5 -2 12 -1.19 0.98
-5 2 -12 1.35 1.22
-5 2 -12 2.11 0.95
5 -3 12 5.64 1.56
5 -3 12 5.62 1.01
-5 3 -12 4.88 1.55
5 -4 12 11.49 1.06
5 -4 12 11.82 1.05
5 -4 12 10.35 1.88
-5 4 -12 12.18 1.98
4 4 12 0.98 0.95
-4 -4 -12 4.22 1.31
-4 -4 -12 2.92 1.17
4 3 12 13.31 1.73
-4 -3 -12 14.09 1.9
-4 -3 -12 12.97 1.82
4 2 12 5.81 1.26
4 2 12 4.85 1.29
-4 -2 -12 6.79 1.49
-4 -2 -12 3.11 1.12
4 1 12 13.82 1.8
4 1 12 16.01 1.82
-4 -1 -12 11.36 1.71
4 0 12 6.89 1.34
4 0 12 7 1.32
4 0 12 8.39 1.49
-4 0 -12 7.44 1.55
4 -1 12 14.71 1.86
4 -1 12 16.6 1.82
4 -1 12 11.91 1.33
4 -1 12 14.89 1.74
-4 1 -12 16.47 1.8
-4 1 -12 13.95 1.89
-4 1 -12 12.01 1.3
4 -2 12 4.09 1.33
4 -2 12 4.32 0.95
4 -2 12 4.82 1.21
-4 2 -12 5.98 1.32
-4 2 -12 5.38 1.1
-4 2 -12 2.87 1.29
-4 2 -12 6.99 1.43
4 -3 12 12.97 1.92
4 -3 12 12.15 1.21
4 -3 12 12.93 1.24
-4 3 -12 14.97 1.88
-4 3 -12 11.48 1.85
-4 3 -12 13.99 1.9
4 -4 12 2.82 1.35
4 -4 12 1.69 0.57
4 -4 12 2.81 0.65
-4 4 -12 2.7 1.31
-4 4 -12 3.05 1.39
3 5 12 23.59 2.2
-3 -5 -12 24.72 2.14
-3 -5 -12 24.71 2.57
3 4 12 0.62 0.91
-3 -4 -12 1.94 1.11
-3 -4 -12 0.81 1.09
3 3 12 7.05 1.36
-3 -3 -12 7.43 1.46
-3 -3 -12 7.31 1.48
3 2 12 5.31 1.26
3 2 12 3.47 1.08
3 2 12 4.22 1.18
-3 -2 -12 4.01 1.22
-3 -2 -12 6.33 1.4
3 1 12 0.88 0.99
3 1 12 4.32 1.12
3 1 12 1.54 0.94
-3 -1 -12 1.4 1.12
3 0 12 14.91 1.73
3 0 12 12.18 1.25
3 0 12 15.52 1.63
3 0 12 16.19 1.79
-3 0 -12 13.26 1.76
3 -1 12 2.7 0.82
3 -1 12 2.21 1.01
3 -1 12 0.13 0.91
3 -1 12 1.98 0.92
-3 1 -12 1.61 1.15
-3 1 -12 3.58 0.91
-3 1 -12 2.17 1.03
-3 1 -12 2.73 0.98
3 -2 12 6.22 1.23
3 -2 12 4.56 0.91
3 -2 12 6.03 0.96
3 -2 12 7.05 1.43
-3 2 -12 6.88 1.35
-3 2 -12 4.92 1.25
-3 2 -12 4.76 1.02
-3 2 -12 3.56 1.31
3 -3 12 7.57 0.96
3 -3 12 7.87 1
3 -3 12 8.26 1.6
-3 3 -12 7.32 1.46
-3 3 -12 10.52 1.56
-3 3 -12 5.86 1.47
3 -4 12 0.43 1.05
-3 4 -12 0.34 1.05
-3 4 -12 -0.26 1.1
3 -5 12 28.27 2.62
-3 5 -12 23.18 2.41
2 5 12 3.55 1.2
-2 -5 -12 3.58 1.27
-2 -5 -12 3.03 1.18
2 4 12 4.92 1.23
-2 -4 -12 4.32 1.24
-2 -4 -12 4.73 1.24
2 3 12 11.96 1.6
2 3 12 13.85 1.62
-2 -3 -12 12.92 1.67
-2 -3 -12 17.47 1.97
2 2 12 7.64 1.37
2 2 12 5.07 1.16
2 2 12 7.99 1.35
2 2 12 8.84 1.38
-2 -2 -12 5.85 1.38
-2 -2 -12 8.94 1.47
2 1 12 17.58 1.77
2 1 12 17.09 1.71
2 1 12 18.03 1.34
2 1 12 18.2 1.78
2 1 12 13.88 1.63
-2 -1 -12 16.72 1.87
2 0 12 -0.5 0.59
2 0 12 0.1 0.78
2 0 12 -0.49 0.61
2 0 12 1.28 0.97
2 0 12 -0.5 0.77
-2 0 -12 0.25 0.74
-2 0 -12 -0.67 0.92
2 -1 12 14.28 1.3
2 -1 12 18.25 1.88
2 -1 12 16.18 1.67
2 -1 12 16.25 1.34
2 -1 12 16.15 1.61
-2 1 -12 17.79 1.76
-2 1 -12 14.77 1.35
-2 1 -12 15.71 1.85
-2 1 -12 16.49 1.69
2 -2 12 6.5 1.25
2 -2 12 5.78 0.89
2 -2 12 6.25 0.92
2 -2 12 6.9 1.38
-2 2 -12 8.38 1.15
-2 2 -12 4.88 1.28
-2 2 -12 5.83 1.22
-2 2 -12 7.69 1.34
2 -3 12 13.01 1.06
2 -3 12 10.71 1.66
2 -3 12 10.82 0.98
-2 3 -12 10.54 1.53
-2 3 -12 12.31 1.68
-2 3 -12 10.11 1.64
2 -4 12 5.59 1.39
-2 4 -12 5.19 1.32
-2 4 -12 5.67 1.41
2 -5 12 3.45 1.33
-2 5 -12 2.83 1.28
1 5 12 0.64 0.95
-1 -5 -12 -0.92 0.86
-1 -5 -12 -0.56 0.88
1 4 12 4.29 1.22
-1 -4 -12 6.57 1.33
-1 -4 -12 6.13 1.33
1 3 12 14.4 1.67
1 3 12 13.27 1.65
-1 -3 -12 11.33 1.64
-1 -3 -12 10.9 1.51
1 2 12 -0.93 0.67
1 2 12 1.1 0.85
1 2 12 0.71 0.87
1 2 12 1.39 0.89
-1 -2 -12 -0.06 0.98
1 1 12 7.92 1
1 1 12 8 1.27
1 1 12 6.95 1.22
1 1 12 6.55 0.99
1 1 12 7.35 1.35
1 1 12 7.87 1.3
-1 -1 -12 7.27 1.34
1 0 12 0.1 0.88
1 0 12 0.91 0.76
1 0 12 -0.36 0.72
1 0 12 0.8 0.57
1 0 12 0.32 0.78
1 0 12 -0.16 0.62
-1 0 -12 0.57 0.96
-1 0 -12 -0.57 0.65
1 -1 12 7.64 0.97
1 -1 12 5.86 0.9
1 -1 12 6.45 1.13
1 -1 12 7.01 1.23
1 -1 12 7.16 1.31
-1 1 -12 6.52 1.2
-1 1 -12 7.35 1.05
-1 1 -12 6.61 1.18
-1 1 -12 6.24 1.23
-1 1 -12 5.64 1.31
1 -2 12 1.17 0.68
1 -2 12 0.08 0.82
1 -2 12 1.19 0.61
1 -2 12 -0.23 0.86
-1 2 -12 1.63 0.8
-1 2 -12 -0.64 0.93
-1 2 -12 0.78 0.91
-1 2 -12 1.82 0.92
1 -3 12 12.43 0.9
1 -3 12 10.16 1.54
1 -3 12 10.97 0.91
-1 3 -12 14.08 1.65
-1 3 -12 12.32 1.59
-1 3 -12 9.54 1.55
1 -4 12 7.44 1.45
-1 4 -12 7.18 1.41
-1 4 -12 6.16 1.38
1 -5 12 0.29 1.04
-1 5 -12 1 1.06
0 5 12 8.76 1.5
0 -5 -12 9.94 1.63
0 -5 -12 6.71 1.39
0 4 12 2.56 1.06
0 -4 -12 1.42 1.06
0 -4 -12 1.51 0.96
0 3 12 27.75 2.1
0 3 12 27.94 2.12
0 3 12 24.85 1.86
0 -3 -12 26.29 2.22
0 -3 -12 23.18 1.91
0 2 12 36.97 1.84
0 2 12 35.11 2.19
0 2 12 36.56 2.34
0 2 12 39.16 2.19
0 2 12 36.9 1.73
0 2 12 36.6 2.27
0 -2 -12 35.35 2.4
0 1 12 36.26 2
0 1 12 31.76 2.18
0 1 12 33.84 2.04
0 1 12 29.8 1.66
0 1 12 31.46 2.04
0 1 12 32.78 1.64
0 -1 -12 33.05 1.94
0 -1 -12 32.9 2.34
0 0 12 13.86 1.41
0 0 12 13.34 1.48
0 0 12 14.43 1.51
0 0 12 12.55 1.5
0 0 12 11.98 1.14
0 0 -12 10.32 1.47
0 0 -12 11.23 1.4
0 -1 12 34.08 2.02
0 -1 12 33.67 1.6
0 -1 12 31.47 2.14
0 -1 12 33.89 1.98
0 -1 12 34.22 1.59
0 -1 12 37.32 2.08
0 1 -12 33.78 2.26
0 1 -12 37.53 2.16
0 1 -12 32.79 2.07
0 1 -12 30.39 1.59
0 -2 12 35.54 2.31
0 -2 12 35.29 2.1
0 -2 12 38.44 2.09
0 -2 12 37.78 1.53
0 -2 12 34.85 1.54
0 2 -12 34.06 2.28
0 2 -12 36.42 1.8
0 2 -12 35.74 2.14
0 2 -12 36.63 2.15
0 -3 12 24.98 2.19
0 -3 12 24.02 0.94
0 -3 12 24.28 0.92
0 3 -12 25.43 2.02
0 3 -12 21.86 2
0 3 -12 23.21 1.83
0 -4 12 0.83 0.96
0 4 -12 1.6 1.01
0 4 -12 1.04 1.05
0 -5 12 9.99 1.56
0 5 -12 7.43 1.47
-1 5 12 8.37 1.48
1 -5 -12 8.57 1.49
1 -5 -12 7.84 1.44
-1 4 12 2.88 1.08
1 -4 -12 2.37 0.98
1 -4 -12 3.07 1.19
-1 3 12 27.67 2.07
-1 3 12 26.91 1.91
-1 3 12 28.33 2.15
1 -3 -12 26.69 1.97
1 -3 -12 24.05 2.14
-1 2 12 13.03 1.6
-1 2 12 12.39 1.2
-1 2 12 12.83 1.21
-1 2 12 15.7 1.61
-1 2 12 15.18 1.68
-1 2 12 16.51 1.64
1 -2 -12 11.4 1.58
-1 1 12 8.68 1.2
-1 1 12 7.83 0.94
-1 1 12 9.26 1.37
-1 1 12 8.52 1.24
-1 1 12 8.94 1.28
-1 1 12 7.19 0.99
1 -1 -12 7.43 1.11
1 -1 -12 7.39 1.33
-1 0 12 1.32 0.79
-1 0 12 2.23 0.82
-1 0 12 1.6 0.66
-1 0 12 1.64 0.93
-1 0 12 1.48 0.79
1 0 -12 1.58 0.82
1 0 -12 1.98 1
-1 -1 12 7.35 1.15
-1 -1 12 9.39 1.24
-1 -1 12 9.66 1
-1 -1 12 8.74 0.92
-1 -1 12 11 1.35
-1 -1 12 9.37 1.41
1 1 -12 6.84 1.3
1 1 -12 8.81 1.04
1 1 -12 5.49 1.09
1 1 -12 8.5 1.23
-1 -2 12 13.73 1.42
-1 -2 12 13.61 1.61
-1 -2 12 11.78 1.3
-1 -2 12 13.18 0.97
-1 -2 12 13.47 0.97
1 2 -12 13.1 1.55
1 2 -12 11.28 1.4
1 2 -12 13.22 1.21
-1 -3 12 24.72 2.04
1 3 -12 28.43 2.05
1 3 -12 29.02 2.06
1 3 -12 28.89 2
-1 -4 12 1.56 0.99
1 4 -12 3.37 1.09
-1 -5 12 6.78 1.36
1 5 -12 6.12 1.32
-2 5 12 4.78 1.3
2 -5 -12 4.41 1.14
2 -5 -12 3.42 1.26
-2 4 12 2.77 1.12
-2 4 12 4.6 1.23
2 -4 -12 4.26 1.03
2 -4 -12 1.75 1.17
-2 3 12 3.62 1.07
-2 3 12 2.71 1.07
-2 3 12 1.11 0.87
2 -3 -12 1.48 1.05
2 -3 -12 3.11 0.91
-2 2 12 2.37 0.91
-2 2 12 2.57 0.97
-2 2 12 4.11 1.05
-2 2 12 2.41 0.75
-2 2 12 2.46 0.72
2 -2 -12 2.16 1.08
-2 1 12 29.3 1.53
-2 1 12 32.43 2.06
-2 1 12 29.29 1.81
-2 1 12 32.15 1.94
-2 1 12 27.19 1.99
-2 1 12 30.35 1.56
2 -1 -12 25.5 2.1
2 -1 -12 31.02 1.95
-2 0 12 12.57 1.49
-2 0 12 10.64 1.05
-2 0 12 10.76 1.28
-2 0 12 12.83 1.42
-2 0 12 11.26 1.35
-2 0 12 11.74 1.08
2 0 -12 11.76 1.34
2 0 -12 12.49 1.54
-2 -1 12 30.45 2.05
-2 -1 12 28.41 1.42
-2 -1 12 31.64 1.77
-2 -1 12 31.24 1.86
-2 -1 12 29.03 1.38
-2 -1 12 29.68 1.8
2 1 -12 31.38 1.99
2 1 -12 28.66 2.04
2 1 -12 28.81 1.54
2 1 -12 29.13 1.86
-2 -2 12 2.76 0.84
-2 -2 12 3.01 0.58
-2 -2 12 2.44 0.53
-2 -2 12 3.22 1.03
2 2 -12 2.8 0.75
2 2 -12 1.73 0.94
2 2 -12 2.89 0.97
2 2 -12 2.87 0.95
-2 -3 12 3.24 1.06
2 3 -12 2.33 1.07
2 3 -12 2.7 0.97
2 3 -12 2.73 0.93
-2 -4 12 2.43 1.04
-2 -4 12 3.12 1.03
2 4 -12 1.84 0.99
-2 -5 12 6.64 1.29
2 5 -12 4.59 1.19
-3 5 12 12.91 1.76
3 -5 -12 7.54 1.29
3 -5 -12 11.62 1.72
-3 4 12 3.32 1.18
-3 4 12 3.06 1.21
3 -4 -12 3.16 1.23
3 -4 -12 1.8 0.86
-3 3 12 7.02 1.38
-3 3 12 4.77 1.17
-3 3 12 7.58 1.37
3 -3 -12 5.37 1.05
3 -3 -12 3.01 1.14
-3 2 12 38.99 1.84
-3 2 12 38.64 1.81
-3 2 12 42.57 2.47
-3 2 12 36.65 2.19
-3 2 12 38.4 2.19
3 -2 -12 37.8 2.43
-3 1 12 35.58 2.26
-3 1 12 35.46 1.69
-3 1 12 37.28 1.69
-3 1 12 35.72 2.14
-3 1 12 33.19 1.99
3 -1 -12 35.48 2.08
3 -1 -12 35.22 2.22
-3 0 12 22.86 1.33
-3 0 12 22.69 1.95
-3 0 12 23.37 1.76
-3 0 12 22.37 1.62
-3 0 12 24.85 1.35
-3 0 12 23.42 1.59
3 0 -12 22.13 1.66
3 0 -12 26.84 2.06
3 0 -12 22.98 1.38
-3 -1 12 35.89 1.5
-3 -1 12 35.03 1.87
-3 -1 12 35.66 1.44
-3 -1 12 33.65 2.12
-3 -1 12 35.83 1.9
3 1 -12 36.7 1.68
3 1 -12 34.33 2.01
3 1 -12 36.02 1.68
3 1 -12 33.9 2.12
3 1 -12 36.49 2.17
-3 -2 12 38.47 1.18
-3 -2 12 39.05 1.21
-3 -2 12 38.6 2.29
-3 -2 12 40.99 1.99
3 2 -12 39.92 1.8
3 2 -12 39.01 2.21
3 2 -12 35.16 2.29
3 2 -12 37.97 2.17
-3 -3 12 5.57 0.96
-3 -3 12 4.62 1.13
3 3 -12 4.72 1.19
3 3 -12 5.88 1.16
-3 -4 12 2.91 0.99
-3 -4 12 0.41 0.94
3 4 -12 0.84 0.9
-3 -5 12 11.94 1.5
3 5 -12 9.58 1.43
-4 5 12 5.33 1.4
4 -5 -12 3.59 1.28
-4 4 12 1.97 1.11
-4 4 12 0.75 0.92
4 -4 -12 0.81 1.03
4 -4 -12 1.45 0.77
-4 3 12 72.77 3.12
-4 3 12 73.94 3.26
-4 3 12 76.51 3.28
4 -3 -12 71.69 3.35
4 -3 -12 75.23 2.89
4 -3 -12 75.49 3.11
-4 2 12 9.63 1.41
-4 2 12 9.62 1.13
-4 2 12 10.97 1.49
-4 2 12 11.12 1.12
-4 2 12 11.86 1.59
4 -2 -12 11.68 1.63
4 -2 -12 8.44 1.36
4 -2 -12 10.73 1.32
-4 1 12 25.58 1.77
-4 1 12 22.35 1.39
-4 1 12 24.77 2.05
-4 1 12 25.84 1.82
4 -1 -12 22.53 1.75
4 -1 -12 25.24 1.98
4 -1 -12 24.47 1.76
4 -1 -12 24.16 1.43
-4 0 12 19.25 1.78
-4 0 12 21.23 1.27
-4 0 12 22.42 1.63
-4 0 12 20.05 1.71
-4 0 12 20.25 1.52
-4 0 12 20.88 1.3
4 0 -12 22.93 1.97
4 0 -12 19.69 1.71
4 0 -12 20.76 1.41
-4 -1 12 23.63 1.9
-4 -1 12 24.73 1.66
-4 -1 12 26.24 1.68
-4 -1 12 21.15 1.14
-4 -1 12 23.68 1.2
4 1 -12 24.8 1.9
4 1 -12 23.5 1.5
4 1 -12 24.22 1.96
4 1 -12 22.94 1.42
4 1 -12 23.33 1.71
-4 -2 12 9.16 1.13
-4 -2 12 9.14 1.34
-4 -2 12 10.23 1.17
4 2 -12 11.06 1.15
4 2 -12 12.12 1.48
4 2 -12 10.9 1.37
-4 -3 12 75.5 3.29
-4 -3 12 70.24 2.53
-4 -3 12 73.57 3.02
4 3 -12 71.02 2.93
4 3 -12 69.87 2.98
4 3 -12 76.35 3
-4 -4 12 0.13 0.98
-4 -4 12 0.99 0.87
4 4 -12 1.97 0.91
-4 -5 12 3.81 1.08
4 5 -12 2.95 1.01
-5 5 12 32.11 2.56
5 -5 -12 33.43 2.56
-5 4 12 0.21 0.96
-5 4 12 0.58 1.07
5 -4 -12 -0.53 0.55
5 -4 -12 -0.29 1
-5 3 12 4.17 1.15
-5 3 12 0.53 0.88
-5 3 12 5.81 1.34
5 -3 -12 3.11 0.82
5 -3 -12 3.54 1.27
5 -3 -12 4.28 1.12
-5 2 12 1.88 0.9
-5 2 12 2.74 0.78
-5 2 12 3.88 1.06
-5 2 12 2.1 1.07
5 -2 -12 3.4 1.21
5 -2 -12 2.5 0.72
5 -2 -12 2.9 1.06
5 -2 -12 3.58 0.94
-5 1 12 39.89 1.72
-5 1 12 38.97 2.43
-5 1 12 38.19 2.14
-5 1 12 39.39 2.22
5 -1 -12 40.51 2.22
5 -1 -12 38.81 2.22
5 -1 -12 43.34 2.48
-5 0 12 6.17 1.24
-5 0 12 5.73 0.99
-5 0 12 4.78 0.79
-5 0 12 6.07 1.05
-5 0 12 5.63 0.82
5 0 -12 6.79 0.92
5 0 -12 5.56 1.08
5 0 -12 4.84 1.1
5 0 -12 5.89 1.25
-5 -1 12 35.42 2.25
-5 -1 12 39.11 1.99
-5 -1 12 41.43 1.48
-5 -1 12 38.72 1.94
-5 -1 12 38.38 1.41
5 1 -12 41.66 2.36
5 1 -12 40.8 2.2
5 1 -12 38.96 2.14
5 1 -12 41.43 2.3
5 1 -12 39.03 1.81
-5 -2 12 2.82 0.82
-5 -2 12 2.93 1.01
-5 -2 12 2.68 0.78
5 2 -12 3.22 1.02
5 2 -12 3.05 0.78
5 2 -12 2.39 0.93
-5 -3 12 3.07 0.75
-5 -3 12 3.92 1.17
-5 -3 12 3.93 1.06
5 3 -12 2.67 0.98
5 3 -12 4.75 1.09
-5 -4 12 -0.21 0.78
-5 -4 12 -0.03 0.92
5 4 -12 0.29 0.84
5 4 -12 1.38 0.86
-5 -5 12 28.8 1.91
5 5 -12 28.6 2.01
-6 5 12 11.66 1.86
6 -5 -12 10.45 1.83
-6 4 12 1.07 1.03
-6 4 12 3.58 1.26
6 -4 -12 2.18 1.25
-6 3 12 3.43 1.11
-6 3 12 4.57 1.33
-6 3 12 2.7 1.13
6 -3 -12 4.91 0.89
6 -3 -12 3.07 1.11
6 -3 -12 4.93 1.39
6 -3 -12 4.27 0.86
-6 2 12 25.3 1.87
-6 2 12 29.45 2.04
-6 2 12 21.75 2.08
-6 2 12 24.86 1.56
6 -2 -12 21.19 1.92
6 -2 -12 23.06 1.88
6 -2 -12 22.99 2.12
6 -2 -12 24.07 1.51
-6 1 12 25.25 1.45
-6 1 12 22.4 1.71
-6 1 12 23.78 1.78
-6 1 12 23.35 1.43
-6 1 12 29.81 2.22
6 -1 -12 25.66 2.08
6 -1 -12 23.68 1.9
6 -1 -12 28.4 1.96
-6 0 12 6.38 0.84
-6 0 12 6.24 1.11
-6 0 12 6.29 0.83
-6 0 12 3.81 1.1
6 0 -12 4.44 0.88
6 0 -12 5.72 1.17
6 0 -12 5.76 1.25
6 0 -12 6.86 1.22
-6 -1 12 27.48 1.11
-6 -1 12 25.42 1.07
-6 -1 12 23.67 1.97
-6 -1 12 23.05 1.54
6 1 -12 27.44 1.59
6 1 -12 23.86 1.88
6 1 -12 29 1.97
6 1 -12 25.86 1.83
-6 -2 12 21.93 1.43
-6 -2 12 25.53 1.53
-6 -2 12 23.05 1.87
-6 -2 12 23.78 2.1
6 2 -12 26.37 1.86
6 2 -12 23.16 1.9
6 2 -12 22.36 1.75
-6 -3 12 5.27 1.36
-6 -3 12 3.37 0.98
-6 -3 12 4.58 0.82
6 3 -12 2.62 0.99
-6 -4 12 1.43 0.89
-6 -4 12 2.29 1.14
-6 -4 12 1.95 0.4
6 4 -12 0.72 0.85
-6 -5 12 12.18 1.4
6 5 -12 9.95 1.32
6 5 -12 10.25 1.41
-7 5 12 4.95 1.46
7 -5 -12 1.45 1.31
-7 4 12 4.41 1.41
-7 4 12 2.59 1.19
7 -4 -12 3.11 1.38
-7 3 12 12.33 1.72
-7 3 12 11.35 1.79
-7 3 12 15.33 1.73
7 -3 -12 13.77 1.25
7 -3 -12 13.66 1.9
7 -3 -12 14.33 1.76
7 -3 -12 13.78 1.18
-7 2 12 31.02 1.74
-7 2 12 28.18 2.11
-7 2 12 27.55 2.06
-7 2 12 29.2 2.37
7 -2 -12 26.07 2.02
7 -2 -12 26.43 2.34
7 -2 -12 26.8 2.06
-7 1 12 22.38 2.1
-7 1 12 25 1.83
-7 1 12 24.23 1.49
-7 1 12 23.84 1.45
-7 1 12 25.79 1.85
7 -1 -12 24.93 1.9
7 -1 -12 25.09 1.97
7 -1 -12 27.47 2.24
-7 0 12 2.26 0.84
-7 0 12 2.34 1.06
-7 0 12 1.33 0.63
-7 0 12 1.63 0.65
7 0 -12 1.5 0.71
7 0 -12 1.16 0.95
7 0 -12 2.07 0.93
7 0 -12 0.87 1.04
-7 -1 12 24.27 1.89
-7 -1 12 23.08 0.91
-7 -1 12 23.9 1.63
-7 -1 12 25.74 2.25
7 1 -12 24.07 2.01
7 1 -12 23.07 1.86
7 1 -12 26.32 1.95
-7 -2 12 26.93 2
-7 -2 12 29.21 2.33
-7 -2 12 27.19 1.59
7 2 -12 28.42 1.93
7 2 -12 28.74 2.12
-7 -3 12 13.34 1.84
-7 -3 12 14.04 1.55
7 3 -12 12.11 1.45
-7 -4 12 2.04 1.22
-7 -4 12 2.36 0.97
7 4 -12 1.41 0.9
-7 -5 12 4.38 1.04
7 5 -12 2.65 1.01
-8 5 12 2.81 1.4
8 -5 -12 2.21 1.39
-8 4 12 1.94 1.21
-8 4 12 2.4 1.37
8 -4 -12 0.05 1.15
8 -4 -12 0.61 0.69
-8 3 12 -1.21 1.02
-8 3 12 2.24 1.08
-8 3 12 0.36 0.95
8 -3 -12 -0.06 1.09
8 -3 -12 0.63 1.14
-8 2 12 9.39 1.46
-8 2 12 7.46 1.13
-8 2 12 10.06 1.7
-8 2 12 10.32 1.49
8 -2 -12 9.8 1.53
8 -2 -12 9.72 1.67
-8 1 12 14.57 1.87
-8 1 12 18 1.35
-8 1 12 12.2 1.84
-8 1 12 14.81 1.26
-8 1 12 16.96 1.67
8 -1 -12 16.37 1.9
8 -1 -12 16.62 1.77
8 -1 -12 16.99 1.81
-8 0 12 18 1.14
-8 0 12 17.39 1.9
-8 0 12 16.58 1.12
-8 0 12 20.76 1.76
-8 0 12 19.86 2.17
8 0 -12 16.42 1.72
8 0 -12 18.72 1.75
8 0 -12 14.74 1.73
-8 -1 12 11.42 1.33
-8 -1 12 15.19 1.69
-8 -1 12 13.61 1.89
8 1 -12 12.9 1.6
8 1 -12 14.36 1.63
8 1 -12 13.97 1.6
-8 -2 12 8.21 1.67
-8 -2 12 10.17 1.42
8 2 -12 10.72 1.42
8 2 -12 11.67 1.43
-8 -3 12 1.43 1.13
-8 -3 12 0.64 0.84
8 3 -12 -0.23 0.77
-8 -4 12 0.88 1.24
-8 -4 12 0.18 0.82
8 4 -12 3.2 1.02
-8 -5 12 4.01 0.97
8 5 -12 2.87 1.04
-9 4 12 1.2 1.26
9 -4 -12 1.28 1.27
-9 3 12 3.85 1.41
-9 3 12 6.07 1.64
9 -3 -12 4.65 1.48
-9 2 12 5.15 1.45
-9 2 12 3.31 1.34
-9 2 12 2.59 0.93
9 -2 -12 2.12 1.19
9 -2 -12 5.31 1.44
-9 1 12 0.75 0.72
-9 1 12 0.18 1.16
-9 1 12 0.42 1.02
-9 1 12 0.06 0.68
9 -1 -12 0.31 0.9
9 -1 -12 -1.02 0.9
9 -1 -12 1.59 1.14
-9 0 12 0.42 0.95
-9 0 12 1.93 1.24
-9 0 12 0.5 0.59
-9 0 12 -0.63 0.51
9 0 -12 0.32 0.87
9 0 -12 -1.03 0.94
9 0 -12 -0.57 0.96
-9 -1 12 -0.6 0.87
-9 -1 12 -0.33 1.09
9 1 -12 1.45 1.04
9 1 -12 2.12 0.99
-9 -2 12 4.05 1.12
-9 -2 12 3.1 1.39
9 2 -12 3.41 1.06
-9 -3 12 4.79 1.14
-9 -3 12 4.7 1.54
9 3 -12 2.57 1.03
-9 -4 12 1.08 0.86
-9 -4 12 0.05 1.25
9 4 -12 1.32 0.91
-10 4 12 0.25 1.38
10 -4 -12 1.6 1.35
-10 3 12 14.48 2.11
10 -3 -12 9.65 1.81
-10 2 12 9 1.72
-10 2 12 8.71 1.74
-10 2 12 8 1.18
10 -2 -12 6.34 1.52
10 -2 -12 9.73 1.75
-10 1 12 17.99 2.11
-10 1 12 11.89 1.95
-10 1 12 15.48 1.31
10 -1 -12 15.26 1.96
10 -1 -12 16.57 1.91
-10 0 12 0.46 0.97
-10 0 12 -0.17 0.53
-10 0 12 0.15 1.18
-10 0 12 -0.46 0.52
10 0 -12 0.78 0.95
10 0 -12 -1.41 0.9
-10 -1 12 13.96 1.7
-10 -1 12 14.87 2.08
10 1 -12 14.36 1.78
10 1 -12 13.36 1.65
-10 -2 12 7.56 1.37
-10 -2 12 8.96 1.82
10 2 -12 9.65 1.42
-10 -3 12 10.24 1.88
-10 -3 12 10.16 1.43
10 3 -12 13.16 1.58
-10 -4 12 2.43 1.33
-10 -4 12 1.43 0.9
10 4 -12 -0.1 0.82
-11 4 12 1.8 1.51
11 -4 -12 -0.18 1.33
-11 3 12 10.93 2.05
11 -3 -12 11.32 1.94
-11 2 12 8 1.85
-11 2 12 4.08 1.03
-11 2 12 4.25 1.48
11 -2 -12 5.21 1.51
-11 1 12 5.44 0.94
-11 1 12 5.11 0.94
-11 1 12 4.42 1.56
-11 1 12 4.49 1.42
11 -1 -12 5.72 1.38
11 -1 -12 8.29 1.66
-11 0 12 0.82 1.39
-11 0 12 2.91 1.22
-11 0 12 0.76 0.49
-11 0 12 0.75 0.5
11 0 -12 0.58 1.11
11 0 -12 1.44 1.06
-11 -1 12 3.26 1.46
-11 -1 12 4.93 1.3
11 1 -12 4.99 1.27
-11 -2 12 5.58 1.27
-11 -2 12 6.46 1.71
11 2 -12 5.52 1.3
-11 -3 12 14.59 2.25
-11 -3 12 14.6 1.68
11 3 -12 13.78 1.69
-11 -4 12 1.66 0.95
-11 -4 12 1.56 1.44
11 4 -12 1.25 0.94
-12 3 12 18.58 2.49
12 -3 -12 13.51 2.21
-12 2 12 0.35 1.47
-12 2 12 0.37 0.79
12 -2 -12 2.01 1.38
-12 1 12 6.73 1
-12 1 12 7.11 1.01
-12 1 12 5.68 1.68
12 -1 -12 6.04 1.59
12 -1 -12 7.97 1.6
-12 0 12 6.13 1.49
-12 0 12 5.87 1.68
12 0 -12 6.1 1.46
12 0 -12 4.89 1.45
-12 -1 12 5.66 1.69
-12 -1 12 5.96 1.46
12 1 -12 5.02 1.32
-12 -2 12 2.88 1.51
-12 -2 12 2.9 1.17
12 2 -12 1.91 1.07
-12 -3 12 15.56 2.37
12 3 -12 12.34 1.68
-13 2 12 0.88 0.92
-13 2 12 2.73 1.49
13 -2 -12 4.68 1.67
-13 1 12 1.54 0.76
-13 1 12 2.89 1.54
-13 1 12 2.73 0.83
13 -1 -12 0.73 1.32
-13 0 12 0.8 1.42
13 0 -12 -1.65 0.98
-13 -1 12 1.88 1.46
13 1 -12 3.05 1.26
-13 -2 12 2.37 1.67
13 2 -12 1.02 1.07
-14 1 12 10.57 0.98
-14 1 12 10.15 0.97
14 -1 -12 8.37 1.94
14 0 -12 1.28 1.4
14 1 -12 12.87 1.97
8 1 13 1.96 1.31
-8 -1 -13 0.06 1.08
-8 -1 -13 0.35 1.4
8 0 13 14.46 2.07
-8 0 -13 15.47 2.12
-8 0 -13 16.77 2.37
8 -1 13 0.59 1.29
-8 1 -13 1.93 1.49
-8 1 -13 0.47 0.81
-8 1 -13 -1.29 0.94
7 2 13 4.91 1.46
-7 -2 -13 6.19 1.58
-7 -2 -13 3.08 1.32
7 1 13 7.75 1.65
-7 -1 -13 7.34 1.6
-7 -1 -13 4.49 1.57
7 0 13 41.79 2.86
7 0 13 35.15 2.85
-7 0 -13 35.1 2.75
-7 0 -13 43.64 3.19
7 -1 13 4.7 1.54
-7 1 -13 5.14 1.12
-7 1 -13 6.25 1.74
7 -2 13 2.71 1.43
-7 2 -13 4.57 1.65
6 3 13 4.01 1.37
-6 -3 -13 7.06 1.61
-6 -3 -13 3.69 1.37
6 2 13 19.82 2.27
-6 -2 -13 16.43 2.1
-6 -2 -13 17.41 2.19
6 1 13 2.57 1.22
6 1 13 2.57 1.31
-6 -1 -13 2.49 1.17
-6 -1 -13 0.78 1.24
6 0 13 23.04 2.42
6 0 13 25.44 2.52
-6 0 -13 25.84 2.59
6 -1 13 2.67 1.35
-6 1 -13 2.16 0.91
-6 1 -13 -1 1.19
6 -2 13 18.92 2.3
-6 2 -13 15.86 2.2
6 -3 13 5.92 1.71
6 -3 13 3.39 1.01
-6 3 -13 3.96 1.59
5 4 13 26.19 2.43
-5 -4 -13 23.85 2.56
-5 -4 -13 24.71 2.35
5 3 13 1.02 1.11
-5 -3 -13 -0.06 1.11
-5 -3 -13 1.18 1.06
5 2 13 0.24 1.06
-5 -2 -13 -0.29 1.14
-5 -2 -13 1.32 1.05
5 1 13 0.7 1.02
5 1 13 2.81 1.21
-5 -1 -13 1.17 1.05
-5 -1 -13 1.51 1.26
5 0 13 0.92 1.05
5 0 13 -0.1 1.05
-5 0 -13 1.47 1.25
5 -1 13 1.28 1.17
-5 1 -13 1.98 0.88
-5 1 -13 2.19 1.38
5 -2 13 0.53 1.19
5 -2 13 -1.4 0.7
-5 2 -13 -0.45 1.14
5 -3 13 -0.94 0.71
5 -3 13 0.38 1.2
-5 3 -13 -0.01 1.19
5 -4 13 22.21 1.34
5 -4 13 23.95 1.4
5 -4 13 26.38 2.78
-5 4 -13 17.26 2.29
4 4 13 5.06 1.4
-4 -4 -13 5.48 1.41
-4 -4 -13 7.14 1.63
4 3 13 0.42 1
-4 -3 -13 0.23 0.97
-4 -3 -13 0.19 1.13
4 2 13 0.96 1.06
4 2 13 1.2 1.04
-4 -2 -13 2.67 1.27
-4 -2 -13 1.29 1.01
4 1 13 22.14 2.17
4 1 13 21.96 2.22
-4 -1 -13 20.99 2.21
4 0 13 49.19 2.87
4 0 13 50.07 2.88
-4 0 -13 50.28 3.06
4 -1 13 19.8 1.66
4 -1 13 26.28 2.24
4 -1 13 18.91 2.06
-4 1 -13 22.2 1.59
-4 1 -13 16.22 2.08
4 -2 13 2.79 1.07
4 -2 13 0.65 1.13
4 -2 13 2.24 0.86
-4 2 -13 1.99 1.29
4 -3 13 1.18 1.19
4 -3 13 -0.09 0.65
-4 3 -13 -0.3 1.1
4 -4 13 3.83 1.41
4 -4 13 5.97 0.77
4 -4 13 5.22 0.73
-4 4 -13 6.19 1.64
3 4 13 11.96 1.71
-3 -4 -13 13.01 1.94
-3 -4 -13 8.98 1.67
3 3 13 3.74 1.23
-3 -3 -13 5.41 1.32
-3 -3 -13 6.75 1.51
3 2 13 8.28 1.48
3 2 13 9.53 1.56
-3 -2 -13 10 1.67
-3 -2 -13 9.53 1.57
3 1 13 16.28 1.86
3 1 13 16.45 1.91
-3 -1 -13 17.14 1.99
3 0 13 15.65 1.89
3 0 13 13.69 1.71
3 0 13 15.33 1.44
3 0 13 14.93 1.69
-3 0 -13 10.69 1.69
3 -1 13 16.64 1.84
3 -1 13 18.53 2.09
3 -1 13 18.13 1.9
3 -1 13 15.84 1.45
-3 1 -13 12.47 1.81
-3 1 -13 17.01 1.82
-3 1 -13 15.96 1.46
3 -2 13 12.26 1.65
3 -2 13 11.81 1.26
3 -2 13 11.46 1.83
-3 2 -13 9.63 1.68
-3 2 -13 11.17 1.62
-3 2 -13 9.72 1.52
3 -3 13 4.56 0.85
3 -3 13 5.67 0.94
3 -3 13 5.79 1.51
-3 3 -13 1.56 1.22
-3 3 -13 5.75 1.5
-3 3 -13 7.42 1.44
3 -4 13 9.58 0.56
3 -4 13 9.95 1.85
-3 4 -13 10.62 1.77
-3 4 -13 10.75 1.88
2 5 13 0.99 1.09
-2 -5 -13 0.6 1.04
-2 -5 -13 1.56 1.13
2 4 13 13.62 1.78
-2 -4 -13 11.14 1.68
-2 -4 -13 9.98 1.65
2 3 13 9.86 1.55
-2 -3 -13 5.85 1.38
-2 -3 -13 7.82 1.5
2 2 13 5.96 1.25
2 2 13 5.42 1.26
2 2 13 6 1.34
-2 -2 -13 4.4 1.19
-2 -2 -13 4.41 1.32
2 1 13 13.62 1.67
2 1 13 14.81 1.77
2 1 13 14.17 1.71
2 1 13 12.51 1.59
-2 -1 -13 12.82 1.72
2 0 13 0.62 0.73
2 0 13 -0.1 0.82
2 0 13 -0.13 0.8
2 0 13 -1.37 0.88
-2 0 -13 0.27 1.02
2 -1 13 10.06 1.58
2 -1 13 13.64 1.62
2 -1 13 13.16 1.32
2 -1 13 12.44 1.56
-2 1 -13 11.67 1.53
-2 1 -13 13.55 1.33
-2 1 -13 13.68 1.61
-2 1 -13 11.06 1.56
-2 1 -13 13.02 1.8
2 -2 13 6.13 1.39
2 -2 13 5.52 0.92
2 -2 13 3.89 0.86
2 -2 13 4.23 1.12
-2 2 -13 6.29 1.3
-2 2 -13 4.15 1.31
-2 2 -13 7.03 1.36
2 -3 13 6.02 0.84
2 -3 13 8.07 0.94
2 -3 13 7.26 1.53
-2 3 -13 6.98 1.47
-2 3 -13 9.48 1.56
-2 3 -13 9.83 1.59
2 -4 13 10.06 1.72
-2 4 -13 9.27 1.66
-2 4 -13 10.31 1.78
2 -5 13 1.1 1.17
-2 5 -13 0.62 1.17
1 5 13 1.33 1.06
-1 -5 -13 0.99 1.08
-1 -5 -13 2.48 1.18
1 4 13 9.18 1.53
-1 -4 -13 9.81 1.58
-1 -4 -13 7.04 1.43
1 3 13 0.71 0.96
1 3 13 1.55 1.02
-1 -3 -13 3.42 1.13
-1 -3 -13 2.86 1.2
1 2 13 10.23 1.48
1 2 13 9.63 1.54
1 2 13 8.42 1.41
-1 -2 -13 7.41 1.5
1 1 13 19.46 1.81
1 1 13 16.18 1.8
1 1 13 20.25 1.55
1 1 13 19.97 1.95
1 1 13 22.33 2
-1 -1 -13 20.48 2.01
1 0 13 16.87 1.74
1 0 13 19.64 1.91
1 0 13 18.86 1.49
1 0 13 15.21 1.74
1 0 13 14.47 1.67
-1 0 -13 14.11 1.6
-1 0 -13 15.7 1.87
1 -1 13 20.52 1.42
1 -1 13 21.78 1.43
1 -1 13 20.75 2.06
1 -1 13 24.28 1.79
1 -1 13 22.67 2.01
1 -1 13 26.34 2.15
-1 1 -13 20.04 1.86
-1 1 -13 21.33 1.51
-1 1 -13 20.02 1.9
-1 1 -13 20.42 2.1
1 -2 13 9.04 1.06
1 -2 13 8.72 1.55
1 -2 13 7.04 1.24
1 -2 13 12.26 1.12
-1 2 -13 8.44 1.39
-1 2 -13 8.58 1.51
-1 2 -13 11.2 1.68
1 -3 13 2.4 1.13
1 -3 13 0.73 0.57
1 -3 13 0.85 0.55
-1 3 -13 1.46 1.01
-1 3 -13 1.79 1.06
-1 3 -13 0.79 1.06
1 -4 13 10.42 1.65
-1 4 -13 7.58 1.5
-1 4 -13 7.74 1.59
1 -5 13 0.92 1.08
-1 5 -13 1.47 1.19
0 5 13 2.55 1.16
0 -5 -13 1.04 1.13
0 -5 -13 1.47 1.05
0 4 13 2.59 1.17
0 -4 -13 3.66 1.28
0 -4 -13 3.87 1.16
0 3 13 1.14 0.98
0 3 13 -0.1 0.92
0 -3 -13 -0.32 0.79
0 -3 -13 0.22 1.03
0 2 13 7.03 1.28
0 2 13 8.62 1.36
0 2 13 7.27 1.39
0 2 13 8.36 1.31
0 -2 -13 6.82 1.38
0 1 13 11.34 1.21
0 1 13 10.12 1.37
0 1 13 9.82 1.42
0 1 13 9.85 1.48
0 1 13 10.4 1.45
0 -1 -13 13.55 1.77
0 0 13 26.14 1.83
0 0 13 25.27 1.96
0 0 13 23.35 1.51
0 0 13 22.79 2.05
0 0 13 19.41 1.86
0 0 -13 19.09 1.92
0 0 -13 23.59 1.98
0 -1 13 9.25 1.46
0 -1 13 10.83 1.11
0 -1 13 11.56 1.13
0 -1 13 12.64 1.48
0 -1 13 9.47 1.31
0 -1 13 12.57 1.56
0 1 -13 8.55 1.32
0 1 -13 9.26 1.15
0 1 -13 8.66 1.47
0 1 -13 10 1.4
0 -2 13 7.86 1.21
0 -2 13 7.07 0.93
0 -2 13 6.34 0.87
0 -2 13 7.66 1.38
0 2 -13 7.08 1.43
0 2 -13 6.97 1.31
0 2 -13 6.51 1.28
0 -3 13 0.11 0.45
0 -3 13 0.19 0.41
0 -3 13 0.53 0.99
0 3 -13 0.36 1.04
0 3 -13 -0.43 0.89
0 3 -13 0.1 1.01
0 -4 13 5.9 1.42
0 4 -13 6.68 1.42
0 -5 13 1.03 1.02
0 5 -13 1.99 1.15
-1 5 13 0.04 0.97
1 -5 -13 0.97 0.96
1 -5 -13 0.02 1.06
-1 4 13 10.7 1.61
1 -4 -13 8.73 1.58
1 -4 -13 13.02 1.7
-1 3 13 1.75 0.97
-1 3 13 2.99 1.14
-1 3 13 2.95 1.07
1 -3 -13 5.48 1.19
1 -3 -13 3.31 1.23
-1 2 13 12.17 1.54
-1 2 13 10.12 1.5
-1 2 13 13.06 1.57
-1 2 13 10.58 1.49
1 -2 -13 13.09 1.72
-1 1 13 16.44 1.83
-1 1 13 16.37 1.67
-1 1 13 14.75 1.57
-1 1 13 15.29 1.67
-1 1 13 17.6 1.41
-1 1 13 12.69 1.23
1 -1 -13 16.1 1.62
1 -1 -13 11.11 1.61
-1 0 13 67.24 2.87
-1 0 13 58.47 2.65
-1 0 13 66.31 2.33
-1 0 13 65.04 2.88
-1 0 13 66.38 3.05
1 0 -13 69.42 3.19
1 0 -13 61.76 2.78
-1 -1 13 15.01 1.78
-1 -1 13 15.69 1.6
-1 -1 13 15.16 1.22
-1 -1 13 16.35 1.6
-1 -1 13 12.6 1.14
-1 -1 13 14.09 1.59
1 1 -13 16.61 1.7
1 1 -13 11.21 1.58
1 1 -13 14.72 1.33
-1 -2 13 14.83 1.53
-1 -2 13 11.37 0.98
-1 -2 13 12.98 1.04
-1 -2 13 10.95 1.37
-1 -2 13 12.76 1.67
1 2 -13 12.08 1.57
1 2 -13 12.43 1.6
1 2 -13 12.24 1.67
-1 -3 13 1.96 1.07
1 3 -13 3.45 1.12
1 3 -13 1.28 1.04
1 3 -13 1.64 0.98
-1 -4 13 6.9 1.36
1 4 -13 8.96 1.51
-1 -5 13 -0.55 0.9
1 5 -13 -0.89 0.9
-2 5 13 14.49 1.91
2 -5 -13 14.15 1.77
2 -5 -13 10.13 1.63
-2 4 13 29.88 2.32
2 -4 -13 25.47 2.34
2 -4 -13 33.15 2.23
-2 3 13 3.63 1.2
-2 3 13 1.14 0.93
-2 3 13 0.81 0.95
2 -3 -13 0.97 1.05
2 -3 -13 2.91 0.97
-2 2 13 36.07 2.34
-2 2 13 37.61 2.47
-2 2 13 39.68 1.9
-2 2 13 39.26 2.33
2 -2 -13 36.86 2.39
-2 1 13 6.12 0.96
-2 1 13 8.69 1.05
-2 1 13 6.82 1.16
-2 1 13 7.13 1.21
-2 1 13 8.5 1.35
-2 1 13 6.03 1.28
2 -1 -13 6.59 1.38
2 -1 -13 9.44 1.31
-2 0 13 10.07 1.37
-2 0 13 7.64 1.35
-2 0 13 9.97 1.09
-2 0 13 9.52 1.04
-2 0 13 10.03 1.36
-2 0 13 8.12 1.27
2 0 -13 7.56 1.4
2 0 -13 9.32 1.31
-2 -1 13 6.92 0.88
-2 -1 13 6.73 0.89
-2 -1 13 6.77 1.29
-2 -1 13 8.62 1.21
-2 -1 13 6.99 1.15
-2 -1 13 7.7 1.19
2 1 -13 6.29 1.36
2 1 -13 9.3 1.33
2 1 -13 8.62 1.08
-2 -2 13 36.03 2.34
-2 -2 13 37.71 2.06
-2 -2 13 36.1 1.42
-2 -2 13 37.74 1.43
2 2 -13 37.72 2.26
2 2 -13 38.1 2.47
2 2 -13 37.86 2.3
-2 -3 13 2.55 1.07
2 3 -13 0.45 1
2 3 -13 2.65 1.01
-2 -4 13 31.77 2.25
2 4 -13 28.07 2.15
-2 -5 13 11.16 1.62
2 5 -13 7.77 1.45
-3 5 13 6.1 1.41
3 -5 -13 6.73 1.52
3 -5 -13 5.53 1.24
-3 4 13 12.57 1.73
-3 4 13 10.43 1.62
3 -4 -13 13.18 1.57
3 -4 -13 11.6 1.74
-3 3 13 16.34 1.81
-3 3 13 11.96 1.6
-3 3 13 18.31 1.96
3 -3 -13 16.8 1.93
3 -3 -13 15.41 1.63
-3 2 13 33.61 2.37
-3 2 13 31.79 2.12
-3 2 13 32.74 1.78
-3 2 13 35.58 2.23
3 -2 -13 34.37 2.37
-3 1 13 16.74 1.83
-3 1 13 21.48 1.39
-3 1 13 17.99 1.7
-3 1 13 17.69 1.28
-3 1 13 13.86 1.54
-3 1 13 13.18 1.58
3 -1 -13 19.4 1.76
3 -1 -13 15.96 1.77
-3 0 13 0.79 0.76
-3 0 13 0.58 0.72
-3 0 13 -0.5 0.55
-3 0 13 -1.17 0.66
-3 0 13 0.65 0.62
-3 0 13 -0.26 0.87
3 0 -13 -0.02 0.96
3 0 -13 -0.39 0.71
3 0 -13 -0.2 0.61
-3 -1 13 16.71 1.77
-3 -1 13 15.3 1.51
-3 -1 13 14.88 1.47
-3 -1 13 18.07 1.15
-3 -1 13 15.78 1.11
3 1 -13 12.26 1.64
3 1 -13 15.43 1.31
3 1 -13 16.03 1.37
3 1 -13 17.81 1.73
-3 -2 13 34.05 1.22
-3 -2 13 35.41 2.2
-3 -2 13 32.72 1.9
-3 -2 13 32.08 1.19
3 2 -13 32.78 2.13
3 2 -13 31.25 2.28
-3 -3 13 12.13 1.56
3 3 -13 15.56 1.74
3 3 -13 15.09 1.67
3 3 -13 12.84 1.56
-3 -4 13 11.91 1.6
-3 -4 13 11.86 1.61
3 4 -13 10.44 1.53
-3 -5 13 7.93 1.4
3 5 -13 4.34 1.23
-4 5 13 3 1.28
4 -5 -13 1.88 1.18
-4 4 13 8.59 1.56
-4 4 13 12.35 1.78
4 -4 -13 11.72 1.45
4 -4 -13 10.69 1.68
-4 3 13 27.71 2.24
-4 3 13 25.61 2.3
-4 3 13 27.88 2.05
4 -3 -13 24.14 1.87
4 -3 -13 25.69 2.31
-4 2 13 0.77 0.87
-4 2 13 1.82 1.04
-4 2 13 0 0.94
-4 2 13 0.86 0.68
4 -2 -13 0.67 1.02
-4 1 13 2.24 0.95
-4 1 13 1.52 1.08
-4 1 13 1.64 0.71
-4 1 13 1.39 0.9
4 -1 -13 1.47 0.91
4 -1 -13 2.84 1.11
4 -1 -13 0.99 0.67
-4 0 13 23.77 1.4
-4 0 13 22.09 1.32
-4 0 13 21.38 1.7
-4 0 13 23.68 1.8
-4 0 13 23.59 2.08
-4 0 13 23.27 1.67
4 0 -13 20.24 1.85
4 0 -13 21.92 1.99
4 0 -13 20.96 1.46
-4 -1 13 1.16 0.62
-4 -1 13 1.24 0.75
-4 -1 13 0.5 0.59
-4 -1 13 0.63 0.93
-4 -1 13 2.92 0.86
4 1 -13 1.16 0.71
4 1 -13 2.25 0.95
4 1 -13 1.31 1.01
4 1 -13 0.52 0.69
-4 -2 13 -0.71 0.55
-4 -2 13 0.63 0.25
-4 -2 13 0.72 0.92
-4 -2 13 0.52 0.73
4 2 -13 0.1 0.84
4 2 -13 0.43 0.94
-4 -3 13 25.57 1.98
-4 -3 13 24.64 2.13
4 3 -13 22.83 1.86
4 3 -13 25.13 1.94
4 3 -13 27.52 2.18
-4 -4 13 11.42 1.5
-4 -4 13 11.15 1.61
4 4 -13 10.77 1.51
4 4 -13 11.16 1.51
-4 -5 13 1.61 0.97
4 5 -13 1.29 0.94
-5 5 13 -0.81 1
5 -5 -13 0.27 1.12
-5 4 13 19 2.1
-5 4 13 18.54 2.12
5 -4 -13 15.8 1.56
5 -4 -13 15.77 2.02
-5 3 13 14.04 1.75
-5 3 13 14.86 1.86
-5 3 13 17.15 1.85
5 -3 -13 11.23 1.74
5 -3 -13 14.47 1.45
-5 2 13 28.23 1.68
-5 2 13 26.19 2.13
-5 2 13 27.11 2.11
-5 2 13 24.9 1.94
5 -2 -13 29.66 2.46
5 -2 -13 27.57 2.17
5 -2 -13 26.88 1.56
-5 1 13 3.17 0.79
-5 1 13 7.86 1.33
-5 1 13 3.88 1.18
-5 1 13 4.32 1.04
-5 1 13 5.07 0.91
5 -1 -13 4.29 1.29
5 -1 -13 1.99 1.03
5 -1 -13 6.61 1.23
-5 0 13 16.87 1.6
-5 0 13 17.3 1.28
-5 0 13 18.71 1.75
-5 0 13 17.54 1.89
-5 0 13 17.45 1.6
-5 0 13 19.61 1.25
5 0 -13 19.06 1.47
5 0 -13 19.79 1.83
5 0 -13 18.09 1.79
5 0 -13 18.55 1.9
-5 -1 13 3.98 0.98
-5 -1 13 5.25 1
-5 -1 13 4.62 0.72
-5 -1 13 5.79 0.77
-5 -1 13 3.6 1.14
5 1 -13 4.44 1.11
5 1 -13 4.34 1.18
-5 -2 13 27.6 2.1
-5 -2 13 22.04 1.56
5 2 -13 27.18 2.14
5 2 -13 28.66 1.97
-5 -3 13 18.98 2.05
-5 -3 13 14.41 1.64
5 3 -13 13.53 1.59
-5 -4 13 17.89 1.97
-5 -4 13 17.58 1.78
5 4 -13 18.53 1.81
5 4 -13 18.34 1.78
-5 -5 13 2.14 0.99
5 5 -13 -0.15 0.86
5 5 -13 0.46 0.94
-6 5 13 1.64 1.25
6 -5 -13 3.49 1.41
-6 4 13 13.99 1.88
-6 4 13 13.16 1.91
6 -4 -13 11.89 1.9
-6 3 13 3.36 1.26
-6 3 13 6.76 1.34
-6 3 13 2.87 1.1
6 -3 -13 3.92 1.3
6 -3 -13 4.8 0.94
-6 2 13 17.09 1.97
-6 2 13 12.04 1.62
-6 2 13 14.52 1.66
-6 2 13 12.44 1.29
6 -2 -13 12.05 1.57
6 -2 -13 11.29 1.76
6 -2 -13 10.74 1.16
-6 1 13 13.97 1.56
-6 1 13 11.94 1.68
-6 1 13 13.21 1.23
-6 1 13 11.87 1.18
-6 1 13 12.42 1.52
6 -1 -13 12.27 1.54
6 -1 -13 11.5 1.57
6 -1 -13 10.91 1.67
-6 0 13 48.82 1.91
-6 0 13 48.3 1.88
-6 0 13 51.59 2.44
-6 0 13 47.57 2.66
6 0 -13 50.54 2.8
6 0 -13 48.58 2.55
6 0 -13 51.81 2.59
-6 -1 13 10.28 0.86
-6 -1 13 11.03 1.55
-6 -1 13 11.06 0.87
-6 -1 13 11.38 1.3
6 1 -13 10.3 1.48
6 1 -13 12.53 1.53
6 1 -13 9.33 1.4
-6 -2 13 13.84 1.61
-6 -2 13 12.66 1.88
6 2 -13 12.16 1.55
6 2 -13 11.85 1.48
-6 -3 13 6.03 1.52
-6 -3 13 5.48 1.18
6 3 -13 3.35 1.06
-6 -4 13 14.36 1.59
-6 -4 13 15.33 1.93
6 4 -13 13.38 1.6
-6 -5 13 4.67 1.1
6 5 -13 3.36 1.1
-7 5 13 3.11 1.35
7 -5 -13 4.38 1.5
-7 4 13 6.91 1.56
-7 4 13 6.75 1.46
7 -4 -13 4.24 1.51
-7 3 13 2.72 1.17
-7 3 13 1.2 1.16
-7 3 13 2.46 1.1
7 -3 -13 2.55 0.76
7 -3 -13 2.61 1.29
7 -3 -13 1.99 0.8
-7 2 13 13.78 1.68
-7 2 13 14.36 1.88
-7 2 13 13.39 1.69
-7 2 13 17.49 1.47
7 -2 -13 15.15 1.93
7 -2 -13 12.77 1.71
-7 1 13 3.71 1.25
-7 1 13 4.35 1.18
-7 1 13 4.62 0.9
-7 1 13 5.73 0.95
7 -1 -13 3.84 1.2
7 -1 -13 3.05 1.25
7 -1 -13 4.29 1.13
-7 0 13 -0.38 0.92
-7 0 13 0.31 0.59
-7 0 13 0.18 0.76
-7 0 13 -0.93 0.57
7 0 -13 -1.79 0.83
7 0 -13 -2.01 0.71
7 0 -13 0 1.05
-7 -1 13 5.54 0.62
-7 -1 13 4.14 1.15
-7 -1 13 4.35 0.57
-7 -1 13 3.46 1.33
-7 -1 13 5.28 1.06
7 1 -13 4.92 1.15
7 1 -13 4.83 1.27
7 1 -13 4.39 1.23
-7 -2 13 13.71 1.64
-7 -2 13 15.49 1.98
7 2 -13 15.19 1.69
7 2 -13 12.96 1.54
-7 -3 13 2.64 1
-7 -3 13 2.87 1.38
7 3 -13 1.35 0.93
-7 -4 13 5.65 1.48
-7 -4 13 4.83 1.16
7 4 -13 3.28 1.09
-7 -5 13 7.15 1.24
7 5 -13 6.42 1.29
-8 4 13 1.33 1.33
8 -4 -13 1.6 1.3
-8 3 13 0.5 1.17
8 -3 -13 1.6 1.27
-8 2 13 16.66 1.46
-8 2 13 15.16 2
8 -2 -13 20.07 2.07
8 -2 -13 10.98 1.75
-8 1 13 9.39 1.11
-8 1 13 7.38 1.5
-8 1 13 8.3 1.07
8 -1 -13 8.56 1.57
8 -1 -13 8.82 1.52
8 -1 -13 8.91 1.49
-8 0 13 8.57 1.52
-8 0 13 8.7 0.96
-8 0 13 5.13 1.44
-8 0 13 7.17 0.9
8 0 -13 9.6 1.51
8 0 -13 7.25 1.44
8 0 -13 8.05 1.38
-8 -1 13 8.79 1.45
-8 -1 13 8.41 1.65
8 1 -13 8.07 1.45
8 1 -13 6.72 1.3
-8 -2 13 15.38 1.75
-8 -2 13 20.58 2.32
8 2 -13 15.77 1.73
8 2 -13 14.05 1.63
-8 -3 13 0.58 1.31
-8 -3 13 -0.06 0.85
8 3 -13 3.11 1.04
-8 -4 13 -0.3 0.85
-8 -4 13 3.15 1.42
8 4 -13 3.17 1.06
-9 4 13 0.59 1.29
9 -4 -13 0.62 1.19
-9 3 13 4.95 1.49
-9 3 13 2.2 1.37
9 -3 -13 2.66 1.36
-9 2 13 10.1 1.29
-9 2 13 8.4 1.7
-9 2 13 7.75 1.59
9 -2 -13 12.1 1.85
9 -2 -13 9.74 1.78
-9 1 13 4.95 1.53
-9 1 13 3.12 1.31
-9 1 13 3.9 0.9
-9 1 13 4.07 0.91
9 -1 -13 4.91 1.33
9 -1 -13 4.49 1.36
9 -1 -13 4.71 1.25
-9 0 13 55.97 3.01
-9 0 13 56.41 1.93
-9 0 13 56.67 3.32
9 0 -13 50.42 2.78
9 0 -13 47.58 2.88
-9 -1 13 4.57 1.26
-9 -1 13 3.49 1.42
9 1 -13 4.05 1.14
9 1 -13 6.82 1.42
-9 -2 13 12.56 2.01
-9 -2 13 11.19 1.59
9 2 -13 8.87 1.44
-9 -3 13 2.86 1.33
-9 -3 13 3.06 1.09
9 3 -13 2.87 1.08
-9 -4 13 -0.41 1.21
-9 -4 13 1.8 0.92
9 4 -13 0.27 0.89
-10 4 13 0.31 1.39
10 -4 -13 3.11 1.45
-10 3 13 0.16 1.23
-10 3 13 0.21 1.25
10 -3 -13 0.19 1.21
-10 2 13 12.38 2.01
-10 2 13 7.22 1.16
-10 2 13 9.9 1.85
10 -2 -13 8.95 1.75
-10 1 13 1.41 0.75
-10 1 13 0.56 0.67
-10 1 13 0.52 1.18
-10 1 13 0.74 1.12
10 -1 -13 1.17 1.03
10 -1 -13 -1.86 1.02
-10 0 13 1.29 0.63
-10 0 13 0.96 1.29
-10 0 13 1.81 0.63
-10 0 13 1.87 1.12
10 0 -13 0.02 1.1
10 0 -13 2.77 1.15
-10 -1 13 0.31 0.98
-10 -1 13 -1.74 1.08
10 1 -13 0.15 0.92
10 1 -13 1.99 1.15
-10 -2 13 10.47 1.94
-10 -2 13 8.79 1.5
10 2 -13 6.43 1.33
-10 -3 13 -2.12 1.18
-10 -3 13 0.21 0.9
10 3 -13 -0.23 0.85
-10 -4 13 1.59 0.92
-10 -4 13 1.46 1.52
10 4 -13 1.26 0.98
-11 3 13 0.38 1.34
11 -3 -13 0.82 1.29
-11 2 13 20.79 1.69
-11 2 13 24.02 2.61
-11 2 13 20.68 2.58
11 -2 -13 21.18 2.45
-11 1 13 0.64 0.77
-11 1 13 -0.45 1.08
-11 1 13 0.99 0.77
-11 1 13 0.18 1.26
11 -1 -13 1.09 1.06
11 -1 -13 -0.49 1.13
-11 0 13 0.38 1.2
-11 0 13 -0.24 0.48
-11 0 13 0.12 0.52
-11 0 13 0.06 1.04
11 0 -13 1.22 1.07
11 0 -13 0.86 1.21
-11 -1 13 0.64 1.06
-11 -1 13 2.12 1.34
11 1 -13 2.1 1.1
-11 -2 13 22.04 2.69
-11 -2 13 21.97 2.14
11 2 -13 24.07 2.16
-11 -3 13 0.96 0.97
-11 -3 13 0.57 1.44
11 3 -13 0.1 0.93
-12 3 13 -0.35 1.44
12 -3 -13 -0.2 1.25
-12 2 13 8.66 1.26
-12 2 13 10.23 2.02
12 -2 -13 10.13 1.93
-12 1 13 7.54 1.07
-12 1 13 10.92 1.89
-12 1 13 12.39 2.22
-12 1 13 7.72 1.07
12 -1 -13 9.87 1.84
-12 0 13 2.54 1.33
-12 0 13 1.98 1.45
12 0 -13 2.8 1.35
12 0 -13 2.28 1.22
-12 -1 13 12.21 2.13
-12 -1 13 10.72 1.76
12 1 -13 8.03 1.55
-12 -2 13 8.36 1.95
-12 -2 13 9.18 1.61
12 2 -13 13.17 1.8
-12 -3 13 -2.2 1.16
-12 -3 13 -0.28 0.95
12 3 -13 -1.7 0.8
-13 2 13 27.3 3.07
13 -2 -13 28.18 2.91
-13 1 13 0.43 0.7
-13 1 13 -0.42 1.52
-13 1 13 -0.37 0.68
13 -1 -13 0.29 1.26
-13 0 13 2.26 1.54
13 0 -13 -1.33 0.99
-13 -1 13 -0.55 1.24
13 1 -13 0.94 1.09
13 2 -13 26.47 2.43
7 1 14 10.06 1.89
-7 -1 -14 11.85 2.04
-7 -1 -14 13.53 2.08
7 0 14 7.19 1.71
-7 0 -14 8.32 1.67
-7 0 -14 5.46 1.73
7 -1 14 10.43 1.99
-7 1 -14 9.2 2
-7 1 -14 12.5 1.43
6 2 14 2.31 1.31
-6 -2 -14 0.99 1.12
-6 -2 -14 3.34 1.43
6 1 14 10.24 1.85
6 1 14 7.85 1.65
-6 -1 -14 7.93 1.59
-6 -1 -14 8.33 1.8
6 0 14 6.06 1.56
-6 0 -14 7.28 1.75
6 -1 14 5.95 1.64
-6 1 -14 6.42 1.74
-6 1 -14 8.56 1.28
6 -2 14 1.19 1.37
-6 2 -14 -1.33 1.27
5 3 14 4.4 1.37
-5 -3 -14 3.58 1.38
-5 -3 -14 3.33 1.43
5 2 14 0.71 1.07
-5 -2 -14 -0.37 0.96
-5 -2 -14 -0.15 1.21
5 1 14 40.13 2.75
5 1 14 33.42 2.84
-5 -1 -14 37.41 2.89
-5 -1 -14 39.2 2.83
5 0 14 2.59 1.23
5 0 14 2.98 1.25
-5 0 -14 2.23 1.37
5 -1 14 33.97 2.61
-5 1 -14 35.91 2.87
-5 1 -14 34.68 1.98
5 -2 14 -0.41 1.11
5 -2 14 0.48 0.88
-5 2 -14 0.54 1.23
5 -3 14 2.69 1.46
5 -3 14 6.87 1.12
-5 3 -14 0.12 1.27
4 3 14 1.8 1.12
-4 -3 -14 1.43 1.3
-4 -3 -14 1.79 1.17
4 2 14 2.63 1.18
4 2 14 0.78 1.09
-4 -2 -14 2.37 1.31
-4 -2 -14 1.68 1.09
4 1 14 7.86 1.49
4 1 14 8.25 1.58
-4 -1 -14 6.39 1.55
4 0 14 0.5 1.12
4 0 14 2.89 1.17
-4 0 -14 -1 1.14
4 -1 14 6.87 1.58
-4 1 -14 8.93 1.21
-4 1 -14 3.63 1.44
4 -2 14 0.87 1.17
4 -2 14 2.44 0.89
-4 2 -14 0.26 1.24
4 -3 14 1.33 1.31
4 -3 14 2.18 0.81
-4 3 -14 2.05 1.44
3 4 14 1.98 1.12
-3 -4 -14 0.09 1.16
-3 -4 -14 1.61 1.14
3 3 14 6.5 1.47
-3 -3 -14 6.93 1.61
-3 -3 -14 6.11 1.44
3 2 14 0.91 1.05
3 2 14 2 1.16
-3 -2 -14 3.02 1.18
-3 -2 -14 2.12 1.22
3 1 14 6.13 1.41
3 1 14 9.06 1.54
3 1 14 10.98 1.66
-3 -1 -14 8.39 1.67
3 0 14 5.42 1.42
3 0 14 6.81 1.45
-3 0 -14 4.71 1.44
3 -1 14 6.43 1.12
3 -1 14 10.21 1.55
3 -1 14 6.4 1.51
-3 1 -14 5.34 1.48
-3 1 -14 8.5 1.19
3 -2 14 2.82 1.24
3 -2 14 1.24 0.77
-3 2 -14 2.62 1.36
3 -3 14 7.21 1.63
3 -3 14 5.59 0.95
3 -3 14 5.71 1
-3 3 -14 5.2 1.56
3 -4 14 -0.72 1.08
-3 4 -14 0 1.08
-3 4 -14 2.96 1.44
2 4 14 10.29 1.72
-2 -4 -14 16.12 1.95
-2 -4 -14 14.95 2.09
2 3 14 4.93 1.34
-2 -3 -14 7.3 1.51
-2 -3 -14 8.49 1.64
2 2 14 4.42 1.29
2 2 14 4.94 1.29
-2 -2 -14 3.12 1.34
-2 -2 -14 5.35 1.32
2 1 14 11.57 1.68
2 1 14 12.47 1.69
2 1 14 13.23 1.76
-2 -1 -14 13.54 1.94
2 0 14 0.32 1.01
2 0 14 0.85 0.99
2 0 14 0.68 0.85
2 0 14 1.02 0.71
2 0 14 -1.17 0.77
-2 0 -14 0.11 1.06
2 -1 14 10.88 1.74
2 -1 14 11.39 1.61
2 -1 14 12.22 1.32
-2 1 -14 9.98 1.25
-2 1 -14 8.98 1.63
2 -2 14 4.35 0.89
2 -2 14 4.28 1.35
2 -2 14 4.4 1.18
-2 2 -14 6.77 1.53
-2 2 -14 5.1 1.29
-2 2 -14 7.61 1.5
2 -3 14 7.34 1.53
2 -3 14 6.86 0.94
2 -3 14 7.96 0.94
-2 3 -14 6.1 1.49
-2 3 -14 6.97 1.46
2 -4 14 14.66 2.06
-2 4 -14 10.82 1.83
1 4 14 3.29 1.26
-1 -4 -14 1.45 1.18
-1 -4 -14 3.4 1.2
1 3 14 4.43 1.28
1 3 14 4.57 1.3
-1 -3 -14 5.21 1.48
-1 -3 -14 6.99 1.51
1 2 14 13.38 1.8
1 2 14 16.45 1.83
1 2 14 15.67 1.9
-1 -2 -14 12.1 1.83
1 1 14 15.8 1.71
1 1 14 20 2.07
1 1 14 17.07 1.84
1 1 14 20.65 2.02
-1 -1 -14 16.76 1.99
1 0 14 2.14 0.85
1 0 14 1.95 0.99
1 0 14 1.14 0.97
1 0 14 2.13 1.02
1 0 14 1.83 1.08
-1 0 -14 1.58 1.22
1 -1 14 17.4 1.87
1 -1 14 17.61 1.82
1 -1 14 15.91 1.39
1 -1 14 19.73 2.14
-1 1 -14 17.07 1.79
-1 1 -14 19.32 1.89
-1 1 -14 13.66 1.84
-1 1 -14 18.78 1.56
1 -2 14 12.09 1.2
1 -2 14 9.82 1.46
1 -2 14 13.09 1.86
1 -2 14 13.58 1.24
-1 2 -14 10.79 1.73
-1 2 -14 15.04 1.77
-1 2 -14 10.42 1.57
1 -3 14 4.38 0.77
1 -3 14 5.02 1.39
1 -3 14 5.86 0.8
-1 3 -14 4.44 1.41
-1 3 -14 5.96 1.4
1 -4 14 2.22 1.21
-1 4 -14 1.96 1.21
0 5 14 9.4 1.69
0 -5 -14 12.41 1.85
0 -5 -14 9.48 1.63
0 4 14 0.29 0.98
0 -4 -14 -0.11 0.87
0 -4 -14 0.03 1.08
0 3 14 4.25 1.26
0 3 14 6.53 1.39
0 -3 -14 6.73 1.34
0 -3 -14 2.99 1.27
0 2 14 2.92 1.09
0 2 14 1.35 0.95
0 2 14 1.23 1.09
0 -2 -14 1.64 1.14
0 1 14 -0.74 0.79
0 1 14 -0.12 0.95
0 1 14 0.21 0.87
0 1 14 -0.45 0.6
0 1 14 0.78 0.92
0 -1 -14 0.39 1.07
0 0 14 4.16 1.28
0 0 14 5.56 1.28
0 0 14 6.85 1.3
0 0 14 5.01 1.17
0 0 14 5.34 0.99
0 0 -14 5.07 1.17
0 0 -14 4.25 1.34
0 -1 14 0.36 0.98
0 -1 14 -1.01 0.73
0 -1 14 -0.09 0.68
0 -1 14 -0.15 0.76
0 -1 14 0.72 0.69
0 1 -14 -0.81 0.79
0 1 -14 -0.5 1.03
0 1 -14 1.36 0.8
0 -2 14 1.98 0.97
0 -2 14 1.88 0.7
0 -2 14 1.5 1.11
0 -2 14 1.46 0.7
0 2 -14 1.74 1.01
0 2 -14 1.82 1.09
0 2 -14 0.75 1.11
0 -3 14 4.23 1.27
0 -3 14 4.53 0.62
0 -3 14 5.02 0.67
0 3 -14 7.17 1.49
0 3 -14 5.2 1.31
0 -4 14 -0.62 0.91
0 4 -14 -0.07 0.96
0 -5 14 10.7 1.76
0 5 -14 11.73 1.82
-1 5 14 1.06 1.19
1 -5 -14 3.74 1.24
1 -5 -14 3.72 1.36
-1 4 14 0.68 1.08
1 -4 -14 1.31 1.11
1 -4 -14 0 0.88
-1 3 14 43.39 2.65
-1 3 14 37.82 2.58
1 -3 -14 40.42 2.56
1 -3 -14 39.6 2.62
-1 2 14 12.71 1.7
-1 2 14 14.77 1.81
-1 2 14 20.44 2.03
1 -2 -14 15.31 1.95
-1 1 14 4.22 1.25
-1 1 14 3.95 1.17
-1 1 14 8.97 1.39
-1 1 14 6.95 1.24
-1 1 14 6.36 1.03
1 -1 -14 7.5 1.5
-1 0 14 8.9 1.44
-1 0 14 9.72 1.15
-1 0 14 8.68 1.53
-1 0 14 9.38 1.44
-1 0 14 9.29 1.34
1 0 -14 9.79 1.62
1 0 -14 9.64 1.42
-1 -1 14 5.56 1.19
-1 -1 14 6.31 0.99
-1 -1 14 10.63 1.64
-1 -1 14 7.87 0.97
-1 -1 14 7.03 1.21
1 1 -14 4.4 0.92
1 1 -14 5.85 1.42
1 1 -14 6.65 1.27
-1 -2 14 16.53 1.9
-1 -2 14 15.98 1.11
-1 -2 14 13.43 1.5
-1 -2 14 14.51 1.19
1 2 -14 18.58 1.91
1 2 -14 14.9 1.86
1 2 -14 15.54 1.73
-1 -3 14 38.71 2.61
1 3 -14 41.66 2.6
1 3 -14 37.75 2.55
-1 -4 14 3.2 1.23
1 4 -14 0.2 0.98
-1 -5 14 5.69 1.41
1 5 -14 1.81 1.18
-2 5 14 8.69 1.71
2 -5 -14 8.59 1.62
2 -5 -14 8.05 1.5
-2 4 14 3 1.22
2 -4 -14 4.32 1.37
2 -4 -14 5.78 1.3
-2 3 14 42.29 2.57
-2 3 14 36.78 2.55
2 -3 -14 41.28 2.5
2 -3 -14 36.72 2.67
-2 2 14 4.78 1.18
-2 2 14 5 1.17
-2 2 14 6.86 1.35
-2 2 14 3.26 1.18
2 -2 -14 3.87 1.32
-2 1 14 11 1.6
-2 1 14 6.73 1.26
-2 1 14 10.22 1.46
-2 1 14 4.98 1.15
-2 1 14 10.21 1.17
2 -1 -14 8.24 1.52
-2 0 14 1.03 0.69
-2 0 14 1.46 0.86
-2 0 14 1.38 0.87
-2 0 14 1.26 0.68
-2 0 14 -0.86 0.92
-2 0 14 2.54 1
2 0 -14 1.83 1.14
2 0 -14 0.88 0.86
-2 -1 14 9.95 1.09
-2 -1 14 10.39 1.37
-2 -1 14 7.43 1.45
-2 -1 14 8.76 1.26
-2 -1 14 9.98 1.06
2 1 -14 10.76 1.7
2 1 -14 10.12 1.21
2 1 -14 8.9 1.38
-2 -2 14 4.09 1.2
-2 -2 14 2.77 0.99
-2 -2 14 4.06 0.76
-2 -2 14 3.93 0.7
2 2 -14 4.16 1.34
2 2 -14 4.16 1.16
2 2 -14 3.4 1.1
-2 -3 14 38.32 2.53
2 3 -14 33.73 2.54
2 3 -14 42.23 2.56
2 3 -14 41.45 2.53
-2 -4 14 3.81 1.28
2 4 -14 3.24 1.17
-2 -5 14 9.67 1.59
2 5 -14 6.15 1.43
-3 5 14 9.96 1.79
3 -5 -14 9.34 1.72
3 -5 -14 8.65 1.47
-3 4 14 10.7 1.72
3 -4 -14 7.75 1.62
3 -4 -14 6.83 1.31
-3 3 14 56.62 3.05
-3 3 14 58.59 3.06
-3 3 14 60.16 3.05
3 -3 -14 53.84 2.78
3 -3 -14 54.2 3.1
-3 2 14 3.42 1.1
-3 2 14 2.56 1.11
-3 2 14 5.25 1.34
3 -2 -14 3.81 1.29
-3 1 14 20.39 2.02
-3 1 14 27.27 1.94
-3 1 14 22.98 1.57
-3 1 14 24.4 2.07
-3 1 14 27.21 2.02
3 -1 -14 23.19 1.93
3 -1 -14 27.23 2.33
-3 0 14 12.97 1.21
-3 0 14 10.23 1.41
-3 0 14 9.74 1.51
-3 0 14 10.74 1.13
-3 0 14 10.34 1.38
-3 0 14 10.83 1.48
3 0 -14 12.01 1.5
3 0 -14 14.58 1.78
-3 -1 14 26.45 1.45
-3 -1 14 28.88 2.18
-3 -1 14 23.36 1.35
-3 -1 14 25.7 1.89
-3 -1 14 24.91 1.84
3 1 -14 27.17 1.64
3 1 -14 21.46 2.06
3 1 -14 27.04 2.04
-3 -2 14 4.23 0.98
-3 -2 14 3.74 0.64
-3 -2 14 3.73 1.19
-3 -2 14 3.26 0.6
3 2 -14 4.1 1.3
3 2 -14 3.35 1.11
-3 -3 14 52.55 2.83
3 3 -14 52.57 2.9
3 3 -14 51.33 2.74
3 3 -14 50.57 2.75
-3 -4 14 7.74 1.41
3 4 -14 8.59 1.47
-3 -5 14 8.11 1.48
3 5 -14 10.32 1.59
-4 5 14 7.14 1.6
4 -5 -14 5.04 1.51
-4 4 14 5.07 1.33
-4 4 14 2.13 1.28
4 -4 -14 0.98 1.14
4 -4 -14 2.63 0.99
-4 3 14 17.54 2.02
-4 3 14 21.41 2.12
-4 3 14 18.65 2.06
4 -3 -14 19.55 1.85
4 -3 -14 20.27 2.21
-4 2 14 22.01 2.12
-4 2 14 20.79 1.97
-4 2 14 15.04 1.83
4 -2 -14 19.28 2.08
-4 1 14 8.46 1.08
-4 1 14 9.52 1.45
-4 1 14 14.26 1.83
-4 1 14 7.52 1.34
-4 1 14 9.76 1.41
4 -1 -14 8.22 1.51
4 -1 -14 10.95 1.5
-4 0 14 0.86 0.85
-4 0 14 1.29 0.73
-4 0 14 -0.83 0.56
-4 0 14 0.26 0.76
-4 0 14 0.54 0.71
-4 0 14 -0.01 0.93
4 0 -14 -0.49 0.78
4 0 -14 1.73 1.13
-4 -1 14 10.32 1.37
-4 -1 14 10.1 1.31
-4 -1 14 10.17 1.59
-4 -1 14 9.82 0.95
-4 -1 14 8.75 0.97
4 1 -14 10.89 1.63
4 1 -14 10.36 1.49
-4 -2 14 21.61 2.05
-4 -2 14 19.8 0.8
4 2 -14 22.53 2.07
4 2 -14 19.81 1.93
-4 -3 14 20.04 2.01
-4 -3 14 21.93 2.2
4 3 -14 17.68 1.88
4 3 -14 18.89 1.88
-4 -4 14 5.02 1.24
-4 -4 14 2.49 1.28
4 4 -14 3.27 1.14
4 4 -14 3.22 1.12
-4 -5 14 7.83 1.43
4 5 -14 6.53 1.37
-5 5 14 3.75 1.39
5 -5 -14 1.84 1.27
-5 4 14 3.16 1.29
-5 4 14 3.93 1.4
5 -4 -14 3.67 1.36
5 -4 -14 4.63 1.07
-5 3 14 9.21 1.54
-5 3 14 10.27 1.68
-5 3 14 10.17 1.65
5 -3 -14 6.38 1.57
5 -3 -14 6.97 1.17
-5 2 14 27.04 2.29
-5 2 14 22.51 2.19
-5 2 14 17.27 1.52
-5 2 14 21.04 2.01
5 -2 -14 20.94 2
5 -2 -14 19.14 2.08
-5 1 14 16.54 1.91
-5 1 14 18.21 1.84
-5 1 14 18.38 1.83
-5 1 14 17.49 1.47
5 -1 -14 19.69 2.1
5 -1 -14 15.27 1.73
5 -1 -14 15.05 1.67
-5 0 14 -1.22 0.66
-5 0 14 -0.03 0.62
-5 0 14 0.26 0.96
-5 0 14 0.59 0.62
-5 0 14 -0.99 0.79
5 0 -14 -0.16 1.01
5 0 -14 1.38 0.92
-5 -1 14 14.9 1.07
-5 -1 14 15.22 1.1
-5 -1 14 19.2 1.99
-5 -1 14 16.08 1.59
5 1 -14 18.26 1.93
5 1 -14 19.03 1.86
-5 -2 14 17.82 1.89
5 2 -14 20.16 1.96
5 2 -14 16.59 1.76
-5 -3 14 10.36 1.53
-5 -3 14 5.06 1.4
5 3 -14 7.44 1.34
-5 -4 14 3.43 1.15
-5 -4 14 2.83 1.32
5 4 -14 3.42 1.16
-5 -5 14 1.95 1.04
5 5 -14 3.38 1.15
5 5 -14 2.66 1.12
-6 5 14 3.37 1.37
6 -5 -14 4.12 1.47
-6 4 14 5.5 1.46
-6 4 14 7.81 1.66
6 -4 -14 6.22 1.59
-6 3 14 -0.92 1.03
-6 3 14 0.77 1.02
-6 3 14 0.8 1.03
6 -3 -14 -0.09 1.06
6 -3 -14 0.41 0.74
-6 2 14 -0.28 0.87
-6 2 14 -0.18 0.84
-6 2 14 1.34 1.1
-6 2 14 1.27 0.73
6 -2 -14 -0.13 1.12
6 -2 -14 2.31 1.14
-6 1 14 4.24 0.88
-6 1 14 4.01 1.27
-6 1 14 4.85 1.24
6 -1 -14 5.36 1.19
6 -1 -14 4.28 1.33
6 -1 -14 4.32 1.33
-6 0 14 26 1.95
-6 0 14 28.38 1.57
-6 0 14 24.97 1.83
-6 0 14 28.03 1.48
-6 0 14 28.12 2.24
6 0 -14 29.05 2.13
6 0 -14 29.27 2.12
6 0 -14 30.13 2.39
-6 -1 14 3.42 1.01
-6 -1 14 4.52 0.71
-6 -1 14 2.62 1.09
-6 -1 14 3.65 0.69
6 1 -14 3.5 1.17
6 1 -14 4.54 1.23
6 1 -14 4.98 1.22
-6 -2 14 0.31 1.14
-6 -2 14 0.31 0.89
6 2 -14 0.37 0.98
6 2 -14 -0.34 0.82
-6 -3 14 0.39 1.06
-6 -3 14 0.58 0.93
6 3 -14 0.55 0.89
-6 -4 14 6.22 1.55
-6 -4 14 6.57 1.31
6 4 -14 7.82 1.41
-6 -5 14 4.04 1.08
6 5 -14 2.5 1.14
-7 4 14 0.84 1.13
-7 4 14 0.37 1.26
7 -4 -14 0.71 1.17
-7 3 14 1.22 1.07
-7 3 14 1.72 1.27
-7 3 14 3.87 1.24
7 -3 -14 2.94 0.86
7 -3 -14 1.79 1.28
-7 2 14 1.67 0.98
-7 2 14 0.03 1.05
-7 2 14 1.73 0.84
7 -2 -14 0.45 1.07
7 -2 -14 1.55 1.2
-7 1 14 27.67 1.64
-7 1 14 23.86 2.3
7 -1 -14 32.96 2.5
7 -1 -14 27.36 2.18
7 -1 -14 28.99 2.13
-7 0 14 0.94 0.65
-7 0 14 0.8 0.7
-7 0 14 0.31 1.03
7 0 -14 0.53 0.88
7 0 -14 0.76 1.03
7 0 -14 1.1 1.1
-7 -1 14 26.97 2.59
-7 -1 14 27.85 1.16
-7 -1 14 31.3 2.32
7 1 -14 28.48 2.38
7 1 -14 27.5 2.11
-7 -2 14 2.88 1.27
-7 -2 14 0.35 0.95
7 2 -14 0.98 0.95
7 2 -14 -0.03 0.99
-7 -3 14 5.59 1.6
-7 -3 14 3.47 1.13
7 3 -14 3.89 1.12
-7 -4 14 -0.07 1.18
-7 -4 14 0.97 1
7 4 -14 1.08 0.95
-8 4 14 7.57 1.79
8 -4 -14 3.31 1.53
-8 3 14 1.15 1.23
8 -3 -14 1.25 1.24
-8 2 14 2.27 0.85
-8 2 14 1.22 1.18
8 -2 -14 2.6 1.27
8 -2 -14 3.47 1.37
-8 1 14 18.1 2.14
-8 1 14 18.22 1.36
8 -1 -14 21.39 2.15
8 -1 -14 17.04 1.98
8 -1 -14 18.35 1.93
-8 0 14 -0.34 0.58
-8 0 14 -0.12 1.15
-8 0 14 0.8 1.05
-8 0 14 1.06 0.74
8 0 -14 -1.55 0.98
8 0 -14 -0.96 0.83
-8 -1 14 18.71 2.27
-8 -1 14 17.35 1.97
8 1 -14 21.66 2.1
8 1 -14 18.18 1.9
-8 -2 14 5.72 1.58
-8 -2 14 0.4 0.97
8 2 -14 2.22 1.08
-8 -3 14 0.48 0.92
-8 -3 14 2.58 1.4
8 3 -14 2.4 1.01
-8 -4 14 4.87 1.21
-8 -4 14 5.56 1.58
8 4 -14 3.06 1.12
-9 4 14 -3.08 1.04
-9 4 14 1.8 1.45
9 -4 -14 0.4 1.25
-9 3 14 3.94 1.49
-9 3 14 2.64 1.5
9 -3 -14 4.43 1.51
-9 2 14 2.14 0.92
-9 2 14 1.01 1.27
-9 2 14 3.58 1.41
9 -2 -14 2.51 1.35
9 -2 -14 0.65 1.13
-9 1 14 11.8 1.96
-9 1 14 12.78 1.28
-9 1 14 11.64 1.79
9 -1 -14 15.98 2.06
9 -1 -14 12.14 1.7
-9 0 14 9.61 1.61
-9 0 14 7.21 0.97
-9 0 14 7.17 0.9
-9 0 14 9.46 1.83
9 0 -14 8.29 1.47
9 0 -14 7.75 1.59
-9 -1 14 12.96 2.11
-9 -1 14 14.24 1.81
9 1 -14 15 1.76
9 1 -14 12.81 1.73
-9 -2 14 2.3 1.13
-9 -2 14 3.94 1.56
9 2 -14 0.9 0.97
-9 -3 14 3.19 1.47
-9 -3 14 3.64 1.2
9 3 -14 2.91 1.16
-9 -4 14 0.38 0.89
-9 -4 14 -1.38 1.18
9 4 -14 1.46 0.98
-10 3 14 5.58 1.79
-10 3 14 5.39 1.71
10 -3 -14 2.54 1.45
-10 2 14 13.09 2.06
-10 2 14 15.06 1.49
-10 2 14 12.15 2.07
10 -2 -14 11.21 1.92
-10 1 14 4.24 1.59
-10 1 14 6.49 1.59
-10 1 14 3.85 0.92
10 -1 -14 3.16 1.41
10 -1 -14 6.17 1.39
-10 0 14 4.12 1.33
-10 0 14 3.36 0.74
-10 0 14 5.01 0.76
-10 0 14 2.81 1.6
10 0 -14 1.98 1.27
10 0 -14 5.52 1.39
-10 -1 14 4.48 1.67
-10 -1 14 6.22 1.41
10 1 -14 5.38 1.42
10 1 -14 3.88 1.25
-10 -2 14 13.84 2.21
-10 -2 14 14.22 1.79
10 2 -14 12.33 1.65
-10 -3 14 5.23 1.74
-10 -3 14 2.35 1.09
10 3 -14 3.88 1.22
-11 3 14 8.28 2
11 -3 -14 4.7 1.62
-11 2 14 18.56 2.35
-11 2 14 15.47 2.32
11 -2 -14 21.27 2.46
-11 1 14 14.78 2.28
-11 1 14 18 2.23
-11 1 14 16.17 1.39
11 -1 -14 20.43 2.33
-11 0 14 0.64 1.31
-11 0 14 -0.12 1.07
-11 0 14 -0.68 0.48
-11 0 14 0.12 0.52
11 0 -14 -0.14 1.15
11 0 -14 -0.09 1.01
-11 -1 14 19.13 2.15
-11 -1 14 19.11 2.51
11 1 -14 17.36 2.05
-11 -2 14 17.84 2.47
-11 -2 14 16.16 1.92
11 2 -14 15.66 1.87
-11 -3 14 6.16 1.35
-11 -3 14 4.97 1.86
11 3 -14 3.67 1.19
-12 2 14 4.44 1.59
-12 2 14 2.8 1.01
-12 2 14 1.43 1.57
12 -2 -14 3.63 1.54
-12 1 14 18.78 1.42
-12 1 14 21 2.67
-12 1 14 16.75 2.26
12 -1 -14 17.66 2.29
-12 0 14 3.11 1.68
-12 0 14 3.66 1.39
12 0 -14 4.39 1.42
12 0 -14 3.23 1.45
-12 -1 14 21.41 2.7
-12 -1 14 17.61 2.12
12 1 -14 19.5 2.18
-12 -2 14 0.49 1.37
-12 -2 14 3.55 1.32
12 2 -14 2.65 1.19
-13 1 14 7.7 1.03
-13 1 14 7.95 1.03
13 -1 -14 8.54 1.92
-13 0 14 4.74 1.6
13 0 -14 3.98 1.47
-13 -1 14 7.21 1.64
13 1 -14 9.66 1.7
6 1 15 2.65 1.37
-6 -1 -15 2.85 1.32
-6 -1 -15 3.02 1.53
6 0 15 9.93 1.84
-6 0 -15 8.3 1.91
6 -1 15 4.8 1.57
-6 1 -15 1.19 1.46
-6 1 -15 2.49 1.01
5 2 15 6.39 1.59
-5 -2 -15 5.64 1.5
-5 -2 -15 6.05 1.67
5 1 15 6.97 1.6
5 1 15 6.3 1.54
-5 -1 -15 7.27 1.73
-5 -1 -15 5.85 1.45
5 0 15 27.53 2.71
-5 0 -15 20.45 2.45
5 -1 15 6.03 1.67
-5 1 -15 7.28 1.79
-5 1 -15 6.68 1.18
5 -2 15 6.39 1.7
-5 2 -15 3.58 1.58
4 3 15 3.85 1.42
-4 -3 -15 1.95 1.29
-4 -3 -15 4.42 1.62
4 2 15 0.43 1.15
-4 -2 -15 3.21 1.45
-4 -2 -15 2.91 1.3
4 1 15 -1.61 0.98
4 1 15 0.78 1.07
-4 -1 -15 -0.01 1.19
4 0 15 17.52 2.15
-4 0 -15 15.54 2.19
4 -1 15 1.4 1.22
-4 1 -15 1.14 1.35
-4 1 -15 2 0.99
4 -2 15 2.44 1.36
4 -2 15 2.16 0.92
-4 2 -15 0.83 1.34
4 -3 15 2.32 0.86
4 -3 15 2.01 1.31
-4 3 -15 0.61 1.35
3 3 15 5.47 1.39
-3 -3 -15 5.49 1.57
-3 -3 -15 8.28 1.69
3 2 15 13.48 1.94
3 2 15 13.27 1.86
-3 -2 -15 14.01 2.02
-3 -2 -15 13.19 1.89
3 1 15 5.02 1.45
3 1 15 3.71 1.32
-3 -1 -15 0.32 1.23
3 0 15 13.82 1.91
-3 0 -15 10.18 1.82
3 -1 15 1.61 1.23
3 -1 15 3.42 1.03
3 -1 15 4.33 1.3
-3 1 -15 2.39 1.35
-3 1 -15 3.58 1.03
3 -2 15 12.32 1.37
3 -2 15 12.02 1.92
-3 2 -15 12.6 1.99
3 -3 15 4.32 1.52
3 -3 15 3.77 0.86
-3 3 -15 5.69 1.63
2 4 15 6.46 1.63
-2 -4 -15 6.85 1.59
-2 -4 -15 7.24 1.65
2 3 15 -0.11 1.07
-2 -3 -15 1.87 1.32
-2 -3 -15 2.36 1.2
2 2 15 3.43 1.24
2 2 15 2.02 1.13
-2 -2 -15 2.23 1.35
-2 -2 -15 1.53 1.1
2 1 15 7.06 1.53
2 1 15 8.35 1.57
2 1 15 8.53 1.6
-2 -1 -15 6.23 1.55
2 0 15 3.81 1.33
2 0 15 1.33 1.04
2 0 15 0.06 1.06
-2 0 -15 -0.1 1.15
2 -1 15 7.37 1.13
2 -1 15 6.36 1.51
2 -1 15 7.32 1.49
-2 1 -15 5.31 1.13
-2 1 -15 7.34 1.65
2 -2 15 2.35 0.87
2 -2 15 4.95 1.43
-2 2 -15 2.48 1.37
2 -3 15 1.96 0.74
2 -3 15 2.09 1.29
2 -3 15 1.76 0.76
-2 3 -15 1.2 1.33
-2 3 -15 2.88 1.32
2 -4 15 8.2 1.77
-2 4 -15 7.36 1.71
1 4 15 12.71 1.92
-1 -4 -15 8.84 1.72
-1 -4 -15 10.49 1.81
1 3 15 1.75 1.17
-1 -3 -15 2.52 1.13
-1 -3 -15 1.22 1.31
1 2 15 1.7 1.19
1 2 15 -1.49 0.88
-1 -2 -15 2.56 1.33
1 1 15 3.18 1.21
1 1 15 1.33 1
1 1 15 1.71 1.07
-1 -1 -15 2.7 1.35
1 0 15 16.8 1.9
1 0 15 20.4 1.64
1 0 15 18.16 1.96
1 0 15 20.76 2.09
1 0 15 19.29 2.11
-1 0 -15 16.44 2.08
1 -1 15 4.62 0.97
1 -1 15 1.87 1.21
1 -1 15 1.4 1.02
-1 1 -15 1.36 1.24
-1 1 -15 3.45 1.01
1 -2 15 0.5 1.12
1 -2 15 0.01 0.67
-1 2 -15 1.23 1.22
-1 2 -15 0.03 0.99
-1 2 -15 2.81 1.17
1 -3 15 3.01 0.74
1 -3 15 2.43 1.26
1 -3 15 2.27 0.67
-1 3 -15 2.99 1.38
-1 3 -15 2.56 1.25
1 -4 15 11.85 1.86
-1 4 -15 12.05 1.89
0 4 15 28.68 2.62
0 -4 -15 29.72 2.52
0 -4 -15 32.31 2.59
0 3 15 1.43 1.09
0 3 15 -2.14 0.89
0 -3 -15 -1.59 0.72
0 -3 -15 -0.21 1.12
0 2 15 -0.73 0.89
0 2 15 -0.25 0.94
0 2 15 0.34 1.08
0 -2 -15 0.87 1.18
0 1 15 3.28 1.19
0 1 15 3.05 1.14
0 1 15 2.36 1.05
0 1 15 2.86 1.22
0 -1 -15 2.64 1.29
0 0 15 19.51 1.99
0 0 15 16.15 1.49
0 0 15 15.07 1.79
0 0 15 16.35 2
0 0 15 17.51 1.82
0 0 -15 14.14 1.94
0 -1 15 2.89 1.2
0 -1 15 3.1 0.86
0 -1 15 4.82 1.27
0 1 -15 4.51 1.21
0 1 -15 4.94 1.43
0 1 -15 4.43 0.97
0 -2 15 -0.46 0.6
0 -2 15 -0.08 0.68
0 -2 15 -0.69 0.97
0 2 -15 0.51 1.12
0 2 -15 1.24 1.06
0 2 -15 0.5 1.02
0 -3 15 0.72 0.49
0 -3 15 0.85 0.53
0 -3 15 0.81 1.13
0 3 -15 0.37 1
0 3 -15 0.23 1.15
0 -4 15 29.26 2.64
0 4 -15 27.48 2.53
-1 4 15 17.64 2.15
1 -4 -15 19.22 2.13
1 -4 -15 17.18 2.11
-1 3 15 4.05 1.3
-1 3 15 8.98 1.6
1 -3 -15 6.74 1.52
1 -3 -15 5.86 1.33
-1 2 15 23.92 2.23
-1 2 15 22.61 2.18
-1 2 15 28.58 2.5
1 -2 -15 29.23 2.56
-1 1 15 3.06 1.17
-1 1 15 0.9 1.05
-1 1 15 3.66 1.18
-1 1 15 1.44 0.94
1 -1 -15 2.12 1.24
-1 0 15 2.27 1.01
-1 0 15 2.28 1.09
-1 0 15 3.19 1.22
-1 0 15 2.47 0.84
-1 0 15 3.64 1.08
1 0 -15 2.59 1.3
-1 -1 15 1.85 0.95
-1 -1 15 1.89 0.8
-1 -1 15 3.13 0.81
-1 -1 15 1.22 1.14
1 1 -15 3.6 1.33
1 1 -15 2.21 1.08
1 1 -15 2.07 0.88
-1 -2 15 24.32 1.45
-1 -2 15 27.62 2.44
-1 -2 15 22.37 1.36
1 2 -15 26.18 2.34
1 2 -15 24.18 2.21
1 2 -15 22.21 2.29
-1 -3 15 2.83 1.24
1 3 -15 5.2 1.33
1 3 -15 6.32 1.47
1 3 -15 4.83 1.38
-1 -4 15 17.82 2.1
1 4 -15 19.02 2.11
-2 4 15 10.88 1.78
2 -4 -15 13.38 1.93
2 -4 -15 11.89 1.71
-2 3 15 0.5 1.05
-2 3 15 0.91 1.02
2 -3 -15 2.29 1.24
2 -3 -15 0.18 0.89
-2 2 15 1.91 1.05
-2 2 15 0.45 1.02
-2 2 15 -1.07 0.86
2 -2 -15 -0.1 1.11
-2 1 15 12.53 1.33
-2 1 15 10.66 1.66
-2 1 15 11.25 1.59
-2 1 15 12.36 1.58
-2 1 15 12.54 1.64
2 -1 -15 10.95 1.76
-2 0 15 33.53 2.21
-2 0 15 31.02 2.11
-2 0 15 31.76 1.75
-2 0 15 27.75 2.3
2 0 -15 31.38 2.43
2 0 -15 35.67 2.28
-2 -1 15 11.96 1.19
-2 -1 15 15.03 1.88
-2 -1 15 11.2 1.48
-2 -1 15 9.71 1.13
2 1 -15 13.16 1.71
2 1 -15 15.32 1.96
-2 -2 15 0.25 0.99
-2 -2 15 0.96 0.64
-2 -2 15 0.24 0.57
2 2 -15 1.63 1.03
2 2 -15 1.86 1.22
-2 -3 15 0.42 1
2 3 -15 -0.24 0.93
2 3 -15 0.22 1.15
2 3 -15 -0.27 0.94
-2 -4 15 12.52 1.8
2 4 -15 11.52 1.74
-3 4 15 8.69 1.71
3 -4 -15 10.06 1.52
3 -4 -15 11.23 1.82
-3 3 15 2.1 1.11
-3 3 15 3.49 1.27
3 -3 -15 3.37 1.05
3 -3 -15 2.76 1.37
-3 2 15 17.55 1.91
-3 2 15 24 2.34
-3 2 15 21.23 2.09
3 -2 -15 19.49 2.17
-3 1 15 1.54 0.94
-3 1 15 2.28 1.17
-3 1 15 1.67 1.09
-3 1 15 1.76 0.76
-3 1 15 2.34 1.03
3 -1 -15 0.1 1.13
-3 0 15 26.73 2.37
-3 0 15 26.7 1.96
-3 0 15 27.46 2.1
-3 0 15 23.93 1.53
3 0 -15 31.61 2.45
3 0 -15 27.04 2.11
-3 -1 15 -0.54 0.84
-3 -1 15 2.07 0.72
-3 -1 15 0.71 1.05
-3 -1 15 1.03 0.67
3 1 -15 0.23 0.93
3 1 -15 1.42 1.17
-3 -2 15 21.95 2.1
-3 -2 15 19.9 1.09
-3 -2 15 19.05 1.13
3 2 -15 18.3 1.99
3 2 -15 18.62 1.94
-3 -3 15 4.66 1.28
3 3 -15 3.78 1.34
3 3 -15 1.62 1.04
3 3 -15 4.32 1.27
-3 -4 15 6.71 1.47
3 4 -15 7.99 1.53
3 4 -15 6.4 1.42
-4 4 15 9.89 1.74
-4 4 15 7.33 1.62
4 -4 -15 10.38 1.51
4 -4 -15 6.77 1.63
-4 3 15 7.69 1.52
-4 3 15 7.78 1.56
4 -3 -15 6.78 1.27
4 -3 -15 5.27 1.53
-4 2 15 4.3 1.22
-4 2 15 3.8 1.32
-4 2 15 5.44 1.27
4 -2 -15 4.37 1.43
-4 1 15 13.24 1.65
-4 1 15 14.81 1.72
-4 1 15 15.27 1.77
-4 1 15 17.55 1.48
-4 1 15 12.93 1.77
4 -1 -15 13.48 1.87
-4 0 15 18.32 1.76
-4 0 15 14.3 1.26
-4 0 15 14.81 1.67
-4 0 15 12.72 1.74
-4 0 15 15.04 1.31
4 0 -15 14.83 1.74
4 0 -15 17.21 2.04
-4 -1 15 13.37 1.14
-4 -1 15 14.32 1.83
-4 -1 15 14.84 1.22
-4 -1 15 14.13 1.56
4 1 -15 12.39 1.73
4 1 -15 15.65 1.83
-4 -2 15 5.47 0.56
-4 -2 15 3.06 1.19
-4 -2 15 4.08 0.58
4 2 -15 2.56 1.14
4 2 -15 3.77 1.26
-4 -3 15 7.6 1.41
4 3 -15 4.05 1.2
-4 -4 15 9.5 1.59
4 4 -15 7.21 1.44
4 4 -15 10.17 1.6
-5 4 15 1.27 1.19
-5 4 15 1.18 1.23
5 -4 -15 0.18 1.11
5 -4 -15 0.29 0.81
-5 3 15 2.04 1.3
-5 3 15 2.73 1.18
-5 3 15 0.98 1.05
5 -3 -15 2.4 0.95
5 -3 -15 2.24 1.34
-5 2 15 4.97 1.41
-5 2 15 3.39 1.18
-5 2 15 6.48 1.41
5 -2 -15 3.26 1.34
-5 1 15 22.39 2.06
-5 1 15 21.56 1.53
-5 1 15 18.07 2.05
5 -1 -15 18.26 2.06
-5 0 15 27.19 1.53
-5 0 15 27.62 2.43
-5 0 15 24.96 1.88
-5 0 15 24.81 1.49
5 0 -15 21.94 2.17
5 0 -15 26.4 2.26
-5 -1 15 20.98 1.83
-5 -1 15 19.41 1.2
-5 -1 15 18.25 1.25
-5 -1 15 26.41 2.37
5 1 -15 19.39 1.97
5 1 -15 19.52 2.02
-5 -2 15 5.63 1.37
5 2 -15 4.73 1.21
5 2 -15 4.07 1.33
-5 -3 15 4.05 1.18
-5 -3 15 4.04 1.46
5 3 -15 3.61 1.2
-5 -4 15 -1.17 0.89
5 4 -15 -0.72 0.93
-6 4 15 7.14 1.6
-6 4 15 9.03 1.75
6 -4 -15 5.68 1.56
-6 3 15 16.58 1.96
-6 3 15 12.55 1.9
-6 3 15 14.93 1.98
6 -3 -15 13.81 1.53
6 -3 -15 14.15 2.03
-6 2 15 5.91 1.52
-6 2 15 7.49 1.41
6 -2 -15 4.67 1.35
6 -2 -15 6.84 1.6
-6 1 15 8.03 1.12
-6 1 15 9.89 1.63
6 -1 -15 5.63 1.49
6 -1 -15 7.16 1.38
6 -1 -15 7.65 1.55
-6 0 15 4.43 1.2
-6 0 15 4.59 1.36
-6 0 15 4.83 0.92
-6 0 15 4.37 0.87
6 0 -15 5.57 1.29
6 0 -15 2.92 1.2
6 0 -15 4.15 1.35
-6 -1 15 6.66 1.4
-6 -1 15 6.37 0.86
-6 -1 15 7.32 0.85
6 1 -15 8.4 1.48
6 1 -15 7.88 1.52
-6 -2 15 7.63 1.68
-6 -2 15 5.49 1.34
6 2 -15 5.94 1.44
6 2 -15 4.63 1.25
-6 -3 15 14.59 2.01
-6 -3 15 13.93 1.8
6 3 -15 16.75 1.83
-6 -4 15 7.38 1.68
-6 -4 15 7.45 1.44
6 4 -15 5.68 1.37
-7 4 15 6.08 1.67
7 -4 -15 2.65 1.42
-7 3 15 3.38 1.43
7 -3 -15 4.55 1.52
-7 2 15 0.36 1.16
7 -2 -15 2.3 1.32
7 -2 -15 2.25 1.31
-7 1 15 0.72 0.74
-7 1 15 1.23 1.11
7 -1 -15 -0.09 0.87
7 -1 -15 2.59 1.29
7 -1 -15 0.19 1.07
-7 0 15 1.8 0.95
-7 0 15 2.2 1.17
-7 0 15 1.88 0.76
-7 0 15 2.65 0.77
7 0 -15 2.29 1.23
7 0 -15 1.71 1.02
-7 -1 15 0.41 0.51
-7 -1 15 0.37 0.55
-7 -1 15 -0.01 0.98
7 1 -15 0.27 1.1
7 1 -15 0.38 0.93
-7 -2 15 1.26 1.06
-7 -2 15 1.72 1.3
7 2 -15 0.95 1
7 2 -15 3.9 1.33
-7 -3 15 4.54 1.25
-7 -3 15 6.28 1.61
7 3 -15 4.59 1.21
-7 -4 15 4.39 1.55
-7 -4 15 6.32 1.37
7 4 -15 2.75 1.12
-8 4 15 2.31 1.49
8 -4 -15 2.42 1.51
-8 3 15 -0.44 1.16
8 -3 -15 2.46 1.38
-8 2 15 0.22 1.1
-8 2 15 -0.33 0.76
8 -2 -15 3.22 1.36
8 -2 -15 0.38 1.14
-8 1 15 3.56 0.92
-8 1 15 4.34 1.42
8 -1 -15 5.96 1.52
-8 0 15 21.6 1.38
-8 0 15 21.43 2.21
-8 0 15 22.24 1.38
8 0 -15 27.28 2.36
8 0 -15 24.13 2.39
-8 -1 15 3.57 0.47
-8 -1 15 6.25 1.42
-8 -1 15 6.34 1.59
8 1 -15 4.09 1.21
8 1 -15 4.76 1.4
-8 -2 15 1.32 1.06
-8 -2 15 -2.29 1.04
8 2 -15 0.48 0.95
-8 -3 15 0.37 1
-8 -3 15 0.68 1.27
8 3 -15 -0.19 0.94
-8 -4 15 2.08 1.1
-8 -4 15 0.44 1.38
8 4 -15 2.53 1.14
-9 3 15 6.17 1.68
9 -3 -15 5.48 1.66
-9 2 15 19.25 1.67
-9 2 15 20.22 2.37
9 -2 -15 17.26 2.23
-9 1 15 10.85 1.97
-9 1 15 12.37 1.3
-9 1 15 9.4 1.74
9 -1 -15 7.41 1.66
-9 0 15 19.04 2.4
-9 0 15 17.59 1.29
-9 0 15 21.69 2.26
9 0 -15 17.99 2.06
9 0 -15 22.91 2.3
-9 -1 15 10.78 2.05
-9 -1 15 11.86 1.73
9 1 -15 12.47 1.74
9 1 -15 9.99 1.69
-9 -2 15 19.78 2.55
-9 -2 15 16.58 1.98
9 2 -15 18.28 1.98
-9 -3 15 7.5 1.47
-9 -3 15 6.95 1.77
9 3 -15 10.13 1.6
-10 3 15 4.18 1.62
-10 3 15 2.54 1.77
10 -3 -15 5.53 1.7
-10 2 15 29.03 2.87
-10 2 15 23.4 1.73
-10 2 15 27.36 2.9
10 -2 -15 23.62 2.62
-10 1 15 7.09 1.64
-10 1 15 10.37 2.04
-10 1 15 8.24 1.16
10 -1 -15 7.18 1.66
-10 0 15 15.14 2.05
-10 0 15 19.31 1.24
-10 0 15 19.61 1.21
-10 0 15 22.23 2.65
10 0 -15 18.88 2.1
10 0 -15 18.95 2.19
-10 -1 15 8.42 1.6
-10 -1 15 9.05 1.95
10 1 -15 8.98 1.6
10 1 -15 12.39 1.87
-10 -2 15 28.59 2.97
-10 -2 15 25.81 2.36
10 2 -15 24.65 2.29
-10 -3 15 9.3 1.95
-10 -3 15 6.88 1.46
10 3 -15 6.54 1.4
-11 2 15 11.1 1.43
-11 2 15 17.59 2.54
-11 2 15 20.87 2.53
11 -2 -15 14.61 2.26
-11 1 15 20.56 2.73
-11 1 15 19.11 2.33
-11 1 15 19.83 1.47
11 -1 -15 20.74 2.47
-11 0 15 4.51 1.46
-11 0 15 4.04 1.75
-11 0 15 5.25 0.76
-11 0 15 4.43 0.7
11 0 -15 5.65 1.59
11 0 -15 5.11 1.38
-11 -1 15 19.42 2.21
-11 -1 15 17.43 2.5
11 1 -15 17.36 2.06
-11 -2 15 11.35 1.78
-11 -2 15 16.63 2.47
11 2 -15 14.35 1.85
-12 2 15 -1.33 1.25
-12 2 15 0.78 0.92
12 -2 -15 -1.14 1.24
-12 1 15 17.44 2.39
-12 1 15 12.24 2.35
12 -1 -15 16.36 2.34
-12 0 15 33.83 3.32
-12 0 15 37.02 2.91
12 0 -15 35.53 2.9
12 0 -15 37.49 2.76
-12 -1 15 14.59 2.41
-12 -1 15 13.15 1.94
12 1 -15 16.21 2.05
-12 -2 15 -1.25 0.96
12 2 -15 1.53 1.12
5 1 16 2.71 1.41
-5 -1 -16 2.89 1.58
-5 -1 -16 3.8 1.42
5 0 16 1.11 1.34
-5 0 -16 -0.36 1.28
5 -1 16 5.06 1.64
-5 1 -16 2.71 1.5
4 2 16 9.72 1.81
-4 -2 -16 6.58 1.58
-4 -2 -16 7.78 1.77
4 1 16 13.5 2.06
-4 -1 -16 13.19 1.99
-4 -1 -16 12.36 2.11
4 0 16 6.03 1.65
-4 0 -16 3.68 1.56
4 -1 16 16.42 2.21
-4 1 -16 8.83 1.94
-4 1 -16 15.51 1.6
4 -2 16 6.46 1.17
4 -2 16 9.2 1.92
-4 2 -16 4.32 1.63
3 3 16 -0.33 1.07
-3 -3 -16 0.72 1.15
-3 -3 -16 0.93 1.33
3 2 16 -0.88 1.1
-3 -2 -16 -2.26 1.15
-3 -2 -16 1.06 1.15
3 1 16 5.56 1.42
3 1 16 2.55 1.34
-3 -1 -16 1.7 1.37
3 0 16 -0.82 1.1
-3 0 -16 -1.61 1.08
3 -1 16 2.25 1.37
-3 1 -16 3.57 1.55
-3 1 -16 3.51 1.05
3 -2 16 1.23 0.84
3 -2 16 2.59 1.33
-3 2 -16 -0.01 1.24
3 -3 16 0.86 0.72
3 -3 16 0.42 1.23
-3 3 -16 0.38 1.32
2 3 16 0.59 1.17
-2 -3 -16 2.7 1.38
-2 -3 -16 -0.71 0.99
2 2 16 1.73 1.26
2 2 16 1.33 1.23
-2 -2 -16 2.27 1.21
-2 -2 -16 2.51 1.44
2 1 16 3.18 1.27
2 1 16 6.46 1.54
-2 -1 -16 4.66 1.54
2 0 16 3.78 1.36
-2 0 -16 0.22 1.29
2 -1 16 4.48 1.04
2 -1 16 3.7 1.26
2 -1 16 3.04 1.38
-2 1 -16 3.21 1.46
2 -2 16 3.16 0.91
2 -2 16 2.61 1.4
-2 2 -16 2.7 1.45
2 -3 16 -0.78 1.05
2 -3 16 1.82 0.82
2 -3 16 1.87 0.73
-2 3 -16 0.93 1.37
1 3 16 3.53 1.33
-1 -3 -16 0.31 1.28
-1 -3 -16 1.86 1.15
1 2 16 3.37 1.27
1 2 16 1.95 1.24
-1 -2 -16 3.38 1.44
-1 -2 -16 -0.05 0.98
1 1 16 16 2.08
1 1 16 17.09 2.02
1 1 16 15.52 1.96
-1 -1 -16 19.28 2.31
1 0 16 3.39 1.33
-1 0 -16 2.52 1.39
1 -1 16 14.25 1.83
1 -1 16 14.56 1.44
1 -1 16 19.91 2.28
-1 1 -16 14.1 2.06
1 -2 16 3.28 0.87
1 -2 16 1.45 1.24
-1 2 -16 1.53 1.32
1 -3 16 2.45 0.72
1 -3 16 1.59 0.7
1 -3 16 3.07 1.38
-1 3 -16 1.41 1.29
0 4 16 5.28 1.5
0 -4 -16 4.5 1.45
0 -4 -16 4.49 1.37
0 3 16 13.56 1.88
0 -3 -16 12.63 1.91
0 -3 -16 14.59 1.99
0 2 16 6.95 1.6
0 2 16 4.55 1.35
0 -2 -16 6.14 1.55
0 1 16 15.09 1.89
0 1 16 12.95 1.81
0 1 16 9.74 1.67
0 -1 -16 10.1 1.82
0 0 16 1.58 1.07
0 0 16 3.7 1.35
0 0 16 2.89 0.96
0 0 -16 1.3 1.29
0 -1 16 10.92 1.8
0 -1 16 10.99 1.24
0 -1 16 9.24 1.6
0 1 -16 7.56 1.69
0 -2 16 5.89 0.97
0 -2 16 5.97 1.51
0 2 -16 5.17 1.5
0 2 -16 5.99 1.41
0 2 -16 7.08 1.49
0 -3 16 13.31 1.96
0 -3 16 10.98 0.9
0 -3 16 12.17 0.95
0 3 -16 12.96 1.85
0 3 -16 10.79 1.75
0 3 -16 13.32 1.96
0 -4 16 4.99 1.48
0 4 -16 3.89 1.41
-1 4 16 4.43 1.46
1 -4 -16 3.69 1.29
1 -4 -16 3.35 1.37
-1 3 16 21.45 2.32
-1 3 16 26.19 2.5
1 -3 -16 21.91 2.32
1 -3 -16 21.96 2.37
-1 2 16 11.47 1.78
-1 2 16 10.52 1.73
-1 2 16 13.93 1.87
1 -2 -16 13.36 1.98
-1 1 16 10.67 1.75
-1 1 16 8.56 1.59
-1 1 16 10.13 1.63
1 -1 -16 11.09 1.81
-1 0 16 -0.59 1.05
-1 0 16 0.23 0.71
-1 0 16 0.45 1.02
1 0 -16 2.86 1.38
-1 -1 16 8.99 1.55
-1 -1 16 12.22 1.86
-1 -1 16 9.04 1.17
1 1 -16 8.98 1.59
1 1 -16 6.66 1.6
-1 -2 16 10.68 1.1
-1 -2 16 11.83 1.16
-1 -2 16 11.43 1.8
1 2 -16 7.5 1.67
1 2 -16 13.11 1.82
-1 -3 16 19.71 2.25
1 3 -16 19.6 2.26
1 3 -16 23.68 2.34
1 3 -16 20.47 2.21
-1 -4 16 2.81 1.31
1 4 -16 5.87 1.56
-2 4 16 6.49 1.6
2 -4 -16 6.59 1.63
2 -4 -16 5.04 1.4
-2 3 16 4.5 1.4
-2 3 16 6.72 1.52
2 -3 -16 3.93 1.5
2 -3 -16 3.51 1.18
-2 2 16 25.75 2.46
-2 2 16 29.18 2.27
-2 2 16 32.06 2.51
2 -2 -16 25.61 2.46
-2 1 16 9.54 1.52
-2 1 16 9.5 1.6
-2 1 16 6.72 1.55
-2 1 16 10.92 1.62
2 -1 -16 7.81 1.67
-2 0 16 2.91 0.89
-2 0 16 5.32 1.4
-2 0 16 4.64 1.2
2 0 -16 4.9 1.47
-2 -1 16 8.29 1.08
-2 -1 16 6.01 1.37
-2 -1 16 8.19 1.56
2 1 -16 11.82 1.86
2 1 -16 6.79 1.47
-2 -2 16 29.38 1.45
-2 -2 16 31.81 1.53
-2 -2 16 31.28 2.5
2 2 -16 29.1 2.31
2 2 -16 29.45 2.62
-2 -3 16 2.58 1.25
2 3 -16 3.69 1.32
2 3 -16 4.83 1.53
2 3 -16 3.15 1.22
-2 -4 16 8.53 1.67
2 4 -16 8.39 1.6
2 4 -16 5.9 1.5
-3 4 16 0.8 1.16
3 -4 -16 3.36 1.4
3 -4 -16 1.56 1.07
-3 3 16 3.01 1.21
-3 3 16 -1.52 0.94
3 -3 -16 0.58 1.24
3 -3 -16 0.48 0.93
-3 2 16 11.12 1.74
-3 2 16 11.78 1.75
-3 2 16 10.77 1.8
3 -2 -16 7.36 1.66
-3 1 16 13.71 1.43
-3 1 16 10.76 1.77
-3 1 16 11.76 1.65
-3 1 16 13.28 1.76
3 -1 -16 13.97 1.95
-3 0 16 1.91 1.18
-3 0 16 2.38 1.14
-3 0 16 4.7 0.95
3 0 -16 2.18 1.12
3 0 -16 2.98 1.35
-3 -1 16 11.19 1.23
-3 -1 16 12.14 1.16
-3 -1 16 11.3 1.78
3 1 -16 9.89 1.72
3 1 -16 13.25 1.71
-3 -2 16 8.8 0.85
-3 -2 16 9.95 1.68
-3 -2 16 10.02 0.95
3 2 -16 6.97 1.46
3 2 -16 7.56 1.62
-3 -3 16 1.02 1.09
3 3 -16 0.43 1.04
-3 -4 16 3.28 1.29
3 4 -16 3.84 1.29
3 4 -16 3.41 1.32
-4 4 16 3.1 1.34
4 -4 -16 2.23 1.06
4 -4 -16 4.32 1.53
-4 3 16 22.46 2.35
-4 3 16 19.81 2.29
4 -3 -16 17.59 1.93
4 -3 -16 21.07 2.38
-4 2 16 19.12 2.11
-4 2 16 17.34 2.02
-4 2 16 17.16 2.1
4 -2 -16 19.35 2.27
-4 1 16 6.03 1.31
-4 1 16 5.83 1.52
-4 1 16 5.06 1
4 -1 -16 4.78 1.45
-4 0 16 0.43 0.67
-4 0 16 -0.53 0.99
-4 0 16 1.41 1.06
4 0 -16 -0.88 0.79
4 0 -16 0.47 1.18
-4 -1 16 5 0.9
-4 -1 16 6.03 0.98
-4 -1 16 4.22 1.36
4 1 -16 7.17 1.61
4 1 -16 6.38 1.4
-4 -2 16 17.07 0.91
-4 -2 16 17 0.98
-4 -2 16 16.99 2.02
4 2 -16 16.31 1.87
4 2 -16 14.81 1.93
-4 -3 16 21.16 2.2
4 3 -16 16.8 1.93
-4 -4 16 3.87 1.24
4 4 -16 1.26 1.17
-5 4 16 8.98 1.76
5 -4 -16 10.81 1.89
-5 3 16 42.78 2.8
-5 3 16 38.32 2.86
5 -3 -16 35.88 2.41
5 -3 -16 36.73 2.86
-5 2 16 6.98 1.6
5 -2 -16 4.41 1.45
-5 1 16 3.47 1.37
-5 1 16 1.78 0.85
-5 1 16 0.83 0.94
5 -1 -16 1.35 1.29
-5 0 16 0.72 0.9
-5 0 16 1.17 1.14
-5 0 16 0.62 0.73
5 0 -16 0.8 1.19
5 0 -16 0.9 0.99
-5 -1 16 1.98 1.18
-5 -1 16 1.84 0.76
-5 -1 16 1.58 0.69
5 1 -16 1.79 1.1
5 1 -16 1.62 1.2
-5 -2 16 5.43 1.4
5 2 -16 6.42 1.4
5 2 -16 5.12 1.45
-5 -3 16 38.05 2.6
-5 -3 16 39.33 2.83
5 3 -16 34.73 2.51
-5 -4 16 10.9 1.71
5 4 -16 8.99 1.63
-6 4 16 12.51 2.06
6 -4 -16 10.23 1.98
-6 3 16 1.56 1.33
6 -3 -16 3.81 1.07
6 -3 -16 4.89 1.59
-6 2 16 5.69 1.52
6 -2 -16 5.71 1.51
-6 1 16 0.73 1.14
-6 1 16 3.16 0.86
6 -1 -16 2.97 1.36
-6 0 16 43.29 2.81
-6 0 16 42.59 1.93
-6 0 16 42 1.92
-6 0 16 44.85 2.52
6 0 -16 42.14 2.72
6 0 -16 45.28 2.94
-6 -1 16 2.26 0.68
-6 -1 16 2.3 0.76
-6 -1 16 4.95 1.4
6 1 -16 2.88 1.18
6 1 -16 1.95 1.23
-6 -2 16 4.06 1.3
6 2 -16 4.93 1.4
6 2 -16 4.6 1.27
-6 -3 16 7.98 1.82
-6 -3 16 3.65 1.27
6 3 -16 4.39 1.27
-6 -4 16 9.25 1.58
6 4 -16 9.47 1.63
-7 4 16 8.08 1.83
7 -4 -16 7.51 1.82
-7 3 16 21.23 2.44
7 -3 -16 18.02 2.29
-7 2 16 1 1.26
7 -2 -16 2.09 1.39
-7 1 16 1.32 1.2
-7 1 16 1.49 0.81
7 -1 -16 0.29 1.18
-7 0 16 3.66 1.32
-7 0 16 0.98 0.73
-7 0 16 2.14 0.81
7 0 -16 2.17 1.17
7 0 -16 2.11 1.23
-7 -1 16 0.96 0.61
-7 -1 16 1.67 0.59
-7 -1 16 3.28 1.32
7 1 -16 1.18 1.24
7 1 -16 0.3 1.01
-7 -2 16 1.61 1.31
-7 -2 16 1.8 1.17
7 2 -16 0.02 0.98
7 2 -16 1.62 1.23
-7 -3 16 22.39 2.65
-7 -3 16 21.8 2.23
7 3 -16 20.55 2.14
-7 -4 16 9.23 1.63
-7 -4 16 9.21 1.96
7 4 -16 9.33 1.58
-8 3 16 6.99 1.74
8 -3 -16 7.61 1.88
-8 2 16 1.9 1.34
8 -2 -16 2.82 1.35
-8 1 16 11.72 1.94
-8 1 16 14.57 1.39
8 -1 -16 9.77 1.82
-8 0 16 0.33 0.72
-8 0 16 1.01 1.13
-8 0 16 1.58 0.74
8 0 -16 1.5 1.05
8 0 -16 1.83 1.32
-8 -1 16 12.12 0.79
-8 -1 16 13.8 2.12
-8 -1 16 14.37 1.89
8 1 -16 15.99 1.93
8 1 -16 13.14 1.92
-8 -2 16 3.03 1.22
-8 -2 16 4.38 1.72
8 2 -16 2.48 1.21
-8 -3 16 8.49 1.95
-8 -3 16 7.71 1.54
8 3 -16 8.35 1.57
-9 3 16 -1.72 1.19
9 -3 -16 0.74 1.35
-9 2 16 4.53 1.57
9 -2 -16 2.47 1.44
-9 1 16 6.83 1.06
-9 1 16 7.75 1.71
-9 1 16 2.6 1.5
9 -1 -16 4.2 1.52
-9 0 16 0.24 1.31
-9 0 16 2.27 0.8
-9 0 16 2.43 0.73
-9 0 16 0.67 1.13
9 0 -16 0.91 1.22
9 0 -16 1.1 1.12
-9 -1 16 5.62 1.74
-9 -1 16 6.64 1.5
9 1 -16 6.87 1.54
9 1 -16 9.36 1.62
-9 -2 16 2.66 1.25
-9 -2 16 4.07 1.56
9 2 -16 3.52 1.27
-9 -3 16 2.65 1.43
-9 -3 16 2.72 1.15
9 3 -16 1.87 1.14
-10 2 16 4.73 1.75
-10 2 16 2.4 1.45
-10 2 16 3.5 1.04
10 -2 -16 3.62 1.57
-10 1 16 12.44 1.32
-10 1 16 8.44 1.85
-10 1 16 9.71 2.04
10 -1 -16 10.79 1.92
-10 0 16 13.4 1.15
-10 0 16 12.2 2.2
-10 0 16 13.93 1.13
-10 0 16 11.01 1.84
10 0 -16 15.3 2.05
10 0 -16 13.18 1.99
-10 -1 16 9.74 1.73
-10 -1 16 8.51 2
10 1 -16 10.73 1.74
-10 -2 16 5.01 1.42
-10 -2 16 1.58 1.45
10 2 -16 3.29 1.26
-11 2 16 14.94 2.27
-11 2 16 11.84 2.27
-11 2 16 11.66 1.46
11 -2 -16 12.15 2.13
-11 1 16 38.37 2.95
-11 1 16 36.75 3.51
-11 0 16 1.91 0.62
-11 0 16 1.46 1.47
-11 0 16 1.95 1.3
-11 0 16 1.4 0.63
11 0 -16 -0.54 1.2
11 0 -16 1.78 1.2
-11 -1 16 38.02 2.87
-11 -1 16 40.94 3.33
11 1 -16 38.96 2.76
-11 -2 16 12.19 1.88
11 2 -16 14.54 1.99
-12 1 16 2.56 0.9
-12 1 16 2.89 1.5
12 -1 -16 2.23 1.55
-12 0 16 22.47 2.54
-12 -1 16 1.57 1.31
12 1 -16 5.04 1.46
4 1 17 3.32 1.54
-4 -1 -17 0.26 0.97
-4 -1 -17 0.19 1.41
4 0 17 1.3 1.36
-4 0 -17 0.23 1.32
4 -1 17 1.7 1.39
-4 1 -17 3.56 1.65
3 2 17 10.84 1.88
-3 -2 -17 8.28 1.73
-3 -2 -17 9.31 1.91
3 1 17 10.15 1.89
-3 -1 -17 7.7 1.85
3 0 17 12.84 2.06
-3 0 -17 18.96 2.48
3 -1 17 16.06 2.25
-3 1 -17 8.58 1.89
3 -2 17 9.51 1.89
3 -2 17 10.18 1.33
-3 2 -17 9.04 1.95
2 2 17 0.69 1.17
2 2 17 4.38 1.46
-2 -2 -17 2.04 1.24
-2 -2 -17 0.76 1.36
2 1 17 -0.48 1.18
-2 -1 -17 1.26 1.38
2 0 17 50.54 3.21
-2 0 -17 54.09 3.51
2 -1 17 -0.53 1.13
-2 1 -17 -1.26 1.2
2 -2 17 1.66 1.32
2 -2 17 2.33 0.91
-2 2 -17 0.56 1.35
1 3 17 -0.87 1.17
-1 -3 -17 1.51 1.12
-1 -3 -17 -0.46 1.29
1 2 17 -1.31 1.01
1 2 17 2.46 1.33
-1 -2 -17 1.19 1.17
-1 -2 -17 1.51 1.41
1 1 17 3.65 1.45
-1 -1 -17 3.09 1.48
1 0 17 -0.31 1.15
-1 0 -17 3.25 1.49
1 -1 17 5.06 1.5
1 -1 17 3.53 1.03
-1 1 -17 2.02 1.37
1 -2 17 2.32 1.33
1 -2 17 1.46 0.81
-1 2 -17 0.86 1.39
1 -3 17 0.9 0.69
1 -3 17 1.23 0.67
1 -3 17 0.26 1.22
-1 3 -17 1.55 1.44
0 3 17 0.47 1.18
0 -3 -17 6.74 1.69
0 -3 -17 2.46 1.21
0 2 17 5.43 1.54
0 2 17 6.59 1.57
0 -2 -17 4.39 1.59
0 1 17 10.09 1.84
0 -1 -17 14.48 2.1
0 0 17 28.72 2.68
0 0 -17 23.81 2.57
0 -1 17 12.47 1.33
0 -1 17 13.4 1.97
0 1 -17 11.56 1.92
0 -2 17 5.49 1.59
0 -2 17 4.01 0.89
0 2 -17 6.87 1.69
0 -3 17 -0.05 1.11
0 -3 17 2.08 0.64
0 -3 17 2.02 0.61
0 3 -17 0.82 1.33
-1 3 17 10.49 1.81
1 -3 -17 9.38 1.89
1 -3 -17 9.96 1.73
-1 2 17 17.4 2.15
-1 2 17 18.75 2.22
1 -2 -17 18.7 2.33
-1 1 17 12.81 1.99
1 -1 -17 12.96 1.97
-1 0 17 11.69 1.71
-1 0 17 12.89 1.43
-1 0 17 11.91 1.88
1 0 -17 13.77 2.04
-1 -1 17 10.51 1.82
-1 -1 17 10.87 1.27
1 1 -17 7.82 1.71
-1 -2 17 16.95 1.4
-1 -2 17 18.23 1.32
-1 -2 17 22.23 2.45
1 2 -17 15.66 2
1 2 -17 14.16 2.08
-1 -3 17 9.23 1.76
1 3 -17 9.6 1.75
1 3 -17 9.12 1.76
1 3 -17 7.8 1.8
-2 3 17 17.32 2.21
-2 3 17 17.8 2.18
2 -3 -17 19.91 2.4
2 -3 -17 15.94 2.03
-2 2 17 2.48 1.2
-2 2 17 1.91 1.33
2 -2 -17 3.6 1.46
-2 1 17 10.67 1.86
2 -1 -17 8.63 1.73
-2 0 17 2.05 0.89
-2 0 17 0.45 0.84
-2 0 17 0.91 1.14
2 0 -17 2.05 1.33
-2 -1 17 12.5 1.95
-2 -1 17 10.48 1.23
2 1 -17 9.66 1.81
-2 -2 17 2.39 0.74
-2 -2 17 3.6 0.83
-2 -2 17 1.61 1.23
2 2 -17 3.1 1.44
2 2 -17 3.66 1.31
-2 -3 17 19.57 2.31
2 3 -17 18.78 2.22
-3 3 17 4.08 1.38
-3 3 17 1.55 1.33
3 -3 -17 0.85 0.96
3 -3 -17 2.45 1.46
-3 2 17 1.78 1.26
3 -2 -17 1.6 1.36
-3 1 17 6.75 1.57
3 -1 -17 6.49 1.57
-3 0 17 1.45 0.85
-3 0 17 0.7 0.98
-3 0 17 0.23 1.14
3 0 -17 1.9 1.29
-3 -1 17 7.42 1.02
-3 -1 17 7.64 1.65
3 1 -17 7.37 1.54
3 1 -17 8.15 1.72
-3 -2 17 -1.02 0.58
-3 -2 17 -0.35 0.52
-3 -2 17 0.89 1.22
3 2 -17 -1.63 0.9
3 2 -17 -0.17 1.18
-3 -3 17 1.32 1.2
3 3 -17 0.39 1.1
-4 3 17 6.93 1.65
4 -3 -17 3.17 1.18
4 -3 -17 6.72 1.7
-4 2 17 13.62 2.05
4 -2 -17 7.76 1.76
-4 1 17 14.22 2
-4 1 17 13.38 1.8
4 -1 -17 17.69 2.17
-4 0 17 2.06 0.8
-4 0 17 -1 0.84
-4 0 17 1.23 1.21
4 0 -17 -0.07 1.18
-4 -1 17 19.05 2.22
-4 -1 17 16.05 1.32
-4 -1 17 14.97 1.33
4 1 -17 17.97 2.2
4 1 -17 13.01 1.82
-4 -2 17 13.54 0.89
-4 -2 17 14.18 1.93
-4 -2 17 13.27 0.94
4 2 -17 12.49 1.77
4 2 -17 14.13 1.97
-4 -3 17 7.01 1.55
4 3 -17 3.97 1.36
-5 3 17 11.73 2.03
5 -3 -17 9.1 1.89
5 -3 -17 10.07 1.56
-5 2 17 0.54 1.17
5 -2 -17 -0.78 1.17
-5 1 17 0.38 1.2
-5 1 17 2.92 0.93
-5 1 17 4.24 1.25
5 -1 -17 5.34 1.53
-5 0 17 3.62 0.94
-5 0 17 5.85 1.59
5 0 -17 4.31 1.51
-5 -1 17 4.79 1.47
-5 -1 17 2.74 0.74
-5 -1 17 2.69 0.82
5 1 -17 3.54 1.4
5 1 -17 2.82 1.18
-5 -2 17 1.7 1.15
5 2 -17 -0.91 1.15
5 2 -17 -0.22 0.99
-5 -3 17 10.64 1.99
-5 -3 17 12.77 1.9
5 3 -17 8.65 1.65
-6 3 17 32.02 2.97
6 -3 -17 26.59 2.73
6 -3 -17 27.69 2.18
-6 2 17 3.18 1.47
6 -2 -17 2.32 1.42
-6 1 17 2.22 1.11
-6 1 17 4.26 0.97
-6 1 17 3.47 1.41
6 -1 -17 4.14 1.48
-6 0 17 6.69 1.66
-6 0 17 6.45 1.04
6 0 -17 6.04 1.55
-6 -1 17 3.22 0.81
-6 -1 17 2.27 1.29
-6 -1 17 2.15 0.69
6 1 -17 5.4 1.53
6 1 -17 4.39 1.38
-6 -2 17 1.92 1.22
6 2 -17 4.04 1.43
6 2 -17 2.9 1.31
-6 -3 17 31.99 2.54
-6 -3 17 35.61 3.01
6 3 -17 27.38 2.53
-7 3 17 1.86 1.43
7 -3 -17 2.93 1.45
-7 2 17 5.27 1.58
7 -2 -17 4.59 1.53
-7 1 17 11.87 1.93
-7 1 17 10.26 1.29
7 -1 -17 9.49 1.79
-7 0 17 7.99 1.07
-7 0 17 11.35 1.86
7 0 -17 9.49 1.68
7 0 -17 11.07 1.91
-7 -1 17 8.35 1.7
-7 -1 17 9.96 0.91
-7 -1 17 10.97 0.99
7 1 -17 10.75 1.89
7 1 -17 10.55 1.76
-7 -2 17 2.93 1.53
-7 -2 17 4.49 1.36
7 2 -17 2.89 1.3
-7 -3 17 0.53 1.51
-7 -3 17 1.15 1.17
7 3 -17 1.79 1.23
-8 3 17 1.83 1.41
8 -3 -17 0.93 1.39
-8 2 17 -0.74 1.16
8 -2 -17 1.29 1.33
-8 1 17 11.83 1.94
-8 1 17 8.18 1.21
8 -1 -17 8.39 1.76
-8 0 17 1.3 0.8
-8 0 17 1.53 0.75
-8 0 17 3.47 1.4
8 0 -17 3.34 1.42
8 0 -17 3.35 1.3
-8 -1 17 8.46 2.03
-8 -1 17 7.54 1.63
-8 -1 17 8.4 0.73
8 1 -17 10.72 1.76
8 1 -17 7.61 1.7
-8 -2 17 2.41 1.21
-8 -2 17 3.43 1.68
8 2 -17 0.69 1.08
-8 -3 17 2.3 1.17
-8 -3 17 0.91 1.43
8 3 -17 4.15 1.34
-9 2 17 3.19 1.54
9 -2 -17 5.32 1.66
-9 1 17 1.1 1.31
-9 1 17 0.9 0.79
9 -1 -17 0.57 1.3
-9 0 17 8.77 1.81
-9 0 17 8.13 1.06
-9 0 17 8.97 1.07
-9 0 17 11.9 2.1
9 0 -17 8.88 1.85
-9 -1 17 1.68 1.2
-9 -1 17 -0.88 1.26
9 1 -17 4.42 1.55
9 1 -17 1.33 1.13
-9 -2 17 6.48 1.49
-9 -2 17 6.29 1.94
9 2 -17 3.04 1.31
-10 2 17 -0.85 1.29
10 -2 -17 1.43 1.4
-10 1 17 0.95 1.3
-10 1 17 -0.06 0.77
-10 1 17 2.42 1.56
10 -1 -17 0.67 1.37
-10 0 17 24.54 2.86
-10 0 17 27.2 2.7
-10 0 17 28.28 1.5
10 0 -17 31.14 2.9
-10 -1 17 1.97 1.27
-10 -1 17 0.06 1.57
10 1 -17 0.63 1.11
-10 -2 17 1.21 1.22
-10 -2 17 1.24 1.48
10 2 -17 0.83 1.14
-11 1 17 10.17 1.22
-11 1 17 6.54 1.82
11 -1 -17 10.6 2.07
-11 0 17 11.39 2
-11 0 17 13.7 1.05
11 0 -17 14.05 2.15
-11 -1 17 11.76 1.95
11 1 -17 10.35 1.8
2 1 18 16.58 2.33
-2 -1 -18 7.17 1.87
2 0 18 6.23 1.79
-2 0 -18 5.93 1.75
2 -1 18 15.75 2.26
-2 1 -18 11.21 2.13
1 2 18 9.47 1.9
-1 -2 -18 8.56 1.86
-1 -2 -18 5.28 1.54
1 1 18 19.81 2.44
-1 -1 -18 17.06 2.36
1 0 18 0.13 1.24
-1 0 -18 2.87 1.57
1 -1 18 19.03 1.69
1 -1 18 19.32 2.45
-1 1 -18 19.99 2.53
1 -2 18 6.77 1.12
1 -2 18 7.15 1.78
-1 2 -18 7.64 1.85
0 2 18 4.48 1.55
0 -2 -18 5.1 1.66
0 1 18 6.34 1.71
0 -1 -18 4.86 1.61
0 0 18 0.53 1.22
0 0 -18 6.15 1.73
0 -1 18 6.91 1.73
0 -1 18 5.54 1.07
0 1 -18 8.31 1.85
0 -2 18 5.84 1.05
0 -2 18 8.05 1.8
0 2 -18 5.32 1.76
-1 3 18 2.3 1.34
1 -3 -18 1.02 1.15
1 -3 -18 1.51 1.37
-1 2 18 2.64 1.39
1 -2 -18 3.07 1.51
-1 1 18 4.7 1.52
1 -1 -18 5.48 1.64
-1 0 18 28.26 2.77
1 0 -18 19.96 2.41
-1 -1 18 5.87 1.64
-1 -1 18 4.73 1.03
1 1 -18 6.1 1.67
-1 -2 18 3.61 0.86
-1 -2 18 1.24 1.28
1 2 -18 0.44 1.41
-1 -3 18 -1.47 1.1
-2 3 18 -0.96 1.25
2 -3 -18 3.71 1.35
2 -3 -18 2.18 1.49
-2 2 18 8.82 1.9
2 -2 -18 10.92 1.97
-2 1 18 12.31 2.02
2 -1 -18 9.97 1.93
-2 0 18 3.49 1.43
-2 0 18 4.37 1.03
2 0 -18 2.24 1.48
-2 -1 18 10.04 1.22
-2 -1 18 9.59 1.8
2 1 -18 9.7 1.88
-2 -2 18 11.84 1.11
-2 -2 18 6.07 1.64
-2 -2 18 9.44 1.1
2 2 -18 11.35 2.04
-2 -3 18 3.39 1.47
2 3 -18 3.47 1.39
-3 3 18 9.25 1.84
3 -3 -18 3.97 1.63
3 -3 -18 6.16 1.52
-3 2 18 29.44 2.81
3 -2 -18 36.18 2.87
-3 1 18 9.46 1.82
3 -1 -18 6.38 1.66
-3 0 18 1.74 1.32
-3 0 18 2.65 0.91
3 0 -18 -0.65 1.21
-3 -1 18 9.48 1.79
-3 -1 18 5.25 0.98
3 1 -18 6.36 1.65
-3 -2 18 29.4 1.44
-3 -2 18 32.85 1.54
-3 -2 18 29.72 2.77
3 2 -18 33.2 2.63
3 2 -18 33.8 2.91
-3 -3 18 6.26 1.61
3 3 -18 9.06 1.76
-4 3 18 6.46 1.7
4 -3 -18 6.37 1.76
4 -3 -18 6.28 1.47
-4 2 18 3.05 1.47
4 -2 -18 0.67 1.35
-4 1 18 2.81 1.43
4 -1 -18 0.69 1.32
-4 0 18 2.01 1.35
-4 0 18 3.47 0.99
4 0 -18 2.06 1.43
-4 -1 18 -0.08 0.66
-4 -1 18 1.71 1.25
4 1 -18 0.95 1.27
-4 -2 18 2.03 0.64
-4 -2 18 0.82 1.16
-4 -2 18 1.5 0.56
4 2 -18 1.36 1.38
4 2 -18 2.05 1.22
-4 -3 18 5.68 1.51
4 3 -18 6.5 1.62
-5 3 18 2.58 1.46
5 -3 -18 3.26 1.23
5 -3 -18 4.02 1.59
-5 2 18 13.4 2.13
-5 1 18 7.02 1.67
5 -1 -18 4.36 1.56
-5 0 18 0.25 0.72
-5 0 18 0.06 1.16
5 0 -18 1.28 1.3
-5 -1 18 3.87 0.88
-5 -1 18 4.92 1.46
-5 -1 18 5.56 0.89
5 1 -18 4.3 1.55
5 1 -18 3.03 1.28
-5 -2 18 14.49 2.09
5 2 -18 11.32 1.81
5 2 -18 12.58 1.93
-5 -3 18 1.03 1.51
-5 -3 18 3.26 1.32
5 3 -18 1.15 1.17
-6 3 18 1.93 1.42
6 -3 -18 2.13 1.47
-6 2 18 -0.94 1.18
6 -2 -18 2.94 1.48
-6 1 18 18.59 2.37
-6 1 18 11.21 1.36
6 -1 -18 14.7 2.21
-6 0 18 1.54 0.81
-6 0 18 0.91 1.27
6 0 -18 1.24 1.35
-6 -1 18 11.39 1.08
-6 -1 18 12.65 1.97
-6 -1 18 11.47 1.15
6 1 -18 10.95 1.9
6 1 -18 10.49 1.8
-6 -2 18 2.96 1.36
6 2 -18 1.53 1.21
-6 -3 18 -0.34 1.03
-6 -3 18 0 1.32
6 3 -18 3.48 1.31
-7 2 18 5.07 1.64
7 -2 -18 7.91 1.81
-7 1 18 2.83 0.94
-7 1 18 2.39 1.39
7 -1 -18 0.72 1.33
-7 0 18 5.74 1.59
-7 0 18 5.67 0.99
7 0 -18 8.5 1.78
-7 -1 18 2.12 1.31
-7 -1 18 2.11 0.71
-7 -1 18 2 0.65
7 1 -18 0.98 1.17
7 1 -18 2.38 1.38
-7 -2 18 6.76 1.62
-7 -2 18 8.32 1.97
7 2 -18 7.28 1.59
-8 2 18 9.73 1.96
8 -2 -18 7.33 1.83
-8 1 18 8.25 1.82
-8 1 18 6.78 1.2
8 -1 -18 6.09 1.73
-8 0 18 0.28 1.21
-8 0 18 0.08 0.67
8 0 -18 -0.81 1.24
-8 -1 18 4.89 1.72
-8 -1 18 6.6 1.65
-8 -1 18 6.32 0.7
8 1 -18 6.98 1.6
8 1 -18 6.17 1.67
-8 -2 18 9.69 2.11
-8 -2 18 6.8 1.65
8 2 -18 7.38 1.61
-9 2 18 11 2.09
9 -2 -18 6.49 1.85
-9 1 18 -0.19 1.16
-9 1 18 -1.12 0.72
9 -1 -18 0.77 1.33
-9 0 18 1.82 1.38
-9 0 18 4.19 0.94
-9 0 18 5.21 0.95
-9 0 18 4.93 1.77
9 0 -18 5.14 1.61
-9 -1 18 0.18 1.51
-9 -1 18 -2.11 1
9 1 -18 1.39 1.22
-9 -2 18 7.43 2.12
-9 -2 18 9.92 1.82
9 2 -18 9.86 1.76
-10 1 18 4.56 1.62
-10 1 18 3.2 0.96
10 -1 -18 3.94 1.64
-10 0 18 1.76 0.7
-10 0 18 -0.45 0.71
-10 0 18 0.47 1.27
10 0 -18 1.61 1.48
-10 -1 18 3.19 1.45
10 1 -18 4.24 1.5
1 0 19 -0.79 1.21
-1 0 -19 0.26 1.4
0 1 19 5.31 1.68
0 -1 -19 3.48 1.56
0 0 19 17.37 2.42
0 0 -19 17.04 2.41
0 -1 19 3.78 1.54
0 -1 19 3.92 1.07
0 1 -19 2.02 1.53
-1 2 19 0.58 1.29
1 -2 -19 2.54 1.53
-1 1 19 11.63 2.01
1 -1 -19 9.84 1.95
-1 0 19 7.42 1.76
1 0 -19 5.62 1.75
-1 -1 19 11.57 1.35
-1 -1 19 10.22 2.03
1 1 -19 9.99 2.01
-1 -2 19 0.98 0.76
-1 -2 19 1.65 1.38
1 2 -19 0.78 1.46
-2 2 19 -2.14 1.05
2 -2 -19 -2.23 1.11
-2 1 19 10.74 1.96
2 -1 -19 6.79 1.85
-2 0 19 3.55 1.53
2 0 -19 4.76 1.69
-2 -1 19 4.76 1.03
-2 -1 19 7.43 1.75
2 1 -19 9.58 1.92
-2 -2 19 -0.41 0.59
-2 -2 19 1.05 1.37
2 2 -19 1.84 1.5
-3 2 19 4.21 1.62
3 -2 -19 1.5 1.51
-3 1 19 13.84 2.2
3 -1 -19 11.2 2.04
-3 0 19 6.17 1.71
-3 0 19 4.43 1.04
3 0 -19 5.93 1.75
-3 -1 19 12.73 2.12
-3 -1 19 12.12 1.3
3 1 -19 8.84 1.92
-3 -2 19 4.01 0.77
-3 -2 19 1.66 1.41
-3 -2 19 1.93 0.73
3 2 -19 2.34 1.53
-4 2 19 3.15 1.51
4 -2 -19 1.38 1.45
-4 1 19 17.45 2.39
4 -1 -19 12.27 2.19
-4 0 19 1.72 0.92
-4 0 19 1.86 1.34
4 0 -19 3.14 1.53
-4 -1 19 16.02 2.28
4 1 -19 9.18 1.93
-4 -2 19 1.96 1.34
-4 -2 19 2.57 0.66
-4 -2 19 2.58 0.62
4 2 -19 4.99 1.64
-5 2 19 -2.14 1.12
5 -2 -19 1.01 1.37
-5 1 19 9.27 1.91
5 -1 -19 6.74 1.81
-5 0 19 -0.38 1.18
-5 0 19 0.72 0.81
5 0 -19 1.3 1.42
-5 -1 19 7.1 1.71
-5 -1 19 7.4 1.05
5 1 -19 6.98 1.77
-5 -2 19 0.01 1.12
5 2 -19 -1.03 1.04
5 2 -19 1.68 1.4
-6 2 19 -0.7 1.24
6 -2 -19 1.05 1.47
-6 1 19 5.06 1.64
6 -1 -19 5.26 1.71
-6 0 19 0.74 0.75
-6 0 19 0.92 1.32
6 0 -19 -0.84 1.25
-6 -1 19 7.06 1.01
-6 -1 19 6.9 1.74
-6 -1 19 6.01 0.92
6 1 -19 4.8 1.65
-6 -2 19 3.48 1.47
6 2 -19 2.34 1.32
-7 2 19 10.7 2.06
7 -2 -19 10.76 2.07
-7 1 19 0.6 0.85
-7 1 19 1.58 1.38
7 -1 -19 2.46 1.54
-7 0 19 3.64 1.54
-7 0 19 1.68 0.81
7 0 -19 1.16 1.44
-7 -1 19 1.2 0.73
-7 -1 19 0.94 1.3
-7 -1 19 2.27 0.67
7 1 -19 1.51 1.43
-7 -2 19 12.68 2.01
-7 -2 19 14.86 2.36
7 2 -19 10.79 1.91
-8 1 19 11.71 1.44
-8 1 19 10.75 2.02
8 -1 -19 9.81 1.98
-8 0 19 0.17 1.21
-8 0 19 -0.21 0.72
8 0 -19 -1.76 1.19
-8 -1 19 13.28 0.9
-8 -1 19 15.49 2.19
8 1 -19 13.21 2.17
-9 0 19 10.95 1.2
-9 0 19 12.53 2.12
9 0 -19 12.62 2.16
-2 0 20 2.67 1.51
2 0 -20 2.81 1.6
-3 1 20 7.97 1.9
-3 0 20 4.37 1.7
3 0 -20 4.03 1.69
-3 -1 20 10.41 2.04
-4 1 20 1.3 1.44
4 -1 -20 0.2 1.39
-4 0 20 10.85 1.41
-4 0 20 12.82 2.12
4 0 -20 11.66 2.11
-4 -1 20 0.39 0.79
-4 -1 20 1.27 1.34
4 1 -20 -1.59 1.33
-5 1 20 3.53 1.56
5 -1 -20 0.53 1.43
-5 0 20 2.15 1.46
-5 0 20 1.21 0.81
5 0 -20 3.16 1.64
-5 -1 20 2.91 0.87
-5 -1 20 4.49 1.58
5 1 -20 0.78 1.47
-6 0 20 7.67 1.17
-6 0 20 5.99 1.79
6 0 -20 5.03 1.77
