#------------------------------------------------------------------------------
#$Date: 2016-02-18 17:37:37 +0200 (Thu, 18 Feb 2016) $
#$Revision: 176729 $
#$URL: svn://www.crystallography.net/cod/cif/1/51/66/1516633.cif $
#------------------------------------------------------------------------------
#
# This file is available in the Crystallography Open Database (COD),
# http://www.crystallography.net/
#
# All data on this site have been placed in the public domain by the
# contributors.
#
data_1516633
loop_
_publ_author_name
'Choudhary, Amit'
'Newberry, Robert W.'
'Raines, Ronald T.'
_publ_section_title
;
 n\\rightarrow \p* Interactions Engender Chirality in Carbonyl Groups.
;
_journal_issue                   13
_journal_name_full               'Organic letters'
_journal_page_first              3421
_journal_page_last               3423
_journal_paper_doi               10.1021/ol5012967
_journal_volume                  16
_journal_year                    2014
_chemical_absolute_configuration ad
_chemical_formula_sum            'C9 H15 N O3 S'
_chemical_formula_weight         217.28
_space_group_crystal_system      monoclinic
_space_group_IT_number           5
_space_group_name_Hall           'C 2y'
_space_group_name_H-M_alt        'C 1 2 1'
_symmetry_space_group_name_Hall  'C 2y'
_symmetry_space_group_name_H-M   'C 1 2 1'
_atom_sites_solution_hydrogens   geom
_audit_creation_method
;
manual editing of the CIF file 
created by SHELXTL Ver. 6.10
;
_cell_angle_alpha                90
_cell_angle_beta                 96.568(6)
_cell_angle_gamma                90
_cell_formula_units_Z            4
_cell_length_a                   14.493(6)
_cell_length_b                   6.393(3)
_cell_length_c                   11.849(5)
_cell_measurement_reflns_used    3774
_cell_measurement_temperature    273(2)
_cell_measurement_theta_max      28.1151
_cell_measurement_theta_min      2.8294
_cell_volume                     1090.6(8)
_computing_cell_refinement       'SAINT Ver. 6.22  (Bruker-AXS, 2003)'
_computing_data_collection       'SMART Ver. 5.622 (Bruker-AXS, 2003)'
_computing_data_reduction        'SAINT Ver. 6.22'
_computing_molecular_graphics    'SHELXTL Ver. 6.10'
_computing_publication_material  'SHELXTL Ver. 6.10'
_computing_structure_refinement  'SHELXL-2013 (Sheldrick, 2013)'
_computing_structure_solution    'SHELXTL Ver. 6.10 (Bruker-AXS, 2003)'
_diffrn_ambient_temperature      273(2)
_diffrn_measured_fraction_theta_full 0.999
_diffrn_measured_fraction_theta_max 0.993
_diffrn_measurement_device_type  'Bruker CCD-1000 area detector'
_diffrn_measurement_method       '0.30\% \w scans'
_diffrn_radiation_type           MoK\a
_diffrn_radiation_wavelength     0.71073
_diffrn_reflns_av_R_equivalents  0.0502
_diffrn_reflns_av_unetI/netI     0.0552
_diffrn_reflns_Laue_measured_fraction_full 0.999
_diffrn_reflns_Laue_measured_fraction_max 0.993
_diffrn_reflns_limit_h_max       19
_diffrn_reflns_limit_h_min       -19
_diffrn_reflns_limit_k_max       8
_diffrn_reflns_limit_k_min       -8
_diffrn_reflns_limit_l_max       14
_diffrn_reflns_limit_l_min       -15
_diffrn_reflns_number            6025
_diffrn_reflns_point_group_measured_fraction_full 0.999
_diffrn_reflns_point_group_measured_fraction_max 0.995
_diffrn_reflns_theta_full        25.242
_diffrn_reflns_theta_max         28.179
_diffrn_reflns_theta_min         2.829
_diffrn_source                   'fine-focus sealed tube'
_exptl_absorpt_coefficient_mu    0.279
_exptl_absorpt_correction_T_max  0.8964
_exptl_absorpt_correction_T_min  0.8729
_exptl_absorpt_correction_type   multi-scan
_exptl_absorpt_process_details
;
SADABS  (Bruker-AXS, 2003)
;
_exptl_crystal_colour            colorless
_exptl_crystal_density_diffrn    1.323
_exptl_crystal_description       needle
_exptl_crystal_F_000             464
_exptl_crystal_size_max          0.500
_exptl_crystal_size_mid          0.450
_exptl_crystal_size_min          0.400
_refine_diff_density_max         0.787
_refine_diff_density_min         -0.402
_refine_diff_density_rms         0.088
_refine_ls_abs_structure_details
;
 Refined as an inversion twin.
;
_refine_ls_abs_structure_Flack   0.00(13)
_refine_ls_extinction_method     none
_refine_ls_goodness_of_fit_ref   1.043
_refine_ls_hydrogen_treatment    constr
_refine_ls_matrix_type           full
_refine_ls_number_parameters     131
_refine_ls_number_reflns         2611
_refine_ls_number_restraints     1
_refine_ls_restrained_S_all      1.043
_refine_ls_R_factor_all          0.0539
_refine_ls_R_factor_gt           0.0485
_refine_ls_shift/su_max          0.001
_refine_ls_shift/su_mean         0.000
_refine_ls_structure_factor_coef Fsqd
_refine_ls_weighting_details
'w=1/[\s^2^(Fo^2^)+(0.0843P)^2^] where P=(Fo^2^+2Fc^2^)/3'
_refine_ls_weighting_scheme      calc
_refine_ls_wR_factor_gt          0.1201
_refine_ls_wR_factor_ref         0.1246
_reflns_Friedel_coverage         0.841
_reflns_Friedel_fraction_full    1.000
_reflns_Friedel_fraction_max     0.997
_reflns_number_gt                2361
_reflns_number_total             2611
_reflns_threshold_expression     'I > 2\s(I)'
_cod_data_source_file            ol5012967_si_008.cif
_cod_data_source_block           global
_cod_depositor_comments
'Adding full bibliography for 1516628--1516633.cif.'
_cod_database_code               1516633
#BEGIN Tags that were not found in dictionaries:
_shelx_space_group_comment
;
The symmetry employed for this shelxl refinement is uniquely defined
by the following loop, which should always be used as a source of
symmetry information in preference to the above space-group names.
They are only intended as comments.
;
_shelx_estimated_absorpt_t_min   0.873
_shelx_estimated_absorpt_t_max   0.896
_shelxl_version_number           2013-4
_shelx_res_file
;
TITL raines37 in C2
CELL 0.71073  14.4931   6.3929  11.8491  90.000  96.568  90.000
ZERR    4.00   0.0063   0.0028   0.0052   0.000   0.006   0.000
LATT -7
SYMM -X, Y, -Z
SFAC C  H  N  O  S
UNIT 36 60 4 12 4
L.S. 100
ACTA
BOND
FMAP 2
PLAN 20
EQIV $3 -x+3/2, y-1/2, -z+1
HTAB C3 O2_$2
EQIV $2 x, y+1, z
HTAB C1 O1
HTAB C1 S1_$1
HTAB C6 S1_$1
EQIV $1 x, y-1, z
TWIN
WPDB
CONF
HTAB
Size 0.50 0.45 0.40
TEMP 0
WGHT    0.084300
BASF   0.00212
FVAR       0.23460
MOLE 1
S1    5    0.793895    0.569224    0.893551    11.00000    0.01785    0.01415 =
         0.03555   -0.00136    0.00385   -0.00190
O3    4    0.507224    0.287089    0.666575    11.00000    0.01541    0.02270 =
         0.03202    0.00283    0.00191   -0.00052
O2    4    0.620143   -0.193562    0.652938    11.00000    0.02819    0.01653 =
         0.03543   -0.00540    0.00914   -0.00409
C6    1    0.650893    0.044266    0.802184    11.00000    0.01247    0.01256 =
         0.02687    0.00290    0.00389   -0.00122
AFIX  13
H6    2    0.685142   -0.051491    0.856366    11.00000   -1.20000
AFIX   0
C2    1    0.767771    0.321698    0.856286    11.00000    0.01522    0.01307 =
         0.02545    0.00190    0.00496    0.00088
N1    3    0.681352    0.258736    0.828642    11.00000    0.01253    0.01140 =
         0.02983    0.00097    0.00563    0.00247
C5    1    0.548251    0.047216    0.823508    11.00000    0.01358    0.01720 =
         0.02890    0.00107    0.00705   -0.00002
AFIX  23
H5A   2    0.512718   -0.057981    0.778338    11.00000   -1.20000
H5B   2    0.541622    0.024795    0.903143    11.00000   -1.20000
AFIX   0
O1    4    0.717694    0.068800    0.624314    11.00000    0.02539    0.02620 =
         0.03264   -0.00149    0.01305   -0.00464
C1    1    0.844324    0.162926    0.853699    11.00000    0.01546    0.01533 =
         0.04092    0.00051    0.00833    0.00098
AFIX 137
H1A   2    0.826475    0.034599    0.887258    11.00000   -1.50000
H1B   2    0.900111    0.215206    0.895758    11.00000   -1.50000
H1C   2    0.855165    0.137806    0.776432    11.00000   -1.50000
AFIX   0
C4    1    0.518240    0.267410    0.785980    11.00000    0.01130    0.01954 =
         0.03302   -0.00303    0.00527    0.00226
AFIX  13
H4    2    0.461945    0.310131    0.818477    11.00000   -1.20000
AFIX   0
C3    1    0.600968    0.400443    0.831115    11.00000    0.01532    0.01419 =
         0.03241   -0.00339    0.00477    0.00457
AFIX  23
H3A   2    0.606648    0.521581    0.783101    11.00000   -1.20000
H3B   2    0.595459    0.447356    0.907908    11.00000   -1.20000
AFIX   0
C9    1    0.421321    0.206699    0.615325    11.00000    0.01913    0.03322 =
         0.04154   -0.00182   -0.00244   -0.00291
AFIX 137
H9A   2    0.416668    0.061284    0.634088    11.00000   -1.50000
H9B   2    0.417913    0.222027    0.534359    11.00000   -1.50000
H9C   2    0.371213    0.282350    0.642824    11.00000   -1.50000
AFIX   0
C8    1    0.642465   -0.299096    0.551285    11.00000    0.04443    0.02247 =
         0.03731   -0.01024    0.00912   -0.00319
AFIX 137
H8A   2    0.607082   -0.238551    0.485932    11.00000   -1.50000
H8B   2    0.627561   -0.444958    0.555755    11.00000   -1.50000
H8C   2    0.707540   -0.283695    0.544822    11.00000   -1.50000
AFIX   0
C7    1    0.666938   -0.018464    0.682412    11.00000    0.01508    0.01265 =
         0.03215   -0.00133    0.00508    0.00276
HKLF 4

REM  raines37 in C2
REM R1 =  0.0485 for    2361 Fo > 4sig(Fo)  and  0.0539 for all    2611 data
REM    131 parameters refined using      1 restraints

END

WGHT      0.0842      0.0000

REM Instructions for potential hydrogen bonds
HTAB C6 S1_$1
HTAB C1 S1_$1
HTAB C1 O1
HTAB C3 O2_$2
HTAB C8 O1_$3

REM Highest difference peak  0.787,  deepest hole -0.402,  1-sigma level  0.088
Q1    1   0.7782  0.5718  0.8196  11.00000  0.05    0.79
Q2    1   0.8135  0.5613  0.9714  11.00000  0.05    0.78
Q3    1   0.5096  0.2539  0.7228  11.00000  0.05    0.48
Q4    1   0.6966  0.0608  0.5575  11.00000  0.05    0.43
Q5    1   0.6717  0.0005  0.7563  11.00000  0.05    0.41
Q6    1   0.6502  0.0303  0.7394  11.00000  0.05    0.41
Q7    1   0.6193 -0.2049  0.5891  11.00000  0.05    0.38
Q8    1   0.6994  0.2684  0.8990  11.00000  0.05    0.31
Q9    1   0.7346  0.0772  0.6945  11.00000  0.05    0.31
Q10   1   0.5674  0.0421  0.9000  11.00000  0.05    0.31
Q11   1   0.6684  0.2784  0.7555  11.00000  0.05    0.30
Q12   1   0.6203 -0.2512  0.6944  11.00000  0.05    0.28
Q13   1   0.6993  0.0024  0.9493  11.00000  0.05    0.28
Q14   1   0.6323 -0.2262  0.7236  11.00000  0.05    0.28
Q15   1   0.6699 -0.0128  0.8316  11.00000  0.05    0.28
Q16   1   0.6625 -0.2115  0.4957  11.00000  0.05    0.27
Q17   1   0.6725  0.1364  0.8188  11.00000  0.05    0.27
Q18   1   0.7550  0.3906  1.0015  11.00000  0.05    0.27
Q19   1   0.8563  0.1355  0.9367  11.00000  0.05    0.25
Q20   1   0.7729  0.3444  0.9420  11.00000  0.05    0.25
;
_shelx_res_checksum              5956
_shelx_hkl_file
;
   2   0   0  186.97   12.07
   2   0   0  210.80   13.73
  -2   0   0  184.07   13.70
   2   0   0  172.52   11.47
  -2   0   0  173.61   10.86
   4   0   0    7.02    0.56
   4   0   0    7.77    0.67
   4   0   0    5.92    0.48
  -4   0   0    6.49    0.49
  -4   0   0    7.12    0.60
   6   0   0  135.38    9.25
   6   0   0  121.09    8.09
   6   0   0  123.48    7.65
  -6   0   0  116.45    7.28
  -6   0   0  120.21    9.18
   8   0   0    0.06    0.28
   8   0   0   -0.40    0.19
  -8   0   0    0.13    0.23
  -8   0   0   -0.02    0.22
   8   0   0   -0.11    0.31
  10   0   0   56.64    4.30
 -10   0   0   56.35    3.35
  10   0   0   54.34    3.45
 -10   0   0   51.30    4.17
  10   0   0   52.26    3.69
 -12   0   0    6.38    0.72
  12   0   0    5.01    0.88
  12   0   0    6.14    0.77
 -14   0   0   23.58    1.67
  14   0   0   22.84    1.84
  16   0   0   10.95    1.18
 -18   0   0    3.59    0.96
  18   0   0    5.08    0.97
   1  -1   0  367.64   20.54
   1  -1   0  300.57   21.62
  -1  -1   0  342.96   21.64
  -1  -1   0  302.45   20.53
  -1  -1   0  350.49   19.49
  -1   1   0  343.03   20.09
   3  -1   0  471.29   29.53
   3  -1   0  447.22   28.03
  -3  -1   0  447.35   26.61
   3   1   0  381.98   29.88
  -3   1   0  447.97   23.70
   3   1   0  361.16   26.29
  -3   1   0  430.03   29.88
  -5  -1   0  550.63   35.27
   5  -1   0  659.47   44.51
   5  -1   0  616.94   37.15
   5  -1   0  587.14   39.13
  -5   1   0  632.04   41.22
   5   1   0  512.67   41.22
  -5   1   0  601.20   32.69
   5   1   0  490.64   36.27
   7  -1   0  240.18   15.22
   7  -1   0  234.96   17.35
   7  -1   0  240.73   14.47
  -7  -1   0  217.33   13.73
  -7   1   0  240.74   16.31
   7   1   0  190.01   14.33
   7   1   0  218.72   16.34
  -7   1   0  229.19   12.93
   9  -1   0   10.10    0.86
  -9  -1   0    9.79    0.79
   9  -1   0    8.40    1.01
   9  -1   0    8.83    0.81
  -9   1   0    9.39    0.91
  -9   1   0    8.90    0.73
   9   1   0    9.12    0.84
   9   1   0    7.40    0.99
  11  -1   0   97.75    6.64
 -11  -1   0   99.84    6.03
  11  -1   0  101.62    6.33
 -11   1   0   92.98    7.45
  11   1   0  108.22    7.61
  11   1   0   98.63    6.58
 -11   1   0   93.59    5.91
 -13  -1   0    0.33    0.48
  13  -1   0    1.21    0.51
 -13   1   0    0.34    0.45
  13   1   0    1.39    0.59
  13   1   0    0.91    0.70
  15  -1   0   13.27    1.25
 -15  -1   0   12.97    1.20
  15   1   0   15.61    1.43
 -15   1   0   14.51    1.27
 -17  -1   0   10.61    1.14
  17  -1   0    9.42    1.16
 -17   1   0   10.91    1.14
  17   1   0   10.39    1.27
 -19  -1   0    8.27    1.21
 -19   1   0    6.69    1.09
   0  -2   0  159.19    9.81
   0  -2   0  167.90   10.90
   0  -2   0  173.53   10.39
  -2  -2   0  335.65   22.44
   2  -2   0  350.21   23.63
  -2  -2   0  370.49   21.31
   2  -2   0  396.15   22.49
  -2  -2   0  368.92   23.67
  -2   2   0  352.67   27.12
  -2   2   0  382.63   21.50
  -4  -2   0    3.45    0.35
   4  -2   0    3.33    0.42
   4  -2   0    3.93    0.39
  -4   2   0    3.08    0.28
   4   2   0    2.57    0.35
   4   2   0    2.14    0.34
  -4   2   0    2.45    0.33
  -6  -2   0   19.08    1.20
   6  -2   0   16.62    1.29
   6  -2   0   17.59    1.26
   6   2   0   16.13    1.23
  -6   2   0   17.03    1.06
   6   2   0   13.86    1.39
  -6   2   0   17.30    1.37
   8  -2   0  169.98   11.22
  -8  -2   0  169.89   10.17
   8  -2   0  175.40   10.76
  -8   2   0  169.71    9.86
   8   2   0  163.71   10.98
   8   2   0  160.49   12.48
  -8   2   0  173.03   12.46
  10  -2   0    1.78    0.38
  10  -2   0    0.44    0.39
 -10  -2   0    1.88    0.43
  10   2   0    1.72    0.52
 -10   2   0    1.45    0.43
  10   2   0    0.85    0.53
 -10   2   0    1.58    0.37
  12  -2   0   64.70    4.15
 -12  -2   0   61.84    3.92
  12  -2   0   61.58    4.26
 -12   2   0   61.72    4.73
 -12   2   0   57.66    3.71
  12   2   0   56.18    4.17
  12   2   0   64.18    4.90
  14  -2   0   39.51    2.84
 -14  -2   0   39.99    2.65
 -14   2   0   41.41    2.69
  14   2   0   39.15    3.04
  14   2   0   42.89    3.64
 -16  -2   0   26.88    2.00
 -16   2   0   25.94    1.91
  16   2   0   26.79    2.70
  16   2   0   25.86    2.21
 -18  -2   0    4.95    1.02
  18   2   0    4.19    1.13
 -18   2   0    5.52    1.03
  -1  -3   0   84.52    5.54
   1  -3   0   87.61    5.56
  -1  -3   0   91.23    5.80
  -1  -3   0   91.97    5.20
   1  -3   0   83.55    5.77
  -1   3   0   85.73    5.07
   3  -3   0  214.99   14.00
  -3  -3   0  218.30   12.64
   3  -3   0  230.76   13.40
  -3  -3   0  196.93   13.32
  -3   3   0  212.26   12.41
  -3   3   0  210.72   15.63
  -5  -3   0  100.82    6.22
   5  -3   0  103.50    6.62
   5  -3   0  108.85    6.86
   5   3   0   89.86    6.35
   5   3   0   82.49    5.94
  -5   3   0   94.33    5.67
  -5   3   0  110.75    7.29
  -5   3   0   97.57    7.17
   5   3   0  100.26    7.18
   7  -3   0  146.78    9.29
   7  -3   0  146.98    8.96
  -7  -3   0  131.67    8.41
   7   3   0  129.52   10.09
   7   3   0  131.51    8.89
  -7   3   0  142.70   10.06
  -7   3   0  133.30    7.95
   9  -3   0   59.03    3.89
   9  -3   0   59.94    3.87
  -9  -3   0   55.11    3.57
   9   3   0   50.78    4.40
  -9   3   0   56.96    4.33
   9   3   0   55.41    3.86
  -9   3   0   57.69    3.39
  11  -3   0   60.92    4.12
 -11  -3   0   59.86    3.83
  11  -3   0   63.41    4.16
 -11   3   0   63.63    3.83
  11   3   0   65.57    4.35
 -11   3   0   61.42    4.86
  11   3   0   56.52    4.96
  13  -3   0   10.62    1.15
 -13  -3   0   10.66    1.01
 -13   3   0   11.75    1.25
  13   3   0   10.59    1.47
  13   3   0   10.71    1.23
 -13   3   0   11.29    1.02
 -15  -3   0    5.65    0.88
  15   3   0    5.40    1.28
  15   3   0    5.06    1.05
 -17  -3   0   26.36    1.99
  17   3   0   26.79    2.36
  17   3   0   25.93    2.90
   0  -4   0  398.14   23.20
   0  -4   0  393.80   25.76
   0  -4   0  396.27   24.52
   2  -4   0   60.77    3.79
  -2  -4   0   57.73    3.90
  -2  -4   0   58.98    3.47
   2  -4   0   58.04    3.84
  -2  -4   0   51.90    3.72
  -2   4   0   58.34    3.50
   4  -4   0  105.57    6.67
  -4  -4   0   93.63    6.38
  -4  -4   0  102.07    6.03
   4  -4   0  103.78    6.49
   4   4   0  103.59    6.86
  -4   4   0  101.67    6.13
  -4   4   0  104.50    7.71
   6  -4   0   44.93    2.93
  -6  -4   0   40.43    2.67
   6  -4   0   44.12    2.96
   6   4   0   43.43    3.01
  -6   4   0   41.32    2.60
  -6   4   0   42.71    3.30
   6   4   0   41.50    3.32
  -8  -4   0    0.55    0.37
   8  -4   0    0.45    0.36
   8   4   0   -0.23    0.46
  -8   4   0    0.21    0.32
   8   4   0    0.27    0.51
  -8   4   0    0.03    0.36
  10  -4   0   29.58    2.14
 -10  -4   0   27.59    1.91
 -10   4   0   27.41    1.90
 -10   4   0   30.00    2.46
  10   4   0   28.13    2.57
  10   4   0   29.97    2.30
 -12  -4   0   62.65    4.06
  12  -4   0   67.48    4.40
 -12   4   0   66.43    5.16
  12   4   0   56.36    5.25
  12   4   0   72.22    4.66
 -14  -4   0   12.82    1.17
  14  -4   0   12.56    1.35
 -14   4   0   12.34    1.36
  14   4   0   12.27    1.44
  14   4   0   11.07    1.77
  16   4   0    3.90    1.39
  16   4   0    7.44    1.37
   1  -5   0   72.28    4.52
  -1  -5   0   61.52    4.36
  -1  -5   0   68.02    4.06
   1  -5   0   66.26    4.41
  -1  -5   0   66.43    4.53
  -1   5   0   65.27    3.93
   3  -5   0   38.66    2.66
  -3  -5   0   32.66    2.54
  -3  -5   0   41.00    2.38
   3  -5   0   38.34    2.63
  -3   5   0   36.19    2.25
  -5  -5   0  165.59   10.41
   5  -5   0  175.45   11.12
   5  -5   0  186.15   11.53
   5   5   0  182.94   11.80
  -5   5   0  176.54   13.29
  -5   5   0  176.30   10.55
   7  -5   0   14.72    1.31
  -7  -5   0   14.77    1.10
  -7   5   0   12.69    1.29
   7   5   0   16.79    1.42
  -9  -5   0   10.71    0.87
   9  -5   0    8.38    0.99
   9   5   0    8.21    1.20
   9   5   0   12.36    1.23
  -9   5   0    9.70    1.08
  11  -5   0    2.50    0.67
 -11  -5   0    3.51    0.59
 -11   5   0    4.10    0.76
  11   5   0    5.83    1.16
  11   5   0    2.96    0.96
  13  -5   0   -0.99    0.59
 -13  -5   0   -0.42    0.55
  13   5   0   -0.16    0.93
 -13   5   0   -0.10    0.55
  13   5   0    0.43    0.92
  15  -5   0   13.69    1.50
 -15  -5   0   16.34    1.36
 -15   5   0   16.92    1.71
  15   5   0   12.68    1.94
   0  -6   0   37.38    2.68
   0  -6   0   38.17    2.70
   0   6   0   38.86    2.46
  -2  -6   0   13.54    1.23
   2  -6   0   12.41    1.21
  -2  -6   0   13.48    1.20
  -2  -6   0   14.58    1.05
  -2   6   0   12.49    0.95
   4  -6   0   18.03    1.58
  -4  -6   0   20.55    1.39
   4   6   0   21.44    1.74
   6  -6   0    6.68    0.86
  -6  -6   0    7.37    0.74
   6   6   0    9.67    1.14
  -6   6   0    7.28    0.86
  -8  -6   0   22.66    1.59
   8  -6   0   22.88    1.85
   8   6   0   31.88    2.31
  -8   6   0   24.15    2.29
 -10  -6   0   37.15    2.58
  10  -6   0   43.41    2.95
  10   6   0   46.05    4.04
 -10   6   0   45.45    3.94
  10   6   0   56.40    3.74
  12  -6   0   22.08    1.81
 -12  -6   0   18.13    1.51
 -12   6   0   23.16    2.14
  12   6   0   27.84    2.42
  12   6   0   18.68    2.32
  -1  -7   0    3.59    0.72
   1  -7   0    3.18    0.84
  -3  -7   0   31.63    2.12
   3  -7   0   30.95    2.40
  -5  -7   0    4.80    0.75
   5  -7   0    4.09    0.85
   5   7   0    7.18    1.12
  -7  -7   0   33.32    2.36
   7  -7   0   38.92    2.73
  -7   7   0   34.84    2.87
   9  -7   0    5.15    0.94
  -9  -7   0    4.94    0.78
   9   7   0    9.40    1.47
   2  -8   0   19.59    1.76
   4  -8   0    1.12    0.84
   6  -8   0    4.98    1.03
 -18   0   1   10.03    1.16
 -16   0   1    2.07    0.69
  16   0  -1    1.95    0.71
  14   0  -1    8.06    0.91
 -14   0   1    7.40    0.87
 -12   0   1   70.30    4.53
  12   0  -1   73.65    4.99
  12   0  -1   77.69    5.83
  10   0  -1   -0.41    0.26
  10   0  -1   -0.56    0.47
 -10   0   1   -0.13    0.32
  10   0  -1    0.53    0.36
 -10   0   1    0.42    0.32
   8   0  -1  351.74   25.03
   8   0  -1  310.98   21.96
  -8   0   1  347.76   24.98
  -8   0   1  336.00   19.82
   8   0  -1  341.14   20.82
   6   0  -1   24.00    1.70
  -6   0   1   25.34    2.07
  -6   0   1   28.51    1.66
   6   0  -1   28.33    2.14
   6   0  -1   25.50    1.80
   4   0  -1   14.36    1.07
   4   0  -1   15.47    1.14
  -4   0   1   16.36    1.30
   4   0  -1   18.90    1.35
  -4   0   1   16.55    1.04
   2   0  -1  840.39   61.12
  -2   0   1  891.70   69.40
   2   0  -1  991.46   69.43
   2   0  -1  999.99   58.01
  -2   0   1  983.91   55.06
   2   0   1   38.67    2.84
  -2   0  -1   41.05    2.67
   2   0   1   47.77    3.23
  -2   0  -1   41.06    2.54
   4   0   1  114.94    7.69
   4   0   1  102.41    6.75
  -4   0  -1   95.46    6.35
  -4   0  -1   98.78    6.06
   6   0   1    2.25    0.34
  -6   0  -1    2.64    0.30
   6   0   1    1.96    0.40
  -6   0  -1    1.49    0.21
  -8   0  -1    2.39    0.36
  -8   0  -1    2.13    0.28
   8   0   1    3.26    0.54
   8   0   1    2.58    0.41
 -10   0  -1   17.39    1.24
  10   0   1   18.11    1.65
  10   0   1   18.40    1.39
 -10   0  -1   16.51    1.19
 -12   0  -1    0.04    0.40
  12   0   1    0.96    0.47
  12   0   1   -0.33    0.56
 -14   0  -1    1.81    0.57
  14   0   1    2.63    0.63
  16   0   1   23.86    1.94
 -18   0  -1    3.72    0.97
  18   0   1    3.33    0.96
 -19  -1   1    0.42    0.89
  19   1  -1    1.98    0.99
  17  -1  -1    0.75    0.72
 -17  -1   1    0.23    0.76
 -17   1   1    0.70    0.70
  17   1  -1   -0.46    0.77
  15  -1  -1   20.99    1.72
 -15  -1   1   21.74    1.63
  15   1  -1   19.08    1.68
 -15   1   1   19.73    1.50
  13  -1  -1  111.70    7.55
 -13  -1   1  115.52    6.89
  13   1  -1  146.56    9.74
  13   1  -1  113.62    8.36
 -13   1   1  118.50    7.55
  11  -1  -1   21.56    1.67
  11  -1  -1   24.42    1.71
 -11  -1   1   22.22    1.58
 -11   1   1   21.83    1.90
  11   1  -1   19.96    2.03
  11   1  -1   21.68    1.65
 -11   1   1   20.77    1.47
  -9  -1   1   45.95    3.04
   9  -1  -1   51.17    3.90
   9  -1  -1   49.02    3.20
   9  -1  -1   50.22    3.33
   9   1  -1   46.04    3.21
   9   1  -1   45.53    3.71
  -9   1   1   48.21    3.67
  -9   1   1   46.62    2.89
   7  -1  -1  141.37    8.84
   7  -1  -1  137.61    8.42
  -7  -1   1  133.87    8.01
  -7  -1   1  123.07   10.05
   7  -1  -1  139.18   10.14
  -7   1   1  138.33    9.85
   7   1  -1  122.03    8.65
  -7   1   1  134.14    7.80
   7   1  -1  132.37    9.89
   5  -1  -1  240.35   18.28
   5  -1  -1  242.12   15.24
  -5  -1   1  254.20   14.49
   5  -1  -1  250.11   16.04
   5   1  -1  226.31   17.51
  -5   1   1  253.31   17.50
   5   1  -1  218.25   15.39
  -5   1   1  248.03   13.88
  -3  -1   1   41.97    2.51
   3  -1  -1   41.32    2.66
   3   1  -1   47.60    2.88
  -3   1   1   50.57    2.77
  -3   1   1   45.45    3.48
   3   1  -1   40.50    3.47
  -1  -1   1   29.07    1.94
  -1  -1   1   28.96    1.73
   1  -1  -1   28.91    1.85
   1   1  -1   25.49    1.86
  -1   1   1   31.69    1.78
  -1   1   1   30.56    2.23
  -1   1   1   30.97    2.22
   1  -1   1  106.75    5.74
  -1  -1  -1   95.34    5.42
  -1  -1  -1   80.39    5.71
   1  -1   1   87.02    6.02
   1   1   1   89.33    6.02
  -1   1  -1  102.88    6.85
   1   1   1   94.76    6.86
  -1   1  -1   82.78    6.83
   3  -1   1  254.32   14.73
   3  -1   1  235.52   15.50
  -3  -1  -1  225.20   13.96
  -3   1  -1  232.81   16.29
   3   1   1  208.27   14.35
  -3   1  -1  236.96   12.92
   3   1   1  203.51   16.31
   5  -1   1    8.08    0.63
   5  -1   1    6.59    0.74
  -5  -1  -1    8.00    0.59
   5  -1   1    7.75    0.65
  -5   1  -1    8.09    0.54
   5   1   1    6.31    0.63
  -5   1  -1    7.25    0.66
   5   1   1    5.64    0.71
  -7  -1  -1   75.74    4.88
   7  -1   1   88.13    6.21
   7  -1   1   80.42    5.41
   7  -1   1   81.92    5.15
  -7   1  -1   75.62    4.46
   7   1   1   69.30    4.97
   7   1   1   76.04    5.70
  -7   1  -1   77.11    5.63
   9  -1   1   70.42    4.66
  -9  -1  -1   69.00    4.22
   9  -1   1   66.00    4.41
   9  -1   1   71.79    5.37
   9   1   1   59.31    4.47
  -9   1  -1   67.88    4.01
   9   1   1   71.10    5.16
  -9   1  -1   66.43    5.05
 -11  -1  -1   70.82    4.38
  11  -1   1   71.60    4.82
  11   1   1   66.38    5.22
 -11   1  -1   67.25    4.22
 -11   1  -1   69.23    4.07
  11   1   1   62.20    4.54
  13  -1   1    2.07    0.57
 -13  -1  -1    1.65    0.55
  13   1   1    1.70    0.78
  13   1   1    1.20    0.61
 -13   1  -1    1.69    0.52
 -15  -1  -1   13.69    1.22
  15  -1   1   13.64    1.30
  15   1   1   12.59    1.33
 -15   1  -1   13.87    1.18
 -17  -1  -1   22.57    1.72
  17  -1   1   19.99    1.80
  17   1   1   23.17    2.02
 -17   1  -1   23.64    1.80
 -18  -2   1    3.84    0.98
  18   2  -1    5.31    1.18
 -18   2   1    4.70    0.94
 -16  -2   1   25.21    1.91
  16   2  -1   26.82    2.20
  16   2  -1   24.26    2.76
 -16   2   1   26.83    1.94
 -14  -2   1    1.23    0.61
  14  -2  -1    1.70    0.54
  14   2  -1   -0.60    0.86
  14   2  -1    1.90    0.74
 -14   2   1    0.94    0.56
  12  -2  -1   13.91    1.18
 -12  -2   1   13.29    1.13
  12  -2  -1   13.94    1.24
 -12   2   1   11.79    1.31
  12   2  -1   13.50    1.19
  12   2  -1    9.49    1.50
  10  -2  -1   43.46    2.95
  10  -2  -1   45.05    2.99
 -10  -2   1   42.43    2.77
 -10   2   1   43.43    3.23
 -10   2   1   39.83    2.53
  10   2  -1   36.29    3.26
  10   2  -1   40.18    2.86
   8  -2  -1   13.12    1.05
  -8  -2   1   12.69    0.97
   8  -2  -1   13.49    1.00
   8   2  -1   12.95    1.09
  -8   2   1   13.12    1.22
   8   2  -1   12.00    1.31
  -8   2   1   13.87    0.94
   6  -2  -1   12.93    1.07
  -6  -2   1   15.01    1.00
   6  -2  -1   15.13    1.03
   6   2  -1    9.86    1.13
  -6   2   1   13.71    1.12
  -6   2   1   14.81    0.89
   6   2  -1   12.91    1.03
  -4  -2   1   50.12    3.10
   4  -2  -1   52.36    3.32
   4   2  -1   44.82    3.08
  -4   2   1   50.55    3.73
  -4   2   1   51.83    2.96
   4   2  -1   48.99    3.73
  -2  -2   1   76.24    4.33
  -2  -2   1   71.86    4.83
   2  -2  -1   71.04    4.60
   2   2  -1   66.59    4.74
  -2   2   1   84.80    5.69
  -2   2   1   75.72    4.50
  -2   2   1   77.54    5.66
   0  -2  -1  165.47   10.27
   0  -2  -1  166.50   10.79
   0  -2   1  181.95   10.29
   0  -2   1  159.51   10.79
   0  -2   1  162.19    9.70
   0  -2  -1  158.64    9.72
  -2  -2  -1  169.76    9.54
   2  -2   1  154.74   10.57
  -2   2  -1  163.41    9.76
  -2   2  -1  177.96   12.32
  -2   2  -1  159.23   12.31
   2   2   1  165.51   10.86
   4  -2   1    1.96    0.32
   4  -2   1    2.36    0.32
  -4   2  -1    2.05    0.23
  -4   2  -1    1.65    0.29
   4   2   1    1.82    0.30
  -6  -2  -1   71.79    4.38
   6  -2   1   71.73    4.82
   6  -2   1   75.68    4.67
  -6   2  -1   69.50    4.93
   6   2   1   62.98    4.36
  -6   2  -1   71.14    3.89
   6   2   1   55.95    4.94
  -8  -2  -1    1.90    0.37
   8  -2   1    2.06    0.34
   8  -2   1    1.08    0.36
  -8   2  -1    2.38    0.34
   8   2   1    1.62    0.43
  -8   2  -1    1.51    0.38
  10  -2   1    6.19    0.68
 -10  -2  -1    5.14    0.63
  10  -2   1    5.63    0.66
 -10   2  -1    6.47    0.62
  10   2   1    5.94    0.93
  10   2   1    5.99    0.75
 -10   2  -1    4.98    0.68
 -12  -2  -1  154.42    9.04
  12  -2   1  147.05    9.95
  12   2   1  142.48    9.86
  12   2   1  147.43   11.28
 -12   2  -1  154.20    8.85
 -14  -2  -1   37.24    2.54
  14  -2   1   38.58    2.75
  14   2   1   39.96    3.39
  14   2   1   38.16    2.90
 -14   2  -1   37.47    2.52
 -16  -2  -1   14.84    1.36
  16  -2   1   14.51    1.41
 -16   2  -1   15.27    1.33
  16   2   1   13.34    1.47
 -18  -2  -1   15.13    1.45
  18   2   1   14.59    1.67
 -17  -3   1    1.53    0.85
  17   3  -1   -2.61    1.32
  17   3  -1    2.18    1.04
 -15  -3   1   11.34    1.16
  15   3  -1   11.14    1.69
 -15   3   1   11.22    1.15
  15   3  -1   11.35    1.36
  13  -3  -1   16.22    1.48
 -13  -3   1   15.39    1.30
 -13   3   1   15.73    1.61
  13   3  -1   15.95    1.51
 -13   3   1   16.59    1.25
  13   3  -1   13.88    1.87
  11  -3  -1   36.79    2.72
 -11  -3   1   39.93    2.52
 -11   3   1   38.49    2.40
  11   3  -1   41.37    2.79
 -11   3   1   37.14    3.11
  11   3  -1   30.92    3.20
   9  -3  -1    4.63    0.63
   9   3  -1    5.19    0.68
  -9   3   1    3.20    0.68
  -9   3   1    4.27    0.52
   7  -3  -1   26.09    1.92
  -7  -3   1   28.46    1.77
  -7   3   1   26.31    2.12
   7   3  -1   21.68    2.17
   7   3  -1   25.75    1.91
  -7   3   1   28.37    1.66
   5  -3  -1   52.65    3.59
  -5  -3   1   57.76    3.36
   5   3  -1   54.41    3.98
  -5   3   1   57.13    3.16
  -5   3   1   54.95    3.98
   5   3  -1   49.30    3.28
   5   3  -1   44.86    3.94
   5   3  -1   52.76    3.54
  -3  -3   1   56.18    3.26
  -3  -3   1   53.11    3.67
   3  -3  -1   53.21    3.52
  -3   3   1   57.88    4.28
   3   3  -1   56.04    3.61
  -3   3   1   56.66    3.41
  -1  -3   1   26.33    1.87
   1  -3  -1   29.15    1.90
  -1  -3   1   27.69    1.70
  -1  -3   1   27.15    1.93
   1  -3  -1   27.88    1.88
  -1   3   1   30.99    1.89
  -1  -3  -1   53.17    3.15
   1  -3   1   54.63    3.50
   1  -3   1   55.94    3.41
  -1  -3  -1   47.48    3.36
  -1  -3  -1   51.16    3.51
   3  -3   1   84.46    5.72
  -3  -3  -1   85.80    5.17
   3  -3   1   90.84    5.55
  -3   3  -1   80.92    4.82
   3   3   1   86.90    5.41
  -3   3  -1   75.47    6.10
  -3   3  -1   82.54    6.08
   5  -3   1    3.10    0.47
   5  -3   1    3.84    0.47
  -5  -3  -1    3.46    0.41
   5   3   1    3.05    0.46
  -5   3  -1    3.29    0.55
  -5   3  -1    2.67    0.33
  -5   3  -1    2.87    0.41
   5   3   1    3.88    0.48
  -7  -3  -1  135.33    8.44
   7  -3   1  151.28    8.98
   7  -3   1  140.66    9.32
  -7   3  -1  144.41   10.22
   7   3   1  133.36   10.25
  -7   3  -1  136.41    8.07
   7   3   1  131.43    9.03
   9  -3   1   24.11    1.90
   9  -3   1   26.19    1.86
  -9  -3  -1   27.59    1.75
  -9   3  -1   24.78    2.04
  -9   3  -1   27.08    1.61
   9   3   1   19.11    2.09
   9   3   1   25.11    1.90
  11  -3   1   14.14    1.11
  11  -3   1   11.79    1.18
 -11  -3  -1   12.51    1.05
  11   3   1   10.90    1.40
 -11   3  -1   11.45    1.22
  11   3   1   14.90    1.28
 -11   3  -1   12.86    1.02
  13  -3   1    3.88    0.68
 -13  -3  -1    3.23    0.64
  13   3   1    3.33    0.84
  13   3   1    2.25    0.93
 -15  -3  -1    5.66    0.87
  15   3   1    6.62    1.14
  15   3   1    6.34    1.34
 -17  -3  -1   34.16    2.44
  17   3   1   35.36    3.50
  17   3   1   37.40    2.98
 -16  -4   1    1.00    0.77
  16   4  -1   -0.48    1.21
  16   4  -1    0.81    1.04
  14  -4  -1    8.24    1.09
 -14  -4   1    8.52    0.98
 -14   4   1    7.65    1.24
  14   4  -1   10.06    1.29
 -12  -4   1    3.16    0.63
  12  -4  -1    2.87    0.67
 -12   4   1    0.96    0.78
  12   4  -1    4.45    0.97
 -12   4   1    2.81    0.60
 -10  -4   1    0.12    0.39
  10  -4  -1   -0.76    0.43
  10   4  -1    0.12    0.59
 -10   4   1    0.27    0.41
 -10   4   1   -0.94    0.41
  -8  -4   1  153.76    9.24
   8  -4  -1  156.82    9.84
   8   4  -1  151.65   10.57
   8   4  -1  160.81   11.99
  -8   4   1  167.07   11.96
  -8   4   1  157.23    9.45
  -6  -4   1   16.50    1.12
   6  -4  -1   15.18    1.29
  -6   4   1   14.71    1.36
   6   4  -1   16.66    1.33
   6   4  -1   13.22    1.38
  -6   4   1   17.13    1.09
   4  -4  -1   42.49    2.98
  -4  -4   1   47.36    3.09
  -4  -4   1   42.90    2.72
   4   4  -1   38.66    2.66
  -4   4   1   39.71    3.12
  -4   4   1   43.06    2.49
  -2  -4   1  106.22    6.85
  -2  -4   1  103.86    6.12
   2  -4  -1  103.29    6.56
   2  -4  -1  105.64    6.78
  -2  -4   1   96.04    6.51
  -2   4   1  105.06    6.24
   0  -4  -1   32.86    2.38
   0  -4  -1   35.94    2.44
   0  -4   1   34.18    2.40
   0  -4   1   36.07    2.45
   0  -4  -1   36.84    2.19
   0  -4   1   35.00    2.16
   2  -4   1   24.03    1.72
   2  -4   1   24.86    1.71
  -2  -4  -1   20.82    1.67
  -2  -4  -1   24.86    1.53
  -2   4  -1   24.43    1.53
  -4  -4  -1   65.35    3.76
   4  -4   1   62.43    4.15
   4  -4   1   57.58    4.05
  -4   4  -1   56.78    4.45
   4   4   1   61.09    4.02
  -4   4  -1   59.06    3.54
   6  -4   1   18.93    1.59
   6  -4   1   23.11    1.57
   6   4   1   20.84    1.70
  -6   4  -1   18.78    1.65
   6   4   1   19.55    1.58
  -6   4  -1   19.49    1.28
   8  -4   1   14.82    1.14
  -8  -4  -1   13.38    1.05
   8  -4   1   14.56    1.23
  -8   4  -1   11.81    1.23
  -8   4  -1   13.53    0.97
   8   4   1   12.12    1.32
   8   4   1   15.65    1.29
  10  -4   1    0.43    0.47
  10  -4   1    0.74    0.45
 -10  -4  -1    0.25    0.42
  10   4   1    1.23    0.66
 -10   4  -1    0.52    0.44
  10   4   1    1.05    0.68
  12  -4   1   13.12    1.28
 -12  -4  -1   13.27    1.12
 -12   4  -1   12.23    1.23
  12   4   1   10.70    1.45
 -14  -4  -1   11.12    1.10
  14   4   1    9.57    1.59
  14   4   1   12.38    1.43
 -16  -4  -1    1.68    0.77
  16   4   1    2.29    1.13
  16   4   1    1.12    1.16
  15  -5  -1    3.12    0.97
 -15  -5   1    4.39    0.89
  15   5  -1   -0.20    1.41
  15   5  -1    5.64    1.40
 -15   5   1    3.46    1.03
  13  -5  -1   11.15    1.29
 -13  -5   1   12.78    1.13
  13   5  -1   11.35    1.70
 -13   5   1   13.08    1.47
  13   5  -1   14.94    1.73
 -11  -5   1    2.95    0.61
  11  -5  -1    3.13    0.71
  11   5  -1    3.64    1.05
  11   5  -1    5.91    1.06
 -11   5   1    4.23    0.84
  -9  -5   1   12.22    1.00
   9  -5  -1   12.94    1.24
   9   5  -1   15.77    1.47
  -9   5   1   12.94    1.37
  -9   5   1   15.44    1.14
   9   5  -1   10.77    1.49
  -7  -5   1   20.93    1.47
   7  -5  -1   22.28    1.72
  -7   5   1   23.99    1.54
   7   5  -1   20.39    1.99
   7   5  -1   23.40    1.90
  -7   5   1   22.24    1.94
  -5  -5   1   20.15    1.37
   5  -5  -1   20.20    1.60
  -5   5   1   19.06    1.25
   5   5  -1   20.76    1.55
  -5   5   1   15.29    1.55
  -3  -5   1   62.31    4.26
   3  -5  -1   62.55    4.13
  -3  -5   1   61.50    3.77
  -3   5   1   61.08    3.70
   3   5  -1   60.95    3.98
   1  -5  -1   23.38    1.78
  -1  -5   1   25.52    1.83
  -1  -5   1   20.95    1.76
   1  -5  -1   23.63    1.80
  -1  -5   1   27.73    1.59
  -1   5   1   25.58    1.65
   1  -5   1    7.63    0.80
   1  -5   1    5.63    0.77
  -1  -5  -1    5.94    0.79
  -1  -5  -1    8.20    0.66
  -1   5  -1    8.25    0.66
  -3  -5  -1   22.05    1.37
  -3  -5  -1   16.30    1.48
   3  -5   1   21.69    1.53
   3  -5   1   18.59    1.53
   3   5   1   22.88    1.66
  -3   5  -1   20.24    1.39
  -5  -5  -1   43.43    2.71
   5  -5   1   46.26    2.99
   5  -5   1   39.08    2.98
  -5   5  -1   40.63    3.51
   5   5   1   51.56    3.26
  -7  -5  -1    3.31    0.51
   7  -5   1    4.82    0.67
   7  -5   1    2.46    0.56
  -7   5  -1    3.33    0.55
   7   5   1    4.07    0.74
   9  -5   1    4.09    0.73
  -9  -5  -1    4.68    0.65
   9   5   1    3.93    0.91
   9   5   1    5.32    1.01
  -9   5  -1    4.70    0.74
 -11  -5  -1    0.74    0.49
  11  -5   1    0.76    0.50
  11   5   1    1.38    0.94
 -11   5  -1    0.66    0.52
  11   5   1    0.61    0.76
 -13  -5  -1    0.67    0.61
  13   5   1    0.03    0.88
  13   5   1    0.35    0.99
 -15  -5  -1    5.18    0.87
 -15   5  -1    6.59    1.11
  15   5   1    3.33    1.29
 -12  -6   1    6.73    0.86
  12  -6  -1    7.32    1.05
 -12   6   1    9.33    1.31
  12   6  -1   12.38    1.77
 -10  -6   1   10.98    1.01
  10  -6  -1   12.95    1.28
  10   6  -1   15.46    1.55
 -10   6   1   11.25    1.47
  -8  -6   1   13.38    1.13
   8  -6  -1   16.66    1.44
  -8   6   1   14.09    1.43
   6  -6  -1    6.61    0.95
  -6  -6   1    6.46    0.72
  -6   6   1    6.62    0.84
   6   6  -1   10.09    1.08
  -4  -6   1    3.59    0.58
   4  -6  -1    2.76    0.68
  -4   6   1    3.72    0.53
  -2  -6   1    6.46    0.82
   2  -6  -1    4.95    0.83
  -2  -6   1    5.91    0.66
  -2   6   1    5.93    0.62
   0  -6  -1   20.50    1.58
   0  -6   1   15.97    1.51
   0  -6   1   19.97    1.53
   0   6   1   20.87    1.45
  -2  -6  -1    2.72    0.54
   2  -6   1    2.62    0.57
   2  -6   1    1.22    0.52
  -2  -6  -1    1.42    0.50
   2   6   1    2.64    0.62
  -4  -6  -1    5.97    0.66
   4  -6   1    3.40    0.73
   4   6   1    5.71    0.87
  -6  -6  -1    0.25    0.46
   6  -6   1   -0.12    0.47
   6   6   1    0.99    0.72
   8  -6   1   -0.42    0.50
  -8  -6  -1    0.91    0.49
   8   6   1    1.22    0.84
  -8   6  -1    0.16    0.43
   8   6   1    0.95    0.61
  10  -6   1   10.14    1.22
 -10  -6  -1   12.03    1.02
 -10   6  -1   12.38    1.34
  10   6   1   18.86    1.86
  10   6   1   12.84    1.47
 -12  -6  -1   20.43    1.56
  12   6   1   35.45    3.02
   9  -7  -1    9.95    1.23
   9   7  -1   12.27    1.65
  -9   7   1   13.34    1.42
  -7  -7   1    3.93    0.72
   7  -7  -1    4.20    0.80
   7   7  -1    6.36    1.18
   5  -7  -1   14.56    1.42
   5   7  -1   17.12    1.59
   3  -7  -1   12.71    1.31
   1  -7  -1   18.51    1.74
  -1  -7   1   22.18    1.75
   1   7  -1   20.31    1.71
  -1  -7  -1    1.08    0.68
   1   7   1    4.68    0.72
   3  -7   1    1.43    0.66
  -3  -7  -1    2.68    0.70
   5  -7   1   14.69    1.42
  -5  -7  -1   16.05    1.29
  -7  -7  -1    8.57    0.93
   7  -7   1    8.12    1.09
  -7   7  -1    9.02    1.02
   7   7   1   12.82    1.46
   9  -7   1    7.95    1.04
  -9  -7  -1    6.38    0.89
   9   7   1    5.43    0.92
   6  -8  -1    9.74    1.35
   4  -8  -1   10.79    1.41
   2  -8  -1    3.54    0.98
   0   8  -1    0.88    0.90
  -2   8  -1   18.99    1.80
  -4   8  -1   25.76    2.17
  -6  -8  -1   11.25    1.20
  -6   8  -1   11.66    1.37
  18   0  -2   16.19    1.59
 -18   0   2   16.16    1.47
  16   0  -2   14.90    1.41
 -16   0   2   15.11    1.32
  14   0  -2    1.80    0.62
 -14   0   2    1.63    0.59
  12   0  -2   55.67    4.33
 -12   0   2   48.21    3.28
  12   0  -2   53.24    3.60
  10   0  -2  157.32   10.43
 -10   0   2  157.52    9.96
 -10   0   2  176.39   12.57
  10   0  -2  188.68   12.66
  10   0  -2  160.11   11.01
  -8   0   2  110.95    8.43
  -8   0   2  113.21    6.70
   8   0  -2  110.61    7.38
   8   0  -2  114.11    7.01
  -6   0   2    1.97    0.35
   6   0  -2    2.31    0.30
   6   0  -2    1.50    0.26
  -6   0   2    2.47    0.31
   6   0  -2    2.56    0.42
   4   0  -2  859.10   51.76
   4   0  -2  746.23   54.56
   4   0  -2  958.28   62.03
  -4   0   2  842.45   49.19
  -4   0   2  805.23   61.99
  -2   0   2    1.66    0.22
   2   0  -2    1.34    0.18
  -2   0   2    1.57    0.22
   0   0  -2  342.66   20.91
   0   0   2  372.12   25.06
   0   0   2  323.62   19.88
   0   0   2  315.95   22.06
   2   0   2  293.53   20.52
  -2   0  -2  282.55   17.12
  -2   0  -2  298.39   16.27
   2   0   2  237.74   18.06
   4   0   2  502.09   35.54
   4   0   2  594.44   40.39
  -4   0  -2  535.23   32.00
  -4   0  -2  559.17   33.68
  -6   0  -2  264.41   16.78
   6   0   2  259.17   17.76
   6   0   2  308.21   20.21
  -6   0  -2  257.77   15.96
   8   0   2   11.41    1.06
  -8   0  -2   13.12    0.90
  -8   0  -2   12.30    0.87
   8   0   2   12.52    1.19
 -10   0  -2   88.68    5.30
  10   0   2   93.55    6.76
  10   0   2   81.69    5.89
 -12   0  -2    0.28    0.41
  12   0   2    0.11    0.46
 -14   0  -2    9.34    0.96
  14   0   2   10.39    1.09
  16   0   2    7.60    1.10
 -16   0  -2   10.63    1.04
  18   0   2    0.12    0.90
 -18   0  -2    0.67    0.81
 -19  -1   2   -0.38    0.91
  19   1  -2   -0.30    0.96
 -19   1   2    0.49    0.92
 -17  -1   2    4.44    0.89
  17   1  -2    6.49    1.01
 -17   1   2    4.51    0.90
  15  -1  -2   16.45    1.40
 -15  -1   2   15.53    1.32
  15   1  -2   16.01    1.48
 -15   1   2   15.55    1.32
 -13  -1   2   36.91    2.54
  13  -1  -2   39.48    2.72
  13   1  -2   40.25    3.56
 -13   1   2   38.33    2.60
  13   1  -2   41.08    2.88
  11  -1  -2  139.11    9.46
 -11  -1   2  139.61    8.61
  11  -1  -2  152.89    9.06
  11   1  -2  151.88   10.81
  11   1  -2  132.86    9.37
 -11   1   2  149.32   10.72
 -11   1   2  133.39    8.46
   9  -1  -2   19.08    1.30
   9  -1  -2   17.01    1.27
   9  -1  -2   16.69    1.61
  -9  -1   2   16.71    1.22
  -9   1   2   16.78    1.19
  -9   1   2   17.01    1.52
   9   1  -2   17.56    1.35
   9   1  -2   16.74    1.64
   7  -1  -2   66.53    4.30
  -7  -1   2   65.05    4.08
   7  -1  -2   70.27    4.48
   7  -1  -2   68.75    5.19
   7   1  -2   72.40    4.94
  -7   1   2   64.73    4.86
   7   1  -2   61.76    4.26
   7   1  -2   54.39    3.98
  -7   1   2   66.97    3.86
   5  -1  -2   15.10    1.05
   5  -1  -2   14.99    1.28
  -5  -1   2   14.64    0.99
   5   1  -2   13.33    1.21
   5   1  -2   12.49    1.03
  -5   1   2   15.38    1.20
  -5   1   2   16.51    0.96
   5   1  -2   14.41    0.94
  -3  -1   2  473.09   28.77
  -3  -1   2  468.16   31.94
   3  -1  -2  535.86   30.31
  -3   1   2  551.61   30.72
  -3   1   2  540.78   38.72
   3   1  -2  484.45   32.30
  -1  -1   2  850.80   49.82
   1  -1  -2  968.09   52.42
  -1  -1   2  738.74   55.24
  -1   1   2  896.24   51.06
  -1   1   2  906.02   64.38
   1   1  -2  820.49   53.73
   1  -1   2  366.27   24.38
  -1  -1  -2  378.07   23.11
  -1  -1  -2  382.63   21.96
  -1   1  -2  422.21   25.98
   3  -1   2  405.19   24.88
   3  -1   2  408.52   28.26
  -3  -1  -2  326.99   23.55
  -3  -1  -2  391.88   22.40
   3   1   2  406.10   26.04
   3   1   2  382.52   29.57
  -3   1  -2  414.06   24.69
  -5  -1  -2  138.90    9.46
   5  -1   2  147.62   10.03
   5  -1   2  168.08   11.43
  -5  -1  -2  159.57    9.04
   5   1   2  160.44   10.28
   5   1   2  151.28   11.67
  -5   1  -2  160.78    9.21
  -5   1  -2  153.99    9.72
   7  -1   2   68.41    4.69
  -7  -1  -2   63.08    4.22
   7  -1   2   79.92    5.40
  -7   1  -2   62.70    4.23
   7   1   2   64.77    4.51
  -7   1  -2   69.42    4.02
   7   1   2   71.39    5.16
   9  -1   2  143.64   10.86
  -9  -1  -2  138.58    8.57
   9  -1   2  150.35    9.53
  -9   1  -2  124.85    8.21
   9   1   2  143.16    9.96
  -9   1  -2  143.66    7.83
   9   1   2  115.26    8.70
 -11  -1  -2   87.29    5.36
  11  -1   2   89.46    5.96
 -11   1  -2   81.22    5.51
  11   1   2   88.21    6.76
 -11   1  -2   92.61    5.29
 -13  -1  -2    9.32    0.91
  13  -1   2    9.40    1.02
 -13   1  -2   11.45    0.94
  13   1   2    8.78    1.19
  13   1   2    9.84    1.08
  15  -1   2    4.39    0.81
  15   1   2    3.31    0.86
 -15   1  -2    3.50    0.73
 -17  -1  -2    0.11    0.74
  17  -1   2    0.32    0.71
 -17   1  -2    0.55    0.77
  17   1   2   -0.16    0.76
 -18  -2   2   26.36    2.10
 -18   2   2   27.19    2.06
  18   2  -2   26.71    2.36
 -16  -2   2   37.06    2.58
  16   2  -2   33.76    3.46
  16   2  -2   35.40    2.75
 -16   2   2   36.93    2.48
 -14  -2   2    1.57    0.68
 -14   2   2    2.50    0.62
  14   2  -2    0.17    0.97
  14   2  -2    2.17    0.73
  12  -2  -2    3.44    0.63
  12  -2  -2    4.28    0.61
 -12  -2   2    4.41    0.65
 -12   2   2    4.30    0.57
  12   2  -2    4.60    0.71
 -12   2   2    1.90    0.73
  12   2  -2   -0.07    0.84
  10  -2  -2   23.98    1.88
 -10  -2   2   26.57    1.79
  10  -2  -2   28.62    1.89
 -10   2   2   27.92    2.24
  10   2  -2   23.90    2.35
 -10   2   2   26.34    1.74
   8  -2  -2   39.56    2.53
  -8  -2   2   38.21    2.37
   8  -2  -2   34.49    2.51
   8   2  -2   34.63    2.96
  -8   2   2   38.20    2.29
  -8   2   2   38.88    2.91
   8   2  -2   33.70    2.54
   6  -2  -2  244.29   15.16
  -6  -2   2  244.28   14.37
   6   2  -2  230.34   17.05
   6   2  -2  208.96   14.98
  -6   2   2  238.42   17.04
  -6   2   2  241.31   13.51
  -4  -2   2  145.54    9.70
  -4  -2   2  152.79    8.72
   4  -2  -2  145.57    9.22
  -4   2   2  162.17    9.26
  -4   2   2  163.18   11.67
   4   2  -2  146.80    9.72
  -2  -2   2   41.22    2.77
   2  -2  -2   42.57    2.65
  -2  -2   2   39.17    2.45
   2   2  -2   37.16    2.69
  -2   2   2   44.04    3.21
  -2   2   2   43.21    2.56
  -2   2   2   45.82    3.23
   0  -2   2   44.87    3.26
   0  -2  -2   49.31    3.13
   0  -2  -2   54.00    2.95
   0  -2   2   48.30    2.91
   0   2  -2   54.66    3.47
  -2  -2  -2   33.18    2.01
   2  -2   2   32.80    2.23
   2   2   2   29.10    2.17
   2   2   2   32.44    2.46
  -2   2  -2   35.99    2.12
   4  -2   2  560.07   32.87
  -4  -2  -2  440.90   31.13
  -4  -2  -2  517.56   29.60
   4   2   2  503.32   36.09
   4   2   2  474.69   31.75
   6  -2   2  111.54    7.44
  -6  -2  -2  114.91    6.73
   6   2   2  102.80    7.31
   6   2   2  108.50    8.32
  -6   2  -2  120.09    6.55
   8  -2   2   86.83    5.70
  -8  -2  -2   85.02    5.17
   8   2   2   73.83    6.26
   8   2   2   80.86    5.51
  -8   2  -2   90.80    4.92
  10  -2   2   77.58    5.22
 -10  -2  -2   77.92    4.73
 -10   2  -2   74.66    4.89
  10   2   2   76.58    5.21
 -10   2  -2   82.90    4.64
  10   2   2   71.54    5.93
  12  -2   2   10.19    0.97
 -12  -2  -2    8.63    0.87
 -12   2  -2    9.27    0.85
  12   2   2    7.38    1.10
  12   2   2    8.97    1.05
 -12   2  -2    7.99    0.83
 -14  -2  -2    2.88    0.67
  14  -2   2    3.76    0.74
  14   2   2    2.95    0.87
  14   2   2    3.47    0.83
 -16  -2  -2   10.02    1.06
  16  -2   2   10.50    1.21
  16   2   2   10.86    1.39
  18  -2   2   19.25    1.76
 -18  -2  -2   18.78    1.62
 -17  -3   2    3.10    0.95
  17   3  -2    0.07    1.35
 -17   3   2    4.09    0.91
  17   3  -2    2.93    1.09
 -15  -3   2   34.99    2.46
  15   3  -2   36.94    2.80
  15   3  -2   30.33    3.42
 -15   3   2   39.21    2.48
  13  -3  -2   29.20    2.29
 -13  -3   2   31.31    2.13
 -13   3   2   28.88    1.99
  13   3  -2   30.96    2.31
  13   3  -2   21.61    2.73
 -13   3   2   32.58    2.61
  11  -3  -2   85.19    5.66
 -11  -3   2   88.45    5.32
  11   3  -2   78.86    5.67
 -11   3   2   88.67    5.10
  11   3  -2   77.76    6.63
 -11   3   2   87.88    6.50
   9  -3  -2   25.91    1.85
  -9  -3   2   24.85    1.70
  -9   3   2   26.85    2.17
  -9   3   2   27.07    1.69
   9   3  -2   21.47    2.25
   7  -3  -2   14.39    1.21
  -7  -3   2   17.19    1.13
  -7   3   2   16.94    1.04
  -7   3   2   14.81    1.32
   7   3  -2   11.53    1.33
   7   3  -2   15.63    1.23
   5  -3  -2  112.85    7.13
  -5  -3   2  108.74    7.47
  -5  -3   2  116.98    6.71
   5   3  -2  106.72    7.31
  -5   3   2  130.39    8.87
  -5   3   2  118.68    8.79
  -5   3   2  120.14    6.98
   5   3  -2  113.64    8.78
   3  -3  -2  112.97    7.32
  -3  -3   2  111.39    7.67
  -3  -3   2  124.36    6.88
  -3   3   2  117.37    7.23
  -3   3   2  136.21    9.14
  -3   3   2  126.51    9.10
   3   3  -2  109.74    7.62
  -1  -3   2  329.57   19.57
   1  -3  -2  341.76   20.70
  -1  -3   2  332.15   21.77
  -1   3   2  339.21   19.77
   1   3  -2  335.50   20.86
  -1  -3  -2  173.87    9.41
   1  -3   2  155.89   10.43
  -1  -3  -2  148.70    9.94
  -1   3  -2  148.72    9.23
   1   3   2  166.30   10.28
  -3  -3  -2  109.57    6.49
   3  -3   2  101.90    7.19
   3  -3   2  117.87    6.93
  -3   3  -2   96.63    7.84
  -3   3  -2   99.89    6.19
   3   3   2  108.86    6.93
  -3   3  -2  115.38    7.84
  -5  -3  -2   40.23    2.47
   5  -3   2   39.67    2.69
   5  -3   2   40.10    2.73
  -5   3  -2   37.53    2.81
   5   3   2   37.11    2.85
  -5   3  -2   32.80    2.18
   5   3   2   37.61    2.54
  -7  -3  -2   37.39    2.33
   7  -3   2   36.34    2.54
   7  -3   2   37.43    2.55
   7   3   2   31.65    2.83
  -7   3  -2   39.06    2.18
  -7   3  -2   36.20    2.77
   7   3   2   33.32    2.51
   9  -3   2   77.91    5.26
  -9  -3  -2   79.80    4.80
   9   3   2   77.35    5.34
  -9   3  -2   83.28    4.73
   9   3   2   74.50    6.06
 -11  -3  -2   15.08    1.15
  11  -3   2   14.51    1.23
  11   3   2   14.47    1.32
 -11   3  -2   13.16    1.12
  11   3   2   12.01    1.43
  13  -3   2   26.21    1.93
 -13  -3  -2   23.68    1.77
  13   3   2   24.66    2.03
 -13   3  -2   25.51    1.82
  13   3   2   21.11    2.23
  15  -3   2    6.72    0.94
 -15  -3  -2    5.87    0.90
  15   3   2    5.57    1.07
  15   3   2    3.84    1.10
 -17  -3  -2    2.81    0.90
  17   3   2    3.89    1.17
  17   3   2    2.57    1.18
 -16  -4   2    6.91    1.00
  16   4  -2    7.61    1.30
  16   4  -2    4.33    1.58
 -14  -4   2    5.56    0.83
  14  -4  -2    3.69    0.88
  14   4  -2    7.27    1.16
 -14   4   2    4.77    1.09
 -14   4   2    7.12    0.92
  12  -4  -2    2.12    0.65
 -12  -4   2    2.32    0.58
 -12   4   2    0.88    0.74
  12   4  -2    1.84    0.78
  12   4  -2   -1.71    0.92
 -12   4   2    2.75    0.59
  10  -4  -2   70.97    4.49
 -10  -4   2   63.21    4.11
 -10   4   2   69.89    4.40
  10   4  -2   74.74    4.99
  10   4  -2   70.44    5.70
 -10   4   2   72.14    5.61
   8  -4  -2  253.79   15.11
  -8  -4   2  228.78   14.22
   8   4  -2  246.39   16.41
  -8   4   2  261.33   18.60
   8   4  -2  247.91   18.62
  -8   4   2  242.61   14.71
  -6  -4   2  105.86    6.30
   6  -4  -2  105.11    6.75
   6   4  -2  115.11    8.38
  -6   4   2  109.57    8.37
  -6   4   2  111.85    6.65
   6   4  -2  109.18    7.44
   4  -4  -2   16.72    1.41
  -4  -4   2   18.56    1.47
  -4  -4   2   19.73    1.23
   4   4  -2   21.95    1.43
  -4   4   2   19.50    1.31
  -4   4   2   18.87    1.61
   2  -4  -2   11.58    0.95
  -2  -4   2    9.83    0.95
  -2  -4   2   11.00    0.78
  -2   4   2   10.91    0.77
   2   4  -2   10.38    0.90
   0  -4  -2   42.43    2.94
   0  -4   2   42.68    2.67
   0  -4  -2   46.45    2.73
   0  -4   2   45.47    3.04
   0   4  -2   47.87    3.16
  -2  -4  -2   74.19    4.31
   2  -4   2   72.13    4.78
  -2  -4  -2   65.17    4.59
   2  -4   2   74.96    4.64
  -2   4  -2   65.26    4.18
   2   4   2   76.12    4.72
   4  -4   2   58.15    3.65
   4  -4   2   52.81    3.55
  -4  -4  -2   49.32    3.25
  -4   4  -2   53.42    3.93
   4   4   2   52.86    3.53
  -4   4  -2   48.39    3.09
   6  -4   2   72.24    4.77
  -6  -4  -2   71.75    4.42
   6  -4   2   74.96    4.89
  -6   4  -2   69.16    5.42
   6   4   2   73.81    4.86
   6   4   2   71.27    5.45
   8  -4   2   84.63    5.48
  -8  -4  -2   80.99    4.97
   8  -4   2   80.24    5.33
  -8   4  -2   79.84    6.34
   8   4   2   82.13    6.41
   8   4   2   88.87    5.70
  10  -4   2    8.53    0.86
 -10  -4  -2    8.33    0.78
  10   4   2    8.35    1.05
  10   4   2    6.57    0.99
 -12  -4  -2    9.56    0.91
  12  -4   2    9.37    0.98
  12   4   2    9.46    1.15
  12   4   2    4.82    1.08
 -12   4  -2    7.80    0.89
 -14  -4  -2    1.50    0.63
  14   4   2    1.52    0.98
  14   4   2    0.77    0.77
 -14   4  -2    0.46    0.64
 -16  -4  -2    9.79    1.10
  16   4   2    6.21    1.44
  15  -5  -2   23.36    2.01
 -15  -5   2   21.41    1.79
 -15   5   2   26.42    2.57
  15   5  -2   26.40    2.44
 -13  -5   2   23.66    1.80
  13  -5  -2   26.03    2.11
  13   5  -2   29.83    2.48
 -13   5   2   26.21    2.57
 -11  -5   2   17.40    1.39
  11  -5  -2   20.67    1.68
 -11   5   2   21.97    1.54
 -11   5   2   20.66    1.95
  11   5  -2   23.32    1.87
  11   5  -2   14.79    2.06
   9  -5  -2   13.14    1.21
  -9  -5   2   11.74    1.00
   9   5  -2   15.07    1.42
  -9   5   2   13.02    1.36
  -9   5   2   14.22    1.08
   9   5  -2    9.10    1.47
  -7  -5   2   16.28    1.18
   7  -5  -2   16.47    1.40
   7   5  -2   14.27    1.54
  -7   5   2   15.61    1.53
   7   5  -2   18.94    1.54
  -7   5   2   18.78    1.24
  -5  -5   2    1.26    0.54
  -5  -5   2    0.88    0.41
   5  -5  -2    0.85    0.42
  -5   5   2    1.46    0.36
  -5   5   2    0.94    0.37
   3  -5  -2   72.71    4.69
  -3  -5   2   68.96    4.83
  -3  -5   2   71.41    4.28
  -3   5   2   71.36    4.39
   3   5  -2   74.26    4.72
   1  -5  -2   18.03    1.38
  -1  -5   2   19.03    1.46
  -1  -5   2   17.12    1.22
   1  -5  -2   19.18    1.47
   1   5  -2   21.51    1.60
  -1   5   2   20.53    1.41
  -1  -5  -2   79.50    4.89
   1  -5   2   81.10    5.43
  -1  -5  -2   82.30    5.27
   1   5   2   83.67    5.59
  -3  -5  -2   49.76    3.01
   3  -5   2   46.76    3.26
   3  -5   2   53.35    3.35
  -3  -5  -2   42.91    3.22
   3   5   2   55.69    3.83
  -5  -5  -2   15.91    1.19
   5  -5   2   19.81    1.40
   5  -5   2   14.74    1.36
   5   5   2   19.15    1.49
  -5   5  -2   16.14    1.45
   7  -5   2    2.02    0.51
  -7  -5  -2    2.42    0.51
   7  -5   2    3.86    0.65
   7   5   2    3.89    0.79
   7   5   2    1.82    0.56
  -7   5  -2    3.27    0.51
   9  -5   2   20.68    1.58
  -9  -5  -2   19.46    1.43
   9   5   2   17.97    1.70
 -11  -5  -2   18.70    1.42
  11   5   2   17.65    1.92
 -11   5  -2   20.58    1.65
  11   5   2   22.44    1.93
 -13  -5  -2    8.07    0.91
  13   5   2    7.07    1.29
 -13   5  -2    9.32    1.11
  13   5   2   12.43    1.45
 -12  -6   2    2.01    0.61
  12  -6  -2    2.15    0.79
 -12   6   2    1.63    0.91
  12   6  -2    4.55    1.26
 -10  -6   2    7.50    0.82
  10  -6  -2    7.00    1.03
 -10   6   2    5.56    1.11
  10   6  -2   10.70    1.40
   8  -6  -2   27.61    2.08
  -8  -6   2   24.27    1.74
   8   6  -2   34.21    2.54
  -8   6   2   28.12    2.61
  -6  -6   2   44.48    2.95
   6  -6  -2   50.95    3.35
  -6   6   2   50.17    3.12
   6   6  -2   47.82    3.56
  -6   6   2   50.80    3.92
  -4  -6   2   17.33    1.54
  -4  -6   2   19.26    1.32
   4  -6  -2   17.55    1.54
  -4   6   2   18.37    1.32
  -2  -6   2   22.36    1.84
   2  -6  -2   24.65    1.87
  -2   6   2   23.22    1.58
   2   6  -2   23.25    1.78
   0  -6   2    7.02    0.84
   0  -6  -2    6.68    0.92
   0   6   2    7.36    0.74
   0   6  -2    5.99    0.87
  -2  -6  -2    4.47    0.63
   2  -6   2    4.23    0.72
  -2  -6  -2    2.48    0.64
  -2   6  -2    4.03    0.70
  -4  -6  -2   33.75    2.33
   4  -6   2   38.19    2.63
   4   6   2   41.00    3.01
  -6  -6  -2   30.48    2.04
   6   6   2   40.09    2.99
  -8  -6  -2   20.02    1.46
   8   6   2   20.21    1.80
 -10  -6  -2    6.20    0.81
  10   6   2    4.88    0.96
 -10   6  -2    7.90    1.02
  10   6   2    9.62    1.41
 -12  -6  -2    0.03    0.61
 -12   6  -2   -0.11    0.71
  12   6   2    0.37    0.70
  12   6   2    0.09    1.10
   9  -7  -2    7.18    1.10
   9   7  -2    9.57    1.46
  -9   7   2    8.48    1.16
   7  -7  -2   -0.20    0.59
   7   7  -2    0.98    0.92
  -7   7   2   -1.10    0.48
   5  -7  -2    9.92    1.24
   5   7  -2   10.89    1.22
   3  -7  -2   15.24    1.46
  -3  -7   2   14.05    1.41
  -3   7   2   16.73    1.32
  -1  -7   2   40.04    3.05
   1  -7  -2   44.66    3.12
  -1   7   2   44.05    2.79
   1   7  -2   41.37    3.05
   1  -7   2   28.48    2.19
  -1  -7  -2   27.48    2.25
   1   7   2   29.25    2.02
  -1   7  -2   28.39    2.24
  -3  -7  -2   21.03    1.57
  -3   7  -2   21.14    1.79
  -5  -7  -2    4.38    0.74
  -5   7  -2    5.50    0.97
  -7  -7  -2    1.52    0.63
  -7   7  -2    2.06    0.75
  -9  -7  -2   22.41    1.70
  -9   7  -2   26.85    2.34
   9   7   2   34.80    2.84
   6  -8  -2   26.78    2.26
   6   8  -2   31.49    2.61
   4  -8  -2   19.97    1.92
   2  -8  -2   14.29    1.59
   0   8  -2   10.02    1.22
  -2   8  -2   16.89    1.74
   2   8   2   20.19    1.62
  -4   8  -2   23.46    2.05
 -18   0   3    0.30    0.81
 -16   0   3   49.95    3.27
  16   0  -3   49.31    3.52
 -14   0   3    4.27    0.72
  14   0  -3    5.47    0.75
  12   0  -3   13.55    1.51
 -12   0   3   13.48    1.10
  12   0  -3   12.68    1.14
 -10   0   3    5.11    0.81
  10   0  -3    7.11    0.68
  10   0  -3    7.28    0.99
 -10   0   3    7.33    0.69
  10   0  -3    5.63    0.65
   8   0  -3   31.96    2.19
  -8   0   3   32.75    2.66
   8   0  -3   36.09    2.76
   8   0  -3   32.67    2.29
  -8   0   3   33.79    2.12
   6   0  -3   60.61    4.13
  -6   0   3   52.69    3.25
   6   0  -3   55.75    3.40
  -6   0   3   49.79    4.06
   6   0  -3   49.16    3.54
   4   0  -3    0.92    0.18
  -4   0   3    0.94    0.20
  -4   0   3    0.90    0.23
   4   0  -3    1.32    0.26
  -2   0   3  249.10   16.12
  -2   0   3  298.56   20.34
  -2   0   3  287.30   17.90
   2   0  -3  267.56   16.97
   0   0   3  199.14   12.28
   0   0   3  204.99   13.64
   0   0   3  223.28   15.49
   0   0  -3  210.86   12.93
   2   0   3   -0.09    0.17
  -2   0  -3   -0.15    0.09
   2   0   3   -0.04    0.15
  -2   0  -3   -0.08    0.10
  -4   0  -3   34.49    2.11
   4   0   3   37.95    2.72
   4   0   3   31.66    2.41
  -4   0  -3   35.49    2.22
  -6   0  -3  102.14    6.23
   6   0   3  102.87    7.55
  -6   0  -3   98.48    5.94
   6   0   3   96.93    6.66
   8   0   3   76.86    5.51
  -8   0  -3   77.97    4.90
  -8   0  -3   84.91    5.13
   8   0   3   87.96    6.28
  10   0   3   11.68    1.14
  10   0   3   11.56    1.24
 -10   0  -3   12.75    0.94
  12   0   3    0.81    0.53
 -12   0  -3    0.12    0.41
 -14   0  -3    1.01    0.56
  14   0   3    1.28    0.67
 -16   0  -3    0.90    0.67
  16   0   3    0.86    0.82
  18   0   3    9.65    1.35
 -19   1   3    5.90    1.08
  19   1  -3    8.51    1.30
 -17  -1   3    6.86    1.02
  17   1  -3    5.32    1.09
 -17   1   3    6.55    0.97
 -15  -1   3    8.90    1.01
 -15   1   3    7.68    0.94
  15   1  -3    8.69    1.08
  13  -1  -3   48.71    3.27
 -13  -1   3   45.32    3.05
  13   1  -3   45.66    3.14
  13   1  -3   43.50    3.79
 -13   1   3   42.94    2.85
  11  -1  -3   29.23    2.03
  11  -1  -3   28.75    2.06
 -11   1   3   27.90    2.45
  11   1  -3   30.21    2.13
  11   1  -3   28.43    2.63
 -11   1   3   28.47    1.92
   9  -1  -3    6.08    0.84
  -9  -1   3    8.05    0.68
   9  -1  -3    6.69    0.65
   9  -1  -3    5.65    0.64
   9   1  -3    4.45    0.53
  -9   1   3    5.27    0.67
   9   1  -3    5.63    0.63
  -9   1   3    6.07    0.59
   9   1  -3    6.14    0.84
  -7  -1   3   40.04    2.53
   7  -1  -3   41.25    2.66
   7   1  -3   36.37    2.74
  -7   1   3   43.63    3.16
  -7   1   3   42.78    2.51
   7   1  -3   37.12    2.57
   7   1  -3   43.18    3.20
  -5  -1   3   67.26    4.47
  -5  -1   3   66.72    4.03
   5  -1  -3   65.87    5.10
   5  -1  -3   68.89    4.27
  -5   1   3   71.09    5.13
   5   1  -3   65.19    4.24
  -5   1   3   71.03    4.08
   5   1  -3   64.48    5.13
   3  -1  -3  215.68   13.06
  -3  -1   3  201.43   13.74
  -3  -1   3  207.89   12.38
   3  -1  -3  219.20   15.62
   3   1  -3  193.91   13.25
  -3   1   3  220.80   12.61
  -3   1   3  230.04   15.90
  -1  -1   3  104.61    7.87
   1  -1  -3  137.32    7.50
  -1   1   3  134.14    7.75
   1   1  -3  130.90    8.16
  -1   1   3  130.50    9.75
  -1  -1  -3   93.71    5.89
   1  -1   3   97.04    6.23
  -1  -1  -3   93.78    5.59
  -1   1  -3  101.49    6.44
   1   1   3   95.51    7.68
   1   1   3  113.50    6.78
  -3  -1  -3   17.70    1.34
  -3  -1  -3   21.23    1.30
   3  -1   3   21.58    1.48
   3  -1   3   23.41    1.66
   3   1   3   19.71    1.70
   3   1   3   22.45    1.55
  -3   1  -3   21.88    1.42
  -5  -1  -3   38.46    2.56
   5  -1   3   37.58    2.76
   5  -1   3   46.28    3.16
  -5   1  -3   40.58    2.34
   5   1   3   35.70    3.03
   5   1   3   36.75    2.69
  -5   1  -3   41.96    2.52
  -7  -1  -3    1.42    0.28
  -7  -1  -3    0.92    0.18
   7  -1   3    1.46    0.44
   7  -1   3    0.89    0.36
  -7   1  -3    1.20    0.25
   7   1   3    1.23    0.38
  -7   1  -3    1.12    0.25
   7   1   3    0.85    0.40
  -9  -1  -3   22.56    1.50
   9  -1   3   21.97    1.70
   9  -1   3   23.10    1.97
  -9   1  -3   21.08    1.46
   9   1   3   19.12    1.63
  -9   1  -3   21.97    1.40
   9   1   3   22.04    1.87
  11  -1   3   10.77    1.02
 -11  -1  -3    9.26    0.86
 -11   1  -3   11.25    0.90
  11   1   3   13.33    1.26
  11   1   3   10.28    1.10
 -11   1  -3   10.04    0.89
 -13  -1  -3   72.64    4.38
  13  -1   3   68.39    4.85
  13   1   3   66.46    4.86
  13   1   3   71.06    5.56
 -13   1  -3   72.81    4.34
  15  -1   3   22.18    1.83
  15   1   3   21.23    1.81
 -17  -1  -3    3.60    0.84
  17  -1   3    4.55    0.94
  17   1   3    5.22    1.11
 -18  -2   3   19.57    1.72
  18   2  -3   19.06    1.86
 -18   2   3   16.92    1.61
 -16  -2   3    4.63    0.91
  16   2  -3    6.61    1.08
 -16   2   3    5.80    0.92
 -14  -2   3   61.93    3.96
 -14   2   3   61.30    3.96
  14   2  -3   63.97    5.24
  14   2  -3   63.51    4.41
  12  -2  -3   15.16    1.36
 -12  -2   3   17.32    1.29
 -12   2   3   13.84    1.18
 -12   2   3   16.95    1.53
  12   2  -3   13.98    1.73
  12   2  -3   15.20    1.38
  10  -2  -3    6.43    0.70
  10   2  -3    6.76    0.76
 -10   2   3    6.61    0.81
 -10   2   3    6.03    0.64
  10   2  -3    5.73    0.98
  -8  -2   3   23.65    1.53
   8  -2  -3   21.74    1.63
   8   2  -3   17.26    1.36
  -8   2   3   22.59    1.78
   8   2  -3   21.97    1.84
  -8   2   3   24.27    1.42
   8   2  -3   20.48    1.56
   6  -2  -3   41.44    2.66
  -6  -2   3   38.96    2.47
   6   2  -3   35.01    2.89
  -6   2   3   37.54    2.89
  -6   2   3   38.24    2.29
  -4  -2   3   49.55    3.19
  -4  -2   3   42.37    2.83
   4  -2  -3   49.27    3.05
   4   2  -3   44.25    2.94
  -4   2   3   48.06    2.82
  -4   2   3   46.80    3.54
  -2  -2   3   56.83    3.44
   2  -2  -3   59.96    3.70
  -2  -2   3   57.14    3.86
  -2   2   3   59.46    4.45
  -2   2   3   61.86    3.55
   2   2  -3   56.82    3.74
   0  -2  -3   43.28    2.49
   0  -2  -3   43.43    2.66
   0  -2   3   36.86    2.75
   0   2   3   41.65    2.96
   0   2  -3   36.92    2.53
  -2  -2  -3  204.71   13.56
   2  -2   3  223.02   14.30
  -2  -2  -3  230.23   12.88
   2   2   3  226.36   17.41
   2   2   3  249.11   15.34
  -2   2  -3  231.06   14.58
   4  -2   3   97.17    6.32
  -4  -2  -3   94.19    5.68
   4   2   3   85.23    6.81
   4   2   3   95.00    6.01
  -4   2  -3   91.85    5.71
  -6  -2  -3  104.71    5.49
  -6  -2  -3   77.79    5.70
   6  -2   3   93.89    6.07
   6   2   3   91.01    6.54
  -6   2  -3  105.58    5.83
  -6   2  -3   99.43    6.21
   6   2   3   98.08    7.45
  -8  -2  -3   15.14    1.08
   8   2   3   15.45    1.52
   8   2   3   15.91    1.36
  -8   2  -3   14.64    1.20
  -8   2  -3   19.84    1.13
  10  -2   3   16.62    1.33
 -10  -2  -3   16.65    1.22
 -10   2  -3   15.18    1.03
 -10   2  -3   14.33    1.09
  10   2   3   12.88    1.25
  10   2   3   11.59    1.37
  12  -2   3    9.70    1.02
 -12  -2  -3   10.83    0.93
  12   2   3    9.32    1.03
 -12   2  -3    9.03    0.86
  12   2   3    8.34    1.14
 -14  -2  -3    0.38    0.54
  14  -2   3    1.05    0.62
  14   2   3    0.18    0.72
  14   2   3    0.04    0.67
  16  -2   3   12.36    1.31
  16   2   3   12.38    1.45
 -17  -3   3    5.25    1.09
  17   3  -3    5.67    1.21
  17   3  -3    1.60    1.65
 -17   3   3    6.66    1.03
 -15  -3   3    0.72    0.71
  15   3  -3    1.87    0.85
 -15   3   3    1.21    0.63
 -13  -3   3   33.87    2.33
  13  -3  -3   34.10    2.51
  13   3  -3   27.51    3.12
 -13   3   3   34.23    2.90
  13   3  -3   33.94    2.56
 -13   3   3   34.72    2.24
  11  -3  -3   25.05    1.89
 -11  -3   3   24.26    1.73
 -11   3   3   21.42    2.07
 -11   3   3   22.76    1.59
  11   3  -3   24.61    1.83
   9  -3  -3   27.13    2.00
  -9  -3   3   28.28    1.86
  -9   3   3   31.45    2.44
   9   3  -3   24.36    2.46
   9   3  -3   29.20    2.17
  -9   3   3   30.67    1.90
  -7  -3   3    3.71    0.48
   7  -3  -3    4.17    0.55
  -7   3   3    3.57    0.55
   7   3  -3    3.64    0.55
   7   3  -3    3.30    0.61
  -7   3   3    3.78    0.44
  -5  -3   3   12.22    0.86
  -5  -3   3   10.55    1.02
   5  -3  -3   12.76    0.99
   5   3  -3   11.56    0.87
  -5   3   3   12.27    1.07
  -5   3   3   12.85    0.87
   3  -3  -3   71.49    4.61
  -3  -3   3   70.55    4.81
  -3  -3   3   73.38    4.29
  -3   3   3   73.55    4.43
  -3   3   3   78.94    5.56
   3   3  -3   69.75    4.67
   1  -3  -3   20.62    1.37
  -1  -3   3   16.94    1.37
  -1  -3   3   18.87    1.16
  -1   3   3   20.05    1.55
   1   3  -3   18.16    1.39
  -1   3   3   22.07    1.29
  -1  -3  -3  108.51    6.44
  -1  -3  -3  103.23    6.07
   1  -3   3   94.95    6.72
  -1   3  -3  108.40    6.66
   1   3   3  103.20    7.85
  -3  -3  -3   24.79    1.97
   3  -3   3   30.90    2.06
  -3  -3  -3   32.77    1.86
   3   3   3   29.29    2.33
  -3   3  -3   30.82    2.04
   3   3   3   29.64    2.08
  -5  -3  -3   49.40    3.55
  -5  -3  -3   58.01    3.38
   5  -3   3   59.34    3.76
   5   3   3   57.97    3.94
   5   3   3   56.77    4.45
  -5   3  -3   59.50    3.77
   7  -3   3   10.87    0.94
  -7  -3  -3   11.68    0.85
  -7   3  -3   10.63    0.87
   7   3   3    9.27    1.03
   7   3   3    9.54    0.94
  -9  -3  -3   11.31    0.90
   9  -3   3   11.28    1.01
  -9   3  -3    9.67    0.86
   9   3   3    7.82    1.01
   9   3   3    9.84    1.00
  11  -3   3    6.65    0.78
 -11  -3  -3    5.91    0.70
  11   3   3    6.97    0.96
  11   3   3    5.58    0.99
 -11   3  -3    6.51    0.73
 -13  -3  -3   11.17    1.03
  13  -3   3   12.06    1.16
  13   3   3    6.23    1.17
  13   3   3    8.82    1.12
 -13   3  -3    9.15    0.91
 -15  -3  -3    3.42    0.75
  15  -3   3    3.02    0.79
  15   3   3    2.00    0.89
  15   3   3    2.15    0.94
 -17  -3  -3   13.32    1.36
  17  -3   3   15.72    1.57
 -16  -4   3   14.93    1.41
  16   4  -3    9.87    2.32
 -16   4   3   16.68    1.45
  16   4  -3   17.03    1.75
 -14  -4   3   10.09    1.07
  14  -4  -3    8.45    1.15
  14   4  -3   11.21    1.42
 -14   4   3   11.03    1.11
 -14   4   3    9.63    1.36
 -12  -4   3    8.72    0.98
  12  -4  -3   12.60    1.17
  12   4  -3    8.70    1.06
 -12   4   3    7.75    0.83
 -12   4   3    7.57    1.04
  12   4  -3    4.05    1.27
  10  -4  -3   20.38    1.66
 -10  -4   3   20.33    1.47
 -10   4   3   21.15    1.42
  10   4  -3   15.14    1.95
 -10   4   3   20.49    1.85
  10   4  -3   21.26    1.72
   8  -4  -3   35.47    2.49
  -8  -4   3   34.76    2.25
   8   4  -3   28.54    2.82
  -8   4   3   37.52    2.21
  -8   4   3   34.22    2.80
   8   4  -3   36.62    2.55
  -6  -4   3   26.69    2.13
   6  -4  -3   30.63    2.09
  -6  -4   3   29.27    1.86
  -6   4   3   29.73    2.33
  -6   4   3   29.33    1.85
   6   4  -3   27.38    2.34
  -4  -4   3   91.14    5.22
  -4  -4   3   82.09    5.86
   4  -4  -3   88.69    5.62
   4   4  -3   90.66    5.68
  -4   4   3   88.03    6.73
  -4   4   3   90.58    5.37
  -2  -4   3   43.89    3.12
   2  -4  -3   51.15    3.05
  -2  -4   3   41.37    2.72
  -2   4   3   38.67    3.18
  -2   4   3   44.23    2.60
   2   4  -3   43.85    2.80
   0  -4  -3    1.77    0.44
   0  -4   3    2.35    0.31
   0   4  -3    2.70    0.47
   2  -4   3    0.22    0.30
  -2  -4  -3    0.04    0.27
  -2  -4  -3    0.19    0.28
   2   4   3    0.35    0.27
  -2   4  -3    0.27    0.32
   4  -4   3    9.84    0.88
  -4  -4  -3    7.27    0.82
  -4  -4  -3    8.96    0.72
   4   4   3    9.66    0.91
   4   4   3    8.85    0.95
  -4   4  -3    9.55    0.87
   6  -4   3   10.02    0.93
   6   4   3    7.87    0.88
  -6   4  -3    9.12    0.84
   6   4   3    8.33    0.93
   8  -4   3   46.71    3.17
  -8  -4  -3   45.06    2.88
  -8   4  -3   45.75    3.11
   8   4   3   47.92    3.28
   8   4   3   43.85    3.65
 -10  -4  -3    1.61    0.47
  10  -4   3    1.72    0.48
  10   4   3    1.53    0.69
  10   4   3    1.61    0.61
 -10   4  -3    2.29    0.53
  12  -4   3    0.87    0.58
 -12  -4  -3    0.84    0.53
  12   4   3    1.17    0.77
  12   4   3    0.32    0.64
 -12   4  -3    0.44    0.53
  14  -4   3    2.71    0.76
 -14  -4  -3    3.02    0.68
  14   4   3    0.61    0.81
  14   4   3    2.29    0.98
 -14   4  -3    2.95    0.71
  16   4   3    2.44    1.11
 -15  -5   3    9.56    1.20
  15  -5  -3   10.95    1.42
  15   5  -3    1.22    1.79
 -15   5   3    9.72    1.49
  13  -5  -3    2.84    0.76
 -13  -5   3    2.74    0.72
 -13   5   3    4.03    0.80
  13   5  -3    4.29    1.09
  13   5  -3   -1.63    1.21
 -13   5   3    0.89    0.87
 -11  -5   3   26.22    1.90
  11  -5  -3   29.24    2.21
 -11   5   3   28.07    2.53
 -11   5   3   29.55    1.97
  11   5  -3   22.67    2.65
  11   5  -3   32.51    2.41
  -9  -5   3    5.60    0.69
   9  -5  -3    5.66    0.84
   9   5  -3    7.85    1.12
   9   5  -3    4.19    0.98
  -9   5   3    5.99    0.69
  -9   5   3    5.98    0.85
  -7  -5   3    5.38    0.64
   7  -5  -3    6.34    0.81
   7   5  -3    7.57    0.98
  -7   5   3    6.42    0.67
  -7   5   3    5.49    0.77
   7   5  -3    4.78    0.87
  -5  -5   3   12.30    0.94
   5  -5  -3   11.71    1.16
  -5  -5   3   12.68    1.19
  -5   5   3   12.02    1.10
  -3  -5   3   19.32    1.59
  -3  -5   3   19.34    1.33
   3  -5  -3   21.71    1.62
  -3   5   3   19.98    1.30
   3   5  -3   18.77    1.46
  -3   5   3   17.97    1.53
  -1  -5   3    1.61    0.50
   1  -5  -3    1.18    0.46
   1   5  -3    1.15    0.43
  -1   5   3    1.32    0.39
   1  -5   3   72.31    5.00
  -1  -5  -3   79.79    4.90
  -1  -5  -3   71.00    4.50
  -1   5  -3   75.38    4.94
  -3  -5  -3   80.41    4.99
   3  -5   3   89.52    5.57
  -3  -5  -3   77.33    5.35
  -3   5  -3   87.27    5.67
   3   5   3   87.02    5.83
   5  -5   3   14.54    1.23
  -5  -5  -3   12.68    1.03
   5   5   3   14.28    1.37
  -5   5  -3   14.35    1.23
   7  -5   3    7.96    0.90
  -7  -5  -3    6.81    0.72
   7   5   3    5.53    0.78
  -7   5  -3    6.81    0.80
  -9  -5  -3   29.10    2.04
   9  -5   3   32.24    2.25
   9   5   3   27.29    2.59
   9   5   3   35.12    2.49
  -9   5  -3   32.33    2.31
 -11  -5  -3    8.87    0.89
  11   5   3    6.76    1.01
 -11   5  -3    8.62    0.98
 -13  -5  -3    7.15    0.90
  13   5   3    6.10    1.18
 -13   5  -3    8.98    1.08
  13   5   3    9.26    1.36
 -12  -6   3    7.11    0.92
  12  -6  -3   10.79    1.28
  12   6  -3   12.84    1.70
 -12   6   3   12.31    1.53
 -10  -6   3    3.36    0.61
  10  -6  -3    3.07    0.76
  10   6  -3    2.20    1.04
  10   6  -3    6.01    1.19
 -10   6   3    3.48    0.84
   8  -6  -3   10.85    1.13
  -8  -6   3    9.00    0.87
   8   6  -3    8.33    1.19
  -8   6   3   10.34    1.16
  -8   6   3   11.53    0.96
   8   6  -3   12.28    1.33
   6  -6  -3    2.88    0.68
  -6   6   3    3.12    0.56
  -6   6   3    2.14    0.55
   4  -6  -3    0.81    0.57
  -4  -6   3    2.14    0.68
  -4   6   3    2.67    0.52
  -2  -6   3    3.84    0.73
   2  -6  -3    2.63    0.72
  -2   6   3    4.25    0.61
   2   6  -3    3.90    0.70
   0  -6  -3   45.22    3.19
   0  -6   3   44.43    3.18
   0   6  -3   42.00    2.94
   0   6   3   41.51    2.67
  -2  -6  -3   14.21    1.39
  -2  -6  -3   13.14    1.13
   2  -6   3   16.53    1.36
  -2   6  -3   14.33    1.29
  -4  -6  -3   21.47    1.60
   4  -6   3   24.56    1.84
  -4   6  -3   20.91    1.71
   6  -6   3   31.28    2.17
  -6  -6  -3   25.23    1.90
  -6   6  -3   27.53    2.12
  -8  -6  -3   12.05    1.03
  -8   6  -3   13.77    1.28
   8   6   3   16.10    1.63
   8   6   3   11.34    1.30
 -10  -6  -3   16.94    1.34
  10   6   3   12.36    1.57
 -10   6  -3   18.80    1.55
  10   6   3   21.94    1.86
 -12  -6  -3    1.20    0.67
 -12   6  -3    1.76    0.73
  12   6   3    1.49    1.15
  12   6   3    0.79    0.77
   9   7  -3    5.80    1.27
   7  -7  -3    1.26    0.69
   7   7  -3    1.96    0.88
  -7   7   3    1.13    0.58
   5  -7  -3   10.39    1.21
  -5   7   3   10.46    1.03
  -3  -7   3    2.20    0.76
   3  -7  -3    1.62    0.66
  -3   7   3    2.14    0.61
  -1  -7   3    9.88    1.13
   1  -7  -3    9.51    1.16
  -1   7   3    8.87    0.94
   1   7  -3    8.41    1.11
   1  -7   3   20.99    1.78
  -1  -7  -3   21.50    1.86
   1   7   3   22.71    1.69
   3  -7   3    4.87    0.95
  -3  -7  -3    3.32    0.76
  -3   7  -3    4.31    0.84
  -5  -7  -3   12.32    1.10
  -5   7  -3   12.88    1.31
  -7  -7  -3    1.45    0.67
  -9  -7  -3   12.09    1.16
   9   7   3   10.20    1.22
  -9   7  -3   11.74    1.28
   4  -8  -3   21.69    2.03
   2  -8  -3    8.70    1.34
  -2  -8   3    8.49    1.30
   0   8  -3    6.83    1.11
   0   8   3    5.78    0.96
   2   8   3    1.66    0.80
  -2   8  -3   -0.63    0.75
  -4   8  -3    5.15    1.02
 -18   0   4   26.29    2.05
 -16   0   4   12.96    1.24
 -14   0   4   48.42    3.24
  14   0  -4   51.49    3.50
  12   0  -4   40.09    2.84
 -12   0   4   41.34    2.66
  10   0  -4   51.65    3.53
  10   0  -4   56.44    4.20
  10   0  -4   51.03    3.38
 -10   0   4   49.74    3.25
   8   0  -4    8.34    0.89
  -8   0   4    8.07    0.71
   8   0  -4    7.95    0.71
   8   0  -4    7.73    0.70
  -8   0   4    7.72    0.83
   6   0  -4   78.34    4.77
   6   0  -4   73.20    4.98
   6   0  -4   77.55    5.75
  -6   0   4   76.49    4.56
  -6   0   4   73.25    5.72
   4   0  -4   58.75    4.28
   4   0  -4   52.10    3.56
  -4   0   4   61.05    3.74
  -4   0   4   54.18    4.28
  -2   0   4  476.55   30.24
  -2   0   4  418.61   27.25
   2   0  -4  455.05   28.69
  -2   0   4  514.67   34.37
   0   0   4 1000.00   67.48
   0   0   4  910.27   59.42
   0   0   4  860.22   53.52
   0   0  -4  896.84   56.33
   2   0   4   25.13    1.85
  -2   0  -4   23.34    1.43
  -2   0  -4   24.26    1.53
   2   0   4   21.17    1.65
   4   0   4   -0.07    0.22
  -4   0  -4   -0.04    0.15
   4   0   4    0.05    0.25
  -4   0  -4   -0.07    0.13
  -6   0  -4    2.79    0.34
   6   0   4    3.31    0.56
   6   0   4    2.90    0.51
  -6   0  -4    3.49    0.38
  -8   0  -4   11.46    0.83
   8   0   4   11.18    1.09
  -8   0  -4   10.53    0.81
   8   0   4   11.73    1.16
 -10   0  -4   45.12    2.92
  10   0   4   49.54    3.80
 -12   0  -4    6.29    0.70
  12   0   4    5.52    0.90
  14   0   4    0.70    0.69
 -14   0  -4    1.20    0.58
  16   0   4    0.20    0.78
 -17  -1   4    5.92    0.98
 -17   1   4    5.16    0.90
  17   1  -4    3.95    1.00
 -15  -1   4   21.50    1.68
  15   1  -4   25.42    1.98
 -15   1   4   23.28    1.79
 -13  -1   4   10.27    1.01
 -13   1   4    9.45    0.94
  13   1  -4    9.29    1.38
  13   1  -4    9.88    1.05
  11  -1  -4   23.96    1.75
 -11  -1   4   24.50    1.71
  11  -1  -4   24.51    1.76
  11   1  -4   25.53    1.84
  11   1  -4   24.55    2.22
 -11   1   4   22.42    2.07
 -11   1   4   23.48    1.66
  -9  -1   4   43.31    2.82
   9  -1  -4   47.65    3.61
   9  -1  -4   44.69    2.95
   9  -1  -4   43.57    3.01
  -9   1   4   43.43    2.71
   9   1  -4   40.53    2.78
   9   1  -4   48.40    3.49
  -9   1   4   44.66    3.42
   9   1  -4   39.18    2.94
   7  -1  -4  375.28   25.67
  -7  -1   4  294.67   25.58
  -7  -1   4  367.59   20.35
   7  -1  -4  348.01   21.41
   7   1  -4  384.43   26.35
  -7   1   4  403.35   26.35
   7   1  -4  329.47   21.93
   7   1  -4  303.16   23.12
  -7   1   4  360.30   20.90
  -5  -1   4   88.81    5.91
  -5  -1   4   89.56    5.34
   5  -1  -4   88.81    6.73
   5  -1  -4   91.07    5.64
   5   1  -4   79.02    5.27
  -5   1   4   88.93    6.37
  -5   1   4   84.51    5.05
   5   1  -4   85.91    6.34
   3  -1  -4   23.85    1.70
   3  -1  -4   28.00    2.03
  -3  -1   4   25.85    1.61
  -3   1   4   27.02    1.62
  -3   1   4   26.73    2.03
   3   1  -4   24.16    1.68
  -1  -1   4   27.66    2.13
   1  -1  -4   35.97    2.05
   1   1  -4   37.79    2.40
  -1   1   4   37.55    2.27
  -1   1   4   37.04    2.84
  -1  -1  -4  160.75    9.46
  -1  -1  -4  148.86    8.97
   1  -1   4  138.90    9.97
   1  -1   4  161.99   11.31
   1   1   4  174.06   13.31
  -1   1  -4  180.73   11.14
   1   1   4  184.99   11.74
   3  -1   4   74.08    5.31
  -3  -1  -4   80.03    4.75
   3  -1   4   88.17    6.02
  -3  -1  -4   77.87    4.99
  -3   1  -4   84.65    5.32
   3   1   4   88.41    5.64
   3   1   4   81.31    6.36
  -5  -1  -4  123.21    7.20
   5  -1   4  108.90    8.01
   5  -1   4  135.63    9.12
  -5  -1  -4  118.66    7.55
   5   1   4  113.54    9.20
  -5   1  -4  131.61    7.24
   5   1   4  125.08    8.14
  -5   1  -4  120.50    7.67
   7  -1   4   46.12    3.50
   7  -1   4   55.81    4.00
  -7  -1  -4   52.12    3.13
   7   1   4   49.39    4.08
  -7   1  -4   53.99    3.17
   7   1   4   54.80    3.66
  -7   1  -4   51.77    3.37
   9  -1   4   27.54    2.01
  -9  -1  -4   26.33    1.75
  -9   1  -4   27.31    1.91
   9   1   4   28.48    2.14
  -9   1  -4   27.02    1.79
   9   1   4   30.55    2.42
  11  -1   4   22.78    1.85
 -11  -1  -4   24.54    1.61
  11   1   4   19.72    1.89
  11   1   4   18.52    1.67
 -11   1  -4   21.64    1.46
 -11   1  -4   19.97    1.39
 -13  -1  -4   27.39    1.93
  13  -1   4   29.95    2.22
  13   1   4   23.65    1.93
 -15  -1  -4   17.73    1.38
  15  -1   4   17.08    1.57
  15   1   4   16.12    1.57
  17  -1   4    9.76    1.31
 -17  -1  -4   10.76    1.13
  17   1   4   10.19    1.40
 -18  -2   4    7.18    1.23
  18   2  -4    8.56    1.27
 -18   2   4    6.17    1.07
 -16  -2   4   21.57    1.76
 -16   2   4   21.97    1.73
  16   2  -4   22.27    1.94
 -14  -2   4   48.99    3.21
 -14   2   4   50.90    3.37
  14   2  -4   57.01    4.59
  14   2  -4   50.96    3.73
  12  -2  -4   10.97    1.04
 -12  -2   4   11.24    1.01
  12   2  -4   11.51    1.45
  12   2  -4   12.25    1.13
 -12   2   4   12.25    1.27
 -12   2   4   10.53    1.01
  10  -2  -4    0.95    0.38
 -10  -2   4    0.35    0.44
 -10   2   4    0.95    0.39
  10   2  -4    0.44    0.43
  10   2  -4    0.62    0.52
 -10   2   4    0.46    0.40
  -8  -2   4   51.87    3.24
   8  -2  -4   52.55    3.44
   8   2  -4   52.28    3.57
   8   2  -4   46.85    4.10
  -8   2   4   58.44    4.12
  -8   2   4   53.14    3.25
   6  -2  -4    1.86    0.37
  -6  -2   4    1.43    0.32
  -6  -2   4    1.77    0.38
  -6   2   4    2.18    0.39
   6   2  -4    1.88    0.27
   6   2  -4    1.74    0.39
  -6   2   4    2.20    0.33
  -4  -2   4   62.60    4.37
  -4  -2   4   64.65    3.91
   4  -2  -4   69.25    4.19
  -4   2   4   70.96    5.11
   4   2  -4   63.85    4.24
  -4   2   4   67.94    4.05
  -2  -2   4  181.14   12.54
   2  -2  -4  203.49   11.94
   2   2  -4  182.44   11.15
  -2   2   4  192.60   10.59
  -2   2   4  178.53   13.32
   2   2  -4  166.16   13.32
   0  -2  -4   34.88    2.24
   0  -2   4   33.67    2.33
   0   2  -4   33.95    2.23
   0   2   4   34.56    2.61
   2  -2   4   10.71    0.83
  -2  -2  -4    8.99    0.73
  -2  -2  -4   10.17    0.71
   2   2   4   11.57    0.88
   2   2   4    9.89    0.90
  -2   2  -4    9.72    0.79
  -4  -2  -4   74.88    4.11
  -4  -2  -4   61.97    4.28
   4   2   4   80.88    6.12
   4   2   4   85.95    5.41
  -4   2  -4   75.84    5.11
   6  -2   4   10.43    0.87
  -6  -2  -4    8.36    0.71
  -6  -2  -4   10.99    0.75
   6   2   4    9.89    0.95
  -6   2  -4   10.34    0.81
   6   2   4    9.83    1.01
   8  -2   4   67.32    4.60
  -8  -2  -4   69.07    4.14
   8   2   4   63.70    4.64
  -8   2  -4   68.00    4.36
   8   2   4   72.90    5.32
  10  -2   4   55.41    3.81
 -10  -2  -4   55.51    3.44
 -10   2  -4   53.89    3.52
  10   2   4   53.15    3.78
  10   2   4   54.20    4.30
 -12  -2  -4   54.30    3.49
  12  -2   4   56.99    3.88
  12   2   4   53.57    4.39
 -12   2  -4   58.63    3.59
  12   2   4   49.81    3.84
  14  -2   4    3.51    0.78
 -14  -2  -4    3.65    0.68
  14   2   4    3.18    0.99
  14   2   4    4.95    0.96
 -16  -2  -4    0.69    0.70
  16  -2   4    0.77    0.75
  16   2   4    0.60    0.81
 -17  -3   4    4.48    1.08
  17   3  -4    2.86    1.10
  17   3  -4    0.48    1.57
 -17   3   4    4.28    0.92
 -15  -3   4    1.30    0.79
 -15   3   4    1.68    0.68
  15   3  -4    0.97    0.83
  15   3  -4    1.47    1.00
  13  -3  -4    6.22    0.88
 -13  -3   4    6.37    0.87
 -13   3   4    6.48    0.79
  13   3  -4    6.32    0.92
  13   3  -4    2.48    1.02
 -13   3   4    5.07    0.98
  11  -3  -4   11.65    1.14
 -11  -3   4   13.87    1.14
  11   3  -4    9.78    1.37
  11   3  -4   12.13    1.16
 -11   3   4   11.77    1.24
 -11   3   4   11.94    0.98
  -9  -3   4   59.33    3.75
   9  -3  -4   61.91    4.03
  -9   3   4   63.39    3.88
   9   3  -4   62.52    4.95
   9   3  -4   61.56    4.31
  -9   3   4   64.45    4.90
  -7  -3   4   64.06    4.06
  -7  -3   4   68.30    4.56
   7  -3  -4   68.79    4.37
   7   3  -4   68.05    5.16
  -7   3   4   67.85    5.14
  -7   3   4   65.26    4.07
   5  -3  -4   48.28    3.03
  -5  -3   4   43.39    2.76
  -5  -3   4   44.42    3.14
   5   3  -4   43.85    3.00
  -5   3   4   47.82    3.61
  -5   3   4   49.08    2.88
  -3  -3   4   52.66    3.49
  -3  -3   4   50.85    3.08
   3  -3  -4   50.19    3.34
  -3   3   4   54.64    3.12
   3   3  -4   47.56    3.28
  -3   3   4   51.80    3.89
  -1  -3   4   19.09    1.48
   1  -3  -4   21.83    1.47
  -1   3   4   19.01    1.54
  -1   3   4   20.43    1.28
   1   3  -4   19.52    1.38
  -1  -3  -4   61.68    3.62
  -1  -3  -4   55.69    3.37
   1  -3   4   50.43    3.74
  -1   3  -4   57.98    3.59
   1   3   4   53.53    4.18
  -3  -3  -4   10.93    0.78
   3  -3   4   10.51    0.90
  -3  -3  -4   10.17    0.86
  -3   3  -4   12.47    0.95
   3   3   4   11.13    1.04
   3   3   4   11.53    0.97
  -5  -3  -4   65.80    3.89
  -5  -3  -4   55.76    4.08
   5  -3   4   70.75    4.33
   5   3   4   65.37    4.98
   5   3   4   64.74    4.37
  -5   3  -4   63.57    4.17
  -7  -3  -4   52.19    3.12
   7  -3   4   48.71    3.44
  -7   3  -4   51.25    3.29
   7   3   4   47.39    3.92
   7   3   4   50.45    3.47
   9  -3   4   25.91    1.94
  -9  -3  -4   27.08    1.76
   9   3   4   23.81    2.22
  -9   3  -4   26.43    1.84
   9   3   4   26.40    1.99
  11  -3   4    9.62    0.98
 -11  -3  -4    9.34    0.86
  11   3   4    7.54    0.99
  11   3   4    6.70    1.07
 -11   3  -4    7.80    0.81
 -13  -3  -4   27.26    1.93
  13  -3   4   28.87    2.13
  13   3   4   23.71    2.40
 -13   3  -4   27.72    1.94
  13   3   4   27.07    2.18
 -15  -3  -4    9.87    1.04
  15  -3   4   11.96    1.25
  15   3   4   11.23    1.48
  15   3   4    9.62    1.47
 -16  -4   4    3.70    1.02
 -16   4   4    3.86    0.91
  16   4  -4    0.63    1.45
  16   4  -4    2.46    1.13
  14  -4  -4   13.13    1.40
 -14  -4   4   12.50    1.29
 -14   4   4   13.16    1.23
  14   4  -4    9.36    1.80
  14   4  -4   14.08    1.46
 -14   4   4   14.09    1.54
  12  -4  -4   32.29    2.45
 -12  -4   4   32.94    2.25
  12   4  -4   33.00    2.48
 -12   4   4   32.29    2.13
  12   4  -4   24.75    2.89
 -12   4   4   33.60    2.76
  10  -4  -4   58.93    3.88
 -10  -4   4   55.16    3.56
 -10   4   4   54.72    4.40
  10   4  -4   54.62    4.50
 -10   4   4   55.72    3.47
  10   4  -4   55.83    3.94
  -8  -4   4   13.36    1.03
   8  -4  -4   13.43    1.20
   8   4  -4   12.31    1.40
   8   4  -4   13.29    1.33
  -8   4   4   14.48    1.32
  -8   4   4   14.35    1.04
   6  -4  -4   39.08    2.55
  -6  -4   4   34.48    2.26
  -6  -4   4   35.05    2.61
   6   4  -4   33.77    2.31
  -6   4   4   36.16    2.79
  -6   4   4   35.57    2.23
  -4  -4   4   81.52    5.01
   4  -4  -4   87.54    5.43
  -4  -4   4   83.14    5.66
   4   4  -4   82.03    5.34
  -4   4   4   83.69    5.06
  -4   4   4   86.92    6.35
  -2  -4   4   91.37    6.43
   2  -4  -4  101.97    6.19
  -2   4   4   93.91    7.02
   2   4  -4   94.06    5.97
  -2   4   4   93.62    5.62
   0  -4  -4  123.99    7.20
   0  -4   4  102.94    7.47
   0   4   4  114.28    6.67
   0   4   4  106.49    8.29
   0   4  -4  114.45    7.08
  -2  -4  -4   35.40    2.13
  -2  -4  -4   32.50    2.32
   2  -4   4   32.60    2.37
   2   4   4   35.24    2.43
  -2   4  -4   34.48    2.41
   2   4   4   34.85    2.69
  -4  -4  -4    7.28    0.86
  -4  -4  -4    9.22    0.74
   4  -4   4    9.41    0.88
   4   4   4    9.51    0.91
  -4   4  -4    8.70    0.83
   4   4   4    8.05    0.87
   6  -4   4   17.73    1.34
  -6  -4  -4   15.20    1.15
   6   4   4   15.27    1.31
   6   4   4   14.82    1.42
  -6   4  -4   15.84    1.25
   8  -4   4    2.00    0.50
  -8  -4  -4    2.53    0.46
   8   4   4    3.00    0.68
   8   4   4    2.88    0.66
  -8   4  -4    2.74    0.52
 -10  -4  -4    5.63    0.70
  10  -4   4    5.98    0.74
  10   4   4    6.35    0.94
  10   4   4    4.31    0.90
 -10   4  -4    5.79    0.72
  12  -4   4   39.92    2.83
 -12  -4  -4   38.95    2.59
  12   4   4   45.50    3.31
 -12   4  -4   43.36    3.05
  12   4   4   42.16    3.66
 -14  -4  -4    3.25    0.69
 -14   4  -4    2.53    0.72
  14   4   4    2.92    1.03
  14   4   4    2.15    0.95
  15  -5  -4    7.63    1.24
  15   5  -4    3.53    1.53
 -15   5   4    9.53    1.19
 -15   5   4    7.25    1.39
 -13  -5   4    0.44    0.67
  13  -5  -4    0.68    0.68
 -13   5   4    1.25    0.67
  13   5  -4    0.88    1.05
 -13   5   4    0.96    0.73
  13   5  -4    0.64    1.01
  11  -5  -4    6.74    0.97
 -11  -5   4    5.40    0.76
 -11   5   4    5.48    0.94
  11   5  -4    3.11    1.10
  11   5  -4    7.25    1.18
 -11   5   4    7.48    0.82
   9  -5  -4   15.01    1.34
  -9  -5   4   12.64    1.09
  -9   5   4   13.53    1.33
   9   5  -4   11.34    1.41
   9   5  -4   14.64    1.45
  -9   5   4   13.53    1.06
  -7  -5   4   88.73    5.67
   7  -5  -4  104.20    6.20
  -7  -5   4   92.13    6.42
  -7   5   4   97.86    5.99
  -7   5   4  100.55    7.53
  -5  -5   4   89.88    5.73
   5  -5  -4  101.14    6.24
  -5  -5   4   97.29    6.49
  -5   5   4   92.08    6.97
  -5   5   4   92.72    5.57
   3  -5  -4   24.84    1.88
  -3  -5   4   24.16    1.89
   3   5  -4   24.76    1.78
  -3   5   4   23.57    1.61
  -3   5   4   24.15    1.94
  -1  -5   4   28.80    2.19
   1  -5  -4   30.39    2.18
  -1   5   4   30.66    1.98
   1   5  -4   29.52    2.15
   1  -5   4   64.84    4.56
  -1  -5  -4   69.30    4.46
  -1   5  -4   70.57    4.66
  -3  -5  -4   38.14    2.73
   3  -5   4   38.69    2.75
  -3  -5  -4   38.84    2.46
  -3   5  -4   38.83    2.74
  -5  -5  -4   35.15    2.40
   5  -5   4   40.34    2.73
   5   5   4   39.31    3.20
  -5   5  -4   38.72    2.82
   5   5   4   43.91    2.94
   7  -5   4    0.84    0.50
  -7  -5  -4    0.71    0.42
   7   5   4    0.87    0.61
  -7   5  -4    0.16    0.41
   7   5   4    0.28    0.52
   9  -5   4    2.65    0.60
  -9  -5  -4    2.49    0.57
   9   5   4    2.47    0.70
  -9   5  -4    2.12    0.60
   9   5   4    2.75    0.82
  11  -5   4    0.55    0.58
 -11  -5  -4   -0.40    0.50
  11   5   4   -0.09    0.80
 -11   5  -4   -0.74    0.52
  11   5   4   -0.03    0.62
 -13  -5  -4    2.71    0.70
  13   5   4    1.51    0.84
 -13   5  -4    2.67    0.79
  13   5   4    2.77    1.11
 -12  -6   4   20.12    1.62
  12  -6  -4   24.35    1.98
  12   6  -4   22.84    2.52
 -12   6   4   26.29    2.44
 -12   6   4   27.10    1.92
  10  -6  -4   19.47    1.76
  10   6  -4   23.02    2.03
 -10   6   4   20.87    1.93
  10   6  -4   14.98    1.96
 -10   6   4   21.71    1.54
   8  -6  -4   25.90    2.08
  -8   6   4   25.78    2.23
  -8   6   4   25.20    1.78
   8   6  -4   27.96    2.17
   8   6  -4   23.72    2.23
   6  -6  -4    6.48    0.95
  -6  -6   4    7.70    1.03
  -6   6   4    7.27    0.85
  -6   6   4    7.60    0.79
  -4  -6   4   33.87    2.70
   4  -6  -4   39.73    2.73
  -4   6   4   38.09    2.40
  -4   6   4   35.76    2.90
  -2  -6   4  109.24    7.94
   2  -6  -4  129.21    7.74
  -2   6   4  108.44    6.75
   2   6  -4  115.43    7.22
   0  -6  -4   12.96    1.29
   0  -6   4   11.88    1.21
   0   6   4   11.38    1.01
   0   6  -4   10.54    1.11
  -2  -6  -4   16.03    1.24
  -2  -6  -4   15.14    1.46
   2  -6   4   16.15    1.43
  -2   6  -4   18.95    1.61
  -4  -6  -4    1.32    0.54
   4  -6   4    1.03    0.67
  -4   6  -4    0.85    0.52
   6  -6   4    7.45    1.00
  -6   6  -4    7.37    0.91
   8  -6   4   17.83    1.50
  -8  -6  -4   13.41    1.21
  -8   6  -4   15.62    1.40
   8   6   4   15.16    1.50
 -10  -6  -4   20.29    1.52
  10   6   4   25.82    2.17
  10   6   4   19.55    2.06
 -10   6  -4   23.84    1.89
 -12   6  -4    8.02    1.19
  12   6   4    9.73    1.55
   9  -7  -4   17.77    1.68
  -9   7   4   19.11    1.75
   9   7  -4   17.94    1.91
   9   7  -4   14.85    1.69
   7  -7  -4   33.85    2.63
  -7   7   4   29.35    2.13
  -7   7   4   34.24    2.66
   7   7  -4   29.38    2.46
   5  -7  -4    6.35    1.03
  -5  -7   4    6.73    1.04
  -5   7   4    6.08    0.82
   3  -7  -4   13.36    1.38
  -3  -7   4   11.19    1.29
  -3   7   4   13.30    1.17
  -1  -7   4    6.80    1.03
   1  -7  -4    6.54    1.11
   1   7  -4    4.85    0.87
  -1   7   4    5.92    0.83
   1  -7   4   11.67    1.32
  -1   7  -4    9.80    1.21
   1   7   4   12.81    1.17
   3  -7   4   41.58    3.11
  -3   7  -4   39.71    2.94
  -5  -7  -4   14.40    1.23
  -5   7  -4   17.76    1.62
  -7   7  -4    4.75    0.88
  -4  -8   4   13.40    1.53
  -2  -8   4   12.33    1.56
   2  -8  -4   16.36    1.66
  -2   8   4   12.53    1.29
   0  -8   4   28.41    2.38
   0   8   4   27.79    2.06
   0   8  -4   26.34    2.21
   2   8   4   14.00    1.44
  -2   8  -4   12.11    1.47
 -18   0   5   -0.07    0.82
 -16   0   5   12.47    1.23
 -14   0   5   27.40    1.98
 -12   0   5   63.06    4.03
  12   0  -5   65.11    4.35
  10   0  -5   33.13    2.20
  10   0  -5   30.10    2.61
 -10   0   5   29.29    2.04
  10   0  -5   29.83    2.10
   8   0  -5   -0.11    0.33
   8   0  -5    0.10    0.23
   8   0  -5   -0.17    0.26
  -8   0   5   -0.23    0.29
  -8   0   5   -0.16    0.29
   6   0  -5    4.05    0.45
   6   0  -5    5.49    0.60
  -6   0   5    4.32    0.50
  -6   0   5    4.36    0.54
  -4   0   5    3.88    0.42
  -4   0   5    2.71    0.37
  -4   0   5    4.05    0.48
   4   0  -5    3.39    0.38
  -2   0   5  120.80    7.59
   2   0  -5  130.29    8.01
  -2   0   5  123.08    8.40
  -2   0   5  141.47    9.59
   0   0  -5    3.81    0.34
   0   0   5    2.70    0.34
   0   0   5    3.60    0.41
   0   0   5    3.19    0.42
   2   0   5   11.10    1.01
   2   0   5   13.90    1.10
  -2   0  -5   13.31    0.91
  -2   0  -5   12.46    0.82
   4   0   5   21.13    1.59
  -4   0  -5   21.06    1.32
   4   0   5   21.26    1.72
  -4   0  -5   20.91    1.41
   6   0   5    3.45    0.59
  -6   0  -5    4.30    0.42
   6   0   5    3.71    0.56
  -6   0  -5    4.23    0.42
   8   0   5    4.23    0.71
  -8   0  -5    4.55    0.48
  -8   0  -5    4.28    0.46
   8   0   5    5.13    0.76
 -10   0  -5   23.99    1.62
  10   0   5   25.29    2.18
  10   0   5   24.27    1.96
 -12   0  -5   -0.13    0.42
  12   0   5    0.05    0.62
  14   0   5   -0.53    0.70
  16   0   5    4.00    0.95
 -17  -1   5    1.11    0.84
 -17   1   5    0.32    0.79
 -15  -1   5    7.11    0.99
 -15   1   5    8.02    0.97
  15   1  -5    7.48    1.01
 -13  -1   5    8.84    0.94
 -13   1   5   10.12    0.98
  13   1  -5   10.13    1.10
  13   1  -5    9.41    1.33
 -11  -1   5   23.52    1.62
  11  -1  -5   21.07    1.65
  11   1  -5   20.35    1.63
 -11   1   5   22.19    1.55
  11   1  -5   22.45    2.02
   9  -1  -5    2.27    0.47
  -9  -1   5    3.20    0.51
  -9   1   5    3.05    0.47
   9   1  -5    3.77    0.50
   9   1  -5    2.62    0.40
   9   1  -5    3.03    0.60
   7  -1  -5   67.78    5.23
  -7  -1   5   66.52    4.14
   7  -1  -5   69.80    4.37
  -7   1   5   66.70    5.09
   7   1  -5   64.11    4.21
  -7   1   5   66.59    4.05
   7   1  -5   68.87    5.11
   5  -1  -5   59.01    4.00
  -5  -1   5   65.53    3.80
   5  -1  -5   62.30    4.77
  -5  -1   5   63.91    4.19
   5   1  -5   58.97    3.83
  -5   1   5   56.54    3.65
  -5   1   5   65.94    4.62
  -3  -1   5   81.42    4.68
  -3  -1   5   73.06    5.90
   3  -1  -5   80.69    4.96
  -3  -1   5   79.40    5.20
   3   1  -5   81.95    4.91
  -3   1   5   84.78    5.88
  -3   1   5   68.04    4.66
  -1  -1   5  132.18    9.94
  -1  -1   5  160.18   11.32
  -1  -1   5  146.82    8.95
   1  -1  -5  171.29    9.48
  -1   1   5  166.83   11.59
  -1   1   5  138.79    9.19
   1   1  -5  163.21    9.70
  -1  -1  -5   11.01    0.80
   1  -1   5   10.37    0.89
   1  -1   5   10.96    0.97
  -1  -1  -5   12.04    0.77
  -1   1  -5   12.43    0.88
   1   1   5   11.19    0.95
  -3  -1  -5   25.56    1.68
  -3  -1  -5   25.72    1.60
   3  -1   5   28.81    2.06
   3  -1   5   22.10    1.82
   3   1   5   29.51    2.19
  -3   1  -5   27.57    1.84
   3   1   5   25.34    1.98
  -5  -1  -5    9.09    0.71
   5  -1   5   10.40    0.93
   5  -1   5    8.08    0.87
  -5  -1  -5    9.84    0.71
   5   1   5    9.62    0.97
   5   1   5    9.75    0.97
  -5   1  -5   10.64    0.79
   7  -1   5    9.10    0.95
  -7  -1  -5    9.18    0.73
   7  -1   5   10.58    1.02
  -7  -1  -5    9.47    0.74
   7   1   5    8.96    0.99
  -7   1  -5    9.42    0.77
  -7   1  -5    9.23    0.70
   7   1   5    8.53    0.97
  -9   1  -5   32.73    2.13
   9   1   5   38.66    2.89
   9   1   5   32.61    2.54
  -9   1  -5   33.23    2.29
 -11  -1  -5    7.05    0.73
  11  -1   5    8.45    0.97
  11   1   5    7.31    0.99
  11   1   5    9.17    1.14
 -13  -1  -5   10.57    0.94
  13  -1   5   10.40    1.18
  13   1   5   11.50    1.26
 -15  -1  -5    8.31    0.95
  15  -1   5   10.50    1.18
  15   1   5    9.58    1.25
  17  -1   5    9.68    1.31
 -18  -2   5    6.59    1.19
 -18   2   5    5.18    1.08
  18   2  -5    7.22    1.26
 -16  -2   5    2.24    0.87
 -16   2   5    1.89    0.76
  16   2  -5    2.73    0.94
 -14  -2   5    7.87    0.96
 -14   2   5    8.41    0.94
  14   2  -5    9.90    1.18
  14   2  -5    7.64    1.43
 -12  -2   5   14.01    1.20
  12  -2  -5   13.71    1.24
  12   2  -5   13.18    1.25
  12   2  -5   14.56    1.63
 -12   2   5   15.83    1.20
 -12   2   5   14.39    1.45
  10  -2  -5   29.63    2.12
 -10  -2   5   29.53    2.01
 -10   2   5   33.75    2.69
  10   2  -5   29.72    2.31
 -10   2   5   33.46    2.13
  10   2  -5   32.39    2.75
   8  -2  -5   42.99    2.89
  -8  -2   5   43.29    2.73
  -8   2   5   44.45    3.30
   8   2  -5   38.98    3.30
   8   2  -5   37.99    2.85
  -8   2   5   42.68    2.62
   8   2  -5   42.99    2.68
  -6  -2   5   36.71    2.27
  -6  -2   5   35.73    2.54
   6  -2  -5   35.88    2.44
  -6   2   5   35.01    2.31
  -6   2   5   39.93    2.93
   6   2  -5   35.73    2.39
  -4  -2   5    3.23    0.46
  -4  -2   5    2.68    0.34
   4  -2  -5    3.33    0.44
   4   2  -5    2.57    0.36
  -4   2   5    2.90    0.43
  -4   2   5    3.93    0.39
   2  -2  -5   44.34    2.65
  -2  -2   5   36.47    2.73
  -2   2   5   40.79    2.45
   2   2  -5   42.01    2.60
  -2   2   5   37.33    3.06
   0  -2  -5   16.33    1.12
   0  -2   5   15.18    1.18
   0   2   5   14.84    1.01
   0   2   5   15.15    1.24
   0   2  -5   15.77    1.09
  -2  -2  -5   98.11    6.54
   2  -2   5  114.68    6.94
  -2  -2  -5  101.60    6.22
   2   2   5  108.40    8.64
  -2   2  -5  114.92    7.26
   2   2   5  124.27    7.64
   4  -2   5    4.33    0.58
  -4  -2  -5    3.84    0.43
  -4  -2  -5    4.69    0.45
  -4   2  -5    4.48    0.49
   4   2   5    4.25    0.60
   4   2   5    5.17    0.64
  -6  -2  -5   30.56    1.82
  -6  -2  -5   26.00    1.86
   6  -2   5   28.85    2.06
   6   2   5   29.08    2.20
   6   2   5   29.32    2.45
  -6   2  -5   30.92    2.03
   8  -2   5   22.88    1.75
  -8  -2  -5   23.43    1.54
   8   2   5   24.93    2.15
  -8   2  -5   25.46    1.73
   8   2   5   22.17    1.90
 -10  -2  -5   42.19    2.69
  10  -2   5   43.19    3.04
 -10   2  -5   43.70    2.86
  10   2   5   37.25    3.08
  10   2   5   46.92    3.54
 -12  -2  -5   35.46    2.39
  12  -2   5   38.80    2.72
  12   2   5   40.77    3.24
  12   2   5   34.97    2.83
  14  -2   5    4.99    0.86
 -14  -2  -5    5.79    0.77
  14   2   5    4.49    1.05
  14   2   5    6.36    1.05
  16  -2   5    2.30    0.86
 -16  -2  -5    2.33    0.74
  16   2   5    4.03    1.05
 -17  -3   5    0.25    0.93
 -17   3   5    0.17    0.81
  17   3  -5    0.37    1.03
  17   3  -5   -0.94    1.21
 -15  -3   5   14.08    1.40
  15   3  -5   12.16    1.83
  15   3  -5   13.54    1.52
 -15   3   5   15.02    1.32
 -13  -3   5    8.52    1.05
  13  -3  -5    8.05    1.01
 -13   3   5    7.09    1.03
 -13   3   5    7.80    0.90
  13   3  -5    5.08    1.35
  13   3  -5    8.20    0.99
 -11  -3   5   12.14    1.10
  11  -3  -5   11.80    1.15
  11   3  -5   10.93    1.40
 -11   3   5   12.66    1.29
  11   3  -5   12.66    1.20
 -11   3   5   11.49    1.03
   9  -3  -5    6.75    0.80
  -9  -3   5    7.10    0.75
  -9   3   5    5.62    0.81
  -9   3   5    7.64    0.71
   9   3  -5    6.87    0.82
   9   3  -5    5.69    0.93
  -7  -3   5    4.86    0.58
  -7   3   5    6.00    0.57
   7   3  -5    5.60    0.55
   7   3  -5    4.38    0.72
  -7   3   5    4.87    0.65
  -5  -3   5   27.25    1.97
   5  -3  -5   26.21    1.88
   5   3  -5   27.29    1.93
  -5   3   5   29.21    2.32
  -5   3   5   30.49    1.86
   3  -3  -5   54.92    3.38
  -3  -3   5   48.15    3.08
  -3  -3   5   51.45    3.50
  -3   3   5   47.89    3.78
   3   3  -5   50.15    3.20
  -3   3   5   50.79    3.03
   1  -3  -5    3.08    0.44
  -1  -3   5    2.44    0.43
  -1   3   5    2.48    0.36
  -1   3   5    3.42    0.39
   1   3  -5    2.68    0.39
  -1  -3  -5    1.15    0.30
  -1  -3  -5    1.22    0.33
   1  -3   5    0.69    0.33
  -1   3  -5    0.72    0.28
   1   3   5    0.85    0.27
  -3  -3  -5   10.65    0.95
  -3  -3  -5   13.20    0.91
   3  -3   5   13.42    1.06
  -3   3  -5   12.14    0.96
   3   3   5   11.28    1.09
   3   3   5   12.24    1.03
  -5  -3  -5   97.48    5.53
  -5  -3  -5   80.74    5.79
   5  -3   5   98.02    6.15
   5   3   5   96.18    7.36
   5   3   5   97.47    6.49
  -5   3  -5   97.79    6.17
  -7  -3  -5   61.42    3.66
   7  -3   5   57.79    4.06
   7   3   5   54.10    3.94
   7   3   5   60.47    4.53
  -7   3  -5   56.89    3.74
  -9  -3  -5   10.12    0.83
   9  -3   5    8.74    0.88
   9   3   5    8.59    1.01
  -9   3  -5    9.78    0.87
   9   3   5    8.66    1.11
  11  -3   5    6.19    0.87
 -11  -3  -5    8.55    0.77
 -11   3  -5    6.60    0.78
  11   3   5   10.02    1.09
  11   3   5    5.72    1.06
  13  -3   5    8.39    1.02
 -13  -3  -5    7.61    0.84
  13   3   5   10.49    1.28
 -13   3  -5    7.54    0.92
  13   3   5    6.50    1.16
 -15  -3  -5    8.77    1.01
  15  -3   5   10.40    1.23
  15   3   5    9.10    1.37
  15   3   5    6.58    1.32
 -16  -4   5    0.84    0.95
  16   4  -5    0.77    1.24
  16   4  -5    0.08    1.31
 -16   4   5    1.00    0.88
 -14  -4   5   11.42    1.28
  14  -4  -5   11.69    1.33
 -14   4   5   11.61    1.44
  14   4  -5    7.65    1.66
 -14   4   5   11.46    1.17
  14   4  -5   13.36    1.37
 -12  -4   5    3.37    0.77
  12  -4  -5    4.65    0.80
 -12   4   5    3.01    0.76
  12   4  -5    2.35    1.01
  12   4  -5    4.29    0.98
  10  -4  -5   36.12    2.50
 -10  -4   5   32.06    2.25
  10   4  -5   36.03    2.62
 -10   4   5   33.01    2.85
 -10   4   5   35.61    2.29
  10   4  -5   32.29    2.96
   8  -4  -5   24.70    1.81
  -8  -4   5   21.79    1.57
   8   4  -5   19.80    1.96
  -8   4   5   20.85    1.82
  -8   4   5   21.75    1.46
   6  -4  -5    5.41    0.70
  -6  -4   5    5.02    0.56
  -6  -4   5    5.07    0.76
   6   4  -5    5.33    0.60
  -6   4   5    5.05    0.66
  -6   4   5    5.48    0.57
   4  -4  -5    6.27    0.72
  -4  -4   5    6.29    0.58
  -4  -4   5    5.65    0.75
   4   4  -5    6.33    0.67
  -4   4   5    7.21    0.76
  -4   4   5    7.63    0.64
  -2  -4   5   56.61    3.78
   2  -4  -5   53.04    3.63
   2   4  -5   52.79    3.43
  -2   4   5   53.53    3.22
  -2   4   5   50.52    3.98
   0  -4  -5   12.10    1.01
   0  -4   5   10.37    0.99
   0   4   5   12.82    0.91
   0   4   5   11.00    0.99
   0   4  -5   12.02    1.01
  -2  -4  -5    4.37    0.51
  -2  -4  -5    3.36    0.55
   2   4   5    4.53    0.53
  -2   4  -5    4.88    0.62
   4  -4   5   26.34    1.91
  -4  -4  -5   25.81    1.69
  -4  -4  -5   24.41    1.84
   4   4   5   24.24    2.16
  -4   4  -5   27.30    1.90
   4   4   5   28.20    1.97
   6  -4   5   10.82    1.00
  -6  -4  -5   10.29    0.86
   6   4   5    9.69    1.02
   6   4   5    9.84    1.08
  -6   4  -5   10.48    0.94
  -8  -4  -5    7.15    0.71
   8  -4   5    7.04    0.79
  -8   4  -5    7.59    0.80
   8   4   5    6.26    0.97
   8   4   5    8.14    0.97
 -10  -4  -5   36.83    2.49
  10  -4   5   40.15    2.76
 -10   4  -5   41.91    2.76
  10   4   5   35.27    3.30
  10   4   5   41.92    2.97
  12  -4   5    8.75    0.99
 -12  -4  -5    8.74    0.90
  12   4   5    6.92    1.21
  12   4   5    8.89    1.22
 -12   4  -5    9.97    1.03
  14  -4   5    2.70    0.81
 -14  -4  -5    2.65    0.74
  14   4   5    1.91    0.96
  14   4   5    1.88    1.06
  13  -5  -5    2.26    0.78
 -13   5   5    1.53    0.74
  13   5  -5    0.81    1.13
 -13   5   5    1.35    0.69
  13   5  -5    1.91    1.10
 -11  -5   5    2.82    0.66
  11  -5  -5    2.37    0.75
  11   5  -5    2.90    0.95
 -11   5   5    3.43    0.76
  11   5  -5    4.06    1.11
 -11   5   5    3.90    0.71
  -9  -5   5   24.37    1.75
   9  -5  -5   27.42    2.03
  -9   5   5   28.06    2.44
   9   5  -5   28.25    2.55
   9   5  -5   31.72    2.35
  -9   5   5   27.56    1.93
  -7  -5   5   35.03    2.64
   7  -5  -5   35.62    2.56
  -7   5   5   33.44    2.12
   7   5  -5   29.96    2.68
  -7   5   5   33.18    2.64
  -5  -5   5   13.57    1.29
   5  -5  -5   14.14    1.25
   5   5  -5   11.88    1.04
  -5   5   5   11.43    1.11
  -5   5   5   13.31    0.98
  -3  -5   5   13.18    1.16
   3  -5  -5   11.09    1.15
  -3   5   5   10.91    1.00
  -3   5   5   10.90    0.89
   3   5  -5   10.80    1.00
  -1  -5   5   15.62    1.39
   1  -5  -5   17.43    1.42
  -1   5   5   15.45    1.37
   1   5  -5   17.35    1.38
  -1   5   5   17.33    1.22
  -1  -5  -5    5.17    0.79
   1  -5   5    5.98    0.79
   1   5   5    5.46    0.59
  -1   5  -5    5.03    0.74
  -3  -5  -5   14.68    1.36
  -3  -5  -5   14.44    1.13
   3  -5   5   16.68    1.35
  -3   5  -5   14.85    1.32
   3   5   5   16.37    1.36
  -5  -5  -5   22.68    1.68
   5  -5   5   27.32    1.96
   5   5   5   23.27    2.01
  -5   5  -5   24.73    1.85
   7  -5   5   12.65    1.19
  -7  -5  -5   13.29    1.07
   7   5   5   14.44    1.32
  -7   5  -5   13.63    1.21
   7   5   5   11.63    1.26
   9  -5   5    6.76    0.83
  -9  -5  -5    7.09    0.78
   9   5   5    7.51    1.15
   9   5   5    9.87    1.16
  11  -5   5    1.27    0.69
 -11  -5  -5    1.08    0.55
 -11   5  -5    0.30    0.53
  11   5   5    0.66    0.73
  11   5   5    1.23    0.92
 -13  -5  -5    2.53    0.71
  13  -5   5    2.29    0.80
  13   5   5    2.59    1.01
 -13   5  -5    3.17    0.79
  13   5   5    3.26    1.18
  12  -6  -5    6.70    1.12
 -12   6   5    6.86    1.01
 -12   6   5    7.07    1.17
  12   6  -5    6.40    1.45
  12   6  -5   10.28    1.65
  10  -6  -5   13.20    1.41
  10   6  -5   11.24    1.48
 -10   6   5   13.66    1.44
 -10   6   5   14.56    1.18
   8  -6  -5    1.42    0.61
  -8   6   5    2.00    0.56
   8   6  -5    1.36    0.78
  -8   6   5    1.77    0.60
   6  -6  -5    5.31    0.89
  -6  -6   5    5.30    0.93
  -6   6   5    5.12    0.68
  -6   6   5    4.48    0.69
   4  -6  -5    8.43    1.00
  -4  -6   5    7.68    1.02
  -4   6   5    6.26    0.75
  -4   6   5    7.53    0.79
  -2  -6   5   16.10    1.43
   2  -6  -5   15.67    1.47
  -2   6   5   13.64    1.30
  -2   6   5   17.42    1.24
   2   6  -5   16.36    1.39
   0  -6  -5    1.95    0.68
   0  -6   5    2.60    0.76
   0   6  -5    3.64    0.73
   0   6   5    3.27    0.65
  -2  -6  -5   17.48    1.60
   2  -6   5   17.90    1.59
  -2   6  -5   14.25    1.32
   4  -6   5   11.12    1.19
  -4  -6  -5    9.17    0.92
  -4   6  -5    9.24    1.04
   6  -6   5    4.32    0.84
  -6  -6  -5    3.35    0.66
  -6   6  -5    4.07    0.72
   6   6   5    2.84    0.63
   8  -6   5    6.08    0.99
  -8  -6  -5    4.86    0.77
   8   6   5    3.64    0.75
  -8   6  -5    4.48    0.80
 -10  -6  -5   11.11    1.06
  10  -6   5    9.70    1.29
  10   6   5    7.00    1.11
 -10   6  -5    9.84    1.07
   9  -7  -5    0.90    0.72
  -9   7   5    0.53    0.66
  -9   7   5    0.57    0.64
   9   7  -5    0.49    0.82
   7  -7  -5    2.63    0.83
  -7   7   5    1.72    0.65
  -7   7   5    3.08    0.67
  -5  -7   5    8.51    1.17
   5  -7  -5   10.33    1.26
  -5   7   5   10.25    1.06
  -5   7   5    9.52    1.04
   3  -7  -5   13.17    1.41
  -3  -7   5   12.12    1.38
  -3   7   5   13.74    1.22
  -1  -7   5    0.02    0.74
   1  -7  -5    0.35    0.69
   1   7  -5   -0.16    0.63
  -1   7   5    0.09    0.57
   1  -7   5   -0.60    0.83
  -1   7  -5   -0.27    0.62
   1   7   5   -0.24    0.64
   3  -7   5    4.10    1.07
  -3   7  -5    1.73    0.70
  -5  -7  -5   13.48    1.22
  -5   7  -5   11.84    1.30
  -7  -7  -5   11.50    1.15
   7   7   5    9.40    1.09
  -7   7  -5   12.07    1.23
  -2  -8   5    1.78    1.06
   2  -8  -5    1.16    0.86
  -2   8   5    0.43    0.81
   0  -8   5   16.24    1.72
   0   8  -5   16.08    1.64
 -18   0   6   35.35    2.58
 -16   0   6    0.68    0.73
 -14   0   6   18.63    1.51
 -12   0   6   30.90    2.13
  10   0  -6  110.80    6.85
  10   0  -6  112.26    8.26
  10   0  -6   99.76    7.11
 -10   0   6  109.79    6.54
  -8   0   6   63.53    4.21
  -8   0   6   69.30    5.30
   8   0  -6   68.57    4.42
   8   0  -6   70.33    4.59
   8   0  -6   73.80    5.34
  -6   0   6   16.76    1.21
  -6   0   6   19.15    1.29
   6   0  -6   16.16    1.24
  -6   0   6   14.80    1.47
   6   0  -6   20.67    1.52
  -4   0   6   15.76    1.24
  -4   0   6   19.43    1.57
   4   0  -6   19.17    1.32
  -4   0   6   20.91    1.35
  -2   0   6    3.15    0.39
   2   0  -6    4.69    0.42
  -2   0   6    4.29    0.43
   0   0   6  170.00   12.19
   0   0   6  152.52   10.72
   0   0   6  167.29    9.66
   0   0  -6  166.89   10.19
   2   0   6  111.90    8.18
   2   0   6  110.01    7.23
  -2   0  -6  105.63    6.82
  -4   0  -6  112.08    6.71
   4   0   6  116.51    8.53
  -4   0  -6  110.00    7.09
   4   0   6  116.05    7.55
   6   0   6  147.49    9.41
  -6   0  -6  138.37    8.82
   6   0   6  139.10   10.62
  -8   0  -6    0.05    0.31
   8   0   6    0.34    0.44
   8   0   6   -0.15    0.47
  -8   0  -6    0.09    0.27
  10   0   6   12.58    1.30
 -10   0  -6   12.06    0.93
  12   0   6   17.50    1.62
  14   0   6   13.68    1.41
  16   0   6    7.75    1.20
 -17  -1   6   17.87    1.61
 -17   1   6   19.65    1.72
 -15  -1   6   30.61    2.21
 -15   1   6   29.51    2.17
  15   1  -6   31.10    2.35
 -13  -1   6   47.49    3.12
 -13   1   6   44.81    3.10
  13   1  -6   51.73    4.07
  13   1  -6   47.40    3.38
  11  -1  -6   49.65    3.34
 -11  -1   6   50.10    3.21
 -11   1   6   45.70    3.01
  11   1  -6   45.54    3.24
  11   1  -6   50.26    3.86
   9  -1  -6   14.42    1.19
  -9  -1   6   15.27    1.16
  -9   1   6   16.11    1.14
   9   1  -6   14.32    1.10
   9   1  -6   15.21    1.41
  -9   1   6   14.60    1.38
   9   1  -6   13.89    1.15
  -7  -1   6   12.19    1.01
  -7  -1   6   13.98    1.08
   7  -1  -6   12.67    1.05
   7  -1  -6   14.22    1.26
  -7   1   6   13.42    1.19
  -7   1   6   11.91    0.97
   7   1  -6   12.47    0.96
   7   1  -6   13.91    1.21
  -5  -1   6   41.53    2.70
  -5  -1   6   45.33    2.98
   5  -1  -6   42.77    2.85
   5  -1  -6   44.94    3.40
  -5   1   6   40.84    2.60
  -5   1   6   44.98    3.28
   5   1  -6   40.03    2.71
  -3  -1   6   93.92    5.46
   3  -1  -6   93.24    5.78
  -3  -1   6   88.53    6.05
   3   1  -6   91.74    5.52
  -3   1   6   87.91    6.59
  -3   1   6   83.60    5.25
  -1  -1   6   61.59    4.03
   1  -1  -6   71.54    4.31
  -1  -1   6   70.28    5.16
  -1  -1   6   69.23    4.52
   1   1  -6   76.81    4.60
  -1   1   6   70.11    4.35
  -1   1   6   71.04    5.46
   1  -1   6   94.17    6.63
   1  -1   6  106.44    7.53
  -1  -1  -6  100.52    6.28
   1   1   6  104.48    7.47
   1   1   6  104.26    6.59
   1   1   6   86.02    5.91
  -1   1  -6  104.83    6.27
  -3  -1  -6   23.30    1.53
   3  -1   6   25.06    1.98
  -3  -1  -6   23.72    1.63
   3  -1   6   25.03    1.79
   3   1   6   22.55    1.90
  -3   1  -6   24.91    1.63
   3   1   6   23.31    1.75
  -5  -1  -6    5.79    0.55
  -5  -1  -6    6.27    0.54
   5  -1   6    5.61    0.70
   5  -1   6    5.80    0.67
   5   1   6    5.07    0.77
   5   1   6    5.39    0.69
  -5   1  -6    6.52    0.58
   7  -1   6   54.21    3.72
  -7  -1  -6   51.85    3.42
  -7  -1  -6   54.16    3.27
   7   1   6   55.55    4.02
  -7   1  -6   56.41    3.70
   7   1   6   59.61    4.48
   9  -1   6   29.85    2.15
  -9  -1  -6   26.02    1.79
  -9   1  -6   28.16    1.93
   9   1   6   25.88    2.21
   9   1   6   28.99    2.39
  11  -1   6   44.74    3.21
 -11  -1  -6   43.02    2.76
  11   1   6   43.64    3.66
  11   1   6   44.98    3.29
 -13  -1  -6   11.94    1.03
  13  -1   6   13.07    1.35
  13   1   6   12.60    1.37
  15  -1   6    1.85    0.87
  15   1   6    0.32    0.78
 -16  -2   6   29.31    2.19
 -16   2   6   27.65    2.12
  16   2  -6   29.68    2.32
 -14  -2   6    1.40    0.72
 -14   2   6    1.26    0.66
  14   2  -6    1.07    0.72
  14   2  -6    0.84    0.89
 -12  -2   6   23.37    1.73
  12  -2  -6   23.07    1.79
  12   2  -6   21.29    2.15
 -12   2   6   23.03    1.64
  12   2  -6   22.43    1.74
 -10  -2   6   77.69    4.99
  10  -2  -6   84.75    5.28
 -10   2   6   79.16    4.76
  10   2  -6   75.52    6.02
 -10   2   6   82.33    6.00
  10   2  -6   72.52    5.20
   8  -2  -6    5.71    0.68
  -8  -2   6    5.58    0.66
  -8  -2   6    5.67    0.71
   8   2  -6    5.23    0.55
  -8   2   6    4.84    0.66
  -8   2   6    5.31    0.61
   8   2  -6    5.09    0.78
   6  -2  -6   54.04    3.67
  -6  -2   6   57.59    3.83
  -6  -2   6   56.74    3.44
  -6   2   6   56.50    3.32
  -6   2   6   54.37    4.16
   6   2  -6   50.42    3.44
  -4  -2   6   34.43    2.46
   4  -2  -6   35.05    2.37
  -4  -2   6   36.42    2.19
   4   2  -6   36.49    2.37
  -4   2   6   36.59    2.25
  -4   2   6   34.78    2.81
   2  -2  -6    0.69    0.26
  -2  -2   6    0.24    0.27
   2   2  -6    0.69    0.24
  -2   2   6    0.83    0.24
  -2   2   6    0.58    0.26
   0  -2   6  103.39    7.54
   0  -2  -6  125.71    7.18
   0   2  -6  124.85    7.45
   0   2   6  122.86    7.05
   0   2   6  108.70    8.84
  -2  -2  -6   47.78    3.12
   2  -2   6   47.12    3.32
  -2  -2  -6   49.98    2.95
   2   2   6   51.16    3.36
   2   2   6   45.90    3.77
  -2   2  -6   50.75    3.20
  -4  -2  -6   65.94    4.52
  -4  -2  -6   75.09    4.32
   4  -2   6   73.77    4.84
   4   2   6   78.14    5.07
   4   2   6   73.58    5.69
  -4   2  -6   72.70    4.77
   6  -2   6   25.65    1.97
  -6  -2  -6   29.17    1.74
  -6  -2  -6   25.34    1.80
   6   2   6   30.20    2.27
  -6   2  -6   29.15    2.07
   6   2   6   31.57    2.51
  -8  -2  -6   23.57    1.52
   8  -2   6   21.37    1.75
   8   2   6   21.83    1.99
   8   2   6   21.59    1.82
  -8   2  -6   23.77    1.64
 -10  -2  -6   33.82    2.23
  10  -2   6   34.97    2.54
  10   2   6   31.73    2.62
 -10   2  -6   36.45    2.43
  10   2   6   36.40    2.99
 -12  -2  -6    1.94    0.53
  12  -2   6    1.68    0.70
  12   2   6    1.56    0.73
  12   2   6    1.39    0.81
 -14  -2  -6   12.28    1.14
  14  -2   6   15.60    1.44
  14   2   6   10.18    1.34
  16  -2   6    2.24    0.96
 -16  -2  -6    2.43    0.77
 -17  -3   6    8.86    1.35
 -17   3   6    8.53    1.14
  17   3  -6    7.49    1.26
 -15  -3   6   36.52    2.63
  15   3  -6   36.10    2.76
  15   3  -6   34.77    3.38
 -15   3   6   35.22    2.48
  13  -3  -6   32.57    2.42
 -13  -3   6   31.75    2.29
  13   3  -6   28.79    2.84
 -13   3   6   28.33    2.61
 -13   3   6   30.64    2.08
  13   3  -6   30.17    2.30
  11  -3  -6   28.06    2.18
 -11  -3   6   31.13    2.08
 -11   3   6   30.15    1.97
 -11   3   6   29.40    2.48
  11   3  -6   26.07    2.59
  11   3  -6   28.26    2.20
   9  -3  -6   15.06    1.31
  -9  -3   6   15.88    1.22
   9   3  -6   14.12    1.60
  -9   3   6   16.51    1.50
  -9   3   6   17.22    1.22
  -7  -3   6    2.60    0.47
   7  -3  -6    1.94    0.49
  -7  -3   6    2.92    0.60
   7   3  -6    2.55    0.41
  -7   3   6    1.96    0.50
  -7   3   6    2.80    0.44
  -5  -3   6  106.44    6.67
  -5  -3   6  115.57    7.48
   5  -3  -6  115.24    7.14
  -5   3   6  108.95    8.22
  -5   3   6  111.15    6.53
   5   3  -6  107.33    6.85
  -3  -3   6   47.03    3.33
   3  -3  -6   50.25    3.22
  -3   3   6   42.65    3.57
   3   3  -6   48.74    3.04
  -3   3   6   47.96    2.87
   1  -3  -6   83.50    4.86
  -1  -3   6   68.20    5.05
   1   3  -6   78.48    4.70
  -1   3   6   71.85    4.44
  -1   3   6   70.19    5.52
  -1  -3  -6   65.47    4.25
   1  -3   6   66.50    4.47
   1   3   6   61.64    4.72
  -1   3  -6   62.61    4.02
  -3  -3  -6    4.34    0.51
   3  -3   6    4.13    0.57
  -3  -3  -6    3.96    0.51
   3   3   6    3.52    0.56
   3   3   6    4.45    0.60
  -3   3  -6    4.12    0.52
   5  -3   6   52.86    3.45
  -5  -3  -6   42.44    3.20
  -5  -3  -6   54.09    3.09
  -5   3  -6   52.08    3.52
   5   3   6   54.66    3.73
   5   3   6   54.09    4.20
  -7  -3  -6   15.42    1.17
   7  -3   6   17.24    1.35
   7   3   6   12.96    1.34
  -7   3  -6   14.35    1.15
   7   3   6   15.43    1.45
  -9  -3  -6   35.08    2.28
   9  -3   6   35.47    2.56
   9   3   6   38.84    2.78
   9   3   6   36.07    3.11
  -9   3  -6   36.62    2.56
 -11  -3  -6    3.39    0.61
  11  -3   6    4.53    0.75
  11   3   6    2.66    0.87
 -11   3  -6    4.05    0.66
  13  -3   6   13.79    1.33
 -13  -3  -6   13.52    1.16
  13   3   6   11.91    1.51
  13   3   6   13.41    1.47
 -15  -3  -6    1.90    0.75
  15  -3   6    1.62    0.90
  15   3   6    1.11    1.03
 -16  -4   6    0.47    1.08
 -16   4   6    2.04    0.90
  16   4  -6    1.61    1.41
  16   4  -6   -0.13    1.19
 -14  -4   6   -0.17    0.87
  14  -4  -6   -0.01    0.63
 -14   4   6   -0.16    0.66
  14   4  -6   -0.12    0.85
 -14   4   6   -0.55    0.71
  14   4  -6    0.42    1.05
 -12  -4   6   11.17    1.22
  12  -4  -6   12.17    1.23
 -12   4   6    9.38    0.99
  12   4  -6   10.86    1.48
 -12   4   6    9.54    1.20
  10  -4  -6   50.30    3.39
 -10  -4   6   46.72    3.10
  10   4  -6   47.66    3.80
  10   4  -6   45.18    3.29
 -10   4   6   43.91    2.89
 -10   4   6   43.34    3.63
  -8  -4   6   69.65    4.37
   8  -4  -6   70.64    4.73
  -8  -4   6   74.23    4.94
  -8   4   6   71.27    5.58
   8   4  -6   74.59    5.67
  -8   4   6   71.04    4.43
  -6  -4   6   44.96    3.28
   6  -4  -6   47.32    3.16
  -6   4   6   45.28    3.48
   6   4  -6   43.77    2.90
  -6   4   6   43.31    2.78
   4  -4  -6   24.78    1.80
  -4  -4   6   23.52    1.84
   4   4  -6   22.44    1.68
  -4   4   6   23.78    1.95
  -4   4   6   24.94    1.59
   2  -4  -6    5.02    0.65
  -2  -4   6    4.62    0.65
   2   4  -6    5.17    0.60
  -2   4   6    4.66    0.57
   0  -4  -6   12.23    1.06
   0   4   6   13.59    0.99
   0   4  -6   13.04    1.07
   0   4   6   11.83    1.10
  -2  -4  -6  143.67    9.13
  -2  -4  -6  140.15    8.64
   2  -4   6  151.12    9.62
  -2   4  -6  138.93    8.88
   2   4   6  142.16   10.51
  -4  -4  -6   30.57    2.17
  -4  -4  -6   30.76    2.03
   4  -4   6   31.40    2.28
   4   4   6   31.07    2.19
  -4   4  -6   28.54    2.10
   4   4   6   29.18    2.42
  -6  -4  -6   23.82    1.70
   6  -4   6   26.96    1.92
  -6   4  -6   23.85    1.82
   6   4   6   27.01    1.95
   6   4   6   23.52    2.13
   8  -4   6    0.28    0.45
  -8  -4  -6    0.46    0.43
  -8   4  -6   -0.21    0.39
   8   4   6    0.12    0.58
   8   4   6    0.03    0.53
 -10  -4  -6    0.29    0.50
  10  -4   6    0.81    0.56
 -10   4  -6    0.40    0.47
  10   4   6    0.52    0.71
  10   4   6    0.57    0.64
 -12  -4  -6    2.31    0.61
  12  -4   6    1.63    0.66
  12   4   6    1.56    0.94
 -12   4  -6    1.68    0.63
  12   4   6    2.20    0.86
 -14  -4  -6    0.95    0.68
  14  -4   6    0.35    0.78
  14   4   6    0.71    0.95
  14   4   6    0.46    1.06
 -13  -5   6    8.89    1.12
  13  -5  -6   10.17    1.29
 -13   5   6    8.14    1.20
  13   5  -6    8.70    1.64
 -13   5   6    9.94    1.08
  13   5  -6   12.51    1.64
  11  -5  -6    4.30    0.86
  11   5  -6    5.45    1.25
 -11   5   6    5.39    0.82
  11   5  -6    4.15    1.11
 -11   5   6    4.85    0.87
   9  -5  -6    7.13    0.91
   9   5  -6    7.59    1.21
  -9   5   6    6.72    0.92
  -9   5   6    6.91    0.76
   7  -5  -6    0.11    0.45
  -7  -5   6    0.53    0.64
  -7   5   6    0.91    0.42
  -7   5   6    0.25    0.43
  -5  -5   6    1.09    0.60
   5  -5  -6    1.32    0.52
  -5   5   6    1.16    0.42
   5   5  -6    0.41    0.43
  -5   5   6    1.25    0.43
   3  -5  -6   52.55    3.48
  -3  -5   6   49.43    3.59
  -3   5   6   49.83    3.17
   3   5  -6   53.20    3.40
  -3   5   6   48.79    3.90
   1  -5  -6   44.52    2.91
  -1  -5   6   38.53    2.95
  -1   5   6   39.11    3.24
   1   5  -6   44.83    2.91
  -1   5   6   42.24    2.69
  -1  -5  -6   81.70    5.21
   1  -5   6   77.36    5.41
   1   5   6   80.56    4.79
  -1   5  -6   80.00    5.11
   1   5   6   72.98    5.86
  -3  -5  -6    8.89    1.01
  -3  -5  -6    9.31    0.86
   3  -5   6   10.15    1.06
  -3   5  -6    9.22    0.98
   3   5   6    9.32    0.94
   5  -5   6    8.67    1.00
  -5  -5  -6    6.70    0.78
  -5   5  -6    7.03    0.83
   5   5   6    6.52    0.84
   7  -5   6   29.23    2.19
  -7  -5  -6   29.06    1.97
   7   5   6   30.15    2.58
  -7   5  -6   30.96    2.26
  -9  -5  -6   17.97    1.40
   9  -5   6   19.44    1.53
   9   5   6   22.16    1.86
   9   5   6   19.36    1.92
  -9   5  -6   20.34    1.66
  11  -5   6    7.73    0.97
 -11  -5  -6    7.59    0.91
  11   5   6    7.19    1.14
 -11   5  -6    7.96    0.98
  11   5   6    6.60    1.24
  12  -6  -6   -0.44    0.65
 -12   6   6    0.31    0.68
  12   6  -6   -0.14    0.97
 -10   6   6    4.59    0.87
  10   6  -6    4.82    1.08
  10   6  -6    6.03    1.25
 -10   6   6    6.06    0.81
  -8  -6   6    2.70    0.89
   8  -6  -6    2.93    0.75
  -8   6   6    4.09    0.65
   8   6  -6    2.72    0.87
  -8   6   6    2.85    0.65
  -6  -6   6   34.77    2.70
   6  -6  -6   36.02    2.64
  -6   6   6   34.40    2.74
  -6   6   6   32.54    2.24
  -4  -6   6    6.36    0.99
   4  -6  -6    7.31    0.96
  -4   6   6    6.12    0.75
  -4   6   6    5.59    0.72
   2  -6  -6    2.89    0.71
  -2  -6   6    2.15    0.77
  -2   6   6    2.76    0.53
   2   6  -6    2.47    0.70
  -2   6   6    3.56    0.63
   0  -6   6   18.25    1.68
   0  -6  -6   20.60    1.68
   0   6  -6   18.22    1.61
   0   6   6   19.79    1.47
   2  -6   6   26.68    2.14
  -2   6  -6   24.99    2.04
   2   6   6   25.32    2.12
   2   6   6   28.29    1.91
   4  -6   6   27.65    2.03
  -4  -6  -6   22.03    1.73
  -4   6  -6   24.01    1.93
   4   6   6   24.70    2.04
  -6  -6  -6    9.74    1.00
   6  -6   6   12.15    1.27
   6   6   6    9.39    1.11
  -6   6  -6   12.24    1.15
   8  -6   6    1.91    0.80
  -8  -6  -6    1.92    0.65
   8   6   6    1.77    0.64
  -8   6  -6    2.27    0.66
 -10  -6  -6    3.82    0.81
  10  -6   6    5.68    0.99
  10   6   6    3.23    0.87
 -10   6  -6    5.20    0.87
  -7  -7   6    2.07    0.96
   7  -7  -6    1.79    0.76
  -7   7   6    2.27    0.64
  -7   7   6    0.92    0.64
   7   7  -6    1.24    0.82
  -5  -7   6    8.17    1.23
   5  -7  -6    8.70    1.17
  -5   7   6    8.92    1.03
   3  -7  -6   23.26    1.98
  -3  -7   6   21.18    1.92
   1  -7  -6   35.32    2.70
  -1  -7   6   33.67    2.69
  -1   7   6   30.65    2.67
  -1   7   6   36.45    2.38
   1   7  -6   34.90    2.57
   1  -7   6   16.88    1.68
   1   7   6   17.15    1.42
  -1   7  -6   14.67    1.55
   3  -7   6   12.08    1.44
   3   7   6   11.07    1.12
  -3   7  -6   11.97    1.30
   3   7   6   13.95    1.28
  -5  -7  -6   18.40    1.56
   5  -7   6   21.47    1.84
  -5   7  -6   20.27    1.74
   5   7   6   18.14    1.67
   7  -7   6   11.51    1.48
 -16   0   7    6.84    1.06
 -14   0   7   -0.50    0.66
 -12   0   7    0.10    0.52
 -10   0   7    5.54    0.75
  10   0  -7    6.53    0.74
   8   0  -7    8.30    0.95
  -8   0   7    7.63    0.79
   8   0  -7    9.17    0.79
   8   0  -7    8.79    0.74
   6   0  -7   18.77    1.41
  -6   0   7   18.37    1.36
  -6   0   7   22.31    1.48
  -6   0   7   18.37    1.69
   6   0  -7   21.75    1.71
   4   0  -7   12.27    0.89
  -4   0   7    9.72    0.82
  -4   0   7   10.95    1.02
  -2   0   7  398.10   27.96
  -2   0   7  355.70   22.15
   2   0  -7  380.77   23.34
   0   0   7   22.66    1.78
   0   0   7   20.34    1.55
   0   0  -7   24.26    1.50
   0   0   7   19.72    1.41
   2   0   7   52.34    3.57
   2   0   7   58.73    4.05
  -2   0  -7   59.34    3.80
   2   0   7   68.49    4.59
  -4   0  -7   29.70    1.94
   4   0   7   28.36    2.28
   4   0   7   35.94    2.55
  -4   0  -7   31.50    2.09
  -6   0  -7    8.98    0.77
   6   0   7    7.77    1.02
  -6   0  -7   10.41    0.74
   6   0   7    9.74    0.99
   8   0   7   10.76    1.21
  -8   0  -7    9.79    0.84
  10   0   7   10.77    1.28
  12   0   7    9.70    1.27
  14   0   7    8.06    1.22
 -17  -1   7    7.25    1.14
 -17   1   7    4.62    1.01
 -15  -1   7   -0.15    0.75
 -15   1   7    0.41    0.69
 -13  -1   7   46.17    3.06
 -13   1   7   44.72    2.93
  13   1  -7   42.93    3.10
  11  -1  -7   -0.16    0.46
 -11  -1   7   -0.36    0.50
  11   1  -7   -0.14    0.47
 -11   1   7   -0.29    0.46
  11   1  -7    0.17    0.59
   9  -1  -7   13.55    1.13
  -9  -1   7   13.39    1.11
   9   1  -7   15.40    1.13
   9   1  -7   14.79    1.15
  -9   1   7   14.03    1.13
  -9   1   7   13.50    1.35
   9   1  -7   13.70    1.38
  -7  -1   7   58.57    3.81
  -7  -1   7   54.30    3.46
   7  -1  -7   54.96    3.65
  -7   1   7   58.17    4.52
   7   1  -7   58.15    3.76
  -7   1   7   58.33    3.61
   7   1  -7   58.18    4.51
   5  -1  -7   57.59    3.85
  -5  -1   7   58.41    3.63
   5  -1  -7   62.94    4.59
  -5   1   7   57.52    3.68
   5   1  -7   62.13    3.87
  -5   1   7   60.74    4.62
   3  -1  -7   28.63    1.83
  -3  -1   7   24.61    2.15
  -3  -1   7   28.25    1.88
  -3  -1   7   25.65    1.69
  -3   1   7   26.21    1.76
   3   1  -7   28.47    1.85
  -3   1   7   27.01    2.18
  -1  -1   7  101.42    7.08
   1  -1  -7  114.46    6.75
  -1  -1   7   92.85    6.34
  -1  -1   7  122.65    8.11
  -1   1   7  117.53    8.77
   1   1  -7  123.70    7.36
  -1   1   7  110.67    6.97
   1  -1   7   10.01    0.99
   1  -1   7   10.26    0.91
  -1  -1  -7   10.55    0.81
   1   1   7   10.18    0.91
  -1   1  -7   10.41    0.79
   1   1   7    8.96    0.84
   1   1   7    8.27    0.71
  -3  -1  -7    6.90    0.61
   3  -1   7    7.15    0.78
  -3  -1  -7    6.21    0.55
   3  -1   7    5.77    0.76
   3   1   7    5.96    0.75
   3   1   7    7.36    0.77
  -3   1  -7    6.88    0.63
  -5  -1  -7    7.72    0.65
  -5  -1  -7    7.05    0.65
   5  -1   7    7.03    0.87
   5   1   7    7.54    0.82
   5   1   7    5.73    0.81
  -5   1  -7    7.72    0.69
   7  -1   7   17.20    1.55
  -7  -1  -7   18.97    1.27
  -7  -1  -7   17.77    1.30
   7   1   7   16.17    1.57
   7   1   7   17.75    1.61
  -7   1  -7   18.68    1.34
   9  -1   7   21.59    1.85
  -9  -1  -7   22.96    1.54
   9   1   7   20.98    1.90
   9   1   7   19.27    1.80
  -9   1  -7   20.97    1.53
 -11  -1  -7    6.20    0.72
  11  -1   7    6.03    0.99
  11   1   7    6.78    1.06
  13  -1   7   21.49    1.89
  13   1   7   17.57    1.68
  15  -1   7    2.84    0.99
  15   1   7    0.88    0.91
 -16  -2   7    6.17    1.05
 -16   2   7   11.33    1.19
  16   2  -7    8.20    1.26
 -14  -2   7    4.72    0.85
 -14   2   7    8.49    0.98
  14   2  -7    5.47    1.27
  14   2  -7    6.94    0.97
 -12  -2   7    2.51    0.72
  12  -2  -7    2.43    0.60
 -12   2   7    3.06    0.66
  12   2  -7    2.77    0.68
  12   2  -7    2.10    0.85
  10  -2  -7    7.80    0.85
 -10  -2   7    7.35    0.86
 -10   2   7    8.08    0.81
  10   2  -7    6.53    1.00
 -10   2   7    7.45    0.94
  10   2  -7    7.38    0.85
   8  -2  -7    7.25    0.83
  -8  -2   7    8.51    0.83
  -8  -2   7    7.67    0.85
   8   2  -7   12.10    1.11
  -8   2   7    9.73    1.01
  -8   2   7   10.04    0.85
   8   2  -7    7.31    0.80
   6  -2  -7    5.58    0.66
  -6  -2   7    5.83    0.73
  -6  -2   7    6.26    0.67
  -6   2   7    5.68    0.69
  -6   2   7    6.00    0.60
   6   2  -7    4.91    0.59
   4  -2  -7    7.23    0.71
  -4  -2   7    6.94    0.74
  -4  -2   7    8.08    0.66
  -4   2   7    6.68    0.71
  -4   2   7    6.42    0.60
   4   2  -7    5.96    0.61
  -2  -2   7   28.12    2.08
   2  -2  -7   31.43    2.03
   2   2  -7   33.69    2.08
  -2   2   7   30.28    2.45
  -2   2   7   28.49    1.96
   0  -2   7   -0.28    0.31
   0  -2  -7   -0.38    0.23
   0   2  -7   -0.40    0.22
   0   2   7   -0.04    0.23
   0   2   7   -0.27    0.25
  -2  -2  -7   61.37    3.75
   2  -2   7   60.34    4.22
  -2  -2  -7   63.51    3.97
   2   2   7   64.17    4.30
   2   2   7   61.11    4.87
  -2   2  -7   66.31    4.12
  -4  -2  -7   25.70    1.67
  -4  -2  -7   24.83    1.76
   4  -2   7   26.13    1.93
   4   2   7   22.85    1.81
  -4   2  -7   24.48    1.67
   4   2   7   22.70    1.95
   6  -2   7   53.05    3.96
  -6  -2  -7   62.29    3.55
  -6  -2  -7   56.88    3.71
   6   2   7   61.68    4.37
  -6   2  -7   61.02    4.07
   6   2   7   65.46    4.90
   8  -2   7    1.12    0.55
  -8  -2  -7    1.04    0.42
  -8   2  -7    0.81    0.38
   8   2   7    0.74    0.55
   8   2   7    1.18    0.61
  10  -2   7    7.16    0.95
 -10  -2  -7    7.20    0.73
 -10   2  -7    6.75    0.80
  10   2   7    8.21    1.11
  10   2   7    7.04    1.12
  12  -2   7    3.41    0.79
 -12  -2  -7    1.92    0.57
  12   2   7    1.29    0.81
  12   2   7    1.72    0.88
  14  -2   7   10.09    1.27
 -14  -2  -7    7.83    0.95
  14   2   7    7.19    1.20
 -15  -3   7    0.48    0.91
  15   3  -7    0.76    0.83
 -15   3   7   -0.04    0.78
  15   3  -7    0.53    1.15
 -13  -3   7   26.89    1.99
  13  -3  -7   25.37    2.05
 -13   3   7   25.46    1.89
  13   3  -7   27.61    2.14
  13   3  -7   25.46    2.59
 -11  -3   7    5.19    0.84
  11  -3  -7    5.97    0.86
 -11   3   7    5.85    0.75
 -11   3   7    5.38    0.89
  11   3  -7    5.89    0.89
  11   3  -7    5.32    1.11
  -9  -3   7    6.76    0.87
   9  -3  -7    6.92    0.84
  -9  -3   7    7.16    0.82
   9   3  -7    6.03    1.07
  -9   3   7    8.03    0.78
  -9   3   7    7.82    0.91
   7  -3  -7    5.95    0.75
  -7  -3   7    5.69    0.66
  -7  -3   7    6.11    0.82
  -7   3   7    6.49    0.65
  -7   3   7    6.41    0.78
   7   3  -7    5.03    0.64
   5  -3  -7    4.84    0.63
  -5  -3   7    4.43    0.54
  -5  -3   7    4.82    0.68
   5   3  -7    4.87    0.57
  -5   3   7    4.26    0.62
  -3  -3   7   35.67    2.27
   3  -3  -7   27.13    2.16
   3   3  -7   30.00    1.97
  -3   3   7   26.82    2.29
  -3   3   7   28.84    1.86
   1  -3  -7    9.14    0.86
  -1  -3   7    9.71    0.89
  -1   3   7    8.88    0.72
  -1   3   7    7.42    0.78
   1   3  -7    7.77    0.75
  -1  -3  -7   43.54    2.93
   1  -3   7   44.95    3.10
   1   3   7   40.39    3.45
  -1   3  -7   45.58    2.97
   1   3   7   48.44    2.82
  -3  -3  -7   28.61    1.86
   3  -3   7   28.78    2.10
  -3  -3  -7   27.50    1.96
   3   3   7   27.84    2.06
   3   3   7   27.98    2.28
  -3   3  -7   27.53    1.96
  -5  -3  -7   17.96    1.38
  -5  -3  -7   18.81    1.33
   5  -3   7   19.32    1.53
   5   3   7   17.67    1.57
   5   3   7   19.68    1.71
  -5   3  -7   18.91    1.44
   7  -3   7   16.45    1.35
  -7  -3  -7   15.10    1.18
   7   3   7   15.51    1.58
  -7   3  -7   16.20    1.29
   7   3   7   16.64    1.50
  -9  -3  -7    1.48    0.50
   9  -3   7    1.48    0.58
   9   3   7    0.83    0.67
   9   3   7    0.65    0.61
  -9   3  -7    1.31    0.48
  11  -3   7   21.81    1.79
 -11   3  -7   24.50    1.80
  11   3   7   21.69    2.00
  11   3   7   22.75    2.20
 -13  -3  -7   11.73    1.08
  13  -3   7   13.05    1.37
  13   3   7   10.70    1.41
  14  -4  -7    4.39    0.99
 -14  -4   7    9.61    1.23
  14   4  -7    4.24    1.36
  14   4  -7    7.21    1.22
 -14   4   7    5.41    0.91
  12  -4  -7    0.47    0.60
 -12  -4   7    0.43    0.74
  12   4  -7    0.11    0.85
 -12   4   7    0.72    0.58
  12   4  -7   -0.08    0.90
 -12   4   7    0.00    0.60
 -10  -4   7    7.25    0.88
  10  -4  -7    7.51    0.97
  10   4  -7    8.95    1.15
  10   4  -7    6.15    1.21
 -10   4   7    8.11    0.83
 -10   4   7    6.47    0.95
  -8  -4   7   26.35    2.13
   8  -4  -7   28.50    2.09
  -8   4   7   28.31    1.90
   8   4  -7   29.13    2.48
  -8   4   7   27.20    2.37
   6  -4  -7   66.85    4.31
  -6  -4   7   62.39    4.46
  -6   4   7   62.41    3.95
  -6   4   7   66.17    4.97
   6   4  -7   63.71    4.15
   4  -4  -7   40.27    2.65
  -4  -4   7   35.48    2.70
  -4   4   7   36.08    3.01
   4   4  -7   38.28    2.58
  -4   4   7   39.88    2.44
   2  -4  -7   25.95    1.84
  -2  -4   7   23.63    1.88
   2   4  -7   22.39    1.72
  -2   4   7   24.74    1.62
  -2   4   7   23.76    1.97
   0  -4   7   34.95    2.71
   0  -4  -7   41.12    2.63
   0   4  -7   36.72    2.52
   0   4   7   36.83    2.37
   0   4   7   35.92    2.88
   2  -4   7    5.10    0.76
  -2  -4  -7    4.25    0.62
   2   4   7    4.18    0.62
  -2   4  -7    3.82    0.60
   4  -4   7    5.93    0.80
  -4  -4  -7    5.48    0.68
   4   4   7    4.40    0.70
  -4   4  -7    5.30    0.67
   6  -4   7    3.52    0.65
  -6  -4  -7    2.29    0.51
  -6   4  -7    2.09    0.53
   6   4   7    2.08    0.59
   8  -4   7    6.81    0.84
  -8  -4  -7    6.73    0.77
  -8   4  -7    6.34    0.81
   8   4   7    8.24    1.06
   8   4   7    5.32    0.95
 -10  -4  -7    6.28    0.74
  10  -4   7    5.54    0.84
  10   4   7    4.74    0.97
  10   4   7    6.30    1.06
 -10   4  -7    6.27    0.83
 -12  -4  -7    1.30    0.61
  12  -4   7    1.94    0.72
  12   4   7    1.01    0.93
 -12   4  -7    1.13    0.65
  12   4   7    0.90    0.83
  13  -5  -7    5.78    1.02
 -13   5   7    4.28    0.88
  13   5  -7    6.72    1.45
  13   5  -7    5.92    1.36
 -13   5   7    5.07    1.01
  11  -5  -7   14.27    1.44
 -11   5   7   15.67    1.30
  11   5  -7   13.40    1.79
 -11   5   7   14.71    1.54
  11   5  -7   16.81    1.73
   9  -5  -7    2.84    0.74
  -9  -5   7    3.42    0.87
   9   5  -7    2.70    0.89
  -9   5   7    2.15    0.64
  -9   5   7    2.57    0.58
   7  -5  -7   12.50    1.21
  -7  -5   7   12.60    1.28
  -7   5   7   11.31    0.98
  -7   5   7   11.94    1.21
   5  -5  -7   11.12    1.10
  -5  -5   7   10.36    1.14
   5   5  -7   10.39    1.03
  -5   5   7   11.29    0.96
  -5   5   7   11.02    1.10
   3  -5  -7    0.76    0.48
  -3  -5   7    0.70    0.58
   3   5  -7    0.22    0.47
  -3   5   7    0.37    0.43
  -3   5   7    0.77    0.40
   1  -5  -7   31.58    2.17
  -1  -5   7   26.62    2.18
   1   5  -7   28.61    2.18
  -1   5   7   29.66    2.44
  -1   5   7   31.87    2.06
   1  -5   7    7.80    0.99
  -1  -5  -7    7.59    0.91
  -1   5  -7    6.76    0.86
   1   5   7    8.17    0.81
   1   5   7    6.97    0.80
  -3  -5  -7   30.52    2.03
  -3  -5  -7   28.75    2.18
   3  -5   7   29.88    2.28
   3   5   7   31.89    2.56
  -3   5  -7   30.71    2.30
   5  -5   7    3.52    0.80
  -5  -5  -7    3.29    0.60
  -5   5  -7    2.82    0.62
   5   5   7    2.46    0.64
  -7  -5  -7   11.56    1.02
   7  -5   7   11.18    1.12
  -7   5  -7   11.49    1.09
   7   5   7    9.75    1.18
  -9  -5  -7   10.71    1.04
   9  -5   7   11.31    1.08
  -9   5  -7   13.32    1.20
   9   5   7   10.39    1.29
  11  -5   7    4.81    0.89
 -11  -5  -7    6.12    0.85
 -11   5  -7    5.68    0.88
  11   5   7    3.26    0.94
  10  -6  -7    2.70    0.79
 -10   6   7    2.19    0.66
  10   6  -7    2.34    0.94
  10   6  -7    1.50    1.09
   8  -6  -7   10.39    1.20
  -8   6   7    8.23    0.98
   8   6  -7    5.87    1.13
  -8   6   7    8.46    0.87
   6  -6  -7   15.62    1.43
  -6  -6   7   14.40    1.47
  -6   6   7   15.33    1.47
  -6   6   7   15.25    1.24
   4  -6  -7   -0.76    0.52
  -4  -6   7   -0.25    0.66
  -4   6   7    0.09    0.44
  -4   6   7    0.11    0.55
  -2  -6   7    8.29    1.12
  -2   6   7    2.29    0.54
   2   6  -7    1.70    0.69
  -2   6   7    1.07    0.59
   0  -6  -7    6.62    0.99
   0   6  -7    6.67    0.94
   0   6   7    5.59    0.76
   0   6   7    6.53    0.85
   2  -6   7   35.86    2.73
  -2   6  -7   34.15    2.58
   2   6   7   36.33    2.38
   2   6   7   33.07    2.76
   4  -6   7   17.13    1.53
  -4  -6  -7   14.57    1.29
  -4   6  -7   17.49    1.51
   4   6   7   15.56    1.50
  -6  -6  -7    6.56    0.87
   6  -6   7    9.04    1.13
   6   6   7    5.01    0.78
  -6   6  -7    7.40    0.95
   8  -6   7    9.41    1.21
  -8  -6  -7    8.88    1.02
  -8   6  -7    8.98    1.06
   8   6   7    6.67    1.01
   7  -7  -7    0.79    0.73
  -7   7   7    0.22    0.64
  -7   7   7    0.49    0.56
   7   7  -7   -0.07    0.72
  -5  -7   7    5.56    1.12
   5  -7  -7    4.69    0.95
  -5   7   7    5.34    0.85
  -5   7   7    3.86    0.77
   3  -7  -7   15.51    1.53
  -3  -7   7   15.78    1.60
  -3   7   7   16.41    1.42
  -1  -7   7    4.09    1.03
   1   7  -7    2.66    0.92
  -1   7   7    3.33    0.68
  -1   7   7    3.36    0.80
   1  -7   7    7.29    1.31
   1   7   7    9.62    1.11
   1   7   7    7.67    0.96
  -1   7  -7    7.00    1.15
   3  -7   7    7.56    1.30
   3   7   7    6.29    0.85
  -3   7  -7    7.21    1.10
   3   7   7    6.65    0.99
   5  -7   7    7.81    1.24
  -5   7  -7    6.56    1.04
   5   7   7    4.71    0.81
 -16   0   8    1.83    0.95
 -14   0   8   93.83    5.86
 -12   0   8   39.75    2.67
  10   0  -8   54.77    3.58
 -10   0   8   52.70    3.42
   8   0  -8   19.89    1.67
   8   0  -8   18.40    1.38
  -8   0   8   16.19    1.32
   6   0  -8  158.51   11.21
  -6   0   8  143.65    8.89
   6   0  -8  145.99    9.36
  -4   0   8   50.98    3.72
   4   0  -8   62.29    3.96
  -4   0   8   69.27    4.11
  -4   0   8   63.27    4.74
  -2   0   8   26.42    1.93
  -2   0   8   22.32    1.61
   2   0  -8   23.76    1.60
  -2   0   8   19.76    1.48
   0   0   8    0.05    0.28
   0   0   8   -0.25    0.32
   0   0  -8    0.05    0.23
   2   0   8   47.05    3.10
   2   0   8   52.48    3.53
  -2   0  -8   49.83    3.30
   2   0   8   55.34    3.98
   4   0   8   -0.21    0.33
   4   0   8    0.30    0.41
  -4   0  -8   -0.03    0.26
   6   0   8    0.06    0.52
  -6   0  -8   -0.06    0.30
   8   0   8   35.13    2.74
  -8   0  -8   36.00    2.41
  10   0   8    2.35    0.85
  12   0   8    1.78    0.89
  14   0   8    5.56    1.16
 -17  -1   8    3.53    1.08
 -17   1   8    3.31    1.06
 -15  -1   8   14.55    1.41
 -15   1   8   17.45    1.54
 -13  -1   8   11.62    1.17
 -13   1   8   12.56    1.24
  11  -1  -8   14.07    1.19
 -11  -1   8   11.29    1.13
  11   1  -8   12.24    1.42
 -11   1   8   16.41    1.22
  11   1  -8   12.27    1.16
  -9  -1   8  102.88    6.39
   9  -1  -8  108.20    6.76
  -9   1   8  104.30    6.42
   9   1  -8  108.86    8.08
   9   1  -8  103.71    6.70
  -7  -1   8   95.62    5.94
   7  -1  -8   84.00    5.66
  -7  -1   8   86.16    5.37
   7   1  -8   87.50    5.58
  -7   1   8   87.93    5.33
  -7   1   8   84.84    6.68
   7   1  -8   89.71    6.68
  -5  -1   8    6.37    0.64
  -5  -1   8    6.94    0.71
   5  -1  -8    6.08    0.67
  -5   1   8    6.69    0.78
   5   1  -8    7.36    0.69
  -5   1   8    7.29    0.70
   3  -1  -8    1.65    0.36
  -3  -1   8    2.19    0.40
  -3  -1   8    1.42    0.30
  -3   1   8    1.42    0.37
   3   1  -8    1.39    0.34
  -3   1   8    1.34    0.37
  -1  -1   8   70.53    4.70
   1  -1  -8   79.97    4.50
  -1  -1   8   61.25    4.17
  -1   1   8   81.57    5.65
  -1   1   8   74.50    4.49
  -1   1   8   62.08    4.88
   1   1  -8   79.37    4.73
   1  -1   8   31.30    2.26
   1   1   8   29.17    2.08
   1   1   8   30.47    2.36
   1   1   8   25.21    1.84
  -1   1  -8   32.07    2.00
  -3  -1  -8   26.26    1.74
   3  -1   8   23.67    1.90
   3   1   8   22.09    1.81
  -3   1  -8   24.67    1.69
   3   1   8   25.66    2.03
   5  -1   8   29.29    2.38
  -5  -1  -8   32.97    2.17
  -5  -1  -8   33.46    2.05
   5   1   8   27.91    2.22
   5   1   8   31.24    2.44
  -5   1  -8   29.13    2.03
  -7  -1  -8   18.17    1.39
  -7  -1  -8   19.62    1.34
   7  -1   8   18.81    1.64
   7   1   8   17.49    1.64
  -7   1  -8   18.66    1.38
   7   1   8   19.11    1.72
  -9  -1  -8   12.24    0.99
   9  -1   8   11.51    1.32
   9   1   8   11.58    1.37
  -9   1  -8   12.22    1.04
  11  -1   8    7.01    1.10
  11   1   8    6.20    1.10
  13  -1   8   15.20    1.59
  13   1   8   14.04    1.54
 -16  -2   8    5.24    1.08
 -16   2   8    8.40    1.16
 -14  -2   8   15.21    1.40
  14   2  -8   16.00    1.53
 -14   2   8   19.18    1.52
  12  -2  -8   10.24    1.05
 -12  -2   8    9.69    1.07
  12   2  -8   10.36    1.10
 -12   2   8   10.39    1.01
  12   2  -8    8.75    1.32
  10  -2  -8    0.99    0.52
 -10  -2   8    0.65    0.58
  10   2  -8    1.20    0.65
 -10   2   8    0.80    0.51
 -10   2   8    0.32    0.51
  10   2  -8    0.87    0.52
   8  -2  -8    4.29    0.65
  -8  -2   8    3.79    0.65
  -8  -2   8    3.51    0.71
   8   2  -8    2.96    0.54
  -8   2   8    5.51    0.65
   8   2  -8    3.25    0.71
  -8   2   8    2.91    0.66
   6  -2  -8   21.33    1.66
  -6  -2   8   23.14    1.56
  -6  -2   8   23.08    1.72
   6   2  -8   21.73    1.56
  -6   2   8   20.29    1.49
  -6   2   8   22.07    1.84
   4  -2  -8   29.96    2.03
  -4  -2   8   30.00    1.87
  -4  -2   8   27.31    2.08
  -4   2   8   26.85    2.27
  -4   2   8   28.52    1.86
   4   2  -8   28.37    1.93
   2  -2  -8   45.68    2.87
  -2  -2   8   40.76    2.96
  -2   2   8   43.72    3.41
   2   2  -8   42.94    2.86
  -2   2   8   43.55    2.73
   0  -2  -8   15.52    1.15
   0  -2   8   14.23    1.24
   0   2  -8   16.40    1.15
   0   2   8   14.16    1.08
   0   2   8   14.47    1.32
  -2  -2  -8    2.58    0.44
   2   2   8    2.23    0.39
   2   2   8    2.02    0.46
   2   2   8    2.83    0.51
  -2   2  -8    2.86    0.46
  -4  -2  -8   13.26    0.99
   4  -2   8   12.37    1.20
  -4  -2  -8   13.07    1.06
  -4   2  -8   14.20    1.07
   4   2   8   12.11    1.23
   4   2   8   11.32    1.16
  -6  -2  -8   29.86    1.95
  -6  -2  -8   28.30    2.06
   6  -2   8   30.73    2.26
   6   2   8   26.83    2.18
   6   2   8   28.08    2.38
  -6   2  -8   28.82    1.99
  -8  -2  -8   19.40    1.37
   8  -2   8   18.04    1.61
  -8   2  -8   19.05    1.49
   8   2   8   20.87    1.84
   8   2   8   18.32    1.74
 -10  -2  -8   97.53    5.94
  10  -2   8   98.36    6.71
  10   2   8   92.02    7.28
  10   2   8   90.73    6.44
 -10   2  -8   97.44    6.04
 -12  -2  -8    2.48    0.63
  12  -2   8    2.21    0.89
  12   2   8    1.36    0.87
  14  -2   8    0.64    0.86
  14   2   8    0.09    0.89
 -15  -3   8   11.37    1.38
  15   3  -8    9.85    1.32
  15   3  -8   11.96    1.98
 -15   3   8   12.17    1.28
 -13  -3   8   -0.22    0.77
  13  -3  -8   -0.61    0.57
  13   3  -8   -0.37    0.91
  13   3  -8   -0.29    0.75
 -13   3   8   -0.39    0.62
 -11  -3   8   18.25    1.47
  11  -3  -8   17.24    1.52
  11   3  -8   15.76    1.47
 -11   3   8   18.92    1.36
  11   3  -8   14.47    1.74
 -11   3   8   16.60    1.65
   9  -3  -8   40.19    2.92
  -9  -3   8   43.09    2.73
  -9  -3   8   41.87    3.02
  -9   3   8   38.66    3.17
   9   3  -8   35.93    3.26
  -9   3   8   41.30    2.55
  -7  -3   8   24.79    1.89
   7  -3  -8   23.70    1.83
  -7   3   8   25.07    2.16
   7   3  -8   24.77    1.80
  -7   3   8   25.82    1.74
  -5  -3   8   14.09    1.20
   5  -3  -8   12.94    1.16
  -5   3   8   13.20    1.26
   5   3  -8   12.63    1.08
  -5   3   8   14.13    1.05
  -3  -3   8    4.50    0.67
   3  -3  -8    4.80    0.64
   3   3  -8    3.65    0.53
  -3   3   8    4.03    0.54
  -3   3   8    3.73    0.60
  -1  -3   8   31.66    2.31
   1  -3  -8   32.54    2.24
   1   3  -8   32.99    2.20
  -1   3   8   29.58    2.53
  -1   3   8   32.33    2.07
   1  -3   8    6.58    0.88
  -1  -3  -8    9.24    0.83
   1   3   8    6.70    0.65
   1   3   8    6.24    0.74
  -1   3  -8    6.25    0.69
   3  -3   8    9.06    1.02
  -3  -3  -8   10.20    0.87
  -3  -3  -8   10.20    0.91
  -3   3  -8    9.91    0.92
   3   3   8    9.85    1.03
  -5  -3  -8  110.43    6.25
  -5  -3  -8   98.66    6.55
   5  -3   8  100.71    6.96
  -5   3  -8   99.70    6.66
   5   3   8  106.94    7.97
   5   3   8  106.96    7.05
   7  -3   8   13.89    1.32
  -7  -3  -8   15.37    1.16
   7   3   8   13.14    1.45
   7   3   8   13.98    1.41
  -7   3  -8   13.66    1.15
  -9  -3  -8    0.55    0.48
   9  -3   8    0.89    0.64
   9   3   8    0.01    0.69
  -9   3  -8    0.38    0.49
   9   3   8    0.67    0.73
 -11  -3  -8   20.90    1.60
  11  -3   8   22.64    1.86
 -11   3  -8   21.34    1.73
  11   3   8   20.06    2.00
  11   3   8   24.44    2.17
 -13  -3  -8    7.91    0.96
  13  -3   8   10.83    1.31
  13   3   8    6.05    1.21
  13   3   8    5.50    1.18
  14  -4  -8   12.38    1.40
  14   4  -8   13.19    1.94
  14   4  -8   15.50    1.70
 -14   4   8   12.07    1.29
  12  -4  -8    5.75    0.96
 -12   4   8    4.95    0.95
  12   4  -8    6.82    1.16
 -12   4   8    4.65    0.82
  12   4  -8    4.52    1.19
  10  -4  -8   34.30    2.55
 -10   4   8   30.60    2.72
 -10   4   8   32.55    2.18
  10   4  -8   33.07    2.95
  -8  -4   8    1.33    0.72
   8  -4  -8    1.58    0.57
  -8   4   8    1.62    0.47
  -8   4   8    0.94    0.55
  -6  -4   8   42.83    3.09
   6  -4  -8   42.30    2.96
  -6   4   8   39.02    2.53
   6   4  -8   39.92    2.66
  -6   4   8   38.55    3.17
   4  -4  -8   25.88    1.86
  -4  -4   8   23.02    1.86
  -4   4   8   23.78    2.00
  -4   4   8   23.30    1.61
   4   4  -8   22.95    1.71
   2  -4  -8   56.53    3.53
  -2  -4   8   48.50    3.64
  -2   4   8   53.28    4.28
   2   4  -8   53.74    3.64
  -2   4   8   57.85    3.45
   0  -4  -8   21.91    1.68
   0  -4   8   22.64    1.78
   0   4   8   23.67    1.58
   0   4   8   20.91    1.85
   0   4  -8   21.60    1.66
   2  -4   8   20.54    1.69
  -2  -4  -8   19.52    1.57
  -2   4  -8   20.16    1.51
   2   4   8   18.38    1.68
   2   4   8   19.07    1.43
  -4  -4  -8    6.07    0.74
  -4  -4  -8    6.37    0.81
   4  -4   8    6.95    0.90
   4   4   8    5.18    0.78
  -4   4  -8    6.34    0.75
  -6  -4  -8   15.02    1.14
   6  -4   8   12.62    1.23
  -6   4  -8   15.24    1.32
   6   4   8   16.04    1.53
   8  -4   8    8.08    0.97
   8   4   8    2.26    0.73
  -8   4  -8    2.25    0.60
 -10  -4  -8    2.02    0.67
  10  -4   8    2.09    0.71
  10   4   8    1.69    0.88
  10   4   8    1.94    0.80
 -10   4  -8    1.61    0.62
 -12  -4  -8    9.72    1.06
  12  -4   8   11.12    1.26
  12   4   8    9.68    1.51
 -12   4  -8    9.44    1.17
  12   4   8   10.74    1.38
  13  -5  -8   11.09    1.40
  13   5  -8    9.22    1.82
 -13   5   8   10.99    1.18
 -13   5   8   10.69    1.37
  11  -5  -8    7.16    1.05
  11   5  -8    7.38    1.37
 -11   5   8    7.86    0.99
 -11   5   8    7.46    1.12
  11   5  -8    8.85    1.37
  -9  -5   8   46.55    3.46
   9  -5  -8   47.43    3.35
  -9   5   8   42.83    2.78
   9   5  -8   39.77    3.60
  -9   5   8   44.29    3.50
  -7  -5   8   22.55    1.87
   7  -5  -8   21.48    1.78
  -7   5   8   21.19    1.57
  -7   5   8   22.33    1.97
   5  -5  -8    3.07    0.67
  -5  -5   8    3.25    0.81
  -5   5   8    2.64    0.55
  -5   5   8    3.34    0.65
   5   5  -8    2.37    0.59
   3  -5  -8    0.38    0.50
  -3  -5   8    0.28    0.55
  -3   5   8    0.02    0.44
   3   5  -8   -0.10    0.47
  -3   5   8    0.25    0.43
   1  -5  -8   14.58    1.34
  -1  -5   8   16.25    1.45
  -1   5   8   16.40    1.30
  -1   5   8   16.35    1.51
   1   5  -8   16.39    1.40
   1  -5   8    8.13    1.09
  -1  -5  -8    7.56    0.92
  -1   5  -8    7.85    0.91
   1   5   8    7.01    0.86
   1   5   8    8.38    0.89
   3  -5   8   38.88    2.89
   3   5   8   31.99    2.74
  -3   5  -8   33.46    2.45
   3   5   8   35.66    2.32
  -5  -5  -8    6.77    0.88
   5  -5   8   10.38    1.11
  -5   5  -8    7.09    0.87
   5   5   8    6.40    0.91
   7  -5   8    4.30    0.80
  -7  -5  -8    4.12    0.72
   7   5   8    3.45    0.81
  -7   5  -8    4.15    0.76
  -9  -5  -8    2.78    0.69
   9  -5   8    2.79    0.71
   9   5   8    1.92    0.77
  -9   5  -8    1.84    0.66
  10  -6  -8    1.03    0.73
 -10   6   8    1.27    0.65
 -10   6   8    1.57    0.77
  10   6  -8    1.48    0.95
   8  -6  -8    0.83    0.66
  -8  -6   8    1.50    0.87
  -8   6   8    1.05    0.61
   8   6  -8    1.14    0.78
  -8   6   8    1.33    0.62
   6  -6  -8    3.46    0.84
  -6  -6   8    4.34    0.98
  -6   6   8    3.47    0.71
  -6   6   8    4.14    0.79
  -4  -6   8   24.89    2.11
   4  -6  -8   25.66    2.04
  -4   6   8   24.99    1.87
  -4   6   8   26.77    2.26
   4   6  -8   26.38    2.05
   2  -6  -8   39.13    2.90
  -2  -6   8   40.68    3.00
  -2   6   8   43.37    2.84
  -2   6   8   41.98    3.43
   2   6  -8   43.01    3.07
   0  -6  -8    0.42    0.61
   0  -6   8    1.64    0.88
   0   6   8    1.22    0.62
   0   6   8    1.05    0.66
   0   6  -8    0.89    0.66
   2  -6   8    3.27    0.87
  -2   6  -8    2.79    0.78
   2   6   8    2.93    0.68
   2   6   8    3.79    0.82
   4  -6   8    9.39    1.24
   4   6   8    6.57    0.90
  -4   6  -8    8.50    1.09
  -6  -6  -8    8.30    0.98
   6  -6   8    8.64    1.20
   6   6   8    7.58    1.01
  -6   6  -8    7.27    1.02
   8   6   8   12.86    1.40
  -8   6  -8   14.01    1.36
   5  -7  -8    0.97    0.76
  -5   7   8    1.85    0.77
  -5   7   8    1.21    0.67
   3  -7  -8    0.96    0.74
  -3  -7   8    0.03    0.94
  -3   7   8    1.61    0.73
  -3   7   8    0.98    0.64
   1  -7  -8    1.15    0.80
  -1  -7   8   -0.19    1.00
  -1   7   8    1.22    0.66
  -1   7   8    0.11    0.75
   1   7  -8    1.23    0.82
   1  -7   8   14.11    1.69
   1   7   8   14.76    1.39
   1   7   8   15.46    1.48
  -1   7  -8   12.02    1.49
   3  -7   8   23.08    2.18
  -3   7  -8   18.26    1.80
   3   7   8   19.67    1.75
 -16   0   9    0.96    0.91
 -14   0   9   61.14    3.99
 -12   0   9   17.11    1.43
 -10   0   9    1.15    0.54
  10   0  -9    1.86    0.54
   8   0  -9   67.37    4.25
  -8   0   9   62.39    4.02
  -6   0   9   22.71    1.70
   6   0  -9   28.34    1.85
  -4   0   9    6.75    0.70
   4   0  -9    7.11    0.70
  -4   0   9    5.27    0.63
  -2   0   9    2.67    0.43
  -2   0   9    3.37    0.44
  -2   0   9    3.01    0.57
   2   0  -9    3.70    0.49
   0   0   9   16.85    1.49
   0   0   9   20.88    1.37
   0   0   9   22.47    1.77
   0   0  -9   20.59    1.44
   2   0   9    6.75    0.81
   2   0   9    5.57    0.62
  -2   0  -9    7.15    0.66
   2   0   9    6.85    0.83
  -4   0  -9    4.58    0.56
   4   0   9    4.26    0.76
   6   0   9   24.94    2.04
  -6   0  -9   24.92    1.77
   8   0   9    0.45    0.67
  -8   0  -9    1.25    0.47
  10   0   9   27.72    2.39
  12   0   9    0.02    0.86
 -15  -1   9    0.20    0.79
 -15   1   9   -0.51    0.80
  13  -1  -9    4.36    0.81
 -13  -1   9    4.45    0.88
 -13   1   9    4.55    0.88
  11  -1  -9    4.77    0.77
 -11  -1   9    4.23    0.76
 -11   1   9    3.74    0.74
  -9  -1   9   19.34    1.51
   9  -1  -9   21.49    1.60
   9   1  -9   22.32    2.02
  -9   1   9   21.87    1.62
   9   1  -9   21.77    1.65
  -7  -1   9    0.71    0.41
  -7  -1   9    0.72    0.55
   7  -1  -9    0.61    0.41
   7   1  -9    0.73    0.43
  -7   1   9    0.38    0.42
   5  -1  -9   19.24    1.42
  -5  -1   9   22.28    1.45
  -5  -1   9   14.77    1.27
  -5   1   9   23.61    1.49
  -5   1   9   17.88    1.75
   5   1  -9   20.64    1.52
   3  -1  -9   79.27    4.75
  -3  -1   9   69.71    4.42
  -3  -1   9   72.67    4.92
  -3   1   9   76.56    4.89
   3   1  -9   92.12    5.17
  -3   1   9   73.07    6.11
  -1  -1   9    1.17    0.40
   1  -1  -9    1.21    0.38
   1   1  -9    1.77    0.40
  -1   1   9    1.56    0.40
  -1  -1  -9    1.40    0.37
   1  -1   9    1.44    0.45
  -1   1  -9    1.42    0.37
   1   1   9    1.03    0.43
   1   1   9    1.19    0.35
  -3  -1  -9   37.85    2.54
   3  -1   9   37.86    2.77
  -3   1  -9   36.67    2.34
   3   1   9   35.54    2.48
   3   1   9   35.83    2.78
   3   1   9   28.90    2.13
   5  -1   9   41.83    3.07
  -5  -1  -9   44.29    2.83
  -5  -1  -9   40.60    2.63
   5   1   9   41.96    3.46
  -5   1  -9   47.37    2.91
   5   1   9   39.97    3.09
  -7  -1  -9    8.95    0.88
   7  -1   9    8.14    1.10
  -7   1  -9    8.00    0.82
   7   1   9    7.92    1.03
   7   1   9    7.31    0.94
   9  -1   9    4.51    0.96
  -9   1  -9    5.11    0.71
   9   1   9    5.71    1.09
  11  -1   9   13.76    1.52
  11   1   9   11.80    1.53
  13  -1   9    5.01    1.16
  13   1   9    4.51    1.14
 -16  -2   9    1.44    0.94
 -16   2   9    3.30    1.00
 -14  -2   9    0.79    0.83
  14  -2  -9    0.64    0.69
 -14   2   9    1.82    0.82
  12  -2  -9    4.31    0.81
 -12  -2   9    4.28    0.88
  12   2  -9    4.82    1.06
 -12   2   9    5.90    0.87
  12   2  -9    5.44    0.87
 -10  -2   9    1.50    0.66
  10  -2  -9    0.91    0.57
 -10   2   9    1.34    0.57
  10   2  -9    1.25    0.72
  -8  -2   9   12.93    1.13
   8  -2  -9   12.33    1.14
  -8  -2   9   13.01    1.22
  -8   2   9   10.87    1.22
  -8   2   9   12.70    1.04
   8   2  -9   11.88    1.05
   8   2  -9   11.26    1.23
   6  -2  -9   24.84    1.85
  -6   2   9   24.17    1.72
  -6   2   9   21.69    2.07
   6   2  -9   28.70    1.80
  -4  -2   9    0.95    0.47
   4  -2  -9    0.96    0.39
  -4   2   9    0.86    0.40
  -4   2   9    0.76    0.41
   4   2  -9    1.18    0.41
  -2  -2   9   24.56    1.90
   2  -2  -9   28.01    1.87
  -2   2   9   25.59    1.80
   2   2  -9   27.79    1.89
  -2   2   9   26.99    2.22
   0  -2   9    2.03    0.56
   0  -2  -9    2.22    0.47
   0   2  -9    1.87    0.43
   0   2   9    2.81    0.52
  -2  -2  -9   79.35    4.95
   2  -2   9   74.11    5.22
   2   2   9   64.91    4.34
   2   2   9   75.14    5.50
  -2   2  -9   73.66    4.61
   4  -2   9    6.97    0.92
  -4  -2  -9    5.99    0.67
  -4  -2  -9    5.76    0.72
   4   2   9    4.69    0.73
  -4   2  -9    5.84    0.67
   4   2   9    5.32    0.77
   6  -2   9   10.53    1.14
  -6  -2  -9   10.68    1.04
  -6  -2  -9   11.97    0.98
   6   2   9    8.66    1.14
   6   2   9   10.46    1.13
  -6   2  -9   10.53    0.96
   8  -2   9   71.73    5.14
  -8  -2  -9   75.40    4.55
  -8   2  -9   71.35    4.84
   8   2   9   74.37    5.19
   8   2   9   76.68    5.84
  10  -2   9   16.14    1.69
 -10  -2  -9   19.48    1.41
 -10   2  -9   16.12    1.39
  12  -2   9    3.00    1.06
  12   2   9    2.95    1.03
 -15  -3   9    4.78    1.11
 -15   3   9    4.98    1.06
  15   3  -9    5.91    1.15
 -13  -3   9    7.78    1.06
  13  -3  -9    7.54    1.07
  13   3  -9    7.12    1.47
  13   3  -9    8.62    1.23
 -13   3   9    9.03    1.09
 -11   3   9    4.52    0.78
  11   3  -9    4.03    0.88
  11   3  -9    3.87    1.06
  -9  -3   9    3.76    0.82
   9  -3  -9    3.93    0.74
  -9   3   9    4.18    0.65
   9   3  -9    3.09    0.88
  -9   3   9    3.62    0.73
   7  -3  -9   17.08    1.44
  -7  -3   9   17.10    1.47
  -7   3   9   18.01    1.37
   7   3  -9   19.36    1.44
  -7   3   9   17.50    1.66
   5  -3  -9    2.91    0.57
  -5  -3   9    2.16    0.50
  -5   3   9    3.35    0.58
  -5   3   9    3.91    0.71
   5   3  -9    3.95    0.59
  -3  -3   9   27.62    2.18
   3  -3  -9   32.09    2.15
  -3   3   9   31.11    2.00
   3   3  -9   29.94    2.09
  -3   3   9   28.74    2.46
   1  -3  -9   13.84    1.18
  -1  -3   9   13.69    1.20
  -1   3   9   13.06    1.04
   1   3  -9   13.36    1.09
  -1   3   9   12.77    1.24
  -1  -3  -9    0.93    0.45
   1  -3   9    1.74    0.63
  -1   3  -9    1.24    0.43
   1   3   9    1.01    0.46
   1   3   9    1.44    0.42
   3  -3   9   66.38    4.63
  -3  -3  -9   66.79    4.36
  -3   3  -9   59.89    4.11
   3   3   9   60.15    3.88
   3   3   9   66.78    4.88
  -5  -3  -9   35.69    2.56
   5  -3   9   36.59    2.78
  -5  -3  -9   39.06    2.44
  -5   3  -9   34.17    2.55
   5   3   9   39.72    3.09
   7  -3   9   10.19    1.14
  -7  -3  -9   10.76    1.00
   7   3   9    7.71    1.11
  -7   3  -9   10.35    0.97
   7   3   9    9.97    1.17
  -9  -3  -9    2.54    0.64
   9  -3   9    2.18    0.75
   9   3   9    2.36    0.84
  -9   3  -9    3.03    0.65
   9   3   9    3.21    0.90
 -11  -3  -9    5.63    0.87
  11  -3   9    6.13    1.05
  11   3   9    4.48    1.07
 -11   3  -9    5.69    0.86
  11   3   9    3.95    1.09
  14   4  -9    8.47    1.44
  14   4  -9    8.23    1.64
  12   4  -9    7.09    1.45
 -12   4   9   10.57    1.08
 -12   4   9    7.57    1.16
  12   4  -9    9.57    1.31
  10  -4  -9   24.71    1.99
 -10  -4   9   25.18    2.04
 -10   4   9   24.20    1.79
 -10   4   9   25.38    2.24
  10   4  -9   24.15    2.44
  -8  -4   9   15.19    1.46
   8  -4  -9   15.76    1.39
  -8   4   9   16.24    1.29
  -8   4   9   17.44    1.65
  -6  -4   9    3.87    0.80
   6  -4  -9    3.56    0.71
   6   4  -9    3.55    0.62
  -6   4   9    3.68    0.61
  -6   4   9    3.96    0.73
  -4  -4   9    3.39    0.63
   4  -4  -9    5.23    0.76
  -4   4   9    5.05    0.77
   4   4  -9    5.04    0.70
  -4   4   9    5.75    0.68
  -2  -4   9   11.35    1.17
   2  -4  -9   12.01    1.11
   2   4  -9   11.18    1.09
  -2   4   9   14.56    1.08
  -2   4   9   12.24    1.26
   0  -4   9   24.20    1.88
   0  -4  -9   21.99    1.77
   0   4   9   20.65    1.52
   0   4   9   21.10    1.81
   0   4  -9   20.20    1.61
   2  -4   9    2.02    0.74
  -2  -4  -9    1.70    0.56
   2   4   9    2.05    0.52
  -2   4  -9    1.35    0.52
   2   4   9    1.86    0.54
   4  -4   9    0.29    0.66
  -4   4  -9    0.08    0.44
   4   4   9    0.44    0.50
   6  -4   9   -0.13    0.59
  -6   4  -9    0.23    0.49
   6   4   9   -0.32    0.54
   8  -4   9    7.01    0.99
  -8  -4  -9    6.30    0.84
   8   4   9    6.22    1.01
  -8   4  -9    5.72    0.81
  10  -4   9   18.89    1.71
 -10  -4  -9   19.86    1.52
 -10   4  -9   19.02    1.60
  10   4   9   19.37    1.97
  11  -5  -9    4.97    0.95
 -11   5   9    3.31    0.92
  11   5  -9    4.22    1.19
  11   5  -9    5.04    1.26
 -11   5   9    4.50    0.85
   9  -5  -9   35.07    2.57
  -9  -5   9   32.97    2.63
  -9   5   9   34.92    2.34
   9   5  -9   29.92    3.02
  -9   5   9   38.27    2.97
   7  -5  -9    2.56    0.65
  -7  -5   9    1.89    0.84
  -7   5   9    2.00    0.61
  -7   5   9    1.22    0.65
  -5  -5   9    1.21    0.72
  -5   5   9    1.54    0.60
  -5   5   9    1.37    0.52
  -3  -5   9    6.96    0.92
   3  -5  -9    7.44    0.91
  -3   5   9    5.80    0.87
  -3   5   9    7.06    0.80
   3   5  -9    7.38    0.88
  -1  -5   9    1.75    0.76
   1  -5  -9    2.24    0.63
  -1   5   9    2.17    0.60
  -1   5   9    1.41    0.63
   1  -5   9   18.52    1.63
  -1  -5  -9   15.72    1.46
   1   5   9   17.68    1.44
   1   5   9   20.01    1.68
  -1   5  -9   16.53    1.51
   3  -5   9    2.65    0.83
  -3   5  -9    1.41    0.61
   3   5   9    1.48    0.61
   3   5   9    2.32    0.64
   5  -5   9   13.40    1.38
  -5  -5  -9   11.66    1.16
  -5   5  -9   11.20    1.14
   5   5   9   11.70    1.25
  -7  -5  -9    2.77    0.71
   7  -5   9    2.64    0.85
  -7   5  -9    2.35    0.70
   7   5   9    2.50    0.78
   9  -5   9    3.09    0.82
  -9  -5  -9    3.99    0.77
  -9   5  -9    3.75    0.82
   9   5   9    3.08    0.92
  -8  -6   9    0.71    0.85
   8  -6  -9   -0.31    0.65
  -8   6   9    0.47    0.62
  -8   6   9    0.01    0.63
  -6  -6   9    1.87    0.87
   6  -6  -9    2.01    0.73
  -6   6   9    1.79    0.69
  -6   6   9    1.53    0.67
   4  -6  -9   24.25    1.98
  -4  -6   9   24.45    2.05
  -4   6   9   26.95    1.99
   4   6  -9   26.84    2.16
  -4   6   9   28.95    2.43
   2  -6  -9   13.74    1.40
  -2  -6   9   15.75    1.52
  -2   6   9   13.44    1.24
  -2   6   9   14.34    1.44
   2   6  -9   13.63    1.39
   0  -6  -9    2.62    0.74
   0  -6   9    2.60    1.00
   0   6   9    2.33    0.74
   0   6  -9    2.35    0.82
   0   6   9    3.28    0.78
   2  -6   9   19.91    1.85
   2   6   9   16.73    1.61
   2   6   9   18.25    1.50
  -2   6  -9   16.57    1.58
   4  -6   9    3.67    0.98
  -4   6  -9    1.71    0.79
   4   6   9    1.86    0.74
   4   6   9    3.31    0.84
   6  -6   9    6.31    1.10
   6   6   9    5.11    0.92
  -6   6  -9    6.16    0.97
 -16   0  10   11.84    1.44
 -14   0  10   -0.66    0.79
  12   0 -10   11.93    1.18
 -12   0  10   10.07    1.13
 -10   0  10    9.94    1.09
  10   0 -10   14.31    1.17
   8   0 -10   83.67    5.06
  -8   0  10   71.12    4.74
   6   0 -10   17.02    1.33
  -6   0  10   15.44    1.22
   4   0 -10   -0.24    0.40
  -4   0  10   -0.11    0.32
  -2   0  10    0.18    0.31
  -2   0  10    0.73    0.40
   2   0 -10    0.15    0.32
   0   0 -10    0.67    0.35
   0   0  10    0.34    0.37
  -2   0 -10   14.14    1.13
   2   0  10   14.15    1.30
  -4   0 -10   31.14    2.10
   4   0  10   28.89    2.28
   6   0  10    6.06    0.93
  -6   0 -10    4.67    0.66
   8   0  10    1.68    0.80
  -8   0 -10    1.32    0.54
  10   0  10    1.07    0.93
  12   0  10    1.40    1.09
 -15  -1  10    5.85    1.09
 -15   1  10    9.43    1.29
  13  -1 -10   12.15    1.25
 -13  -1  10   11.96    1.21
 -13   1  10   10.89    1.25
  11  -1 -10    9.01    1.01
 -11  -1  10    8.80    1.00
 -11   1  10    8.64    1.02
   9  -1 -10    0.31    0.54
  -9  -1  10    0.99    0.54
   9   1 -10    0.40    0.52
  -9   1  10    0.51    0.53
  -7  -1  10   -0.26    0.39
   7  -1 -10   -0.02    0.44
   7   1 -10   -0.67    0.41
  -7   1  10    0.29    0.43
  -5  -1  10   43.33    2.91
   5  -1 -10   48.00    3.15
  -5  -1  10   49.53    3.25
  -5   1  10   49.12    3.18
   5   1 -10   51.14    3.35
   3  -1 -10   71.69    4.51
  -3  -1  10   67.17    4.66
  -3   1  10   67.69    5.21
  -3   1  10   64.88    4.17
   3   1 -10   69.55    4.38
  -1  -1  10   45.16    3.08
   1  -1 -10   43.24    2.95
  -1   1  10   43.96    3.59
  -1   1  10   42.83    2.85
   1   1 -10   47.39    3.01
  -1  -1 -10    0.21    0.36
   1  -1  10    0.70    0.44
   1   1  10    0.34    0.44
   1   1  10    0.32    0.37
  -1   1 -10    0.85    0.39
   1   1  10   -0.02    0.41
  -3  -1 -10    7.24    0.77
   3  -1  10    8.24    0.96
   3   1  10    6.46    0.90
   3   1  10    9.10    0.75
  -3   1 -10    7.91    0.81
   3   1  10    9.47    0.99
  -5  -1 -10    4.99    0.66
   5  -1  10    4.52    0.81
  -5   1 -10    5.30    0.67
   5   1  10    3.81    0.75
   7  -1  10    5.72    0.92
  -7  -1 -10    6.48    0.77
   7   1  10    5.23    0.97
  -7   1 -10    5.08    0.73
   9  -1  10    7.77    1.22
  -9   1 -10    6.23    0.81
  11  -1  10   10.80    1.48
  11   1  10    9.51    1.44
  13   1  10    9.60    1.42
  14  -2 -10    2.19    0.83
 -14   2  10    3.45    0.98
 -12  -2  10   13.84    1.34
  12  -2 -10   15.91    1.42
 -12   2  10   17.25    1.49
 -10  -2  10   33.81    2.34
  10   2 -10   37.69    3.31
 -10   2  10   38.67    2.60
   8  -2 -10    1.51    0.59
  -8  -2  10    1.00    0.70
   8   2 -10    1.39    0.52
  -8   2  10    0.96    0.57
   6  -2 -10   22.48    1.73
  -6   2  10   19.67    1.84
   6   2 -10   21.86    1.59
  -6   2  10   20.94    1.54
   4  -2 -10    2.97    0.56
  -4  -2  10    3.11    0.59
  -4   2  10    2.73    0.60
  -4   2  10    2.80    0.55
   4   2 -10    3.63    0.59
   2  -2 -10   10.16    0.91
  -2  -2  10    8.84    0.92
  -2   2  10   10.05    1.05
   2   2 -10   10.44    0.90
  -2   2  10    8.73    0.89
   0  -2  10   68.01    4.60
   0  -2 -10   65.95    4.37
   0   2  10   62.98    4.87
   0   2 -10   66.50    4.12
   0   2  10   58.25    3.86
   2  -2  10   27.33    2.18
  -2  -2 -10   30.02    2.06
   2   2  10   25.28    1.80
   2   2  10   28.51    2.30
  -2   2 -10   26.74    1.94
   4  -2  10   22.58    1.92
  -4  -2 -10   23.91    1.75
   4   2  10   19.54    1.47
  -4   2 -10   20.84    1.59
   4   2  10   23.02    1.94
  -6  -2 -10   12.75    1.14
   6  -2  10   13.53    1.42
  -6  -2 -10   16.06    1.29
   6   2  10   14.41    1.50
  -6   2 -10   14.40    1.19
   6   2  10   12.92    1.37
   8  -2  10    3.42    0.84
  -8   2 -10    4.27    0.68
   8   2  10    2.31    0.88
  10  -2  10    8.36    1.26
  10   2  10    5.25    1.08
 -10   2 -10    5.53    0.84
  12  -2  10    4.14    1.18
  12   2  10    4.80    1.24
  13  -3 -10    6.93    1.09
  13   3 -10    6.66    1.48
 -13   3  10    8.53    1.12
  13   3 -10    8.00    1.26
  11  -3 -10    5.28    0.89
 -11   3  10    6.40    0.96
  11   3 -10    8.01    1.37
  11   3 -10    7.17    1.11
  -9  -3  10    0.50    0.71
   9  -3 -10    0.59    0.59
   9   3 -10    0.48    0.70
  -9   3  10    1.08    0.58
  -9   3  10   -0.08    0.64
   7  -3 -10   10.58    1.10
  -7  -3  10   10.99    1.16
  -7   3  10   11.03    1.00
  -7   3  10   10.06    1.16
   7   3 -10   10.78    1.02
   5  -3 -10   54.99    3.72
   5   3 -10   51.71    3.56
  -5   3  10   52.32    3.40
  -5   3  10   56.49    4.26
  -3  -3  10    4.24    0.75
  -3   3  10    4.17    0.72
   3   3 -10    4.33    0.63
  -3   3  10    4.21    0.64
   1  -3 -10   13.50    1.16
  -1  -3  10   11.72    1.19
  -1   3  10   10.46    0.96
   1   3 -10   12.14    1.02
  -1   3  10   10.98    1.16
   1  -3  10    8.54    1.05
  -1  -3 -10    7.52    0.85
  -1   3 -10    6.81    0.76
   1   3  10    6.50    0.84
   1   3  10    6.55    0.74
  -3  -3 -10   14.17    1.23
   3  -3  10   13.17    1.35
  -3   3 -10   12.43    1.10
   3   3  10   12.65    1.28
   3   3  10   11.34    1.01
  -5  -3 -10    2.57    0.66
   5  -3  10    2.76    0.79
   5   3  10    3.52    0.79
  -5   3 -10    2.70    0.60
   7  -3  10    6.01    1.01
  -7  -3 -10    7.13    0.85
  -7   3 -10    5.81    0.80
   7   3  10    5.27    1.00
   9  -3  10    7.15    1.10
  -9  -3 -10    6.53    0.92
  -9   3 -10    5.51    0.85
   9   3  10    5.89    1.08
  11  -3  10    5.38    1.11
  11   3  10    3.87    1.14
 -11   3 -10    4.54    0.87
  12  -4 -10   16.22    1.58
  12   4 -10   16.32    2.18
  12   4 -10   20.42    1.90
 -12   4  10   22.53    1.68
  10  -4 -10    4.70    0.90
 -10  -4  10    6.11    1.05
  10   4 -10    4.63    1.11
 -10   4  10    5.11    0.86
 -10   4  10    5.73    0.99
  -8  -4  10   17.86    1.60
   8  -4 -10   16.94    1.49
  -8   4  10   17.39    1.38
  -8   4  10   17.99    1.75
  -6  -4  10   36.58    2.68
   6  -4 -10   34.97    2.58
  -6   4  10   38.35    2.48
  -6   4  10   38.80    3.09
   6   4 -10   33.98    2.56
  -4  -4  10    3.99    0.67
   4  -4 -10    6.51    0.85
   4   4 -10    5.97    0.79
  -4   4  10    6.45    0.77
  -4   4  10    8.77    0.99
   2  -4 -10    1.23    0.57
  -2  -4  10    1.59    0.68
  -2   4  10    0.88    0.58
   2   4 -10    1.17    0.49
  -2   4  10    1.85    0.55
   0  -4 -10    8.68    0.99
   0  -4  10    8.70    1.13
   0   4  10    9.60    0.92
   0   4 -10    8.41    0.93
   0   4  10    9.02    1.05
   2  -4  10   28.86    2.24
  -2  -4 -10   25.08    2.01
   2   4  10   23.99    1.73
   2   4  10   23.43    2.09
  -2   4 -10   23.54    1.83
  -4   4 -10    2.40    0.60
   4   4  10    3.31    0.68
   4   4  10    3.23    0.77
   6  -4  10    0.26    0.73
  -6  -4 -10    0.03    0.63
  -6   4 -10    0.47    0.51
   6   4  10    0.48    0.66
   8  -4  10    0.78    0.78
  -8  -4 -10   -0.05    0.67
   8   4  10   -0.14    0.75
  -8   4 -10    0.99    0.60
 -10  -4 -10    0.26    0.76
  10   4  10    0.50    0.87
 -10   4 -10   -0.54    0.64
   9  -5 -10    1.90    0.74
  -9  -5  10    2.26    0.90
  -9   5  10    2.73    0.83
   9   5 -10    4.24    1.07
  -9   5  10    2.35    0.68
   7  -5 -10    2.17    0.73
  -7  -5  10    1.72    0.86
  -7   5  10    1.90    0.62
  -7   5  10    1.40    0.74
  -5  -5  10    5.00    0.97
   5  -5 -10    4.75    0.82
  -5   5  10    3.72    0.72
  -5   5  10    4.06    0.84
   5   5 -10    3.58    0.77
  -3  -5  10    9.88    1.17
   3  -5 -10   10.50    1.11
   3   5 -10    9.74    1.07
  -3   5  10   11.29    1.20
  -3   5  10   10.96    1.04
   1  -5 -10   20.95    1.78
  -1  -5  10   22.54    1.93
  -1   5  10   21.99    1.65
   1   5 -10   21.53    1.75
  -1   5  10   21.14    1.99
  -1  -5 -10    8.51    1.06
   1  -5  10   11.05    1.34
   1   5  10    7.44    1.02
  -1   5 -10    7.46    0.98
   1   5  10   10.19    1.00
   3  -5  10   -0.03    0.82
  -3   5 -10   -0.13    0.55
   3   5  10    0.45    0.65
   3   5  10    0.20    0.53
   5  -5  10    6.43    1.15
   5   5  10    5.47    0.94
  -5   5 -10    4.76    0.86
   5   5  10    5.96    0.91
   7  -5  10   20.34    1.81
  -7  -5 -10   18.58    1.58
   7   5  10   18.07    1.79
  -7   5 -10   16.41    1.53
   6  -6 -10    3.13    0.82
  -6   6  10    2.95    0.86
  -6   6  10    2.66    0.81
  -4  -6  10    1.53    0.91
   4  -6 -10    0.70    0.70
  -4   6  10    0.66    0.70
   4   6 -10    1.37    0.79
  -4   6  10    1.33    0.78
  -2  -6  10   -0.09    0.79
   2  -6 -10   -0.09    0.68
  -2   6  10   -0.43    0.65
  -2   6  10   -0.59    0.67
   2   6 -10    0.03    0.75
   0  -6 -10   21.59    1.92
   0  -6  10   25.49    2.15
   0   6  10   26.00    2.30
   0   6 -10   23.17    2.05
   0   6  10   24.86    1.93
   2  -6  10   31.65    2.60
   2   6  10   26.80    2.47
   2   6  10   31.17    2.17
  -2   6 -10   27.70    2.29
  -4   6 -10    9.83    1.22
 -14   0  11   10.52    1.29
  12   0 -11    2.41    0.82
 -12   0  11    1.54    0.73
 -10   0  11    1.51    0.64
  10   0 -11    1.17    0.65
   8   0 -11   32.39    2.30
  -8   0  11   30.69    2.15
  -6   0  11   -0.21    0.41
   6   0 -11    0.27    0.47
  -4   0  11    4.51    0.62
   4   0 -11    4.73    0.67
   2   0 -11    3.71    0.58
   0   0 -11   11.89    1.01
   0   0  11   10.76    1.03
  -2   0 -11   22.46    1.63
   2   0  11   21.30    1.74
  -4   0 -11    0.40    0.45
   4   0  11   -0.15    0.53
  -6   0 -11    8.79    0.90
   6   0  11    7.70    1.09
   8   0  11    1.75    0.89
  -8   0 -11    0.72    0.59
 -15  -1  11    2.51    1.01
 -15   1  11    3.30    1.08
  13  -1 -11    7.56    1.12
 -13   1  11    9.47    1.23
 -11  -1  11   -0.44    0.62
  11  -1 -11    1.83    0.77
 -11   1  11    1.03    0.73
  -9  -1  11   11.53    1.14
   9  -1 -11   14.88    1.29
   9   1 -11   14.76    1.29
  -9   1  11   13.25    1.24
   7  -1 -11    4.56    0.74
   7   1 -11    4.07    0.72
  -7   1  11    5.14    0.76
   5  -1 -11   14.29    1.22
  -5   1  11   14.53    1.23
   5   1 -11   15.70    1.28
  -3  -1  11   16.98    1.35
   3  -1 -11   15.73    1.32
   3   1 -11   17.58    1.36
  -3   1  11   16.40    1.35
   1  -1 -11   10.27    0.94
  -1  -1  11    9.58    1.00
  -1   1  11    9.91    0.94
   1   1 -11   10.51    0.96
  -1  -1 -11    2.04    0.52
   1  -1  11    3.56    0.67
  -1   1 -11    2.18    0.51
   3  -1  11    3.11    0.72
  -3  -1 -11    3.00    0.57
   3   1  11    2.83    0.66
  -3   1 -11    2.97    0.58
  -5  -1 -11    0.86    0.50
   5  -1  11    0.28    0.63
  -5   1 -11    0.50    0.46
   5   1  11    0.82    0.64
   7  -1  11   16.50    1.68
  -7  -1 -11   21.22    1.56
  -7   1 -11   19.95    1.56
   7   1  11   18.49    1.84
   9  -1  11    9.83    1.31
  -9   1 -11    9.86    1.05
   9   1  11    8.61    1.35
  11  -1  11   11.45    1.66
  11   1  11    9.93    1.52
  14  -2 -11    0.83    0.82
 -14   2  11    1.29    0.97
  12  -2 -11    2.60    0.77
 -12   2  11    3.56    0.95
  10  -2 -11    2.61    0.75
 -10   2  11    2.83    0.81
   8  -2 -11    4.13    0.76
  -8   2  11    5.61    0.89
   8   2 -11    5.66    0.81
   6  -2 -11   15.21    1.32
  -6   2  11   13.89    1.24
   6   2 -11   14.98    1.27
  -4  -2  11    8.86    0.92
   4  -2 -11    9.21    0.93
  -4   2  11    7.99    0.88
  -4   2  11    8.19    1.02
   4   2 -11    9.95    0.94
   2  -2 -11    8.20    0.83
  -2  -2  11    6.39    0.87
  -2   2  11    5.17    0.73
  -2   2  11    5.95    0.86
   2   2 -11    6.02    0.72
   0  -2  11   11.98    1.21
   0  -2 -11   12.18    1.09
   0   2  11   11.22    1.04
   0   2 -11   12.26    1.09
   0   2  11   12.87    1.29
  -2  -2 -11    4.94    0.70
   2  -2  11    3.67    0.80
  -2   2 -11    3.68    0.64
   2   2  11    4.39    0.80
   2   2  11    3.42    0.58
  -4  -2 -11   30.80    2.16
   4  -2  11   27.65    2.35
   4   2  11   22.76    1.74
   4   2  11   26.58    2.26
  -4   2 -11   26.27    1.89
   6  -2  11   19.55    1.76
  -6   2 -11   20.87    1.65
   8  -2  11    4.18    1.00
   8   2  11    3.81    0.96
  -8   2 -11    2.65    0.67
  10  -2  11   -1.11    0.94
 -10   2 -11   -0.32    0.62
  10   2  11    0.36    0.88
  13  -3 -11    1.87    0.88
 -13   3  11    1.88    0.89
 -11   3  11    6.23    0.99
  11   3 -11    6.27    1.27
   9  -3 -11   -0.33    0.59
  -9  -3  11   -0.19    0.75
  -9   3  11    0.64    0.68
   9   3 -11   -0.32    0.72
  -7  -3  11    3.62    0.84
   7  -3 -11    3.93    0.78
  -7   3  11    4.18    0.83
  -7   3  11    4.71    0.74
   7   3 -11    3.05    0.70
  -5  -3  11    7.52    0.85
   5  -3 -11    8.27    0.95
  -5   3  11    8.97    1.12
   5   3 -11   10.15    0.98
  -5   3  11    9.25    0.96
   3  -3 -11    5.22    0.78
  -3   3  11    4.74    0.69
  -3   3  11    5.41    0.84
   3   3 -11    4.40    0.70
   1  -3 -11   20.20    1.54
  -1  -3  11   16.72    1.57
  -1   3  11   19.09    1.72
   1   3 -11   16.90    1.40
  -1   3  11   16.58    1.35
  -1  -3 -11    2.17    0.62
   1  -3  11    1.14    0.79
  -1   3 -11    0.99    0.48
   1   3  11    1.21    0.56
   1   3  11    1.90    0.56
  -3  -3 -11    2.92    0.70
   3  -3  11    2.74    0.86
   3   3  11    3.06    0.75
  -3   3 -11    2.05    0.57
   3   3  11    2.66    0.59
   5  -3  11    1.88    0.80
  -5   3 -11    1.15    0.53
   5   3  11    1.42    0.76
   5   3  11    1.30    0.60
   7  -3  11    7.15    1.19
  -7  -3 -11    5.49    0.90
  -7   3 -11    4.96    0.79
   7   3  11    5.36    1.08
   9  -3  11    8.47    1.29
  -9   3 -11    6.92    0.97
  10  -4 -11    6.09    1.03
 -10  -4  11    6.65    1.13
  10   4 -11    4.47    1.11
 -10   4  11    6.75    0.97
  -8  -4  11   11.67    1.30
   8  -4 -11   10.60    1.16
  -8   4  11   10.84    1.09
  -8   4  11   12.02    1.38
   6  -4 -11    7.71    0.99
  -6  -4  11    7.26    1.02
  -6   4  11    7.17    0.92
   6   4 -11    6.58    0.90
  -6   4  11    7.92    1.03
  -4  -4  11    3.64    0.66
   4  -4 -11    4.57    0.81
  -4   4  11    5.76    0.76
  -4   4  11    5.03    0.93
  -2  -4  11    1.58    0.81
   2  -4 -11    1.01    0.63
  -2   4  11    1.59    0.58
  -2   4  11    0.78    0.66
   2   4 -11    0.83    0.56
   0  -4 -11    6.15    0.88
   0  -4  11    5.78    1.12
   0   4  11    6.85    0.85
   0   4  11    6.69    0.97
   0   4 -11    4.98    0.80
  -2  -4 -11    7.37    1.04
   2  -4  11    8.46    1.24
   2   4  11    7.01    0.88
  -2   4 -11    5.76    0.83
   2   4  11    6.97    0.97
   4  -4  11    3.12    1.03
  -4   4 -11    2.36    0.67
   4   4  11    2.79    0.80
   4   4  11    4.16    0.77
   6  -4  11    0.36    0.84
  -6   4 -11    1.02    0.66
   6   4  11    0.49    0.69
  -8  -4 -11    2.87    0.84
   8   4  11    1.31    0.95
  -8   4 -11    1.85    0.74
  -9  -5  11   10.77    1.35
  -9   5  11   10.89    1.34
   9   5 -11    7.79    1.32
  -7  -5  11   -0.01    0.83
   7  -5 -11    0.68    0.64
  -7   5  11    0.55    0.66
  -7   5  11    0.96    0.76
   5  -5 -11    8.33    1.09
  -5  -5  11    8.80    1.21
  -5   5  11    9.08    1.00
   5   5 -11    6.75    1.02
  -5   5  11    8.42    1.19
   3  -5 -11   32.53    2.39
  -3  -5  11   29.77    2.45
   3   5 -11   31.12    2.46
  -3   5  11   34.72    2.91
  -3   5  11   34.99    2.37
  -1  -5  11    7.24    1.20
   1  -5 -11    7.00    1.03
  -1   5  11    5.27    1.08
  -1   5  11    6.76    0.93
   1  -5  11    1.28    1.04
  -1  -5 -11    0.94    0.68
   1   5  11    1.38    0.76
  -1   5 -11    0.51    0.67
   1   5  11    1.09    0.71
   3  -5  11    1.06    1.01
   3   5  11    1.38    0.72
  -3   5 -11    0.79    0.69
   3   5  11    0.74    0.69
   5  -5  11    1.49    1.00
  -5   5 -11    2.37    0.78
   5   5  11    2.14    0.80
   5   5  11    2.24    0.89
   2  -6 -11    1.97    0.83
  -2   6  11    2.11    0.86
   0  -6 -11   24.97    2.11
   0   6  11   26.99    2.44
   0   6 -11   24.30    2.15
 -14   0  12   25.59    2.09
  12   0 -12   16.27    1.64
 -12   0  12   19.23    1.58
 -10   0  12    0.58    0.67
  10   0 -12    0.21    0.69
  -8   0  12    7.49    0.89
   6   0 -12   24.51    1.88
   4   0 -12   12.26    1.12
   2   0 -12    0.42    0.43
   0   0 -12   -0.33    0.39
   2   0  12    9.84    1.10
  -2   0 -12   10.22    0.98
   4   0  12    2.63    0.82
  -4   0 -12    4.24    0.66
  -6   0 -12    5.55    0.77
   6   0  12    5.18    0.90
   8   0  12    2.50    0.92
  10   0  12   -0.40    0.97
  13  -1 -12    6.11    1.15
 -13   1  12    6.63    1.20
  11  -1 -12   11.59    1.30
 -11   1  12   12.47    1.34
   9  -1 -12   30.50    2.33
  -9   1  12   27.93    2.11
   9   1 -12   29.24    2.21
   7  -1 -12    8.09    0.95
  -7   1  12    7.43    0.93
   7   1 -12    8.81    0.97
   5  -1 -12    2.85    0.64
  -5   1  12    3.74    0.71
   5   1 -12    3.38    0.67
   3  -1 -12    2.89    0.59
   3   1 -12    3.09    0.62
  -3   1  12    3.17    0.67
   1  -1 -12   13.44    1.21
  -1  -1  12   14.23    1.30
   1   1 -12   13.75    1.18
   1  -1  12   13.03    1.33
  -1  -1 -12   16.10    1.25
  -1   1 -12   13.48    1.17
   3  -1  12   11.19    1.32
  -3  -1 -12   14.24    1.19
  -3   1 -12   11.68    1.09
  -5  -1 -12    1.79    0.61
  -5   1 -12    0.93    0.55
   7  -1  12    2.12    0.80
  -7   1 -12    1.49    0.63
   7   1  12    2.87    0.86
   9  -1  12    1.45    0.89
   9   1  12    2.46    1.03
  12  -2 -12   -0.08    0.75
 -12   2  12    0.94    0.92
 -10   2  12    1.73    0.85
   8  -2 -12   31.42    2.36
  -8   2  12   33.03    2.33
   8   2 -12   30.15    2.34
   6  -2 -12    5.56    0.84
  -6   2  12    7.40    0.95
   6   2 -12    5.91    0.87
  -4  -2  12   13.95    1.30
   4  -2 -12   15.95    1.31
   4   2 -12   14.76    1.32
  -4   2  12   16.72    1.39
  -2  -2  12   19.88    1.66
   2  -2 -12   20.26    1.61
   2   2 -12   18.87    1.51
  -2   2  12   18.45    1.47
   0  -2 -12   10.80    1.05
   0  -2  12   11.14    1.22
   0   2  12   10.60    1.05
   0   2 -12   11.92    1.05
  -2  -2 -12    0.66    0.55
   2  -2  12    1.24    0.76
  -2   2 -12    1.57    0.55
   4  -2  12   15.45    1.50
  -4  -2 -12   14.00    1.33
   6  -2  12   13.38    1.54
  -6   2 -12    8.44    0.97
   8  -2  12   10.86    1.44
  -8   2 -12    9.72    1.09
  11  -3 -12   13.88    1.45
 -11   3  12   13.27    1.37
   9  -3 -12   14.88    1.44
   9   3 -12   13.78    1.63
  -9   3  12   15.74    1.42
  -7  -3  12    2.98    0.87
   7  -3 -12    3.42    0.75
   7   3 -12    3.23    0.78
  -7   3  12    4.88    0.81
   5  -3 -12    8.24    1.03
   5   3 -12    7.07    0.91
  -5   3  12    7.87    0.92
  -5   3  12    6.89    1.13
   3  -3 -12    0.23    0.56
  -3   3  12   -0.71    0.55
  -3   3  12   -0.58    0.59
   3   3 -12   -0.19    0.48
  -1  -3  12    9.06    1.15
   1  -3 -12    8.73    1.00
  -1   3  12    7.41    0.89
   1   3 -12    6.93    0.86
  -1   3  12    9.27    1.14
  -1  -3 -12    2.76    0.70
   1  -3  12    2.72    0.96
  -1   3 -12    2.81    0.62
   1   3  12    2.05    0.66
   1   3  12    3.96    0.88
  -3  -3 -12   28.15    2.18
   3  -3  12   29.01    2.42
   3   3  12   27.18    2.34
   3   3  12   24.00    1.82
  -3   3 -12   24.02    1.92
   5  -3  12   12.82    1.50
  -5   3 -12   12.57    1.21
   5   3  12   13.44    1.52
   7  -3  12    0.96    1.00
  -7   3 -12    0.54    0.59
 -10  -4  12    0.80    0.97
  10  -4 -12    0.23    0.68
  10   4 -12   -0.18    0.87
  -8  -4  12    0.96    0.91
   8  -4 -12    2.64    0.77
  -8   4  12    3.14    0.75
  -8   4  12    1.61    0.93
  -6  -4  12    7.21    1.09
   6  -4 -12    7.10    1.01
  -6   4  12    8.21    1.02
  -6   4  12    6.59    1.12
   6   4 -12    6.06    0.96
  -4  -4  12    2.91    0.62
  -4   4  12    6.88    0.93
   4   4 -12    5.46    0.87
  -4   4  12    8.14    1.13
   2  -4 -12    8.43    1.06
  -2  -4  12   10.99    1.32
  -2   4  12   10.17    1.22
   2   4 -12    7.92    1.00
  -2   4  12    8.80    0.97
   0  -4  12    1.93    1.01
   0  -4 -12   -0.74    0.60
   0   4  12    0.27    0.68
   0   4 -12   -0.25    0.57
   0   4  12    0.28    0.62
   2  -4  12    3.45    1.14
  -2  -4 -12    3.04    0.88
   2   4  12    2.77    0.79
  -2   4 -12    1.81    0.63
   2   4  12    3.39    0.85
   4  -4  12    4.19    1.20
   4   4  12    4.16    0.98
   4   4  12    3.55    0.83
  -4   4 -12    3.06    0.75
   6   4  12    4.68    0.91
   6   4  12    6.42    1.17
  -6   4 -12    3.93    0.84
   5  -5 -12    6.06    1.01
  -5  -5  12    5.76    1.12
  -5   5  12    6.52    0.99
  -5   5  12    6.61    1.15
   5   5 -12    4.32    0.94
  -3  -5  12    1.71    0.78
   3  -5 -12    2.49    0.88
   3   5 -12    2.10    0.78
  -3   5  12    2.57    0.91
  -3   5  12    3.38    0.79
   1  -5 -12    0.64    0.78
  -1  -5  12    2.51    1.10
  -1   5  12    1.99    0.77
  -1   5  12    2.09    0.95
   1   5 -12    1.20    0.70
  -1  -5 -12    5.32    1.04
   1  -5  12    3.75    1.29
   1   5  12    5.53    1.02
   1   5  12    6.16    1.12
  -1   5 -12    4.19    0.88
  12   0 -13    4.92    1.10
 -12   0  13    3.95    0.99
  10   0 -13    0.49    0.76
   8   0 -13    2.38    0.78
   6   0 -13   -0.89    0.57
   4   0 -13    3.08    0.67
   2   0 -13    0.50    0.50
   0   0 -13    0.26    0.49
  -2   0 -13   -0.04    0.52
  -4   0 -13    0.94    0.57
  -6   0 -13    3.87    0.78
   6   0  13    2.62    0.81
   8   0  13    0.85    0.78
  11  -1 -13   11.18    1.33
 -11   1  13   11.08    1.40
  -9   1  13    6.53    0.99
   9   1 -13    4.44    0.94
   7  -1 -13    0.66    0.64
  -7   1  13    0.76    0.71
   7   1 -13   -0.05    0.63
   5  -1 -13    1.64    0.62
   5   1 -13    0.73    0.62
   3  -1 -13    1.29    0.55
   3   1 -13    0.93    0.54
   1  -1 -13    1.33    0.55
   1   1 -13    1.09    0.53
   1  -1  13   11.33    1.20
  -1  -1 -13    7.46    0.95
  -1   1 -13    7.32    0.87
   3  -1  13   12.51    1.32
  -3  -1 -13   11.92    1.16
  -3   1 -13   11.66    1.14
  -5  -1 -13   13.27    1.28
   5  -1  13   11.85    1.40
  -5   1 -13   12.44    1.19
   7  -1  13    1.23    0.91
  -7   1 -13   -0.30    0.64
  10  -2 -13    0.39    0.78
 -10   2  13    0.70    0.90
   8  -2 -13    1.75    0.76
   8   2 -13    3.34    0.79
  -8   2  13    2.73    0.95
   6  -2 -13    4.27    0.82
   6   2 -13    4.06    0.80
  -6   2  13    7.23    0.98
   4  -2 -13   17.32    1.46
  -4   2  13   20.32    1.67
   4   2 -13   19.30    1.61
   2  -2 -13   12.26    1.18
  -2  -2  13   11.86    1.29
  -2   2  13   11.58    1.13
   2   2 -13   11.05    1.11
   0  -2 -13    2.99    0.67
   0  -2  13    3.53    0.92
   0   2 -13    2.48    0.63
   2  -2  13    1.50    0.89
  -2  -2 -13    0.48    0.60
  -2   2 -13   -0.09    0.55
   4  -2  13    7.66    1.22
  -4  -2 -13    8.62    1.06
  -4   2 -13    6.96    0.92
   6  -2  13    2.41    1.09
  -6   2 -13    1.61    0.69
   9  -3 -13    1.67    0.80
  -9   3  13    1.13    0.89
  -7   3  13    6.00    0.98
   7   3 -13    5.39    0.94
   5  -3 -13    4.83    0.85
  -5   3  13    4.68    0.89
   5   3 -13    4.29    0.82
   3  -3 -13    7.58    0.96
  -3  -3  13    6.84    1.07
  -3   3  13    8.30    0.99
   3   3 -13    5.27    0.88
  -1  -3  13    4.07    1.02
   1  -3 -13    3.38    0.81
   1   3 -13    2.69    0.67
  -1   3  13    3.08    0.74
   1  -3  13   12.33    1.52
  -1  -3 -13   13.88    1.33
   1   3  13   11.91    1.16
  -1   3 -13   10.76    1.11
  -3   3 -13   17.61    1.51
   5  -3  13    0.73    1.02
  -5   3 -13    0.72    0.65
   6  -4 -13    0.12    0.71
  -6  -4  13    0.38    0.87
   6   4 -13    0.19    0.74
  -6   4  13    1.79    0.79
   4  -4 -13    2.49    0.82
  -4  -4  13    0.86    0.56
  -4   4  13    3.04    0.93
   4   4 -13    0.94    0.72
  -4   4  13    1.06    0.75
  -2  -4  13    2.73    1.02
   2  -4 -13    2.68    0.86
  -2   4  13    2.90    0.96
   2   4 -13    2.63    0.75
  -2   4  13    2.76    0.82
   0  -4  13   17.14    1.78
   0  -4 -13   13.27    1.47
   0   4  13   15.48    1.40
   0   4  13   15.84    1.74
   0   4 -13   13.17    1.36
   2  -4  13    0.31    1.17
  -2  -4 -13    0.12    0.86
   2   4  13   -0.93    0.80
  -2   4 -13    0.68    0.63
   2   4  13   -0.80    0.77
   4   4  13   14.40    1.72
  10   0 -14    5.30    1.10
   8   0 -14   29.69    2.35
   6   0 -14    1.90    0.74
   4   0 -14   -0.14    0.58
   2   0 -14    1.11    0.59
   0   0 -14    8.86    1.00
  -2   0 -14    1.88    0.65
  -4   0 -14    0.56    0.62
  -6   0 -14   -0.04    0.68
   9  -1 -14    2.59    0.94
   9   1 -14    1.89    0.91
   7  -1 -14    7.07    1.04
   7   1 -14    7.27    1.07
   5  -1 -14   16.14    1.46
   5   1 -14   17.38    1.54
   3  -1 -14   16.61    1.46
   3   1 -14   15.74    1.40
   1  -1 -14    5.00    0.83
   1   1 -14    3.87    0.75
  -1  -1 -14    2.48    0.72
  -1   1 -14    3.49    0.72
  -3  -1 -14    2.94    0.76
   3  -1  14    3.62    0.96
  -3   1 -14    3.68    0.78
  -5  -1 -14    3.68    0.83
   5  -1  14    2.77    1.00
  -5   1 -14    3.33    0.82
   8  -2 -14    3.69    0.94
   8   2 -14    3.18    0.90
  -8   2  14    1.74    0.95
   6  -2 -14    0.56    0.67
   6   2 -14    0.96    0.72
  -6   2  14    1.59    0.82
   4  -2 -14    6.54    0.95
   4   2 -14    6.69    0.97
   2  -2 -14    4.02    0.81
   2   2 -14    3.54    0.79
   0  -2 -14   15.19    1.40
   0  -2  14   14.19    1.56
   0   2 -14   11.37    1.17
  -2  -2 -14    2.30    0.75
   2  -2  14    2.42    1.05
  -2   2 -14    2.30    0.73
  -4  -2 -14    3.56    0.91
   4  -2  14    3.03    1.08
  -4   2 -14    3.18    0.78
  -7   3  14   10.59    1.27
   7   3 -14    8.75    1.19
   5  -3 -14    9.38    1.15
   5   3 -14    9.85    1.17
  -5   3  14   10.63    1.27
   3  -3 -14   -0.30    0.68
  -3  -3  14    0.33    0.77
   3   3 -14    0.36    0.69
  -3   3  14   -0.53    0.73
  -1  -3  14    3.50    1.11
   1  -3 -14    4.65    0.94
   1   3 -14    3.45    0.80
  -1  -3 -14    1.71    0.84
   1  -3  14    1.91    1.13
  -1   3 -14    1.53    0.67
   3  -3  14    2.31    1.27
  -3  -3 -14    2.39    0.94
  -3   3 -14    1.52    0.70
   6   0 -15    1.63    0.78
   4   0 -15    2.57    0.76
   2   0 -15    8.04    1.06
   0   0 -15    1.82    0.72
  -2   0 -15    0.87    0.69
   7  -1 -15   10.86    1.27
   7   1 -15   10.08    1.27
   5  -1 -15    4.63    0.94
   5   1 -15    5.62    0.96
   3  -1 -15    7.42    1.03
   3   1 -15    8.87    1.13
   1  -1 -15    0.79    0.65
   1   1 -15    1.15    0.67
  -1  -1 -15    0.67    0.69
  -1   1 -15    0.73    0.66
  -3  -1 -15    3.37    0.88
  -3   1 -15    4.20    0.88
   4  -2 -15    2.63    0.78
   4   2 -15    3.45    0.82
   2  -2 -15    2.64    0.82
   2   2 -15    2.30    0.75
   0  -2 -15    6.08    1.04
   0   2 -15    6.22    0.92
   0   0   0    0.00    0.00
;
_shelx_hkl_checksum              70087
#END Tags that were not found in dictionaries
loop_
_space_group_symop_operation_xyz
'x, y, z'
'-x, y, -z'
'x+1/2, y+1/2, z'
'-x+1/2, y+1/2, -z'
loop_
_atom_site_label
_atom_site_type_symbol
_atom_site_fract_x
_atom_site_fract_y
_atom_site_fract_z
_atom_site_U_iso_or_equiv
_atom_site_adp_type
_atom_site_occupancy
_atom_site_site_symmetry_order
_atom_site_calc_flag
_atom_site_refinement_flags_posn
_atom_site_refinement_flags_adp
S1 S 0.79390(5) 0.56922(12) 0.89355(6) 0.0225(2) Uani 1 1 d . .
O3 O 0.50722(15) 0.2871(4) 0.66658(19) 0.0234(5) Uani 1 1 d . .
O2 O 0.62014(17) -0.1936(4) 0.6529(2) 0.0263(6) Uani 1 1 d . .
C6 C 0.65089(18) 0.0443(5) 0.8022(2) 0.0172(6) Uani 1 1 d . .
H6 H 0.6851 -0.0515 0.8564 0.021 Uiso 1 1 calc R U
C2 C 0.7678(2) 0.3217(5) 0.8563(3) 0.0177(6) Uani 1 1 d . .
N1 N 0.68135(16) 0.2587(4) 0.8286(2) 0.0177(5) Uani 1 1 d . .
C5 C 0.54825(19) 0.0472(5) 0.8235(3) 0.0195(6) Uani 1 1 d . .
H5A H 0.5127 -0.0580 0.7783 0.023 Uiso 1 1 calc R U
H5B H 0.5416 0.0248 0.9031 0.023 Uiso 1 1 calc R U
O1 O 0.71769(14) 0.0688(6) 0.62431(18) 0.0273(5) Uani 1 1 d . .
C1 C 0.8443(2) 0.1629(6) 0.8537(3) 0.0235(7) Uani 1 1 d . .
H1A H 0.8265 0.0346 0.8873 0.035 Uiso 1 1 calc R U
H1B H 0.9001 0.2152 0.8958 0.035 Uiso 1 1 calc R U
H1C H 0.8552 0.1378 0.7764 0.035 Uiso 1 1 calc R U
C4 C 0.5182(2) 0.2674(5) 0.7860(3) 0.0211(6) Uani 1 1 d . .
H4 H 0.4619 0.3101 0.8185 0.025 Uiso 1 1 calc R U
C3 C 0.6010(2) 0.4004(5) 0.8311(3) 0.0205(6) Uani 1 1 d . .
H3A H 0.6066 0.5216 0.7831 0.025 Uiso 1 1 calc R U
H3B H 0.5955 0.4474 0.9079 0.025 Uiso 1 1 calc R U
C9 C 0.4213(2) 0.2067(7) 0.6153(3) 0.0318(8) Uani 1 1 d . .
H9A H 0.4167 0.0613 0.6341 0.048 Uiso 1 1 calc R U
H9B H 0.4179 0.2220 0.5344 0.048 Uiso 1 1 calc R U
H9C H 0.3712 0.2824 0.6428 0.048 Uiso 1 1 calc R U
C8 C 0.6425(3) -0.2991(6) 0.5513(3) 0.0344(9) Uani 1 1 d . .
H8A H 0.6071 -0.2386 0.4859 0.052 Uiso 1 1 calc R U
H8B H 0.6276 -0.4450 0.5558 0.052 Uiso 1 1 calc R U
H8C H 0.7075 -0.2837 0.5448 0.052 Uiso 1 1 calc R U
C7 C 0.6669(2) -0.0185(5) 0.6824(3) 0.0198(6) Uani 1 1 d . .
loop_
_atom_site_aniso_label
_atom_site_aniso_U_11
_atom_site_aniso_U_22
_atom_site_aniso_U_33
_atom_site_aniso_U_23
_atom_site_aniso_U_13
_atom_site_aniso_U_12
S1 0.0179(4) 0.0141(4) 0.0356(4) -0.0014(3) 0.0039(3) -0.0019(3)
O3 0.0154(10) 0.0227(12) 0.0320(12) 0.0028(10) 0.0019(9) -0.0005(9)
O2 0.0282(13) 0.0165(12) 0.0354(13) -0.0054(10) 0.0091(10) -0.0041(9)
C6 0.0125(12) 0.0126(15) 0.0269(14) 0.0029(11) 0.0039(10) -0.0012(11)
C2 0.0152(13) 0.0131(15) 0.0254(15) 0.0019(11) 0.0050(11) 0.0009(11)
N1 0.0125(12) 0.0114(13) 0.0298(14) 0.0010(10) 0.0056(10) 0.0025(9)
C5 0.0136(12) 0.0172(16) 0.0289(14) 0.0011(13) 0.0071(11) 0.0000(12)
O1 0.0254(11) 0.0262(12) 0.0326(11) -0.0015(12) 0.0130(9) -0.0046(13)
C1 0.0155(15) 0.0153(15) 0.0409(18) 0.0005(13) 0.0083(13) 0.0010(12)
C4 0.0113(13) 0.0195(16) 0.0330(16) -0.0030(13) 0.0053(12) 0.0023(11)
C3 0.0153(15) 0.0142(15) 0.0324(17) -0.0034(12) 0.0048(12) 0.0046(11)
C9 0.0191(16) 0.033(2) 0.042(2) -0.0018(16) -0.0024(14) -0.0029(14)
C8 0.044(2) 0.0225(19) 0.0373(19) -0.0102(14) 0.0091(16) -0.0032(16)
C7 0.0151(14) 0.0126(14) 0.0321(17) -0.0013(12) 0.0051(12) 0.0028(11)
loop_
_atom_type_symbol
_atom_type_description
_atom_type_scat_dispersion_real
_atom_type_scat_dispersion_imag
_atom_type_scat_source
C C 0.0033 0.0016 'International Tables Vol C Tables 4.2.6.8 and 6.1.1.4'
H H 0.0000 0.0000 'International Tables Vol C Tables 4.2.6.8 and 6.1.1.4'
N N 0.0061 0.0033 'International Tables Vol C Tables 4.2.6.8 and 6.1.1.4'
O O 0.0106 0.0060 'International Tables Vol C Tables 4.2.6.8 and 6.1.1.4'
S S 0.1246 0.1234 'International Tables Vol C Tables 4.2.6.8 and 6.1.1.4'
loop_
_geom_angle_atom_site_label_1
_geom_angle_atom_site_label_2
_geom_angle_atom_site_label_3
_geom_angle
C4 O3 C9 113.0(2)
C7 O2 C8 116.9(3)
N1 C6 C7 111.9(2)
N1 C6 C5 103.1(2)
C7 C6 C5 114.3(2)
N1 C2 C1 118.0(3)
N1 C2 S1 122.2(2)
C1 C2 S1 119.8(2)
C2 N1 C6 126.4(2)
C2 N1 C3 122.4(3)
C6 N1 C3 111.1(2)
C4 C5 C6 102.3(2)
O3 C4 C3 107.3(3)
O3 C4 C5 111.7(3)
C3 C4 C5 103.1(2)
N1 C3 C4 104.0(2)
O1 C7 O2 124.5(3)
O1 C7 C6 125.6(3)
O2 C7 C6 109.8(3)
loop_
_geom_bond_atom_site_label_1
_geom_bond_atom_site_label_2
_geom_bond_distance
S1 C2 1.675(3)
O3 C4 1.411(4)
O3 C9 1.418(4)
O2 C7 1.334(4)
O2 C8 1.449(4)
C6 N1 1.463(4)
C6 C7 1.518(4)
C6 C5 1.537(4)
C2 N1 1.321(4)
C2 C1 1.507(4)
N1 C3 1.479(4)
C5 C4 1.525(5)
O1 C7 1.201(4)
C4 C3 1.517(4)
loop_
_geom_hbond_atom_site_label_D
_geom_hbond_atom_site_label_H
_geom_hbond_atom_site_label_A
_geom_hbond_distance_DH
_geom_hbond_distance_HA
_geom_hbond_distance_DA
_geom_hbond_angle_DHA
_geom_hbond_site_symmetry_A
C3 H3A O2 0.97 2.41 3.377(4) 176.1 1_565
C1 H1C O1 0.96 2.57 3.159(4) 120.0 .
C1 H1A S1 0.96 3.01 3.904(4) 154.7 1_545
C6 H6 S1 0.98 2.90 3.765(3) 148.0 1_545
loop_
_geom_torsion_atom_site_label_1
_geom_torsion_atom_site_label_2
_geom_torsion_atom_site_label_3
_geom_torsion_atom_site_label_4
_geom_torsion
C1 C2 N1 C6 4.2(4)
S1 C2 N1 C6 -175.7(2)
C1 C2 N1 C3 178.5(3)
S1 C2 N1 C3 -1.5(4)
C7 C6 N1 C2 -78.3(4)
C5 C6 N1 C2 158.4(3)
C7 C6 N1 C3 106.9(3)
C5 C6 N1 C3 -16.4(3)
N1 C6 C5 C4 34.7(3)
C7 C6 C5 C4 -87.0(3)
C9 O3 C4 C3 -167.5(3)
C9 O3 C4 C5 80.1(3)
C6 C5 C4 O3 74.5(3)
C6 C5 C4 C3 -40.4(3)
C2 N1 C3 C4 176.2(3)
C6 N1 C3 C4 -8.7(3)
O3 C4 C3 N1 -87.6(3)
C5 C4 C3 N1 30.5(3)
C8 O2 C7 O1 8.9(5)
C8 O2 C7 C6 -167.6(3)
N1 C6 C7 O1 17.5(4)
C5 C6 C7 O1 134.2(4)
N1 C6 C7 O2 -166.1(2)
C5 C6 C7 O2 -49.4(4)
