#------------------------------------------------------------------------------
#$Date: 2016-02-18 17:37:37 +0200 (Thu, 18 Feb 2016) $
#$Revision: 176729 $
#$URL: svn://www.crystallography.net/cod/cif/1/51/79/1517935.cif $
#------------------------------------------------------------------------------
#
# This file is available in the Crystallography Open Database (COD),
# http://www.crystallography.net/
#
# All data on this site have been placed in the public domain by the
# contributors.
#
data_1517935
loop_
_publ_author_name
'Al Hazmi, Ali M.'
'Sheikh, Nadeem S.'
'Bataille, Carole J. R.'
'Al-Hadedi, Azzam A M'
'Watkin, Sam V.'
'Luker, Tim J.'
'Camp, Nicholas P.'
'Brown, Richard C. D.'
_publ_section_title
;
 trans-2-Tritylcyclohexanol as a Chiral Auxiliary in Permanganate-Mediated
 Oxidative Cyclization of 2-Methylenehept-5-enoates: Application to the
 Synthesis of trans-(+)-Linalool Oxide.
;
_journal_issue                   19
_journal_name_full               'Organic letters'
_journal_page_first              5104
_journal_page_last               5107
_journal_paper_doi               10.1021/ol502454r
_journal_volume                  16
_journal_year                    2014
_chemical_absolute_configuration ad
_chemical_formula_moiety         'C19 H33 N O7 S'
_chemical_formula_sum            'C19 H33 N O7 S'
_chemical_formula_weight         419.52
_chemical_name_systematic
;
 ?
;
_space_group_crystal_system      orthorhombic
_space_group_IT_number           18
_space_group_name_Hall           'P 2 2ab'
_space_group_name_H-M_alt        'P 21 21 2'
_symmetry_space_group_name_Hall  'P 2 2ab'
_symmetry_space_group_name_H-M   'P 21 21 2'
_atom_sites_solution_hydrogens   mixed
_audit_creation_method           SHELXL-2013
_cell_angle_alpha                90
_cell_angle_beta                 90
_cell_angle_gamma                90
_cell_formula_units_Z            4
_cell_length_a                   14.3472(14)
_cell_length_b                   17.3099(13)
_cell_length_c                   8.1910(10)
_cell_measurement_reflns_used    2678
_cell_measurement_temperature    120(2)
_cell_measurement_theta_max      27.48
_cell_measurement_theta_min      2.91
_cell_volume                     2034.2(4)
_computing_cell_refinement
'DENZO (Otwinowski & Minor, 1997) & COLLECT (Hooft, R.W.W., 1998)'
_computing_data_collection       'COLLECT (Hooft, R.W.W., 1998)'
_computing_data_reduction
'DENZO (Otwinowski & Minor, 1997) & COLLECT (Hooft, R.W.W., 1998)'
_computing_structure_refinement  'SHELXL-2013 (Sheldrick, 2013)'
_computing_structure_solution    'SHELXS-97 (Sheldrick, 1997)'
_diffrn_ambient_temperature      120(2)
_diffrn_detector_area_resol_mean 9.091
_diffrn_measured_fraction_theta_full 0.995
_diffrn_measured_fraction_theta_max 0.995
_diffrn_measurement_device_type  'Bruker-Nonius CCD camera on \k-goniostat'
_diffrn_measurement_method       '\f & \w scans to fill the asymmetric unit'
_diffrn_radiation_monochromator  graphite
_diffrn_radiation_source         'Bruker Nonius FR591 Rotating Anode'
_diffrn_radiation_type           MoK\a
_diffrn_radiation_wavelength     0.71073
_diffrn_reflns_av_R_equivalents  0.0410
_diffrn_reflns_av_unetI/netI     0.0374
_diffrn_reflns_Laue_measured_fraction_full 0.995
_diffrn_reflns_Laue_measured_fraction_max 0.995
_diffrn_reflns_limit_h_max       18
_diffrn_reflns_limit_h_min       -18
_diffrn_reflns_limit_k_max       22
_diffrn_reflns_limit_k_min       -22
_diffrn_reflns_limit_l_max       10
_diffrn_reflns_limit_l_min       -10
_diffrn_reflns_number            22254
_diffrn_reflns_point_group_measured_fraction_full 0.997
_diffrn_reflns_point_group_measured_fraction_max 0.994
_diffrn_reflns_theta_full        25.242
_diffrn_reflns_theta_max         27.542
_diffrn_reflns_theta_min         3.689
_exptl_absorpt_coefficient_mu    0.200
_exptl_absorpt_correction_T_max  0.9649
_exptl_absorpt_correction_T_min  0.9135
_exptl_absorpt_correction_type   multi-scan
_exptl_absorpt_process_details
;
SADABS V2.10 (Sheldrick, G.M., 2003)
;
_exptl_crystal_colour            Colourless
_exptl_crystal_density_diffrn    1.370
_exptl_crystal_density_method    'not measured'
_exptl_crystal_description       Slab
_exptl_crystal_F_000             904
_exptl_crystal_size_max          0.46
_exptl_crystal_size_mid          0.42
_exptl_crystal_size_min          0.18
_refine_diff_density_max         0.843
_refine_diff_density_min         -0.784
_refine_diff_density_rms         0.056
_refine_ls_abs_structure_details
;
 Flack x determined using 1679 quotients [(I+)-(I-)]/[(I+)+(I-)]
 (Parsons and Flack (2004), Acta Cryst. A60, s61).
;
_refine_ls_abs_structure_Flack   0.01(2)
_refine_ls_extinction_method     none
_refine_ls_goodness_of_fit_ref   1.048
_refine_ls_hydrogen_treatment    mixed
_refine_ls_matrix_type           full
_refine_ls_number_parameters     265
_refine_ls_number_reflns         4671
_refine_ls_number_restraints     6
_refine_ls_restrained_S_all      1.281
_refine_ls_R_factor_all          0.0462
_refine_ls_R_factor_gt           0.0393
_refine_ls_shift/su_max          0.003
_refine_ls_shift/su_mean         0.000
_refine_ls_structure_factor_coef Fsqd
_refine_ls_weighting_details
'w=1/[\s^2^(Fo^2^)+(0.0510P)^2^+0.8422P] where P=(Fo^2^+2Fc^2^)/3'
_refine_ls_weighting_scheme      calc
_refine_ls_wR_factor_gt          0.0948
_refine_ls_wR_factor_ref         0.0979
_reflns_Friedel_coverage         0.754
_reflns_Friedel_fraction_full    0.999
_reflns_Friedel_fraction_max     0.993
_reflns_number_gt                4213
_reflns_number_total             4671
_reflns_threshold_expression     'I > 2\s(I)'
_cod_data_source_file            ol502454r_si_003.cif
_cod_data_source_block           04sot0540
_cod_database_code               1517935
#BEGIN Tags that were not found in dictionaries:
_shelx_space_group_comment
;
The symmetry employed for this shelxl refinement is uniquely defined
by the following loop, which should always be used as a source of
symmetry information in preference to the above space-group names.
They are only intended as comments.
;
_shelxl_version_number           2013-3
_shelx_res_file
;
TITL 1 in P2(1)2(1)2
CELL  0.71073  14.3472  17.3099   8.1910   90.000   90.000   90.000
ZERR     4.00   0.0014   0.0013   0.0010    0.000    0.000    0.000
LATT  -1
SYMM  - X, - Y,   Z
SYMM  1/2 - X, 1/2 + Y, - Z
SYMM  1/2 + X, 1/2 - Y, - Z
SFAC  C    H    N    O    S
UNIT  76   132  4    28   4
MERG   2
OMIT     2   1   0
OMIT     0   2   1
OMIT    -1   1   1

DFIX 0.84 O1S H1S O1S H2S
DFIX 1.4 H1S H2S
BUMP 0.002
FMAP   2
PLAN    5
SIZE     0.180   0.420   0.460
ACTA
BOND   $H
L.S.   60
TEMP  -153.00

WGHT    0.051000    0.842200
FVAR       0.70019
MOLE    1
C1    1    0.650993    1.148622    0.388902    11.00000    0.02297    0.01776 =
         0.02572    0.00333   -0.00225    0.00125
AFIX 137
H1A   2    0.682537    1.179784    0.472121    11.00000   -1.50000
H1B   2    0.587518    1.136734    0.425261    11.00000   -1.50000
H1C   2    0.648425    1.177557    0.286163    11.00000   -1.50000
AFIX   0
C2    1    0.661106    1.026720    0.227040    11.00000    0.03834    0.02349 =
         0.02301    0.00102   -0.00957    0.00101
AFIX 137
H2A   2    0.663212    1.056165    0.124916    11.00000   -1.50000
H2B   2    0.596155    1.014980    0.254536    11.00000   -1.50000
H2C   2    0.695928    0.978421    0.213774    11.00000   -1.50000
AFIX   0
C3    1    0.704402    1.073991    0.362835    11.00000    0.01818    0.01733 =
         0.01888    0.00167   -0.00179   -0.00091
C4    1    0.708217    1.026774    0.521047    11.00000    0.01908    0.01827 =
         0.01753    0.00013   -0.00035    0.00259
AFIX  13
H4    2    0.643364    1.013253    0.555460    11.00000   -1.20000
AFIX   0
C5    1    0.759791    1.063145    0.664901    11.00000    0.02829    0.02543 =
         0.02272   -0.00362   -0.00573    0.00504
AFIX  23
H5A   2    0.772101    1.118605    0.644729    11.00000   -1.20000
H5B   2    0.723362    1.057850    0.766938    11.00000   -1.20000
AFIX   0
C6    1    0.850636    1.017643    0.675033    11.00000    0.02192    0.02075 =
         0.02440    0.00108   -0.00341   -0.00442
AFIX  23
H6A   2    0.873226    1.014199    0.789005    11.00000   -1.20000
H6B   2    0.899677    1.041372    0.606369    11.00000   -1.20000
AFIX   0
C7    1    0.822544    0.938499    0.609962    11.00000    0.01466    0.01904 =
         0.01626    0.00292   -0.00225   -0.00122
C8    1    0.902530    0.890731    0.536255    11.00000    0.01719    0.02696 =
         0.02260    0.00806    0.00327    0.00117
AFIX  23
H8A   2    0.945717    0.875402    0.624779    11.00000   -1.20000
H8B   2    0.876443    0.842934    0.488114    11.00000   -1.20000
AFIX   0
C9    1    0.780498    0.888296    0.746012    11.00000    0.01386    0.01781 =
         0.01928    0.00038    0.00125    0.00065
C10   1    0.667298    0.799867    0.865322    11.00000    0.01928    0.01926 =
         0.01116    0.00336    0.00119   -0.00143
AFIX  13
H10A  2    0.715423    0.759188    0.885540    11.00000   -1.20000
AFIX   0
C11   1    0.573990    0.761881    0.818868    11.00000    0.01752    0.01395 =
         0.01458   -0.00091    0.00117   -0.00074
C12   1    0.576039    0.746947    0.636787    11.00000    0.02214    0.01550 =
         0.01642   -0.00004    0.00207   -0.00304
AFIX  23
H12A  2    0.511972    0.747574    0.591915    11.00000   -1.20000
H12B  2    0.604094    0.695814    0.614055    11.00000   -1.20000
AFIX   0
C13   1    0.645131    0.842953    1.026057    11.00000    0.02578    0.02369 =
         0.01439   -0.00254    0.00065   -0.00481
AFIX  23
H13A  2    0.689249    0.828421    1.113769    11.00000   -1.20000
H13B  2    0.646844    0.899655    1.010549    11.00000   -1.20000
AFIX   0
C14   1    0.545373    0.814611    1.064439    11.00000    0.02674    0.02222 =
         0.01627   -0.00178    0.00734   -0.00075
AFIX  13
H14   2    0.512325    0.845775    1.149390    11.00000   -1.20000
AFIX   0
C15   1    0.550596    0.727593    1.102597    11.00000    0.02757    0.02526 =
         0.01828    0.00445    0.00452    0.00007
AFIX  23
H15A  2    0.491724    0.708908    1.151745    11.00000   -1.20000
H15B  2    0.602817    0.716041    1.177732    11.00000   -1.20000
AFIX   0
C16   1    0.567124    0.690465    0.931315    11.00000    0.02574    0.01713 =
         0.01824    0.00389    0.00241   -0.00169
AFIX  23
H16A  2    0.625494    0.659977    0.929314    11.00000   -1.20000
H16B  2    0.514382    0.656801    0.899492    11.00000   -1.20000
AFIX   0
C17   1    0.498667    0.816613    0.894303    11.00000    0.02064    0.01524 =
         0.02062    0.00027    0.00525    0.00006
C18   1    0.491033    0.898417    0.824199    11.00000    0.02415    0.01622 =
         0.02862    0.00175    0.00779    0.00556
AFIX 137
H18A  2    0.463423    0.896086    0.714876    11.00000   -1.50000
H18B  2    0.553271    0.921523    0.817420    11.00000   -1.50000
H18C  2    0.451521    0.929974    0.895455    11.00000   -1.50000
AFIX   0
C19   1    0.400113    0.781955    0.889488    11.00000    0.02316    0.02699 =
         0.02799    0.00304    0.00488    0.00000
AFIX 137
H19A  2    0.356406    0.817341    0.942984    11.00000   -1.50000
H19B  2    0.399915    0.732230    0.946688    11.00000   -1.50000
H19C  2    0.381159    0.774190    0.775721    11.00000   -1.50000
AFIX   0
N1    3    0.696591    0.849923    0.725677    11.00000    0.01552    0.01752 =
         0.01129    0.00081   -0.00006   -0.00015
O1    4    0.797694    1.096352    0.319303    11.00000    0.02265    0.02121 =
         0.03269    0.00288    0.00977   -0.00159
AFIX 147
H1    2    0.824908    1.058960    0.274576    11.00000   -1.50000
AFIX   0
O2    4    0.758689    0.956893    0.484329    11.00000    0.01641    0.01861 =
         0.01610    0.00167   -0.00204    0.00325
O3    4    0.953025    0.930438    0.415598    11.00000    0.02018    0.03994 =
         0.03129    0.01320    0.00749    0.00348
AFIX 147
H3    2    0.920815    0.967234    0.379724    11.00000   -1.50000
AFIX   0
O4    4    0.822134    0.881661    0.875569    11.00000    0.02193    0.03091 =
         0.01760    0.00542   -0.00575   -0.00496
O5    4    0.583810    0.880942    0.484456    11.00000    0.01735    0.02036 =
         0.02150    0.00555   -0.00494   -0.00102
O6    4    0.713645    0.790277    0.438440    11.00000    0.02319    0.02505 =
         0.01398   -0.00063    0.00371    0.00067
S1    5    0.644237    0.821604    0.545654    11.00000    0.01689    0.01565 =
         0.01254    0.00042   -0.00116   -0.00048
MOLE    2
O1S   4    0.904094    0.979878    0.115539    11.00000    0.02913    0.03067 =
         0.02903   -0.00322   -0.00995    0.00001
H1S   2    0.876026    0.949825    0.039982    11.00000   -1.50000
H2S   2    0.953013    0.953507    0.131376    11.00000   -1.50000
HKLF    4

REM  1 in P2(1)2(1)2
REM R1 =  0.0393 for    4213 Fo > 4sig(Fo)  and  0.0462 for all    4671 data
REM    265 parameters refined using      6 restraints

END

WGHT      0.0520      0.8870

REM Highest difference peak  0.843,  deepest hole -0.784,  1-sigma level  0.056
Q1    1   0.7443  0.9421  0.4893  11.00000  0.05    0.84
Q2    1   0.6451  1.0286  0.6204  11.00000  0.05    0.40
Q3    1   0.9615  0.9967  0.0871  11.00000  0.05    0.24
Q4    1   0.6216  0.7792  0.8354  11.00000  0.05    0.22
Q5    1   0.5441  0.7896  0.8596  11.00000  0.05    0.21
;
_shelx_res_checksum              94508
_shelx_hkl_file
;
   0   0   2 4990.07  167.75
   0   0  -2 5159.87  133.29
   0   0  -2 4958.14  170.69
   0   0   2 4875.48  160.78
   0   0   2 4984.80  154.73
   0   0  -2 5035.50  142.93
   0   0   3 3786.12  137.85
   0   0  -3 3709.00  112.17
   0   0  -3 3832.92  209.40
   0   0  -3 3856.17  119.51
   0   0   3 3713.08  123.07
   0   0   3 3836.31  115.54
   0   0   4  959.39   29.18
   0   0   4  907.28   31.14
   0   0  -4  905.22   35.01
   0   0  -4  927.43   45.74
   0   0   4  915.98   28.99
   0   0  -4  947.58   30.99
   0   0   5 1945.71   75.74
   0   0   5 2010.70   62.16
   0   0  -5 2030.54  109.61
   0   0   5 2048.40   71.94
   0   0  -5 1926.17   76.99
   0   0  -5 2002.00   84.61
   0   0  -6   30.58    5.98
   0   0   6   15.40    4.97
   0   0   6   17.28    3.66
   0   0   6   23.64    4.64
   0   0  -6   17.87    5.43
   0   0  -6   26.67    5.33
   0   0  -7    4.69    5.56
   0   0  -7    4.01    8.90
   0   0   7    1.17    4.75
   0   0  -7    2.66    5.07
   0   0   7   -0.08    7.28
   0   0   7    1.46    4.63
   0   0   8   40.88   10.28
   0   0  -8   28.73   12.45
   0   0   8   40.13    7.85
   0   0   8   34.69    7.66
   0   0  -8   41.46    7.10
   0   0   9  218.22   15.75
   0   0  -9  262.33   18.86
   0   0   9  218.22   17.20
   0   0  10  103.99   16.02
  -1   0  -2  814.88   25.25
  -1   0   2  824.47   29.39
   1   0  -2  801.04   25.95
  -1   0  -2  816.05   29.84
  -1   0  -2  844.10   25.12
   1   0  -2  832.20   22.38
   1   0   2  809.74   49.04
   1   0   2  798.55   25.69
  -1   0   2  843.37   23.20
   1   0  -2  809.17   27.64
   1   0   2  845.14   26.63
  -1   0   2  807.54   26.81
   1   0   3  839.03   27.26
  -1   0  -3  855.97   32.31
   1   0  -3  834.89   30.12
  -1   0   3  836.45   29.17
  -1   0  -3  835.97   27.84
   1   0   3  839.43   29.06
   1   0  -3  877.91   25.01
  -1   0   3  796.47   26.08
  -1   0  -3  807.46   27.24
  -1   0   3  797.62   25.33
   1   0  -3  827.22   28.98
   1   0   3  818.95   25.99
   1   0  -4  309.46   13.22
  -1   0   4  281.83   11.67
  -1   0   4  316.65   10.97
   1   0   4  292.60   11.30
   1   0   4  315.88   12.13
   1   0   4  300.58   14.09
  -1   0  -4  302.59   12.10
   1   0  -4  303.69   12.81
  -1   0  -4  296.33    9.74
  -1   0   4  296.42   13.42
   1   0  -4  305.74   11.09
  -1   0  -4  307.89   16.99
   1   0   5   32.44    5.19
  -1   0  -5   28.80    4.36
  -1   0   5   25.33    5.97
  -1   0  -5   25.86    3.47
  -1   0  -5   29.30    6.53
   1   0   5   23.80    3.60
   1   0  -5   27.03    4.76
  -1   0   5   20.52    3.83
   1   0  -5   27.03    4.61
   1   0  -5   27.08    5.23
  -1   0   5   27.64    5.64
   1   0   5   29.46    5.03
   1   0   6  300.69   14.90
   1   0   6  284.24   12.15
   1   0   6  285.05   16.19
  -1   0   6  273.21   13.52
  -1   0   6  281.01   14.52
  -1   0   6  282.54   15.73
   1   0  -6  316.23   17.22
  -1   0  -6  291.18   15.34
  -1   0  -6  294.71   17.35
  -1   0  -6  302.74   17.37
   1   0  -6  297.82   14.75
   1   0  -6  286.82   16.36
  -1   0   7    9.07    7.39
   1   0  -7   15.29    6.70
  -1   0  -7    8.35    3.24
  -1   0  -7    4.65    7.69
   1   0  -7    6.87    4.23
  -1   0   7    4.58    5.40
   1   0   7   14.34    7.79
   1   0   7   11.83    5.43
  -1   0  -7   19.79    9.18
  -1   0   7   16.86    5.24
   1   0  -7   -3.24    7.82
   1   0   7    9.60    4.77
  -1   0   8   15.01    8.32
  -1   0   8    0.42    9.99
   1   0  -8   -1.38    6.76
   1   0  -8    5.53    7.82
  -1   0  -8   -1.69    6.77
  -1   0  -8    9.42    6.37
   1   0   8   -8.67    6.88
   1   0   8    0.72    7.24
  -1   0   8    8.58   10.04
  -1   0   9   12.19    8.14
  -1   0  -9   12.53    6.12
   1   0  -9   14.94    8.42
   1   0   9   -6.01   11.16
  -1   0   9   11.19    9.30
   1   0   9   16.79    7.91
   1   0  10    7.53   11.99
  -2   0   1 9885.90  308.69
   2   0   1 9704.96  358.59
  -2   0  -1 9660.58  284.44
   2   0  -1 7825.37  445.90
  -2   0   1 9998.64  294.55
   2   0   1 8526.83  448.36
  -2   0  -2  526.46   17.58
  -2   0   2  527.82   16.12
   2   0   2  514.14   16.61
   2   0  -2  518.54   29.28
   2   0  -2  530.67   18.33
   2   0   2  510.65   17.00
   2   0  -2  529.08   20.68
  -2   0  -2  528.63   18.08
  -2   0   2  535.60   18.75
  -2   0  -3  595.74   18.80
  -2   0  -3  613.56   25.26
   2   0   3  600.73   18.86
   2   0  -3  611.92   18.05
   2   0  -3  615.44   18.04
  -2   0   3  602.63   18.75
   2   0  -3  598.85   25.96
  -2   0   3  606.49   22.08
   2   0   3  596.51   20.58
  -2   0  -3  620.03   17.49
  -2   0   3  575.94   33.32
  -2   0  -4 1338.42   39.89
   2   0   4 1360.60   40.71
   2   0  -4 1333.88   56.31
  -2   0   4 1248.32   51.60
   2   0  -4 1285.40   39.06
   2   0  -4 1339.54   42.47
  -2   0  -4 1288.18   67.40
   2   0   4 1305.72   49.47
  -2   0  -4 1262.34   37.79
  -2   0   4 1338.72   42.06
  -2   0   4 1307.60   41.81
   2   0  -5  175.52   11.49
   2   0   5  170.70    8.05
   2   0  -5  164.41   10.45
  -2   0   5  155.46   10.25
   2   0   5  175.77    8.34
  -2   0   5  160.26    9.61
  -2   0   5  167.98    8.61
  -2   0  -5  169.93    8.37
  -2   0  -5  189.42   10.74
   2   0  -5  169.81   10.45
  -2   0  -5  159.41   10.69
  -2   0   6  209.84   11.47
   2   0  -6  207.87   12.70
  -2   0   6  203.90   11.99
  -2   0  -6  207.44    9.31
  -2   0  -6  212.65   12.74
   2   0  -6  199.46   14.56
  -2   0   6  225.44   12.43
   2   0   6  223.05   13.88
   2   0  -6  239.56   18.00
   2   0   6  219.70   11.20
  -2   0  -6  229.89   15.91
  -2   0  -7   65.53    7.34
  -2   0   7   61.60   10.85
  -2   0  -7   59.78    6.74
   2   0   7   65.55    9.37
  -2   0  -7   43.99   10.11
  -2   0   7   41.52    7.69
   2   0  -7   29.42   10.12
   2   0  -7   51.23    6.76
  -2   0   7   51.98    7.29
   2   0   7   54.32    7.56
   2   0   8  126.64   13.45
  -2   0  -8  114.62    9.90
   2   0   8  132.03   14.34
   2   0  -8   96.37   13.93
   2   0  -8  123.36   12.79
  -2   0  -8   99.20   11.21
  -2   0   8  111.51    9.61
  -2   0   8  102.96   11.12
  -2   0   8   94.93   13.51
   2   0   9   38.68    8.51
   2   0   9   42.81   11.89
  -2   0  -9   38.14    7.73
   2   0  -9   37.67    7.93
  -2   0   9   21.65   12.86
   2   0 -10   90.76   11.31
  -2   0  10  105.33   18.36
  -3   0   0    1.24    1.77
  -3   0   0   -0.40    1.11
   3   0   0    0.73    1.71
   3   0  -1 2476.72   86.95
  -3   0   1 2450.34   71.60
   3   0   1 2426.16   81.99
  -3   0  -1 2391.64   80.17
  -3   0  -1 2450.87   86.23
  -3   0   1 2471.14   89.73
   3   0   1 2309.34   85.58
  -3   0   2  115.31    6.36
   3   0   2  118.76    4.76
   3   0  -2  108.17    6.41
  -3   0  -2  114.83    5.20
   3   0   2  124.06    6.84
  -3   0   2  102.96    5.60
  -3   0  -2  108.22    5.60
   3   0  -2  111.24    6.33
  -3   0   3  244.19   10.39
  -3   0  -3  243.80   10.70
   3   0  -3  243.60   10.18
   3   0  -3  249.12    9.63
   3   0  -3  246.70   12.33
  -3   0  -3  266.31   11.97
  -3   0  -3  260.57    8.30
   3   0   3  271.39    9.54
  -3   0   3  241.66   10.07
   3   0   3  246.10   14.63
  -3   0   4   65.89    6.68
   3   0  -4   59.31    5.91
  -3   0   4   76.69    6.09
  -3   0  -4   62.07    4.07
   3   0   4   66.59    4.83
  -3   0  -4   67.70    4.95
  -3   0  -4   72.47    5.47
   3   0   4   66.10    7.03
   3   0  -4   62.26    4.96
   3   0  -4   61.91    5.66
  -3   0  -5  510.67   19.20
   3   0  -5  471.53   21.38
  -3   0   5  508.73   23.10
  -3   0  -5  511.02   24.09
   3   0   5  510.10   24.17
  -3   0   5  483.19   17.76
   3   0   5  498.92   18.84
   3   0  -5  476.58   25.76
   3   0  -5  485.60   22.98
  -3   0  -5  471.51   19.06
   3   0   6 1308.04   46.87
   3   0  -6 1313.74   62.69
  -3   0   6 1269.05   41.38
  -3   0  -6 1271.70   53.71
  -3   0  -6 1328.28   52.64
  -3   0  -6 1303.21   76.30
  -3   0   6 1331.40   72.17
   3   0   6 1317.32   42.32
   3   0  -6 1286.40   51.02
   3   0  -6 1330.63   70.91
   3   0  -7  493.65   26.30
   3   0   7  521.37   26.18
   3   0   7  483.91   18.33
  -3   0   7  470.60   25.15
  -3   0  -7  478.86   23.23
   3   0  -7  487.07   30.47
  -3   0  -7  455.28   24.39
  -3   0   7  502.29   27.47
  -3   0  -8  155.79   11.19
  -3   0   8  144.80   14.69
   3   0  -8  164.98   13.75
   3   0   8  149.97   12.81
   3   0  -8  123.30   20.33
   3   0   8  177.05   14.39
  -3   0   8  174.78   13.33
   3   0   9   42.61   10.19
  -3   0   9   30.71    9.77
   3   0  -9   56.67    8.39
   3   0   9   54.79   12.78
  -3   0  10  104.93   17.69
   3   0 -10   95.58   12.88
   3   0  10   95.04   14.73
  -4   0   0 1187.74   37.89
   4   0   0 1270.40   43.57
  -4   0   0 1255.04   35.29
   4   0   1    4.30    1.34
   4   0   1    3.50    1.91
   4   0   1    5.57    1.19
  -4   0   1    5.17    2.26
  -4   0  -1    4.36    1.35
   4   0  -1    7.57    2.21
  -4   0  -1    4.25    1.87
   4   0  -2  893.73   29.39
  -4   0  -2  881.65   28.65
  -4   0   2  890.25   41.07
  -4   0  -2  899.02   35.29
  -4   0  -2  877.95   29.42
  -4   0   2  958.62   37.54
   4   0   2  914.17   25.84
   4   0   2  886.14   37.71
  -4   0   3   73.18    6.33
   4   0   3   89.63    6.06
  -4   0   3   80.59    6.24
   4   0  -3   87.60    6.25
  -4   0  -3   85.09    5.13
   4   0   3   86.38    4.84
   4   0  -3   79.62    6.66
   4   0  -3   85.04    5.60
  -4   0  -3   89.29    4.97
  -4   0  -4   -0.89    2.49
   4   0  -4    2.27    2.81
  -4   0   4   -2.09    3.84
   4   0  -4   -2.55    3.91
  -4   0  -4    0.39    3.17
   4   0  -4   -1.34    5.82
   4   0   4    1.46    2.34
  -4   0  -4    1.77    1.48
   4   0   4    1.50    3.43
  -4   0   4    6.10    3.97
   4   0  -5   63.42    7.84
  -4   0   5   51.45    7.13
  -4   0   5   56.49    7.69
  -4   0  -5   56.56    6.05
  -4   0  -5   48.96    4.36
   4   0   5   58.32    5.66
   4   0   5   59.06    7.20
  -4   0  -5   46.79    7.46
   4   0  -5   57.31    5.75
   4   0  -5   56.04    7.58
  -4   0  -6    6.13    3.48
  -4   0  -6    2.91    2.44
  -4   0  -6    6.31    5.53
   4   0   6   12.63    5.62
   4   0  -6    8.87    6.02
   4   0   6    7.80    5.59
  -4   0   6   -1.16    5.61
   4   0  -6    1.37    8.32
  -4   0   6    6.36    7.33
   4   0  -6   -0.47    6.80
   4   0  -7   86.80    8.16
   4   0   7  109.00    8.56
   4   0  -7   79.76   10.30
  -4   0   7   78.17    9.10
   4   0   7   81.25    6.78
  -4   0  -7   84.09    7.11
  -4   0  -7   89.18   11.12
  -4   0   7   84.58   10.32
   4   0   8    8.03    8.41
   4   0   8    3.58    7.41
   4   0  -8   -1.38    8.07
  -4   0  -8    2.32    3.97
  -4   0   8   -4.51    6.68
   4   0  -9  171.21   16.41
   4   0   9  157.27   14.38
  -4   0   9  158.50   18.71
   4   0 -10   68.32   12.98
  -4   0  10   61.21   16.00
   4   0  10   43.79   11.76
  -5   0   0   -0.44    1.66
   5   0   0   -0.23    1.72
  -5   0   0    5.02    2.20
   5   0  -1  457.55   16.08
  -5   0   1  456.95   16.12
   5   0   1  421.71   15.80
  -5   0  -1  430.81   16.34
   5   0   1  449.55   17.47
   5   0   1  435.13   15.94
  -5   0  -1  455.66   18.60
  -5   0  -2  173.05    7.79
   5   0   2  174.40    8.40
  -5   0  -2  168.79    6.66
   5   0   2  160.87    6.82
  -5   0   2  167.50    8.38
   5   0  -2  173.67    7.61
  -5   0   2  165.89    7.63
   5   0   3 1464.38   50.62
   5   0  -3 1348.81   45.78
  -5   0  -3 1458.68   50.25
   5   0   3 1433.45   61.29
  -5   0  -3 1417.28   74.20
  -5   0   3 1454.17   58.86
  -5   0   3 1356.57   52.58
   5   0   4    7.31    3.28
   5   0   4   10.87    3.59
  -5   0  -4   13.67    4.35
   5   0  -4   13.33    3.80
  -5   0  -4   11.95    2.00
   5   0  -4    6.38    3.64
  -5   0   4   16.01    5.95
  -5   0   4    2.74    4.83
  -5   0  -4   19.38    4.23
  -5   0  -5  150.54    7.63
   5   0   5  151.22    9.56
  -5   0   5  141.30   10.65
  -5   0  -5  145.22   10.18
   5   0  -5  138.30    8.93
   5   0   5  143.97    8.19
  -5   0   5  140.61   10.28
  -5   0  -5  144.42    9.97
   5   0  -5  169.67   11.08
  -5   0  -6  237.36   12.57
  -5   0   6  204.80   11.81
   5   0  -6  225.39   15.41
   5   0  -6  210.89   16.81
  -5   0  -6  239.64   11.56
  -5   0   6  229.98   16.99
   5   0   6  211.16   12.68
   5   0   6  200.63   12.20
  -5   0  -6  223.14   14.39
  -5   0  -7  363.77   18.38
   5   0   7  398.39   20.70
   5   0   7  371.35   21.14
  -5   0   7  357.63   21.20
  -5   0   7  369.74   21.03
   5   0  -7  353.10   21.50
  -5   0  -7  342.99   19.18
   5   0   8    0.96    5.68
  -5   0   8    1.92    8.11
   5   0  -8   11.00    9.06
  -5   0  -8    6.46    4.12
   5   0   8    1.66    6.70
   5   0   9    3.77    8.22
  -5   0   9    1.17   10.68
   5   0  -9    3.13   10.85
  -5   0  10   41.32   18.56
   5   0 -10   31.96   10.40
   5   0  10   20.06   10.27
  -6   0   0   35.29    3.67
   6   0   0   43.80    3.60
  -6   0   0   35.75    3.84
  -6   0  -1  482.11   17.26
   6   0   1  507.21   18.06
  -6   0   1  501.74   20.22
   6   0  -1  507.38   15.65
  -6   0  -1  505.87   21.93
   6   0   1  485.41   17.99
  -6   0  -2  605.11   20.75
  -6   0   2  612.43   24.38
  -6   0  -2  593.56   22.34
  -6   0   2  595.30   22.75
   6   0   2  615.50   20.15
   6   0   2  605.65   22.84
   6   0  -2  597.41   23.05
   6   0  -3  117.77    7.30
  -6   0   3  118.65    7.34
  -6   0   3  107.68    9.45
  -6   0  -3  114.69    7.98
  -6   0  -3  140.35   10.08
   6   0   3  124.32    5.61
   6   0   3  123.48    8.84
  -6   0  -3  128.33    6.60
  -6   0   4  235.36   11.76
   6   0  -4  273.91   13.57
   6   0   4  264.42   12.65
  -6   0  -4  256.51   19.99
  -6   0  -4  266.50    9.58
   6   0   4  264.88   12.70
  -6   0   4  275.40   12.83
  -6   0  -4  241.74   14.44
   6   0  -4  259.13   12.95
  -6   0  -5  314.77   22.95
   6   0  -5  329.14   18.96
   6   0   5  314.71   17.93
  -6   0  -5  312.48   12.83
  -6   0   5  342.84   17.85
  -6   0   5  328.21   17.55
   6   0  -5  348.12   19.45
   6   0   5  294.35   15.64
  -6   0  -5  313.37   11.57
   6   0  -6   74.68    8.65
  -6   0  -6   72.10    9.68
  -6   0   6   79.31    9.73
  -6   0  -6   61.94    6.66
   6   0   6   77.23    7.85
   6   0   6   71.51    8.63
  -6   0   6   89.90   10.38
  -6   0  -6   67.86    5.32
   6   0   7  542.54   28.94
   6   0   7  610.29   43.32
  -6   0   7  558.24   24.43
   6   0  -7  605.32   30.58
  -6   0  -7  574.14   25.25
  -6   0  -7  581.63   31.99
   6   0  -8    6.47    7.78
  -6   0   8    6.10    9.41
   6   0   8   10.26    8.46
  -6   0   9   76.59   12.68
   6   0   9   74.62   11.83
   6   0  -9  104.32   14.53
   6   0  10   38.73   14.09
   6   0 -10   24.83    9.73
  -6   0  10   24.11   19.70
   7   0   0    0.83    2.38
  -7   0   0   -6.72    2.64
  -7   0   0    1.66    2.21
  -7   0   1  159.98    8.51
  -7   0  -1  160.15    7.72
   7   0   1  157.64    7.34
  -7   0  -1  159.14    7.80
   7   0   1  149.76    7.00
   7   0  -1  170.79    8.35
   7   0   2    8.43    2.52
  -7   0  -2   11.58    2.07
  -7   0  -2   12.41    2.38
   7   0  -2    8.25    3.59
   7   0   2   11.93    3.58
  -7   0   2   11.30    5.22
  -7   0   3  788.03   31.43
  -7   0  -3  792.83   44.83
   7   0   3  813.20   26.13
  -7   0   3  814.67   34.63
   7   0   3  838.68   32.54
   7   0  -3  779.47   39.31
  -7   0  -3  787.16   24.62
   7   0  -4 1307.76   47.38
   7   0   4 1411.41   53.03
   7   0  -4 1325.83   53.28
  -7   0   4 1313.07   41.46
  -7   0  -4 1349.43   85.06
  -7   0   4 1390.83   52.62
   7   0   4 1378.96   40.74
  -7   0  -4 1346.36   51.38
  -7   0  -4 1375.59   53.43
  -7   0  -5  611.65   34.94
  -7   0   5  618.22   32.48
  -7   0  -5  593.10   36.97
  -7   0  -5  574.59   21.66
  -7   0   5  582.05   28.32
   7   0   5  607.27   31.47
   7   0  -5  589.01   30.75
   7   0   5  604.62   25.48
  -7   0  -5  597.03   28.10
   7   0  -5  586.43   32.26
   7   0   6  828.11   49.12
   7   0  -6  849.58   40.32
  -7   0  -6  808.02   39.47
   7   0   6  822.01   36.39
  -7   0   6  792.54   33.65
  -7   0  -6  835.98   45.89
  -7   0   7   54.13   11.23
   7   0  -7   47.06   11.77
   7   0   7   48.97    8.93
  -7   0  -7   59.74    5.28
   7   0   7   57.88   10.03
   7   0   8  346.92   21.97
  -7   0   8  307.34   19.80
   7   0  -8  302.19   24.24
   7   0  -9   82.35   15.19
   7   0   9   73.43   13.89
  -7   0   9   94.14   19.90
  -8   0   0  799.35   31.97
  -8   0   0  857.01   26.59
   8   0   0  781.52   33.21
   8   0  -1   59.34    5.78
  -8   0  -1   61.45    5.38
  -8   0   1   52.07    5.56
  -8   0  -1   56.32    4.76
   8   0   1   54.80    4.31
   8   0   1   55.24    6.11
   8   0   2  319.07   17.12
   8   0   2  326.10   15.69
  -8   0  -2  325.68   13.64
  -8   0   2  327.22   15.48
  -8   0   2  318.60   16.07
  -8   0  -2  339.73   14.47
   8   0  -2  292.69   14.84
  -8   0   3  224.91   12.17
   8   0  -3  214.85   14.42
  -8   0  -3  273.74   12.39
   8   0   3  247.96   11.86
   8   0   3  271.66   11.97
  -8   0  -3  247.89   10.51
  -8   0   3  243.78   12.39
  -8   0  -4  515.00   20.48
   8   0   4  516.84   24.80
  -8   0   4  498.52   21.03
   8   0   4  471.22   18.87
  -8   0   4  486.41   24.09
   8   0  -4  486.59   25.85
  -8   0  -4  486.51   22.99
  -8   0  -5   -1.21    1.85
   8   0   5    0.19    2.77
   8   0  -5    1.81    5.28
   8   0   5    3.89    4.85
  -8   0   5  -14.64    6.33
  -8   0  -5    7.64    4.75
  -8   0   5    8.19    5.95
  -8   0  -6  137.61   10.18
  -8   0   6  143.35   14.70
   8   0  -6  133.78   11.42
   8   0   6  126.01    9.98
  -8   0  -6  131.81   10.28
  -8   0  -6  134.94    9.38
   8   0   6  149.07   10.35
   8   0   7   11.30    6.70
  -8   0  -7   14.44    3.56
  -8   0   7   16.19    9.03
   8   0  -7   12.50    6.18
   8   0   7   25.13    9.20
   8   0   8   44.33   10.16
  -8   0   8   23.30   15.31
   8   0  -8   45.56   10.98
  -8   0   9  145.35   21.69
   8   0  -9  157.50   17.80
   8   0   9  155.22   19.81
  -9   0   0    0.88    4.73
   9   0   0    0.11    4.11
  -9   0   0   -0.19    3.31
   9   0   1  130.87    6.92
  -9   0  -1  123.29    8.43
  -9   0  -1  116.74    7.85
  -9   0   1  138.38   10.73
   9   0   1  131.97    8.74
  -9   0   1  136.69    8.50
   9   0  -1  147.17    9.11
   9   0   2 1116.21   38.29
  -9   0   2 1142.96   54.50
  -9   0  -2 1169.46   36.63
  -9   0  -2 1195.06   38.19
  -9   0   2 1124.86   44.78
   9   0  -2 1114.89   45.01
  -9   0  -3   29.73    3.57
  -9   0  -3   25.49    3.22
   9   0  -3   27.86    5.42
  -9   0   3   25.63    5.50
   9   0   3   17.83    5.44
  -9   0   3   21.66    5.57
   9   0   3   28.89    4.96
   9   0   4  464.40   23.64
   9   0  -4  448.98   24.64
  -9   0  -4  440.68   19.45
  -9   0  -4  448.32   19.08
   9   0   4  414.25   20.47
  -9   0   4  463.42   27.57
  -9   0   4  427.27   18.28
  -9   0   5  167.34   16.11
   9   0  -5  236.17   17.71
   9   0   5  198.21   12.48
   9   0   5  200.56   11.36
  -9   0  -5  216.61   12.21
  -9   0  -5  247.75   15.32
  -9   0  -6   -2.38    2.87
  -9   0   6    2.35    8.18
   9   0  -6    2.78    9.41
  -9   0  -6    4.45    2.93
   9   0   6  -13.71    6.56
   9   0   6   -0.96    3.71
  -9   0   7  160.30   17.16
   9   0  -7  164.63   18.45
   9   0   7  143.67   14.35
   9   0  -8    1.61    8.08
   9   0   8   11.79    9.43
  -9   0   8   -4.82    9.34
  -9   0   9   11.14   14.32
   9   0  -9   20.86   10.43
   9   0   9   41.15   14.13
 -10   0   0   19.10    5.44
 -10   0   0   21.96    4.59
  10   0   0   14.23    3.73
 -10   0  -1  153.66    9.54
 -10   0   1  142.73   11.79
 -10   0   1  149.48   11.16
  10   0   1  148.37    9.93
  10   0   1  144.25   10.10
 -10   0  -1  151.18   10.56
  10   0  -1  137.75    9.19
  10   0  -2  618.56   27.59
 -10   0  -2  642.06   27.52
 -10   0  -2  640.44   38.74
 -10   0   2  610.70   23.72
 -10   0   2  638.50   36.95
  10   0   2  586.90   20.72
 -10   0   3   29.27    6.45
  10   0   3   20.88    4.06
 -10   0  -3   26.68    3.48
  10   0   3   32.65    6.22
 -10   0  -3   31.52    4.85
 -10   0   3   23.62    6.38
  10   0  -3   32.57    5.83
  10   0  -4   77.65    8.88
 -10   0  -4   73.14    6.60
 -10   0   4   88.06    9.98
  10   0   4   80.25    8.91
  10   0   4   79.85    7.52
 -10   0  -4   83.74    8.12
 -10   0  -5  167.32   10.71
 -10   0   5  158.01   11.40
  10   0  -5  168.30   12.83
  10   0   5  158.61   13.63
  10   0   5  153.39   11.41
 -10   0  -5  151.67   10.21
  10   0   6    6.99    6.40
 -10   0   6    3.72    8.55
  10   0  -6   18.76   10.36
  10   0   6   16.29    5.98
 -10   0  -6    9.27    2.66
 -10   0   7   -9.98    9.88
  10   0  -7   -7.50    8.20
  10   0   7    4.29   11.50
  10   0  -8  209.05   22.64
 -10   0   8  205.17   21.36
  10   0   8  188.19   18.99
  10   0  -9   12.43   16.10
 -11   0   0    3.49    4.83
  11   0   0   -3.21    3.68
 -11   0   0    3.58    4.59
 -11   0   1  233.58   14.99
  11   0   1  220.58   13.53
 -11   0  -1  247.37   14.04
  11   0  -1  244.07   13.65
 -11   0  -1  252.57   17.23
  11   0   1  220.83   13.38
 -11   0   1  254.15   17.67
 -11   0   2  706.64   43.04
 -11   0   2  740.74   37.90
  11   0   2  675.36   27.37
 -11   0  -2  749.55   31.43
 -11   0  -2  753.28   30.06
  11   0  -2  663.85   31.98
 -11   0   3  144.40   14.65
 -11   0  -3  164.14   10.42
 -11   0  -3  155.00   11.04
  11   0   3  172.45   11.57
  11   0  -3  145.90   10.36
 -11   0   4 1244.10   56.55
  11   0  -4 1242.75   58.31
  11   0   4 1325.76   62.54
  11   0   4 1359.75   54.41
 -11   0  -4 1361.30   69.02
 -11   0  -4 1265.99   88.86
  11   0  -5  398.37   24.41
  11   0   5  429.98   29.45
  11   0   5  417.27   22.44
 -11   0   5  405.42   20.07
 -11   0  -5  389.13   31.46
  11   0  -6  135.38   18.29
  11   0   6  147.03   16.93
 -11   0   6  185.42   19.23
  11   0  -7  196.04   18.58
  11   0   7  170.33   16.96
 -11   0   7  170.93   18.22
  11   0  -8   33.25   14.15
  11   0   8   34.90   11.59
 -11   0   8   17.71   13.21
 -12   0   0  142.54   11.42
  12   0   0  133.79   11.13
 -12   0   0  136.39   10.20
 -12   0   1   95.94   10.28
  12   0  -1   71.10    8.08
 -12   0  -1   70.94    8.16
  12   0   1   88.49    9.80
 -12   0  -1   89.26    9.66
 -12   0   1   84.65    8.47
 -12   0   1   73.67    8.53
  12   0   1  101.12   10.99
 -12   0   2   -4.07    4.70
 -12   0   2   -1.70    5.58
  12   0   2   -0.19    5.51
 -12   0  -2    4.79    3.99
 -12   0  -2    3.91    5.81
  12   0  -2    2.35    5.03
  12   0  -3  460.32   27.86
  12   0   3  463.14   21.87
 -12   0  -3  421.43   28.07
 -12   0  -3  439.66   33.20
 -12   0   3  438.30   23.43
 -12   0  -4  104.89    9.22
 -12   0   4  108.78   10.22
  12   0   4  121.65   10.33
  12   0  -4  128.31   14.94
 -12   0   5   29.05   10.13
  12   0  -5   27.10    8.39
  12   0   5   19.62    9.85
  12   0   5   21.73    7.29
  12   0  -6  231.32   22.17
  12   0   6  243.67   21.05
 -12   0   6  224.78   20.78
  12   0   7   63.86   15.29
  12   0  -7   40.42   12.85
 -12   0   7   63.23   18.20
 -12   0   8  117.19   18.48
  12   0   8  128.68   19.50
 -13   0   0    1.25    5.62
 -13   0   0    9.14    5.80
  13   0   0   -0.77    4.59
  13   0  -1   11.50    6.35
  13   0   1    4.20    7.56
 -13   0  -1    1.85    4.32
  13   0   1    3.27    6.36
 -13   0   1   -0.63    5.77
 -13   0  -1   -1.29    6.78
 -13   0   1    4.64    5.79
 -13   0   2  267.28   16.86
 -13   0  -2  266.60   18.62
 -13   0   2  248.15   21.31
 -13   0  -2  264.25   19.89
  13   0  -2  285.89   16.97
  13   0   2  266.53   20.16
 -13   0  -3  482.27   26.25
 -13   0   3  502.99   32.37
  13   0   3  521.18   33.43
  13   0  -3  457.04   26.64
 -13   0   4  117.03   10.75
  13   0  -4  113.04   12.91
  13   0   4  143.84   15.13
  13   0  -5   -0.88    7.71
 -13   0   5   -5.78    8.73
  13   0   5   14.88    8.19
  13   0   6  -16.86   11.76
 -13   0   6   -1.93    9.10
  13   0  -6   18.61   12.10
  13   0  -7   21.80   12.69
 -13   0   7   45.23   16.76
  13   0   7   14.36   10.74
 -14   0   0  647.36   35.49
  14   0   0  666.70   42.88
 -14   0   0  574.37   43.12
  14   0   1  372.25   20.44
  14   0   1  371.78   24.08
  14   0  -1  331.43   25.37
 -14   0   1  308.98   36.38
 -14   0   1  334.36   20.55
 -14   0  -1  293.95   25.38
  14   0  -2   33.03    7.53
  14   0   2   40.36    8.82
 -14   0   2   36.99    8.87
 -14   0  -2   46.61    8.54
 -14   0  -3   -3.35    5.34
  14   0  -3   -3.63    7.90
 -14   0   3   -6.75    6.57
  14   0   3   -2.01    6.29
  14   0  -4  185.86   17.78
 -14   0   4  155.47   14.32
  14   0   4  161.55   15.56
  14   0   5   19.23   11.07
  14   0  -5   15.26    9.43
 -14   0   5   18.59    9.74
 -14   0   6   21.63   11.91
  14   0  -6    0.56   12.31
  14   0   6   -0.25   10.44
  14   0   7    8.98   16.71
 -14   0   7   -0.16   19.35
 -15   0   0    0.04    6.40
  15   0   0    8.31    8.16
  15   0   0    3.24    6.57
 -15   0   1  233.63   18.17
  15   0  -1  239.15   19.55
  15   0   1  223.00   21.49
  15   0  -2   59.41   14.96
  15   0   2   48.82   10.16
 -15   0   2   52.07    9.05
  15   0  -3   -1.60    8.25
  15   0   3    1.39    7.42
 -15   0   3   -5.42   10.83
 -15   0   4    1.91   13.28
  15   0   4    8.53    9.11
  15   0  -4    9.67   11.04
  15   0   5  154.00   19.26
 -15   0   5  111.17   19.18
  15   0  -5  120.30   15.31
 -15   0   6   18.67   16.98
  15   0   6    5.51   14.06
  16   0   0  149.27   15.82
  16   0   0  114.31   17.15
 -16   0   0  161.14   13.98
  16   0  -1  133.20   12.19
 -16   0   1  122.93   14.51
  16   0   1  125.61   15.43
 -16   0   2   49.77   10.11
  16   0   2   47.23   11.05
  16   0  -2   42.10   10.66
 -16   0   3   32.48   11.92
  16   0   3   11.43   10.81
  16   0  -3   37.26   10.40
 -16   0   4   68.15   14.80
  16   0   4   70.33   14.43
  16   0  -4   48.35   12.88
 -16   0   5    0.65   13.14
  16   0   5   10.64   16.00
  17   0   0   12.29   12.17
  17   0   0    4.53   12.98
 -17   0   0   -2.80    8.27
 -17   0   1   -2.42    8.58
  17   0   1    8.41   14.87
 -17   0  -1   12.05   10.57
  17   0  -1    8.08    9.00
  17   0  -2   12.72   12.46
 -17   0   2   -8.24    8.10
  17   0   2   13.89   13.57
  17   0  -3    0.27   12.17
  17   0   3   15.21   13.47
 -17   0   3   -1.26   15.36
  17   0   4    0.50   16.21
  18   0   0   76.87   14.55
 -18   0   0   82.97   14.63
  18   0   1  421.67   32.53
  18   0  -1  365.30   30.30
  18   0  -1  370.53   35.86
 -18   0   1  439.27   34.94
 -18   0  -1  390.05   35.80
  18   0   2   84.93   13.64
 -18   0  -2  107.88   17.92
 -18   0   2   94.46   17.44
  18   0  -2  123.91   21.22
   0  -1  -2    1.38    1.49
   0  -1   2    4.36    1.93
   0   1  -2    3.32    1.55
   0  -1  -2    2.57    1.80
   0   1  -2    1.35    1.41
   0   1   2    1.63    2.16
   0  -1  -2   -0.55    1.92
   0   1  -2    0.87    1.35
   0  -1   2    3.12    1.53
   0   1   2    1.18    1.95
   0   1   2    3.08    2.08
   0  -1   2    1.97    1.37
   0   1  -3  382.55   12.68
   0  -1  -3  388.78   14.28
   0   1   3  376.76   14.48
   0  -1   3  390.12   16.83
   0   1  -3  374.83   12.40
   0  -1  -3  398.88   13.64
   0  -1   3  356.35   12.24
   0  -1  -3  382.63   12.84
   0   1   3  380.55   14.93
   0   1   3  403.44   15.11
   0  -1   3  371.57   21.40
   0   1  -3  385.88   13.43
   0  -1  -4   78.96    5.68
   0   1  -4   83.77    4.75
   0  -1   4   81.43    5.04
   0   1   4   75.80    5.39
   0   1   4   82.18    6.38
   0  -1  -4   65.06    5.40
   0   1   4   69.92    5.04
   0  -1   4   75.75    6.24
   0  -1  -4   74.19    7.23
   0   1  -4   77.95    6.67
   0  -1   4   72.45    4.27
   0   1  -4   81.91    6.90
   0  -1  -5   69.72    7.39
   0  -1   5   58.66    4.40
   0  -1   5   53.93    5.54
   0  -1  -5   55.22    7.36
   0   1   5   49.19    6.46
   0  -1   5   57.50    4.98
   0   1  -5   55.15    6.76
   0   1  -5   59.14    4.76
   0  -1  -5   61.95    4.35
   0   1   5   54.96    5.62
   0   1   5   58.29    6.13
   0   1  -5   53.00    6.43
   0  -1   6  399.69   14.75
   0   1   6  395.52   16.51
   0  -1  -6  419.65   18.17
   0   1  -6  415.86   20.66
   0  -1   6  412.47   20.61
   0  -1   6  422.20   19.15
   0  -1  -6  409.76   26.33
   0  -1  -6  439.47   24.05
   0   1   6  393.02   19.88
   0   1  -6  392.42   18.14
   0   1   6  402.69   19.56
   0   1  -6  414.28   23.95
   0   1   7   44.00    7.42
   0   1  -7   33.60    6.74
   0  -1   7   44.01    7.65
   0  -1   7   39.66    9.09
   0   1   7   45.20    6.35
   0   1   7   24.21    6.05
   0   1  -7   40.04    6.03
   0  -1  -7   41.61    8.19
   0  -1   7   40.73    5.60
   0   1  -7   39.71    7.08
   0  -1  -7   28.24    5.53
   0   1   8    7.85    8.82
   0  -1  -8   10.82    5.51
   0   1  -8   -1.04    4.35
   0  -1  -8    0.67    7.76
   0  -1   8   -0.97    5.65
   0  -1   8   13.99    9.08
   0   1  -8   -2.93    8.96
   0  -1   8    9.03    6.54
   0   1   8    9.32    9.54
   0   1   9   23.35    9.25
   0  -1   9   29.48   11.74
   0   1  -9   37.17    6.40
   0  -1  -9   43.29    8.47
   0   1   9   23.87    9.13
   0  -1   9   23.93   12.41
   0  -1  10   27.62   11.27
   0   1  10   22.97   10.97
   1  -1   1 2056.32  187.01
   1   1   2  336.51   12.00
  -1   1   2  334.57   11.84
  -1  -1  -2  348.83   10.62
   1  -1   2  330.23   13.14
  -1  -1   2  344.74   14.18
  -1  -1  -2  345.30   11.52
   1  -1   2  343.56   13.05
   1   1  -2  338.64   10.15
  -1  -1   2  321.63   10.41
  -1   1  -2  334.60   11.16
  -1  -1   2  346.00   12.12
   1  -1   2  339.51   13.27
   1   1   2  342.44   13.00
  -1   1   2  352.11   12.47
   1   1  -2  321.13   12.52
   1  -1  -2  339.35   11.10
  -1   1   2  352.93   11.16
   1   1  -2  336.27   11.10
  -1   1  -2  336.76   12.87
  -1   1  -2  337.53   11.76
   1  -1  -2  332.40   12.36
   1  -1  -2  355.74    9.82
  -1  -1  -2  343.60   12.44
   1   1   3  480.54   14.95
   1   1   3  478.44   14.85
   1  -1   3  494.77   14.47
   1  -1  -3  455.49   17.96
   1  -1  -3  439.80   15.88
  -1  -1   3  455.59   16.97
   1  -1   3  474.06   21.99
   1  -1   3  486.20   13.85
  -1   1  -3  474.84   18.33
  -1  -1  -3  478.98   16.31
   1   1  -3  467.99   16.39
  -1   1   3  469.35   18.35
  -1   1   3  500.15   29.71
   1  -1  -3  452.68   15.69
  -1  -1   3  452.99   20.84
  -1   1  -3  455.88   15.94
  -1  -1  -3  482.56   20.26
  -1  -1   3  485.70   17.91
  -1   1   3  464.80   15.57
   1   1  -3  487.71   15.65
   1   1  -3  486.06   17.80
   1   1   3  463.10   16.91
  -1  -1  -3  500.79   31.25
  -1   1  -3  464.49   17.22
   1  -1  -4  923.64   32.59
  -1   1   4  979.47   29.75
   1  -1  -4 1017.03   60.06
   1  -1   4  989.99   29.11
   1  -1   4  990.48   37.59
   1   1   4  952.24   28.94
   1   1  -4 1035.08   55.08
   1   1  -4 1017.89   47.78
   1  -1  -4  984.87   35.12
  -1  -1  -4 1041.99   53.57
  -1   1  -4  998.61   37.08
  -1   1   4 1024.53   31.06
  -1   1  -4  951.27   35.94
  -1  -1   4  990.49   28.79
  -1  -1   4  980.75   32.94
   1   1   4  979.35   31.14
   1  -1   4  997.03   26.08
  -1  -1  -4 1009.98   32.42
  -1  -1  -4 1043.38   32.24
  -1  -1   4  946.82   31.92
   1   1  -4  945.39   26.23
  -1   1  -4  977.09   46.63
  -1   1   4  988.22   30.67
   1   1   4 1013.75   32.14
  -1   1  -5   28.84    3.97
   1   1  -5   34.60    5.71
   1   1   5   33.06    3.96
  -1   1   5   33.59    6.38
  -1   1  -5   36.52    5.14
   1  -1  -5   22.74    4.54
   1   1  -5   37.13    4.11
  -1  -1  -5   34.41    5.33
  -1  -1   5   31.39    5.46
  -1   1   5   21.55    4.62
   1  -1  -5   39.44    5.88
   1   1   5   30.76    4.49
  -1  -1   5   34.66    3.76
   1  -1  -5   33.99    5.14
  -1  -1  -5   29.48    5.49
  -1  -1  -5   29.09    4.08
   1  -1   5   24.80    4.18
  -1   1   5   19.29    6.18
  -1  -1   5   26.99    5.72
  -1   1  -5   27.52    4.82
   1   1  -5   27.34    5.14
   1   1   5   29.94    4.75
   1  -1   5   28.90    5.52
   1  -1   5   26.30    4.13
   1   1   6  280.36   14.07
  -1   1   6  282.68   16.98
  -1   1  -6  260.07   17.64
   1  -1  -6  274.37   15.32
   1  -1   6  295.53   14.79
  -1   1   6  294.30   14.54
   1   1  -6  287.42   15.14
  -1  -1  -6  291.46   18.74
   1   1   6  268.33   17.97
   1   1  -6  267.83   15.55
  -1  -1  -6  268.60   14.66
  -1   1  -6  281.53   12.68
  -1   1   6  302.44   17.91
   1  -1  -6  294.33   16.12
  -1  -1  -6  274.27   13.68
   1  -1   6  252.91   13.64
  -1   1  -6  288.76   16.00
   1   1  -6  290.22   17.67
   1  -1  -6  297.08   22.25
  -1  -1   6  283.47   12.92
  -1  -1   6  288.57   12.85
  -1  -1   6  254.09   14.07
   1  -1   6  280.33   13.15
  -1  -1   7   30.57    6.93
  -1   1   7   49.65    6.67
  -1   1  -7   38.30    7.80
  -1  -1  -7   38.95    6.94
   1  -1   7   32.22    8.06
  -1   1  -7   35.76    5.76
   1  -1   7   34.85    8.56
  -1  -1  -7   43.21    6.00
  -1  -1   7   39.05    7.31
   1  -1  -7   33.56    5.64
  -1   1   7   39.09    9.43
  -1   1  -7   40.72    8.59
  -1   1   7   44.96    8.07
   1  -1   7   43.75    5.89
   1   1   7   35.30    7.89
   1   1  -7   45.68    7.16
   1   1   7   42.25    7.15
   1   1  -7   45.95    8.90
   1   1  -7   70.25   14.66
  -1  -1   7   40.33    6.51
   1  -1  -7   36.85   10.14
  -1  -1   8    8.21    8.56
  -1  -1  -8    0.90    4.28
  -1  -1   8   -2.36    5.89
   1  -1   8    6.63    5.92
   1   1  -8    1.74    7.88
  -1   1   8    3.81    9.23
  -1   1   8   -0.85    6.01
  -1   1   8   -0.84    6.42
  -1  -1  -8    1.02    9.56
  -1   1  -8    2.05    4.96
   1  -1   8   -0.63    9.62
   1   1  -8    4.84    4.58
   1  -1  -8   -4.12    8.14
   1   1   8   -1.81    5.43
  -1   1  -8    3.89    6.76
   1  -1  -8    6.74    4.61
  -1  -1   8   -4.43    6.32
   1   1   8    6.48    6.30
  -1  -1   9  128.71   11.61
  -1  -1  -9  165.55   12.31
  -1   1   9  139.57   13.51
   1  -1  -9  139.16   11.75
  -1   1   9  154.45   16.67
   1   1   9  126.25   13.41
  -1   1  -9  147.21   11.28
   1  -1   9  145.88   16.10
  -1  -1   9  138.44   14.20
   1   1   9  137.10   13.38
   1  -1   9  131.79   16.08
   1   1  -9  128.99   12.26
  -1   1  10  105.05   14.71
  -1   1  10   80.04   14.36
   1  -1  10  106.55   14.07
   1   1  10   77.29   17.08
   2  -1   0 2386.76  268.79
   2  -1  -1  221.69   10.18
  -2   1  -1  229.31    8.24
   2  -1   1  247.62    9.96
   2  -1  -1  221.02   10.63
  -2   1  -1  236.46    9.84
  -2  -1   1  238.83   12.16
  -2  -1  -1  254.80   11.02
   2   1   1  237.51    7.75
  -2   1   1  263.42    8.08
   2   1  -1  235.52    8.75
   2  -1   1  248.54    8.84
  -2  -1  -1  248.74    8.21
  -2   1   1  251.95    9.70
   2   1   1  234.29   10.37
   2  -1   1  254.89    9.88
  -2  -1   2  944.91   44.28
  -2   1   2 1021.33   27.36
  -2   1  -2  973.93   36.66
   2   1   2  950.51   29.15
   2  -1   2  972.35   46.17
   2  -1  -2  991.90   31.14
  -2  -1   2  968.00   31.24
   2   1  -2  975.45   41.51
   2  -1   2  998.49   36.24
   2  -1  -2 1013.18   40.87
  -2   1   2  972.46   32.09
   2   1  -2  999.18   28.71
  -2   1  -2  970.13   29.78
   2  -1  -2 1008.03   33.14
  -2  -1  -2  989.94   30.28
   2   1   2  973.67   40.00
  -2  -1  -2  961.38   32.08
   2  -1   3  292.28   12.23
   2  -1  -3  325.74   15.32
  -2  -1  -3  319.81   14.87
  -2  -1  -3  305.42   14.41
   2   1  -3  316.78   14.00
   2   1   3  289.56    9.85
   2   1   3  293.22   12.89
  -2   1   3  303.23   13.09
   2   1  -3  308.24   10.85
   2   1  -3  312.37   10.80
  -2   1   3  340.67   14.43
  -2   1  -3  288.22   10.20
  -2   1   3  314.81   14.06
   2  -1  -3  311.12   11.69
   2  -1  -3  331.52   13.69
  -2  -1   3  304.64   11.82
  -2  -1  -3  289.72   10.10
   2  -1   3  306.96   14.21
  -2   1  -3  299.05   11.62
  -2  -1   3  318.21   11.82
  -2   1  -3  286.13   12.85
  -2   1  -4  437.18   17.35
  -2  -1   4  437.84   15.65
   2  -1   4  444.58   16.65
   2  -1   4  421.19   16.14
   2   1  -4  427.05   15.74
  -2  -1  -4  403.94   22.31
  -2   1   4  434.64   15.72
  -2  -1   4  408.22   16.20
  -2   1   4  434.31   13.61
  -2  -1   4  414.98   14.25
   2   1   4  406.96   13.83
   2  -1  -4  462.02   17.39
   2   1   4  430.12   15.44
   2   1  -4  399.09   17.71
   2  -1  -4  433.47   15.94
  -2   1  -4  450.67   18.62
  -2  -1  -4  422.04   13.68
   2  -1  -4  442.54   18.08
  -2  -1  -4  415.74   14.98
  -2   1  -4  419.67   14.29
   2   1  -4  417.00   20.31
  -2   1   4  411.63   15.48
  -2   1  -5  145.26    9.62
   2  -1   5  134.05    7.86
  -2  -1  -5  143.90    7.86
   2  -1  -5  139.78    9.37
   2   1  -5  137.80    9.99
   2  -1  -5  128.55    8.80
  -2   1   5  140.07    8.42
  -2  -1   5  125.93    9.17
   2  -1   5  137.22    7.80
  -2  -1   5  122.28    7.79
   2   1   5  133.65    7.90
  -2  -1   5  119.08    8.18
   2   1  -5  110.00    6.64
  -2   1  -5  129.44    7.04
  -2   1  -5  146.05   10.90
  -2   1   5  150.12    9.24
   2   1  -5  130.69    9.90
  -2  -1  -5  130.54    9.91
  -2   1   5  144.93    8.44
   2   1   5  124.99    7.91
   2  -1  -5  144.05   10.50
  -2  -1  -5  129.81    6.83
   2   1  -6  112.93    9.34
   2   1  -6  109.63    9.05
   2  -1  -6  112.01    9.85
  -2  -1  -6  122.44   10.17
   2   1   6  102.01    7.21
  -2   1  -6  118.91   11.21
  -2   1  -6  127.51    9.08
  -2   1   6   98.35    8.30
   2  -1   6  118.84    8.45
   2  -1  -6  119.94    8.53
  -2  -1  -6  115.48    7.84
   2  -1  -6  120.40   10.57
  -2   1   6   91.23   10.56
  -2  -1   6  121.65    9.16
   2   1  -6  127.59   10.04
  -2   1   6  129.44    9.82
  -2  -1   6  121.31    7.95
   2  -1   6  120.63    8.10
  -2  -1   6  126.20    8.62
  -2   1  -6  116.77    7.48
   2   1   6  111.03   10.68
  -2  -1  -6  123.32   10.81
   2   1   7   87.07    9.50
  -2  -1   7  106.93   11.24
   2   1  -7  115.07   11.85
  -2   1  -7  111.45    6.70
   2   1   7   87.82   11.10
  -2  -1   7  111.84    8.61
   2  -1   7  106.73   10.15
   2  -1  -7  107.89   11.95
  -2  -1  -7   98.78    9.06
  -2  -1   7   95.35    8.50
  -2   1   7   94.80   10.73
  -2   1  -7  104.52    8.90
  -2   1   7   96.17   10.90
   2   1  -7  108.90   11.86
   2  -1  -7   94.50   10.10
  -2   1  -7   91.23   11.25
   2   1  -7  108.94    9.66
   2  -1   7  126.01    8.95
  -2  -1  -7  117.72    8.51
  -2   1   7  104.85   11.06
   2  -1   8  329.82   18.17
   2   1   8  336.86   18.98
  -2  -1   8  325.40   21.22
   2  -1  -8  341.98   22.19
   2  -1  -8  332.28   31.92
   2   1  -8  342.47   20.44
   2  -1   8  342.68   25.20
  -2   1   8  358.89   22.76
  -2   1   8  345.27   22.92
  -2   1   8  348.40   22.50
   2   1   8  351.97   22.18
   2   1  -8  309.22   27.87
  -2  -1  -8  329.02   22.67
  -2  -1   8  338.55   20.62
  -2  -1  -8  280.87   24.37
  -2   1  -8  353.81   20.78
   2  -1   9   42.23    8.83
  -2  -1   9   32.06   14.36
   2  -1  -9   31.70    7.59
   2   1   9   21.29    8.52
   2   1  -9   20.71    8.68
  -2   1   9   39.64   14.75
   2  -1   9   31.18    9.87
  -2  -1  -9   34.36    8.31
   2   1   9   26.01   12.50
   2  -1 -10  216.66   21.70
  -2   1  10  184.33   16.71
   2   1  10  189.91   17.63
   2  -1  10  237.39   19.78
  -3  -1   0   40.85    3.11
  -3   1   0   30.90    1.97
   3   1   0   41.42    3.05
  -3  -1   0   41.79    2.86
   3   1   0   44.89    3.03
   3  -1   0   30.73    2.80
   3  -1   1  988.44   42.20
   3  -1  -1 1027.77   31.31
  -3   1   1 1068.74   35.42
  -3  -1  -1 1083.49   42.37
   3   1  -1 1074.19   35.81
  -3  -1  -1 1092.10   35.42
   3   1   1 1029.99   40.80
  -3   1   1 1030.29   40.78
  -3   1  -1 1005.56   33.80
   3  -1   1 1006.11   42.66
   3  -1  -1 1049.68   39.88
  -3  -1  -1 1058.09   33.88
  -3  -1   1 1091.81   40.86
   3  -1   1  981.19   38.35
   3   1   1 1089.50   39.07
  -3   1   2 2651.06   72.46
   3  -1   2 2574.98   70.76
   3  -1  -2 2508.35   77.53
   3   1  -2 2641.00   97.30
   3  -1   2 2610.73  138.97
   3  -1  -2 2579.13   86.43
  -3  -1   2 2662.19   85.77
  -3  -1  -2 2649.64   97.26
   3  -1  -2 2729.53  104.39
  -3  -1   2 2777.16   87.48
  -3  -1  -2 2620.39   85.74
   3   1   2 2631.87   92.96
  -3   1  -2 2540.85   87.04
  -3   1   2 2599.31   87.52
  -3   1  -2 2477.53   88.23
   3   1   2 2703.19   76.39
  -3   1   3  282.03   10.63
  -3  -1   3  306.31   12.57
   3  -1   3  285.27   12.46
   3   1   3  296.65   12.60
   3   1  -3  310.61   10.55
  -3   1   3  280.77   12.16
  -3   1  -3  279.46   14.22
  -3  -1   3  308.15   12.27
  -3  -1  -3  324.47   12.81
   3   1   3  306.29   10.67
   3  -1  -3  277.59   12.93
   3  -1  -3  277.57   13.75
   3  -1   3  276.61    9.94
   3   1  -3  294.19   11.34
  -3   1  -3  285.20   10.08
  -3   1  -3  294.49    9.00
   3  -1  -3  278.57   14.17
  -3  -1  -3  325.60   11.83
  -3   1   4 1743.62   60.62
   3  -1  -4 1800.56   58.45
  -3   1  -4 1797.89   62.60
   3   1   4 1840.99   57.99
  -3   1  -4 1874.73   84.57
  -3   1  -4 1822.60   60.69
   3  -1   4 1875.88   62.61
   3   1  -4 1808.12   57.32
  -3  -1   4 1890.39   56.12
   3  -1   4 1775.67   63.93
   3   1   4 1850.53   65.65
  -3  -1  -4 1842.05   56.81
   3   1  -4 1777.33   58.30
  -3  -1   4 1793.93   49.98
  -3   1   4 1809.38   63.18
   3  -1  -4 1730.18   60.43
  -3  -1  -4 1883.14   73.37
  -3  -1  -4 1817.52   77.06
   3  -1  -4 1837.43   86.81
   3   1  -4 1857.12   80.35
  -3  -1   5  301.14   12.77
   3   1   5  291.89   13.31
   3   1  -5  285.45   14.77
   3  -1  -5  285.50   15.25
  -3  -1  -5  321.98   14.47
   3  -1  -5  299.80   16.43
  -3  -1  -5  287.50   17.16
  -3  -1  -5  299.00   12.40
  -3  -1   5  282.23   13.26
   3  -1   5  324.07   11.80
  -3   1  -5  304.63   15.79
  -3   1  -5  305.85   13.29
   3  -1  -5  296.29   17.85
   3   1  -5  302.75   17.13
  -3   1   5  292.93   14.69
  -3   1  -5  292.26   11.64
   3  -1   5  303.95   12.71
   3   1   5  281.48   14.80
   3   1  -5  276.54   13.89
  -3   1   5  311.83   14.93
   3  -1  -6  202.85   14.95
  -3   1   6  174.89   10.38
  -3   1  -6  166.73   10.63
  -3  -1   6  185.27   11.43
   3   1   6  160.89    9.95
   3   1  -6  199.84   12.32
   3  -1   6  168.82   11.05
   3  -1  -6  169.56   10.81
  -3  -1  -6  176.72   14.04
   3  -1   6  174.52    9.97
   3   1  -6  197.36   12.62
  -3   1  -6  169.00    9.73
   3  -1  -6  160.42   13.16
   3   1  -6  200.43   13.11
  -3   1   6  170.56   11.67
  -3   1  -6  163.04    8.02
   3   1   6  165.60   11.91
  -3  -1  -6  211.59   11.32
  -3  -1   6  174.57   11.41
  -3  -1  -6  181.00    9.50
  -3  -1  -7  379.03   18.19
  -3   1  -7  430.17   25.12
  -3  -1   7  385.08   22.83
  -3  -1   7  417.80   19.94
   3   1   7  398.76   19.00
  -3   1   7  375.04   20.33
   3  -1   7  408.20   24.20
   3  -1  -7  404.39   27.41
  -3   1   7  410.01   22.73
   3   1  -7  409.03   20.99
  -3   1  -7  426.78   23.59
   3  -1   7  385.23   18.29
   3  -1  -7  413.24   21.98
  -3  -1  -7  416.08   21.19
   3   1   7  402.98   18.98
   3   1  -7  367.68   28.51
  -3   1  -7  408.59   24.94
  -3   1   8   49.37    9.76
  -3  -1   8   44.04    8.35
   3  -1   8   28.58    7.71
  -3  -1   8   23.94    9.63
   3  -1  -8   43.74    9.14
   3  -1   8   35.15    7.66
  -3   1  -8   41.65    5.54
   3   1   8   50.54   10.90
   3   1   8   49.27    8.82
   3   1  -8   34.61    9.02
  -3  -1  -8   43.35    7.26
   3   1   9   20.21   10.72
  -3   1   9    6.10   10.37
  -3  -1   9   18.68   10.05
   3  -1  -9    4.98    7.24
   3   1   9   25.48    9.50
   3  -1   9   16.97    7.51
   3   1  -9    9.31    6.14
   3   1 -10   53.64   11.49
   3   1  10   55.42   16.67
   3  -1  10   80.41   15.49
   3  -1 -10   87.02   11.19
  -3   1  10   79.96   15.69
  -3  -1  10   58.95   13.29
   4  -1   0  121.20    5.21
  -4  -1   0  122.38    5.56
  -4   1   0  110.80    4.96
  -4  -1   0  130.53    6.23
   4   1   0  130.27    5.72
   4   1  -1 1225.22   39.32
   4   1   1 1255.85   43.82
  -4   1  -1 1324.26   43.16
  -4  -1  -1 1211.46   39.19
  -4   1   1 1353.27   49.50
   4  -1   1 1311.73   40.61
  -4   1  -1 1352.67   56.34
  -4   1   1 1309.79   46.14
   4  -1  -1 1310.39   43.76
  -4  -1   1 1264.99   52.20
  -4  -1  -1 1255.71   46.86
   4   1   1 1211.02   42.69
  -4   1  -2 1221.85   50.82
   4   1   2 1306.54   39.70
  -4  -1   2 1308.85   41.18
   4  -1  -2 1289.96   56.87
   4  -1  -2 1228.53   37.74
  -4   1   2 1225.02   40.64
  -4  -1   2 1297.24   45.42
   4   1  -2 1260.21   41.51
   4  -1   2 1255.26   43.84
  -4  -1  -2 1301.68   47.90
   4  -1   2 1243.27   38.88
  -4   1  -2 1278.99   48.41
  -4   1   2 1248.11   36.48
  -4  -1  -2 1284.36   50.50
   4   1   2 1273.54   44.68
  -4   1  -2 1199.29   55.23
  -4   1   3  361.35   15.06
   4   1  -3  397.65   13.51
  -4  -1  -3  406.01   16.06
   4  -1  -3  369.46   16.03
   4   1  -3  397.86   14.45
   4  -1  -3  368.27   16.07
   4  -1  -3  381.14   14.19
  -4   1  -3  389.23   16.86
  -4  -1  -3  412.35   18.18
  -4  -1   3  416.16   18.13
   4  -1   3  405.12   13.28
   4   1   3  414.92   17.75
  -4   1  -3  401.78   13.85
  -4   1   3  350.72   14.13
  -4  -1   3  415.93   18.18
   4  -1   3  376.59   15.17
   4   1   3  401.70   13.94
   4  -1  -4  471.44   19.11
  -4   1   4  476.92   19.84
   4  -1  -4  500.31   19.06
  -4  -1   4  518.77   19.41
   4   1   4  532.57   19.43
   4   1  -4  511.10   20.13
  -4  -1  -4  514.14   15.45
  -4   1  -4  483.90   21.88
   4  -1   4  509.21   20.76
  -4   1   4  483.29   20.14
  -4   1  -4  528.15   25.00
  -4  -1   4  527.83   20.28
  -4   1  -4  491.46   17.74
   4  -1  -4  487.03   21.96
  -4  -1  -4  526.29   19.55
   4   1  -4  479.01   20.26
   4  -1   4  501.02   18.76
   4   1   4  508.81   17.51
  -4  -1  -4  535.52   32.04
   4   1   5   91.22    6.90
  -4  -1   5   99.83    8.52
  -4  -1  -5   95.02    5.93
   4  -1   5   73.04    7.30
  -4   1  -5   78.74    4.33
  -4   1   5   75.90    6.72
  -4   1  -5   68.40    7.78
   4  -1  -5   87.94    8.60
   4   1  -5  105.98    8.62
  -4  -1  -5   85.03    6.67
   4  -1  -5   81.97    7.03
   4  -1  -5   81.70    9.60
   4   1  -5   90.56    7.56
   4  -1   5   78.94    5.33
  -4   1  -5   85.17    6.44
   4   1   5   84.18    6.70
  -4  -1   5   75.33    7.19
  -4   1   5   81.28    6.25
  -4  -1  -5   82.31    8.10
   4  -1  -6  162.81   12.86
   4  -1  -6  160.25   14.05
  -4   1  -6  140.63   13.34
   4  -1   6  171.75    9.46
   4   1   6  175.46   11.80
  -4   1  -6  149.16    7.99
   4  -1   6  148.71    9.78
   4   1   6  162.52   10.22
  -4  -1  -6  163.84   13.55
  -4   1  -6  160.69   11.00
  -4  -1  -6  172.66    9.13
  -4  -1   6  179.46   12.00
  -4   1   6  147.10   11.04
   4   1  -6  153.99   11.22
  -4  -1   6  180.14   12.93
  -4  -1  -6  159.89    8.47
   4  -1  -6  183.13   17.28
   4   1  -6  173.63   13.31
  -4   1   6  152.69   10.53
   4  -1  -7  990.75   52.33
  -4  -1   7 1040.77   42.77
   4  -1  -7 1023.27   46.56
   4   1   7 1122.33   50.37
  -4  -1   7 1066.93   37.37
  -4   1   7 1067.59   53.28
   4  -1   7 1032.16   51.85
  -4  -1  -7 1022.94   44.87
  -4  -1  -7 1045.84   50.63
  -4   1  -7 1052.48   62.85
   4   1   7 1016.94   40.89
  -4   1  -7 1031.81   59.92
   4   1  -7 1078.17   54.25
   4  -1   7  994.24   41.28
  -4   1   7  973.83   52.60
   4  -1   8  138.59   15.83
   4   1   8  123.41   11.01
  -4  -1  -8  121.53    9.44
   4  -1  -8  142.89   12.60
  -4   1  -8  133.26    9.99
   4   1  -8  126.03   11.86
   4  -1   8  129.67    9.82
  -4  -1   8  123.51   13.51
   4   1   8  142.56   13.07
  -4   1   8  107.74   15.12
   4   1   9  248.51   18.69
  -4  -1   9  266.83   22.33
   4   1  -9  212.72   17.40
  -4   1   9  211.11   21.28
   4  -1   9  235.34   18.31
   4  -1  -9  239.56   17.92
  -4  -1  10   57.05   14.67
   4  -1 -10   56.73   12.66
   4   1  10   40.41   11.72
  -4   1  10   44.71   20.08
   4   1 -10   51.68   10.85
   4  -1  10   65.68   11.95
  -5  -1   0  396.41   15.72
  -5  -1   0  384.71   15.90
  -5   1   0  417.20   14.47
   5   1   0  385.16   14.92
   5  -1   0  405.81   15.74
  -5   1   1  943.24   34.32
  -5  -1  -1  910.24   32.29
  -5   1  -1  947.15   30.68
  -5  -1  -1  914.07   33.36
  -5   1  -1  957.99   32.41
   5   1  -1  907.07   29.34
   5  -1   1  934.47   34.18
  -5   1   1  952.07   30.64
   5   1   1  892.01   28.11
   5   1   1  918.99   32.46
   5  -1  -1  926.00   29.50
  -5  -1   1  922.11   36.52
   5  -1   2  175.52    9.19
   5   1   2  154.53    7.28
  -5  -1  -2  165.95    7.64
  -5  -1   2  179.57    8.49
  -5   1  -2  186.95    6.51
  -5  -1  -2  149.80    9.07
  -5   1   2  210.32   11.44
  -5   1   2  190.36    9.03
  -5  -1   2  156.57    9.85
  -5   1  -2  176.82    6.93
   5  -1  -2  185.06    8.41
  -5  -1  -2  157.83    6.60
   5  -1   2  195.05    8.11
   5   1  -2  154.80    7.23
   5   1   2  162.51    9.73
  -5   1   3 2388.51   76.52
  -5  -1   3 2497.09   84.73
  -5   1  -3 2363.41  110.76
  -5  -1  -3 2290.58   94.37
   5   1  -3 2267.00   74.58
  -5  -1  -3 2319.74   79.38
   5  -1   3 2236.26   81.39
   5  -1  -3 2489.75   95.83
   5   1   3 2361.30   65.72
   5  -1   3 2423.58   80.93
   5  -1  -3 2345.60   77.14
   5  -1  -3 2344.82   68.98
  -5  -1   3 2299.63   65.27
  -5   1   3 2351.89   71.87
   5   1   3 2321.76   76.31
  -5   1  -3 2346.86   83.21
  -5   1  -3 2356.26   72.98
  -5  -1   4  680.99   25.24
   5   1  -4  700.76   26.06
   5   1  -4  692.18   26.29
  -5  -1  -4  691.31   32.99
  -5  -1  -4  689.33   25.28
   5  -1  -4  712.68   29.83
  -5   1  -4  728.82   42.81
   5  -1   4  748.52   28.59
   5  -1   4  713.64   22.43
  -5   1   4  738.50   28.44
  -5  -1   4  722.10   27.66
   5   1   4  705.93   30.22
  -5   1  -4  710.32   22.12
   5  -1  -4  720.98   34.04
  -5   1  -4  727.79   22.65
  -5   1   4  721.38   26.85
   5   1   4  676.68   25.73
   5  -1  -4  750.09   28.46
   5  -1  -5  287.20   17.20
  -5  -1  -5  270.88   13.76
  -5  -1  -5  264.41   20.62
   5   1  -5  282.45   16.44
   5   1   5  289.57   13.98
  -5   1   5  264.88   14.21
   5   1   5  274.39   13.49
   5   1  -5  280.60   11.47
  -5  -1   5  253.98   13.50
   5  -1  -5  290.07   13.05
  -5   1  -5  284.47   11.10
  -5   1   5  292.50   18.11
  -5   1  -5  292.33   17.01
   5  -1   5  283.78   12.73
   5  -1   5  289.67   12.09
  -5  -1  -5  275.68   11.64
  -5  -1   5  266.34   14.66
  -5   1  -5  284.49   11.94
   5  -1  -5  288.25   18.76
   5  -1  -6 1035.08   63.89
  -5   1  -6 1080.80   60.89
  -5  -1  -6 1062.25   59.79
  -5   1   6 1081.94   56.03
  -5  -1  -6 1087.57   75.19
  -5   1  -6 1074.20   44.10
   5  -1   6 1089.68   45.02
  -5  -1  -6 1042.25   44.96
  -5   1   6 1028.45   37.75
  -5  -1   6 1020.21   49.76
   5  -1   6 1027.80   44.14
   5   1  -6  998.36   45.64
   5  -1  -6 1006.76   43.69
   5   1   6 1019.49   33.73
   5   1   6 1066.08   42.90
  -5   1  -6 1093.19   44.73
   5   1  -6 1049.67   61.64
  -5  -1   6 1044.45   42.25
  -5  -1   7   20.19    9.99
  -5   1   7   23.76    7.19
   5   1   7   12.06    7.22
   5  -1   7   19.51    7.13
  -5  -1  -7   14.58    4.60
  -5  -1  -7   17.12    6.93
   5   1   7   11.25    5.58
   5  -1   7   20.71    4.50
   5  -1  -7    0.28    9.60
  -5  -1   7   10.94    6.12
   5  -1  -7   19.54    9.28
  -5   1  -7   28.39    6.60
   5   1  -7    0.30    7.31
  -5  -1  -8  161.09   27.89
   5  -1   8  195.18   15.23
  -5   1   8  185.07   17.43
  -5  -1   8  178.66   15.67
   5   1   8  180.17   14.15
   5  -1   8  188.24   14.88
   5   1   8  156.92   14.06
   5  -1  -8  224.29   18.08
   5   1  -8  161.67   14.76
   5  -1   9   32.62   13.25
  -5   1   9   17.25   12.37
  -5  -1   9   25.85   11.11
   5   1  -9   49.70   11.46
   5   1   9    7.63    9.21
   5  -1  -9   28.30    8.62
  -5   1  10  -23.46   16.87
   5  -1 -10    9.62   11.78
   5   1 -10    7.84    9.18
  -5  -1  10   20.20   16.62
   5   1  10    4.39   15.14
   5  -1  10   11.47    9.80
   6  -1   0  642.13   20.14
  -6  -1   0  639.90   20.06
   6   1   0  638.44   27.12
  -6  -1   0  621.13   20.25
  -6   1   0  662.35   21.33
  -6  -1  -1  724.72   27.87
  -6   1   1  744.47   26.38
   6   1   1  734.15   25.42
  -6   1  -1  729.24   28.05
  -6  -1  -1  730.63   25.76
   6  -1  -1  763.33   26.59
  -6   1   1  782.24   26.53
  -6   1  -1  734.83   24.85
   6  -1   1  750.87   27.16
   6   1   1  722.02   25.94
   6   1  -1  741.26   24.12
  -6  -1   1  729.41   29.24
   6  -1  -2  348.18   12.86
  -6  -1  -2  341.99   12.01
  -6   1  -2  381.18   12.70
   6  -1   2  352.27   17.77
  -6   1   2  380.54   16.45
  -6  -1   2  355.85   15.23
  -6   1  -2  362.33   13.13
  -6   1   2  372.01   13.58
   6   1   2  347.14   13.67
  -6  -1   2  373.89   16.31
   6   1   2  350.23   11.51
   6  -1   2  345.92   15.41
   6   1  -2  343.51   14.78
  -6  -1  -2  352.73   14.82
  -6   1  -3 1081.63   41.70
   6  -1   3 1088.21   48.04
   6  -1   3 1137.42   41.67
   6   1   3 1043.21   45.29
  -6   1   3 1125.86   42.37
  -6   1   3 1071.83   35.34
  -6  -1  -3 1151.79   32.58
  -6  -1   3 1139.81   54.85
   6   1  -3 1071.61   43.73
  -6   1  -3 1071.69   43.35
   6   1   3 1075.16   37.75
  -6   1  -3 1071.04   41.93
   6  -1  -3 1049.58   37.94
  -6  -1   3 1063.37   38.46
  -6  -1  -3 1093.85   51.64
  -6  -1  -3 1136.93   50.31
  -6   1  -4  211.40    9.37
  -6   1  -4  227.30   10.77
   6   1  -4  226.42   12.95
  -6   1  -4  223.37   14.15
   6  -1  -4  223.33   13.13
  -6  -1   4  208.97   12.25
   6   1   4  226.95   11.80
   6   1   4  209.57   10.07
  -6   1   4  205.90   11.30
   6  -1   4  224.22    9.64
  -6  -1  -4  214.25   16.16
   6  -1   4  228.35   10.04
   6  -1  -4  219.01   12.53
  -6   1   4  208.07   12.75
   6   1  -4  207.73   12.34
  -6  -1   4  209.07   12.81
  -6  -1  -4  222.38   10.54
   6   1   5  188.28    9.92
   6  -1  -5  184.97   12.76
  -6   1  -5  204.74   11.26
  -6   1  -5  193.37   10.34
  -6  -1  -5  182.23   15.80
   6  -1   5  212.51   11.38
  -6   1  -5  213.58   10.86
   6   1   5  177.18   10.89
   6  -1  -5  199.36   15.01
  -6   1  -5  213.55   14.73
  -6   1   5  211.24   14.38
   6   1  -5  184.60   13.51
   6  -1   5  217.23   12.88
   6   1  -5  199.79   14.64
  -6  -1   5  178.75   13.45
  -6  -1   5  195.57   12.51
  -6  -1  -5  204.69   11.07
  -6  -1  -5  186.96    7.92
  -6   1   5  215.99   13.94
   6  -1   6  484.88   28.85
  -6  -1   6  537.02   26.88
   6   1   6  505.01   19.66
  -6   1  -6  511.38   24.71
  -6   1  -6  478.46   21.56
  -6  -1  -6  492.18   29.94
  -6  -1  -6  500.29   21.31
   6   1  -6  500.22   30.69
  -6   1  -6  467.57   28.38
   6   1   6  545.11   29.19
   6  -1   6  473.00   28.07
  -6   1   6  486.89   33.14
  -6  -1   6  509.76   24.82
  -6   1   6  472.15   21.45
   6  -1  -6  496.81   25.45
   6  -1  -7   26.95    6.96
  -6  -1  -7   20.99    6.39
   6   1  -7   41.05    8.48
  -6   1  -7   26.56    6.07
  -6  -1   7   26.66   11.18
   6  -1   7   29.66    5.44
   6  -1   7   26.34    7.02
  -6   1  -7   30.52    3.33
   6   1   7   37.35    8.69
   6   1   7   32.99    6.91
  -6  -1  -7   39.64    4.84
  -6   1   7   36.98    8.97
   6   1  -8   32.17    8.87
   6   1   8   11.23    7.71
   6  -1   8   13.74   11.31
   6  -1  -8   17.45    8.78
   6   1   8   22.04    7.63
  -6   1   8   10.96    9.32
  -6  -1   8   16.59    8.67
   6   1  -9   56.55   11.68
   6  -1   9   44.08   13.57
   6  -1  -9   38.95   11.47
  -6   1   9   50.16   12.74
   6   1   9   29.18   10.74
  -6  -1   9   32.46   11.27
   6   1 -10   96.33   11.54
   6  -1  10   91.10   18.84
  -6   1  10   62.92   20.90
  -6  -1  10   62.61   23.69
   6  -1 -10   81.45   14.19
   6   1  10   91.73   15.89
  -7   1   0 1130.78   41.21
  -7   1   0 1203.00   34.92
   7  -1   0 1137.30   43.00
  -7  -1   0 1090.70   34.86
  -7  -1   0 1079.17   38.56
   7   1   0 1085.28   37.80
  -7   1   1  587.54   22.25
   7   1   1  559.74   20.92
  -7   1   1  592.66   23.16
  -7  -1   1  578.71   24.16
   7   1   1  530.60   19.96
   7  -1  -1  579.49   20.40
  -7  -1  -1  542.21   19.33
  -7  -1   1  558.51   22.25
  -7   1  -1  573.98   24.40
   7   1  -1  535.93   22.26
   7   1   1  522.46   17.55
   7  -1   1  580.51   24.41
  -7   1  -1  569.85   20.13
  -7  -1  -1  543.72   20.60
  -7  -1  -2   23.31    3.42
  -7  -1   2   21.86    4.23
  -7  -1  -2   20.61    3.28
   7  -1  -2   17.62    4.27
   7   1  -2   20.65    5.52
   7  -1   2   13.62    2.20
  -7   1  -2   15.32    2.49
   7   1   2   19.76    4.97
  -7   1  -2   13.53    2.45
   7   1   2   21.26    2.86
  -7   1   2   16.18    3.63
   7  -1   2   12.70    2.93
  -7   1   2    8.88    3.88
  -7  -1  -3    1.11    3.16
  -7   1  -3    4.65    2.02
  -7  -1   3   -0.86    6.05
   7   1   3   10.34    3.68
   7   1   3   -1.17    2.99
   7  -1   3    1.63    2.49
  -7   1   3    1.39    3.99
   7   1  -3    2.89    3.54
  -7   1   3    1.82    4.26
   7  -1  -3    3.03    3.91
  -7  -1   3    1.14    3.89
  -7  -1  -3   -1.05    3.26
  -7   1  -3    1.24    2.69
  -7  -1  -3    1.35    1.93
   7  -1   3    3.11    4.02
   7  -1  -4   26.58    6.16
  -7   1  -4   27.81    4.69
   7   1  -4   20.17    5.17
   7   1  -4   18.71    7.40
  -7   1  -4   32.07    2.91
  -7  -1  -4   27.31    4.15
   7  -1   4   30.53    6.13
   7   1   4   22.74    5.45
   7  -1  -4   26.54    5.81
  -7   1  -4   33.95    4.00
  -7  -1  -4   30.35    4.45
  -7  -1   4   29.15    5.83
   7   1   4   34.65    4.63
  -7  -1  -4   25.23    6.82
   7  -1   4   40.35    4.82
  -7  -1   4   31.18    5.73
  -7   1   4   17.82    5.16
  -7   1   4   24.09    5.92
   7   1   5  172.49   11.97
   7   1   5  146.84   11.28
  -7  -1   5  163.57   12.84
   7   1  -5  172.36   14.18
  -7  -1  -5  176.18    9.54
   7  -1   5  171.47    9.59
  -7   1  -5  199.45   15.34
  -7  -1   5  159.70   10.76
  -7   1  -5  189.51    8.53
  -7   1  -5  187.25    9.51
   7  -1  -5  175.67   13.88
  -7  -1  -5  168.93   13.00
  -7   1   5  187.44   14.91
   7  -1  -5  199.46   12.62
  -7  -1  -5  167.16    9.65
  -7   1  -5  175.22    8.51
   7   1  -5  169.45   12.40
  -7   1   5  167.29   12.40
   7  -1   5  175.87   10.84
  -7   1  -6  242.66   12.46
   7  -1   6  219.93   15.98
  -7  -1  -6  215.92   14.61
  -7   1   6  265.72   17.59
   7   1   6  223.20   14.95
  -7  -1   6  207.13   15.01
  -7   1  -6  211.69   10.49
   7   1  -6  220.26   15.06
   7  -1   6  218.09   14.03
  -7   1  -6  221.30   11.38
   7  -1  -6  216.00   14.05
  -7  -1  -6  220.62   13.49
   7   1   6  234.14   15.01
  -7   1  -7   76.15    5.05
  -7  -1  -7   76.73    6.96
   7  -1  -7   60.66    9.79
   7   1  -7   77.86   10.61
   7  -1   7   62.52   12.37
   7   1   7   97.70   12.04
   7   1   7   62.74    8.57
  -7  -1   7   72.83   12.88
  -7   1   7   65.46    9.76
   7  -1   7   75.84    7.90
   7  -1  -8   11.50    8.82
  -7   1   8   18.34   10.69
  -7  -1   8   20.58   10.28
   7  -1   8   14.83    8.49
   7   1   8   12.91    9.11
   7   1  -8   17.26    8.02
  -7   1   9  134.02   20.18
   7   1  -9  105.49   15.05
   7   1   9  105.10   15.10
   7  -1  -9  121.78   14.20
  -7  -1   9  144.79   19.13
   7  -1   9   88.55   13.10
   8   1   0   24.78    3.81
   8  -1   0   20.23    3.80
  -8   1   0   29.05    4.12
  -8  -1   0   19.94    3.68
  -8   1   0   24.82    4.23
  -8  -1   0   18.95    3.46
  -8   1   1  525.62   22.66
  -8  -1  -1  515.96   17.56
  -8  -1   1  533.98   22.27
  -8   1  -1  489.80   19.21
   8  -1   1  504.61   19.12
   8  -1  -1  499.16   19.95
   8   1   1  507.78   18.41
  -8  -1  -1  503.79   24.27
  -8   1   1  492.54   21.80
  -8  -1   1  528.17   22.68
   8   1   1  510.01   20.85
  -8   1  -1  527.49   21.91
   8   1  -1  486.54   19.10
  -8   1  -2  598.55   29.36
   8   1   2  606.56   21.39
  -8  -1   2  582.99   24.26
   8  -1  -2  583.57   25.80
   8  -1   2  585.57   20.13
   8   1   2  602.90   21.72
   8   1  -2  589.46   22.18
  -8  -1  -2  608.55   28.93
  -8   1   2  610.38   24.21
  -8   1  -2  592.39   18.49
  -8  -1  -2  610.50   21.73
  -8   1   2  560.79   25.30
  -8  -1   2  604.78   27.49
   8   1   3  113.33    7.60
  -8  -1  -3  116.50    8.26
   8  -1   3  126.23    7.30
  -8  -1  -3  122.35    7.19
   8  -1  -3  133.42    9.74
   8   1  -3  135.83    9.93
  -8   1   3  131.58    9.06
   8   1   3  133.11    8.22
  -8  -1   3  117.13    8.95
  -8   1   3  120.16   10.90
  -8   1  -3  123.27    5.86
  -8  -1   3  138.39   11.27
  -8   1  -3  131.93    6.56
   8  -1   3  124.75    7.08
   8  -1   4   87.04    7.27
  -8   1  -4   90.49    4.99
  -8  -1   4   83.25    7.37
  -8   1   4   83.73    9.79
   8   1   4   68.55    9.15
  -8  -1  -4   82.05    9.33
   8  -1  -4   77.81    8.18
   8   1   4   82.10    7.37
  -8  -1   4   88.38    9.41
  -8  -1  -4   78.89    5.44
  -8   1  -4   94.62    7.12
  -8   1   4   93.80    8.11
   8  -1  -4   81.88    7.97
   8   1  -4   86.77    7.69
   8  -1   4   82.83    5.76
  -8  -1  -4   98.75    6.45
   8   1  -5  146.64   12.79
  -8  -1   5  155.31   14.02
   8  -1  -5  160.37   12.77
  -8  -1  -5  157.52   10.53
   8   1   5  159.00   10.02
   8  -1   5  184.11   12.93
  -8   1  -5  161.93    8.40
  -8  -1  -5  167.30    9.88
  -8   1   5  184.98   13.91
  -8   1  -5  161.57   12.38
  -8   1  -5  165.27    8.01
   8  -1   5  163.04   11.57
  -8   1  -5  162.13   10.87
  -8  -1   5  174.65   14.11
   8   1   5  164.27   10.38
  -8  -1  -6   27.73    8.41
   8   1  -6   25.90    7.38
   8  -1  -6   32.67    9.05
  -8   1  -6   39.42    3.94
  -8  -1   6   29.94    7.82
   8  -1   6   40.50    6.26
  -8   1  -6   42.10    3.39
  -8  -1  -6   31.72    4.19
   8   1   6   29.93    8.66
   8  -1   6   24.93    6.90
  -8   1  -6   29.72    4.45
  -8  -1  -6   31.92    5.56
   8   1   6   29.07    6.32
  -8   1   6   26.79    8.98
   8  -1   7  114.62   13.21
   8   1   7  131.21   11.59
  -8  -1  -7  132.73    9.32
   8  -1   7  122.16    9.91
  -8   1   7  133.70   14.39
  -8  -1   7  149.31   13.88
   8  -1  -7  108.57   10.88
   8   1  -7  146.98   13.43
   8   1   7  113.33   12.04
   8   1   8   66.32   11.33
   8  -1  -8   65.07   12.77
   8   1  -8   74.89   14.34
  -8   1   8   76.20   16.47
   8  -1   8   61.87   10.98
  -8  -1   8   56.74   11.92
   8  -1   9  189.94   19.62
   8   1  -9  164.50   19.70
   8  -1  -9  190.40   20.17
   8   1   9  152.59   17.11
  -8  -1   9  152.43   16.14
  -8   1   9  160.04   17.73
   9  -1   0    1.99    3.67
  -9   1   0   -1.17    2.73
  -9   1   0    1.32    4.63
   9   1   0   -6.44    3.29
  -9  -1   0   -2.73    2.89
  -9  -1   0   -2.34    3.27
  -9  -1   1  442.76   20.38
  -9  -1  -1  433.90   21.55
  -9   1  -1  456.84   21.58
  -9   1   1  442.37   22.89
   9   1   1  432.06   15.12
  -9   1  -1  472.63   18.75
   9   1  -1  437.27   18.12
   9   1   1  444.80   19.04
  -9   1   1  442.48   17.69
   9  -1  -1  424.09   16.86
  -9  -1  -1  468.21   17.31
  -9  -1   1  423.59   22.49
   9  -1   1  434.61   18.70
  -9   1  -2  121.43    6.30
   9   1  -2  124.75   10.14
  -9   1   2  121.89    8.82
   9   1   2  131.50    8.33
   9  -1   2  123.18    8.57
  -9  -1   2  115.98    9.25
   9  -1  -2  108.35    8.55
  -9  -1  -2  120.55    7.06
  -9  -1   2  104.04    8.70
   9   1   2  125.05    8.87
  -9   1  -2  118.74    7.20
  -9   1   2  122.78    8.63
  -9  -1  -2  125.77    7.93
   9   1  -3  185.38   12.60
   9   1   3  162.01    9.95
  -9  -1   3  174.87   10.99
   9  -1   3  165.06    8.66
  -9   1   3  190.80   11.62
  -9  -1  -3  192.67   10.17
   9  -1  -3  160.83   12.33
  -9   1   3  176.71   13.34
  -9   1  -3  182.38   10.67
  -9  -1   3  167.78   12.03
   9   1   3  169.46    9.55
  -9  -1  -3  198.04   12.01
  -9   1  -3  192.07    9.49
  -9   1   4  993.99   51.45
  -9   1   4 1004.52   34.33
  -9  -1  -4  932.84   42.13
  -9   1  -4  987.18   38.49
  -9  -1  -4  934.89   57.96
   9   1   4 1035.04   49.03
   9  -1   4  995.50   35.02
   9  -1  -4 1007.72   53.13
  -9  -1   4 1003.70   35.16
   9   1   4  920.08   40.28
   9   1  -4  927.93   40.01
   9  -1   4 1020.40   54.54
  -9   1  -4 1027.10   33.69
  -9  -1   4  980.14   50.01
   9  -1   5  354.32   27.55
  -9   1  -5  349.28   19.39
  -9  -1   5  348.08   16.76
  -9   1   5  354.28   17.31
  -9   1  -5  372.91   17.56
   9  -1  -5  336.19   22.56
  -9  -1  -5  324.95   14.75
   9   1  -5  322.02   17.91
   9   1   5  354.65   18.71
   9   1   5  341.40   23.73
  -9  -1  -5  320.07   17.31
   9  -1   5  380.35   18.58
  -9   1  -6  378.44   23.38
   9  -1  -6  412.45   32.88
   9  -1   6  396.27   33.46
  -9  -1   6  330.50   20.13
  -9  -1  -6  371.13   23.65
  -9   1  -6  386.25   22.82
   9   1   6  372.10   20.66
   9  -1   6  393.70   27.37
   9   1  -6  363.29   23.21
   9   1   6  356.96   25.66
  -9  -1  -6  350.26   25.00
  -9   1   6  392.71   23.63
   9   1   7   27.25    7.37
   9  -1   7   28.63   12.00
   9   1  -7   29.08    9.26
   9   1   7   31.26    6.72
  -9   1   7   27.39    9.66
   9  -1  -7   31.76    8.52
  -9  -1   7   20.26    9.62
   9  -1   8  105.69   12.53
   9   1   8  114.43   15.41
   9  -1  -8  120.16   15.26
  -9  -1   8   96.15   14.17
  -9   1   8  105.59   16.43
   9   1  -8  103.78   13.60
   9  -1  -9   30.17   12.34
   9   1   9   20.44   12.62
  -9   1   9   28.46   13.06
  -9  -1   9   17.88   13.16
   9  -1   9   35.48   12.17
   9   1  -9   30.06   16.05
 -10   1   0   28.65    5.38
 -10  -1   0   36.80    5.87
  10  -1   0   35.52    5.01
  10   1   0   29.02    6.44
 -10  -1   0   31.89    5.56
 -10   1   0   37.84    5.38
  10   1  -1   58.62    7.06
 -10   1   1   62.09    7.90
 -10   1   1   73.13    9.40
 -10  -1   1   65.86    8.53
  10  -1  -1   58.80    5.75
 -10  -1  -1   73.10    6.91
 -10  -1   1   64.85    8.86
 -10   1   1   63.10    8.03
 -10  -1  -1   72.12    7.13
 -10   1  -1   71.10    7.16
  10   1   1   69.82    6.27
 -10   1  -1   79.69    6.39
  10  -1   1   79.63    5.96
  10   1   1   58.66    8.27
  10  -1   2  232.38   11.83
  10  -1  -2  221.82   14.11
 -10  -1   2  237.12   13.10
 -10   1  -2  227.09   13.44
 -10   1   2  237.46   14.76
 -10   1   2  226.77   12.78
 -10  -1   2  229.06   19.77
  10   1   2  225.99   10.83
 -10  -1   2  238.24   18.40
 -10   1  -2  243.66   12.51
 -10  -1  -2  222.96   13.22
  10   1  -2  215.80   12.83
 -10  -1  -2  238.73   12.87
 -10  -1  -3   14.22    4.42
  10   1  -3    2.23    5.09
  10  -1  -3   25.23    6.31
  10  -1   3   13.77    7.19
 -10  -1   3   14.04    5.35
 -10   1   3   19.95    5.91
 -10   1   3   17.71    5.36
 -10   1  -3   11.93    3.23
  10   1   3   13.15    3.32
 -10  -1  -3    9.89    3.31
 -10   1  -3   10.20    3.47
 -10  -1   3    0.08    5.72
  10   1   3   10.66    4.35
 -10  -1   4  125.10   11.98
 -10   1  -4  149.50    9.49
 -10   1  -4  153.97    8.65
  10   1   4  123.81   11.38
  10  -1   4  162.94   12.89
 -10   1   4  150.20   13.00
 -10  -1  -4  121.79    9.20
  10  -1  -4  149.24   13.16
 -10  -1  -4  117.07   10.26
  10   1   4  114.54    9.76
  10  -1   4  157.10    8.67
  10   1  -4  125.36   10.65
 -10   1  -5  287.20   15.87
  10   1  -5  237.74   17.52
  10  -1   5  228.24   16.07
 -10  -1  -5  235.42   14.91
  10   1   5  242.53   17.74
  10  -1   5  270.09   17.45
 -10  -1  -5  229.84   17.50
  10  -1  -5  260.94   19.81
 -10   1   5  273.96   17.37
 -10   1  -5  251.88   16.55
 -10  -1   5  241.55   16.96
  10   1   5  265.35   18.64
  10   1  -6  109.89   11.88
  10  -1   6  130.25   12.83
  10  -1   6  124.63   11.27
  10   1   6  103.65   11.74
 -10  -1   6  109.98   14.30
  10  -1  -6  124.42   11.91
 -10  -1  -6  128.27    8.79
 -10   1   6  132.95   13.30
  10   1   6  113.63   13.32
  10   1   7  168.90   15.94
  10  -1  -7  134.29   17.08
  10  -1   7  143.11   15.80
 -10   1   7  145.78   13.90
  10   1  -7  171.31   16.19
 -10  -1   7  171.98   16.36
  10  -1  -8  139.35   18.10
  10  -1   8  138.07   15.39
 -10   1   8  133.90   19.41
 -10  -1   8  108.30   15.84
  10   1  -8  139.80   19.13
  10   1   8  108.80   14.83
 -11  -1   0    4.95    4.55
  11  -1   0    5.18    4.33
 -11   1   0   11.12    4.30
  11   1   0    3.05    3.94
 -11  -1   0    3.20    4.96
 -11   1   0    1.25    4.98
  11   1  -1  117.33   10.06
 -11   1   1  134.29   10.91
  11   1   1  112.29    8.58
 -11  -1  -1  110.72   10.03
  11  -1  -1  124.19   10.14
  11   1   1  120.45    9.26
 -11  -1   1  107.11   10.70
 -11   1  -1  115.45    8.17
 -11   1  -1  136.58    7.43
 -11   1   1  113.85   10.64
 -11  -1  -1  115.75    9.23
 -11   1   1  104.65    8.74
 -11  -1   1  106.70    9.89
  11  -1   1  118.00    9.01
  11  -1  -2  170.25   11.84
 -11   1  -2  177.58   10.00
  11  -1   2  173.67   11.97
 -11  -1   2  219.44   14.68
  11   1  -2  219.44   13.34
 -11   1   2  185.58   12.79
 -11  -1  -2  203.80   11.33
 -11  -1   2  214.70   18.31
 -11  -1  -2  198.73   12.92
 -11  -1   2  196.06   15.91
 -11   1   2  192.57   15.09
  11   1   2  208.78   11.57
 -11   1  -2  189.98   11.78
 -11  -1  -3  439.32   25.97
 -11  -1  -3  435.64   25.14
 -11   1  -3  441.32   23.78
  11   1   3  430.71   20.37
  11  -1   3  427.92   23.18
  11   1  -3  468.59   22.85
  11  -1  -3  422.04   24.44
 -11  -1   3  429.53   23.08
 -11   1  -3  424.98   18.86
 -11   1   3  454.34   22.87
 -11  -1  -4  449.21   47.84
 -11   1  -4  456.12   35.32
  11  -1   4  484.12   25.15
  11   1  -4  442.66   25.16
 -11  -1   4  451.44   21.77
  11  -1  -4  459.29   29.60
  11   1   4  452.08   22.91
 -11  -1  -4  445.35   22.20
  11   1   4  493.10   26.57
 -11   1  -4  484.60   24.18
 -11   1   4  451.24   21.94
  11  -1   5   -0.28    3.53
  11  -1  -5    6.15    7.08
  11   1  -5    2.83    8.03
 -11   1   5   14.68   11.14
  11   1   5    5.87    8.30
  11   1   5    8.31    4.28
  11  -1   5   -3.58    9.33
 -11  -1  -5    1.00    4.91
 -11  -1   5    6.84    7.01
  11   1  -6   22.38    9.73
 -11  -1   6   32.54   11.30
  11  -1   6   16.95   10.64
  11   1   6   24.31   10.18
 -11   1   6   25.06    9.74
  11  -1  -7   21.72   10.14
 -11  -1   7   40.85   10.50
  11  -1   7   36.05    8.88
  11   1   7   30.48   10.30
  11   1  -7   37.80    9.38
 -11   1   7   21.85   10.67
  11  -1  -8   16.40   13.48
  11   1   8   12.04   10.23
 -11  -1   8   12.41   11.22
  11   1  -8  -11.15   16.25
  11  -1   8   22.86   11.69
 -11   1   8   -3.07   11.98
  12  -1   0 1100.48   58.62
 -12  -1   0 1075.38   65.67
 -12  -1   0 1128.68   63.95
  12   1   0 1131.51   58.64
 -12   1   0 1120.31   55.61
 -12   1   0 1133.83   59.02
 -12   1  -1   83.30    8.79
 -12   1   1   57.04    8.01
 -12   1   1   74.81    8.16
 -12  -1  -1   77.33    7.87
  12  -1  -1   55.29    8.33
 -12  -1   1   67.32    8.93
 -12  -1   1   93.01    9.90
 -12  -1  -1   85.39    9.79
  12  -1   1   73.70    8.67
 -12   1   1   68.80    9.68
  12   1   1   68.61    8.92
 -12   1  -1   74.31    7.77
  12  -1   1   92.30    8.92
  12   1  -1   75.04    8.03
  12   1  -2  603.07   37.25
 -12   1  -2  623.82   36.37
  12   1   2  583.87   30.24
 -12  -1   2  613.37   44.06
 -12  -1  -2  591.84   31.28
 -12   1   2  584.12   38.73
 -12  -1   2  626.09   27.72
  12  -1   2  637.27   28.79
 -12  -1  -2  669.66   35.16
  12  -1  -2  614.18   32.48
 -12   1  -2  624.86   38.19
 -12   1   2  563.76   24.57
 -12   1  -3  430.73   22.85
 -12   1  -3  409.99   29.69
  12   1   3  406.56   23.12
 -12  -1  -3  420.55   23.81
 -12  -1  -3  417.50   22.29
 -12  -1   3  394.59   21.19
  12  -1  -3  428.91   26.73
 -12   1   3  424.72   26.11
  12   1  -3  436.46   22.59
  12  -1   3  426.92   24.41
  12  -1  -4   32.74    7.51
  12   1   4   29.71    6.04
 -12  -1  -4   31.01    5.67
  12  -1   4   25.54    6.52
 -12  -1   4   18.13    8.78
  12   1  -4   38.97    8.45
 -12   1  -4   37.76    5.79
 -12   1   4   22.78    7.53
  12   1   4   29.67    9.31
  12   1   5  242.15   18.66
 -12  -1   5  249.85   18.38
  12  -1   5  246.97   20.15
  12   1  -5  254.87   18.38
  12   1   5  241.20   17.80
 -12   1   5  255.81   21.39
  12  -1  -5  276.73   21.88
  12  -1   6   12.32    7.79
  12   1   6   27.12   12.32
  12  -1  -6    7.94    9.59
 -12   1   6   21.48   13.66
  12   1  -6   13.29    9.55
 -12  -1   6   18.36    9.01
  12   1   7    1.21   10.63
 -12   1   7    5.49    9.49
 -12  -1   7    3.11   15.09
  12  -1  -7    1.21   15.58
  12   1  -7    8.51   10.06
  12  -1   7   -7.54   13.04
  12   1   8  128.19   18.55
 -12  -1   8  105.61   16.81
 -12   1   8  140.33   21.06
  12  -1   8  130.98   14.84
  13  -1   0  115.72   11.79
  13   1   0  131.22   13.47
 -13   1   0  113.53   10.39
 -13   1   0  122.21   11.71
 -13   1   0  118.70   11.03
 -13  -1   0  135.77   13.06
 -13  -1   1   44.71   10.81
 -13   1   1   21.16    7.91
  13   1   1   54.94    9.93
 -13   1  -1   37.41    6.27
  13  -1  -1   43.04    7.50
 -13  -1  -1   51.59    7.10
 -13   1  -1   39.11    6.66
 -13  -1  -1   46.43    9.47
  13  -1   1   35.45    5.25
 -13   1   1   43.19    7.65
  13  -1   1   45.50    8.01
  13   1  -1   45.39    6.78
 -13  -1  -2  139.49   11.74
  13   1  -2  119.53   13.80
 -13   1  -2  130.33   10.81
  13  -1  -2  123.93   12.03
 -13  -1  -2  138.14   10.76
  13   1   2  150.49   11.43
 -13   1  -2  120.53    9.89
 -13  -1   2  127.16   18.01
 -13   1   2  108.29   12.62
  13  -1   2  135.62   12.20
 -13  -1   2  137.12   11.67
 -13   1   2  122.33    9.91
 -13  -1   3  152.02   13.56
 -13   1   3  120.45   11.42
  13   1  -3  131.96   11.86
  13  -1  -3  136.31   11.17
 -13  -1  -3  160.34   14.57
 -13   1  -3  121.96   12.13
  13  -1   3  124.87   11.84
  13   1   3  162.51   14.74
 -13  -1  -4   11.21    4.50
  13  -1   4    6.35    7.79
  13   1  -4   10.02    8.03
 -13   1   4    5.42    8.49
 -13  -1   4   -0.35   10.90
  13  -1  -4   13.62    9.45
  13   1   4   17.34    7.53
  13   1   5   76.07   12.58
 -13   1   5  110.02   17.96
  13   1  -5   77.72   11.63
  13  -1  -5   65.28   12.42
  13  -1   5   97.14   14.20
 -13  -1   5   66.75   11.28
  13   1   6    1.94    7.76
 -13  -1   6   18.57    9.52
  13  -1  -6   25.56   14.73
 -13   1   6   46.16   17.15
  13   1  -6   15.66    9.76
  13  -1   6   14.83    8.92
 -13  -1   7   66.86   15.12
  13   1   7   67.70   12.56
  13   1  -7   69.55   15.82
 -13   1   7   68.36   21.52
  13  -1   7   55.58   11.92
 -14   1   0   41.22   10.22
 -14   1   0   33.25    5.96
  14  -1   0   35.86    8.94
  14   1   0   38.83    7.00
 -14  -1   0   45.33    7.98
  14   1   0   42.77    8.42
 -14   1   1   55.12    8.51
  14  -1  -1   68.77    8.73
  14  -1   1   68.55   11.09
  14  -1   1   76.82    7.48
 -14  -1   1   69.96    9.53
  14   1  -1   72.09   10.14
 -14   1   1   71.71   13.28
  14   1   1   68.57   11.18
 -14  -1  -1   61.79    9.95
 -14  -1   1   49.81   11.06
 -14   1  -1   59.86    8.25
  14  -1   2   32.48    8.52
 -14  -1   2   23.59    8.30
  14   1   2   19.24    9.28
  14  -1  -2   36.01    8.80
  14   1  -2   36.32    9.06
 -14   1   2   11.72    9.62
 -14   1  -2   28.81    6.00
 -14  -1  -2   36.72    8.97
 -14   1   2   49.80   11.53
  14   1   3    7.66    9.81
 -14   1  -3    4.96    6.72
 -14  -1  -3   11.89    7.89
  14  -1   3    6.01    7.31
  14   1  -3   11.12    6.46
 -14  -1   3    0.35   10.42
 -14   1   3   35.24   10.79
  14  -1  -3   -0.67   10.38
 -14   1   4   72.39   14.23
  14   1  -4   72.27   11.78
 -14  -1   4   70.79   11.14
  14  -1   4   66.51   11.08
  14   1   4   78.15   11.61
  14  -1  -4   79.51   13.44
 -14  -1   5  119.29   16.61
 -14   1   5  109.50   18.63
  14  -1   5  145.29   15.81
  14   1   5  137.94   14.45
  14   1  -5  154.50   22.89
  14  -1  -5  149.52   16.47
 -14  -1   6  151.96   20.17
  14  -1  -6  149.17   16.09
  14   1   6  168.47   21.87
  14  -1   6  171.13   18.17
 -14   1   6  153.07   23.14
  14   1  -6  197.49   20.86
  14  -1   7   46.25   15.07
 -14  -1   7   63.88   21.42
 -14   1   7   39.09   20.00
  14   1   7   49.54   13.13
  15  -1   0  383.20   22.24
  15   1   0  396.84   25.90
  15   1   0  402.40   27.52
 -15   1   0  350.87   23.88
  15  -1   1  168.65   13.39
  15  -1   1  162.28   15.42
  15   1  -1  183.44   18.36
 -15   1   1  149.43   13.77
 -15   1  -1  153.92   13.21
  15   1   1  204.68   16.99
 -15  -1   1  192.85   13.13
  15  -1  -1  162.60   13.85
  15  -1  -2  128.07   12.86
  15  -1   2  146.30   14.36
 -15   1   2  122.21   13.39
 -15  -1   2  168.63   16.92
  15   1  -2  147.18   15.65
  15   1   2  152.17   17.69
 -15  -1   3  109.79   12.57
  15  -1  -3  138.38   15.30
  15   1  -3  136.71   14.87
 -15   1   3  136.89   17.39
  15   1   3  120.70   13.35
  15  -1   3  111.10   14.59
  15  -1   4   29.16   12.38
  15  -1  -4   17.99   10.75
  15   1   4   27.89   11.06
 -15  -1   4   20.64    9.41
  15   1  -4    5.89   10.48
 -15   1   4   19.65   11.41
  15  -1   5   59.98   11.22
 -15   1   5   52.86   13.51
 -15  -1   5   66.70   15.19
  15  -1  -5   45.45   12.69
  15   1   5   47.32   10.66
  15   1  -5   40.98   16.56
  15  -1   6  -12.17   17.28
  15   1   6   14.80   12.99
 -15  -1   6   -0.65   17.03
 -15   1   6    4.45   11.51
  16  -1   0  565.04   33.06
 -16   1   0  543.29   40.10
  16   1   0  529.89   35.56
  16   1   0  512.10   30.53
  16  -1   0  501.18   40.44
  16   1  -1  307.60   23.55
  16  -1  -1  313.45   25.13
  16   1   1  327.24   25.82
 -16  -1   1  314.90   25.17
  16  -1   1  312.31   24.32
 -16   1  -1  304.13   21.94
 -16   1   1  305.20   23.31
 -16   1   2  126.06   15.80
  16  -1  -2  111.50   12.34
  16  -1   2  126.80   17.84
 -16  -1   2  117.15   16.63
  16   1   2  101.32   14.59
  16   1  -2  100.37   14.99
  16  -1   3   44.36   14.37
  16  -1  -3   32.66   12.24
  16   1  -3   35.78   12.05
 -16  -1   3   27.08   14.38
  16   1   3   40.37   10.50
 -16   1   3   47.74   10.83
  16  -1  -4   81.22   15.38
  16  -1   4   74.58   14.51
  16   1  -4   70.97   12.21
 -16  -1   4   55.56   13.06
 -16   1   4   63.52   14.19
  16   1   4   68.68   13.92
 -16  -1   5   32.01   11.51
 -16   1   5   34.43   15.99
  16   1   5   35.56   14.29
  16  -1   5   49.99   13.34
  17  -1   0  282.71   25.36
 -17   1   0  242.55   21.85
  17   1   0  294.35   23.81
  17  -1   0  219.98   18.66
 -17  -1   0  272.83   19.90
 -17   1  -1  249.91   19.49
  17   1  -1  294.98   26.55
  17   1   1  338.82   25.82
 -17  -1   1  293.59   24.65
  17  -1   1  256.25   23.75
 -17   1   1  272.15   23.48
  17  -1  -1  223.43   22.70
  17   1  -2  147.52   18.77
 -17   1   2  182.36   20.20
 -17   1  -2  186.53   18.87
  17  -1   2  161.86   20.55
 -17  -1   2  177.74   19.74
  17  -1  -2  166.73   20.22
  17   1   2  173.96   19.38
  17  -1  -3   96.29   14.27
  17   1  -3   89.85   16.93
 -17   1   3   85.75   16.88
 -17  -1   3   94.82   14.98
  17  -1   3   82.95   15.53
 -17   1  -3  105.36   12.24
  17   1   4    1.48   10.52
  17  -1   4   19.40   11.21
 -18   1   0   18.30    9.83
  18  -1   0   -3.04   10.56
 -18  -1   0    1.43    8.91
  18  -1   0    8.78   14.32
  18   1   0    5.10   10.03
  18  -1   1   32.65   12.70
 -18   1   1   11.94    9.91
  18  -1  -1    2.58   10.68
  18   1   1   -1.54    9.68
 -18  -1  -1    2.02    8.49
 -18  -1   1   11.69   14.09
  18   1  -1    0.74   15.78
 -18   1  -1    3.25   10.61
  18   1  -1    9.09   33.79
  18   1  -2   50.87   20.48
 -18   1  -2   41.48    9.94
  18  -1   2   21.84   17.49
 -18  -1   2   84.70   16.68
 -18   1   2   52.67   14.20
  18  -1  -2   58.24   18.68
  18   1   2   34.57   12.27
   0  -2  -1 2690.95  267.19
   0   2   1 2417.11  284.51
   0  -2  -1 2613.67  324.83
   0   2  -1 3049.93  248.42
   0  -2  -2 1490.32   38.43
   0  -2   2 1414.01   48.54
   0   2  -2 1429.78   53.94
   0  -2  -2 1445.73   55.39
   0   2   2 1480.57   40.32
   0   2  -2 1436.02   55.37
   0  -2   2 1486.05   49.99
   0   2   2 1485.60   40.49
   0   2   2 1454.32   45.99
   0  -2  -2 1453.05   42.94
   0  -2   2 1431.99   42.89
   0   2   3  356.95   13.40
   0  -2  -3  347.38   13.35
   0  -2  -3  361.78   13.00
   0  -2   3  337.62   12.16
   0   2  -3  332.13   15.68
   0   2   3  348.11   12.25
   0   2  -3  344.96   10.86
   0   2   3  335.02   13.66
   0  -2   3  339.05   11.26
   0  -2  -3  335.79   13.15
   0   2  -3  337.57   13.01
   0  -2   3  326.73   11.62
   0  -2   4  403.91   14.89
   0  -2   4  416.85   14.49
   0   2  -4  406.87   14.74
   0   2  -4  419.52   17.23
   0   2   4  428.00   14.37
   0   2  -4  423.27   22.04
   0  -2  -4  430.27   17.04
   0  -2   4  418.41   13.98
   0  -2  -4  419.12   23.07
   0   2   4  438.65   17.77
   0   2   4  420.29   15.20
   0  -2  -4  395.81   14.13
   0  -2   5    0.21    4.00
   0   2  -5    2.75    3.45
   0   2  -5    2.03    4.47
   0  -2  -5    1.07    4.28
   0   2  -5    1.44    2.17
   0  -2   5    4.46    2.71
   0  -2   5   -0.08    4.69
   0   2   5    0.94    5.09
   0   2   5   -0.08    4.14
   0  -2  -5   -2.62    2.92
   0  -2  -5   -4.74    5.64
   0   2   5   -0.75    5.67
   0   2   6  429.09   16.02
   0  -2   6  425.19   19.32
   0  -2  -6  411.26   17.73
   0   2  -6  429.88   22.18
   0   2  -6  425.98   26.53
   0   2  -6  426.65   22.55
   0  -2   6  406.89   18.34
   0   2   6  445.79   19.95
   0   2   6  438.16   19.19
   0  -2   6  413.69   18.52
   0  -2  -6  396.16   24.32
   0  -2  -6  427.90   24.11
   0  -2   7  210.58   14.51
   0  -2  -7  210.62   13.17
   0   2   7  173.32   14.61
   0   2   7  199.13   16.54
   0  -2  -7  209.34   16.81
   0   2  -7  212.27   14.35
   0  -2   7  197.61   11.15
   0   2   7  216.07   13.32
   0   2  -7  211.67   15.37
   0   2  -7  228.23   16.79
   0  -2   7  188.59    9.78
   0  -2  -8  207.15   14.72
   0  -2   8  228.70   14.18
   0   2  -8  207.55   15.81
   0  -2  -8  171.80   21.47
   0  -2   8  226.97   13.31
   0   2  -8  212.64   17.29
   0   2   8  212.87   14.94
   0   2   8  228.88   14.84
   0  -2   8  186.92   13.44
   0   2   9   36.16    9.02
   0  -2   9   39.12   12.08
   0  -2  -9   33.31    7.99
   0   2   9   25.06    9.72
   0  -2   9   49.96   11.34
   0   2  -9   37.38    6.39
   0   2  10  112.47   18.75
   0  -2  10  154.17   16.55
   0   2  10  139.47   20.82
  -1  -2  -1  854.67   50.94
   1  -2   1 1062.99   32.76
  -1   2   1 1048.45   32.06
   1   2   1 1023.03   32.84
  -1   2   1 1075.64   29.95
   1  -2   1 1012.51   43.78
  -1   2  -1 1023.28   38.72
   1  -2  -1 1030.43   28.91
  -1  -2  -1 1077.91   31.47
   1  -2  -1  772.03   56.79
   1   2  -1  795.38   52.44
   1  -2  -1  783.60   57.06
  -1  -2   1 1011.90   43.22
   1  -2   2 2945.06  118.05
   1  -2  -2 2998.83   87.42
   1  -2   2 2803.57  123.37
   1  -2   2 2938.47   85.51
  -1   2  -2 2939.08   91.82
  -1   2   2 2847.91   92.83
  -1   2   2 2878.54   85.04
  -1  -2  -2 2959.85   88.03
   1  -2  -2 2922.50   87.13
   1   2   2 2958.09  102.54
   1  -2  -2 2914.89   82.54
  -1   2  -2 2926.36   99.17
   1   2  -2 2886.80   97.95
  -1  -2   2 2877.27  150.94
  -1  -2  -2 2880.14   94.66
   1   2   2 2923.60  145.87
  -1  -2   2 2949.74  134.56
   1   2  -2 2950.89   83.27
  -1   2   2 2931.62   99.46
  -1  -2  -2 2914.81   94.79
  -1  -2  -3 3726.61  145.78
  -1   2   3 3640.65   97.83
   1   2  -3 3787.66   97.05
   1   2   3 3714.88  104.11
  -1  -2   3 3765.02  137.61
  -1  -2   3 3749.56  142.86
  -1  -2   3 3629.40   98.10
  -1   2  -3 3737.40  129.78
  -1   2   3 3533.74   97.00
   1  -2  -3 3634.79  108.43
  -1  -2  -3 3835.18  119.13
   1  -2   3 3740.26  110.92
  -1   2   3 3652.88  157.06
   1  -2   3 3614.82  111.93
   1   2  -3 3682.92  130.41
  -1   2  -3 3766.75  133.33
   1  -2   3 3611.33  112.93
  -1  -2  -3 3729.65  119.37
   1  -2  -3 3701.79  133.02
   1   2   3 3759.54  107.25
   1  -2  -3 3800.27  123.20
  -1   2  -3 3749.54  120.98
  -1  -2  -4 1154.56   55.48
  -1  -2  -4 1175.96   35.07
  -1   2  -4 1107.92   43.51
   1   2   4 1160.11   32.06
   1  -2  -4 1130.44   38.14
   1   2  -4 1144.06   39.95
   1   2  -4 1190.52   44.69
  -1   2   4 1135.94   46.14
  -1  -2   4 1122.52   30.67
   1  -2   4 1104.47   31.96
   1  -2   4 1116.98   33.93
   1   2   4 1145.32   34.94
  -1   2  -4 1082.65   34.42
  -1   2  -4 1096.37   47.18
   1  -2   4 1067.07   48.01
   1  -2  -4 1108.68   48.13
  -1   2   4 1078.01   37.79
  -1   2   4 1109.46   36.30
   1  -2  -4 1146.96   45.48
  -1  -2   4 1230.94   38.47
  -1  -2   4 1137.79   37.59
   1   2  -4 1165.74   43.71
  -1  -2  -4 1147.98   36.19
   1  -2  -5  135.21   11.31
  -1   2   5  137.28    9.91
   1  -2   5  125.68    7.11
   1  -2  -5  139.11   11.84
  -1  -2   5  142.05    7.54
   1   2   5  136.97    8.26
  -1  -2  -5  121.79    8.58
   1   2  -5  137.57    9.74
   1  -2   5  132.95    7.14
  -1   2  -5  140.04    7.57
  -1  -2   5  125.79    6.84
   1   2  -5  117.59    7.48
  -1   2  -5  134.28    9.70
  -1   2   5  130.54    8.26
  -1   2  -5  131.88    7.95
  -1  -2  -5  123.43   10.21
   1   2  -5  116.38    9.59
  -1  -2   5  121.36    8.79
  -1  -2  -5  132.50   10.01
   1   2   5  122.95    8.74
   1  -2  -5  148.40    6.91
  -1   2   5  131.62    8.73
   1  -2   5  141.86    8.51
  -1   2  -6  147.58    9.52
  -1   2  -6  134.74    9.77
   1  -2   6  149.58    7.95
   1  -2   6  165.70    8.68
  -1  -2   6  157.81    9.04
   1   2  -6  149.74   12.51
  -1  -2   6  149.79    9.02
   1  -2  -6  134.13    8.59
   1  -2  -6  129.92   12.94
   1  -2  -6  145.18   12.41
   1   2  -6  141.58    9.68
  -1   2  -6  136.59   10.86
  -1  -2   6  146.06   10.96
  -1   2   6  154.30    9.42
  -1  -2  -6  173.91   13.74
  -1   2   6  143.67   11.36
  -1   2   6  139.64   10.65
   1   2  -6  173.35   11.33
  -1  -2  -6  144.71    8.48
   1   2   6  156.07    9.75
  -1  -2  -6  169.83   12.18
   1  -2   6  161.90    9.91
   1   2   6  153.21    9.56
  -1  -2   7  501.68   21.83
  -1   2  -7  537.36   29.84
  -1  -2  -7  516.41   23.88
  -1   2  -7  556.62   37.49
  -1  -2  -7  566.43   27.55
   1  -2   7  544.50   25.13
  -1   2  -7  531.57   33.40
   1  -2  -7  508.38   23.15
  -1   2   7  514.33   24.76
   1  -2   7  552.91   25.98
  -1  -2   7  540.92   24.19
   1   2  -7  553.44   28.83
  -1  -2   7  535.57   24.85
   1   2  -7  578.33   31.42
  -1   2   7  520.74   27.03
   1   2   7  491.10   21.46
   1   2   7  533.06   25.38
   1   2  -7  531.67   36.52
   1  -2   7  537.09   23.27
  -1   2   7  535.23   24.25
   1  -2  -7  534.94   29.33
  -1   2   8   93.64    9.94
  -1  -2  -8  119.90   10.03
   1   2  -8  109.88    9.51
   1  -2  -8  102.97   10.23
  -1  -2  -8   93.04   12.59
  -1   2  -8  121.27    8.49
   1   2   8  126.55   11.75
   1  -2   8  107.24   11.25
  -1  -2   8   91.46   10.35
  -1  -2   8   95.66   11.36
  -1   2   8  106.90   13.79
   1  -2   8  125.35    9.66
   1   2   8  117.88   10.74
  -1  -2   8  117.81   13.39
  -1   2   8  129.17   12.89
   1   2  -9   51.71    8.05
  -1   2   9   57.11    9.48
  -1   2   9   35.96   10.50
   1  -2   9   38.40    7.91
  -1  -2   9   26.11   12.81
  -1  -2   9   35.93    9.54
   1   2   9   33.32    9.81
   1  -2  -9   50.06    8.35
  -1  -2  -9   44.58    9.11
   1  -2   9   43.52    8.77
   1   2   9   56.46   11.30
  -1   2  10  138.62   17.61
   1   2  10  111.83   16.26
  -1   2  10   93.96   15.25
   1  -2 -10  101.80   15.60
   1  -2  10   90.05   12.95
   2  -2   0 4919.13  161.68
  -2   2   0 5032.92  163.61
   2  -2   0 4629.91  170.72
   2   2   0 4915.36  183.84
  -2  -2   0 4836.18  141.92
  -2   2   0 4981.14  157.99
  -2  -2   0 4162.97  197.92
   2   2   0 3978.29  199.45
  -2   2   1   54.64    3.59
  -2  -2   1   45.12    3.20
  -2  -2  -1   47.12    3.92
   2   2  -1   42.39    3.08
  -2  -2  -1   50.91    3.45
  -2   2  -1   46.40    2.64
   2  -2  -1   53.62    3.31
  -2   2   1   54.13    3.97
  -2   2  -1   42.54    1.93
   2   2   1   47.76    3.63
   2  -2   1   50.60    3.00
   2  -2  -1   50.26    3.26
   2  -2   1   57.83    2.38
   2   2   1   53.45    3.21
   2  -2  -1   51.84    3.43
  -2   2   2 1242.63   40.95
   2   2   2 1295.91   40.99
  -2  -2   2 1324.60   52.55
   2  -2  -2 1216.47   38.09
  -2   2   2 1245.71   38.67
   2  -2   2 1316.23   46.54
   2  -2  -2 1312.83   45.76
  -2   2   2 1265.33   37.33
   2  -2   2 1306.66   40.91
   2   2  -2 1306.89   42.49
  -2  -2  -2 1322.10   39.03
  -2   2  -2 1267.86   44.01
  -2  -2   2 1297.67   43.22
  -2  -2  -2 1357.28   42.79
   2  -2  -2 1323.66   67.06
   2   2   2 1287.55   51.73
   2  -2  -3   95.88    7.54
  -2  -2   3   91.33    6.06
  -2   2   3  105.18    5.68
  -2  -2  -3   95.70    7.79
  -2   2   3  118.63    6.51
  -2   2  -3   90.67    3.86
  -2  -2  -3   91.42    5.06
   2  -2  -3  106.40    6.52
   2   2   3   90.24    5.58
   2   2  -3   94.35    5.41
  -2  -2   3   87.18    4.96
   2  -2  -3   95.31    6.18
   2   2   3   87.64    5.35
   2   2  -3   92.57    5.18
  -2   2  -3  101.23    5.76
  -2  -2  -3   97.08    5.52
  -2   2   3  100.26    6.47
  -2   2  -3   99.31    4.37
   2  -2   3  106.33    5.10
   2  -2   3   98.10    5.57
   2  -2  -4  688.51   29.78
  -2  -2  -4  693.70   24.98
  -2   2  -4  689.06   28.08
   2  -2   4  682.81   25.59
  -2  -2   4  713.14   29.68
   2   2  -4  720.80   25.74
   2  -2   4  699.92   21.93
  -2  -2   4  691.35   23.33
  -2  -2  -4  699.68   23.95
  -2   2  -4  700.47   29.12
   2   2   4  686.24   19.99
  -2   2  -4  671.43   27.28
   2  -2  -4  652.24   32.55
  -2   2   4  646.96   22.54
   2  -2  -4  612.80   22.29
  -2  -2  -4  719.55   36.04
  -2   2   4  669.00   26.36
  -2   2   4  662.64   24.68
   2   2   4  682.72   23.82
   2  -2   4  687.94   23.61
   2   2  -4  683.10   27.23
   2  -2   5  390.21   13.64
   2  -2  -5  412.21   15.70
  -2  -2  -5  411.85   19.61
  -2   2   5  389.94   15.11
  -2   2   5  383.19   17.27
   2  -2   5  409.11   14.44
  -2  -2  -5  396.17   15.43
   2   2   5  414.40   16.30
  -2   2  -5  422.27   18.52
   2  -2  -5  418.43   21.07
   2   2  -5  353.56   15.09
  -2  -2   5  382.06   16.91
   2  -2  -5  430.41   22.75
  -2   2  -5  416.59   16.02
   2   2   5  378.90   16.11
   2   2  -5  377.47   21.17
  -2  -2  -5  380.42   26.05
  -2   2   5  389.71   17.84
  -2  -2   5  383.38   15.99
   2  -2   5  391.85   15.99
  -2   2  -5  414.29   20.52
   2  -2  -6  270.44   17.66
   2   2  -6  219.15   16.04
   2   2   6  225.85   13.50
  -2  -2   6  222.77   11.06
  -2  -2  -6  213.89   13.49
  -2   2   6  228.88   11.29
   2   2   6  220.96   12.92
  -2   2  -6  269.41   13.82
  -2   2  -6  258.49   14.68
  -2   2   6  246.61   13.92
  -2  -2   6  224.98   12.77
  -2  -2  -6  218.48   17.01
  -2   2  -6  257.14   12.13
   2  -2   6  233.98   10.36
  -2   2   6  251.61   17.45
   2  -2  -6  245.13   14.60
   2   2  -6  219.26   13.00
  -2  -2   6  202.09   10.87
   2  -2   6  277.15   13.72
  -2  -2  -6  234.46   14.29
   2  -2  -6  258.30   16.24
  -2  -2   7  821.72   34.53
  -2  -2  -7  798.20   45.29
  -2   2   7  847.57   39.09
  -2  -2   7  823.49   29.98
   2   2  -7  860.50   42.56
  -2   2  -7  801.31   48.82
  -2   2   7  793.54   38.40
   2   2   7  818.37   37.12
  -2  -2  -7  777.99   34.77
   2   2  -7  784.77   47.78
   2  -2   7  843.57   32.67
   2  -2  -7  828.02   40.92
   2   2   7  875.55   40.53
  -2   2  -7  828.00   48.72
   2  -2   7  810.17   33.05
  -2   2   7  857.92   46.11
  -2   2  -7  814.14   36.61
   2  -2  -7  828.74   39.29
   2  -2  -8   68.42   13.76
  -2   2   8   53.38   10.97
  -2   2   8   77.33   10.17
  -2  -2  -8   65.68    8.21
  -2   2   8   71.45   10.18
   2  -2   8   59.61    9.12
   2   2   8   87.54    9.13
  -2  -2   8   55.29   10.16
   2  -2  -8   91.78   11.78
   2   2  -8   84.58   10.63
   2   2   8   71.88    9.89
   2  -2   8   89.91    9.32
  -2  -2  -8   53.08   11.70
  -2   2  -8   79.21    7.03
  -2  -2   8   75.22    9.01
   2  -2  -9   19.95    7.62
   2   2   9    4.16    9.71
  -2   2   9   31.64    8.48
  -2   2   9    9.15   13.30
  -2  -2   9    7.87   13.66
  -2  -2  -9   25.47    8.15
   2   2  -9    7.37    5.92
   2   2   9   12.49    7.95
   2  -2  10   47.93   10.40
   2  -2 -10   58.27   11.67
  -2   2  10   36.11   12.58
   2   2  10   28.61   12.90
   3  -2   0 1224.13   43.90
  -3  -2   0 1268.59   39.49
   3   2   0 1207.64   48.69
   3   2   0 1255.38   51.76
  -3   2   0 1224.12   35.95
  -3   2   0 1163.39   44.44
  -3  -2   0 1253.59   51.78
  -3  -2  -1 4267.34  153.32
   3   2   1 4311.94  191.25
   3   2   1 4307.16  176.20
  -3  -2  -1 4354.39  133.78
  -3  -2   1 4312.05  147.48
   3  -2   1 4292.11  121.07
   3  -2  -1 4451.85  125.95
   3  -2  -1 4450.94  151.51
  -3   2  -1 4153.44  138.69
  -3   2   1 4276.58  137.24
  -3   2   1 4454.22  117.92
   3   2  -1 4348.02  153.24
   3  -2  -2 1161.29   34.14
   3  -2   2 1201.66   36.44
   3  -2  -2 1152.36   34.98
   3   2   2 1189.93   37.47
   3   2   2 1169.68   44.07
   3  -2   2 1142.11   34.58
  -3   2   2 1161.76   39.73
  -3  -2  -2 1154.78   43.74
  -3  -2   2 1188.22   44.38
  -3   2  -2 1173.94   39.44
   3  -2  -2 1117.95   34.74
  -3  -2  -2 1211.47   49.86
  -3   2   2 1197.53   43.34
   3   2  -2 1135.13   38.06
   3  -2   3   35.16    3.45
  -3   2  -3   38.72    3.70
   3   2  -3   30.96    3.34
  -3   2   3   33.60    4.19
   3  -2   3   33.69    2.15
   3   2   3   39.36    4.32
   3  -2  -3   31.71    4.25
  -3  -2   3   29.72    4.78
  -3   2  -3   38.26    1.78
   3   2  -3   25.62    3.88
   3   2   3   33.28    3.89
  -3  -2  -3   26.87    3.08
   3  -2  -3   32.49    3.78
  -3  -2  -3   36.71    4.06
   3  -2  -3   42.04    4.18
  -3  -2   3   28.17    4.16
  -3   2   3   32.32    4.34
   3   2  -4   62.48    6.10
  -3  -2  -4   71.82    6.10
  -3  -2  -4   74.16    7.13
  -3   2   4   78.07    6.09
   3   2   4   66.48    5.82
   3  -2  -4   79.90    6.87
  -3   2   4   77.37    6.35
   3   2  -4   65.54    6.08
  -3   2  -4   79.78    7.81
   3  -2   4   62.78    5.09
  -3   2   4   66.66    6.19
   3  -2  -4   73.91    6.19
  -3  -2   4   70.99    5.13
  -3  -2  -4   66.70    4.03
   3  -2   4   77.53    4.98
  -3   2  -4   70.42    3.04
  -3  -2   4   66.48    5.32
   3  -2  -4   73.09    7.35
   3   2   4   64.75    5.95
  -3   2  -4   76.30    5.20
   3   2   5    9.26    4.75
   3  -2  -5    8.48    5.04
   3   2  -5    9.13    3.70
  -3  -2   5    2.38    3.96
  -3   2   5    8.19    4.87
  -3  -2  -5   -1.73    3.70
   3  -2   5    7.05    3.50
  -3   2   5    3.49    5.73
   3   2   5    4.53    3.68
  -3  -2   5   -1.20    3.94
  -3   2  -5    4.11    1.64
   3   2  -5    8.09    4.60
  -3   2  -5    9.73    4.53
   3  -2  -5    5.60    5.34
   3  -2   5    2.96    3.46
  -3   2   5    3.80    3.97
  -3  -2  -5    2.65    5.16
   3  -2  -5    3.69    4.48
  -3   2  -5    8.11    3.39
  -3  -2  -5    2.54    3.97
  -3  -2  -6  401.43   19.74
  -3   2   6  408.41   20.33
  -3  -2   6  390.63   16.47
   3   2   6  408.09   19.69
  -3  -2   6  415.96   21.79
   3   2  -6  418.59   22.55
   3  -2  -6  381.54   18.78
   3   2  -6  433.45   24.48
   3  -2  -6  380.40   25.67
  -3   2  -6  389.23   16.76
  -3  -2  -6  425.83   21.43
  -3   2  -6  414.73   20.88
   3  -2   6  403.24   17.62
   3  -2   6  393.15   19.01
   3   2   6  405.38   17.57
  -3   2   6  383.72   19.84
   3  -2  -6  399.93   22.53
  -3   2   6  382.89   18.88
  -3   2  -6  411.82   21.03
  -3  -2  -6  418.13   24.73
   3   2  -7   25.27    7.27
   3   2   7   26.36    6.92
  -3  -2  -7   25.52    4.79
   3  -2   7   16.42    7.24
  -3   2  -7    5.39    5.43
  -3   2   7   25.83    7.88
  -3  -2   7   18.84    8.36
  -3   2  -7   18.17    2.97
   3  -2   7   14.49    4.78
   3   2   7   21.46    7.21
   3   2  -7   24.19    5.26
   3  -2  -7   21.68    7.66
  -3  -2   7   26.48    6.74
  -3  -2  -7   24.11    7.67
  -3   2   7   19.84    7.76
  -3   2  -7   10.08    6.33
   3  -2  -7   12.23    5.11
  -3   2   7   16.03   10.77
  -3  -2  -8   84.86    9.44
   3   2   8   88.97   10.89
  -3   2   8   91.75   11.25
   3  -2   8   75.30    9.33
  -3   2  -8   93.20    7.87
   3  -2   8   97.52   10.96
   3  -2  -8   98.65   12.73
   3   2  -8   93.07    9.91
  -3  -2   8  118.31   13.98
  -3  -2   8   86.03   13.55
   3   2   8  103.66   11.56
  -3   2   9   71.66   11.92
   3  -2   9   60.75   10.83
   3   2   9   50.09   14.16
   3  -2  -9   56.56    9.36
  -3  -2   9   58.18   12.36
   3   2  -9   48.07    8.81
  -3  -2  -9   59.99    8.40
   3   2   9   61.61   10.78
   3   2  10    5.96   11.54
  -3   2  10    3.81   11.11
   3  -2 -10    9.29   10.57
   3  -2  10   31.14   11.30
  -4  -2   0  756.14   25.36
  -4   2   0  720.77   25.87
   4  -2   0  706.30   22.55
   4   2   0  728.75   26.31
  -4   2   0  723.37   24.77
   4   2   0  705.10   26.62
  -4  -2   0  743.87   23.17
  -4   2   1 1381.83   50.85
  -4   2  -1 1335.58   45.36
  -4  -2   1 1360.67   43.98
   4   2   1 1287.72   54.15
  -4  -2  -1 1310.58   40.14
  -4  -2   1 1328.67   45.60
   4  -2   1 1355.59   40.67
  -4  -2  -1 1285.79   40.81
   4  -2  -1 1320.25   42.50
   4   2   1 1327.20   41.82
  -4   2   1 1376.01   40.97
   4  -2  -1 1475.79   53.12
   4   2  -1 1343.53   51.62
  -4  -2  -1 1334.90   40.52
  -4  -2  -2  602.41   20.34
  -4   2   2  583.78   17.53
   4   2   2  584.49   25.75
   4  -2  -2  593.58   20.41
  -4  -2   2  581.33   22.82
  -4   2  -2  579.14   19.47
   4   2   2  592.03   20.93
  -4   2   2  572.03   21.11
   4  -2   2  580.17   19.90
  -4  -2  -2  604.71   27.70
   4  -2   2  572.31   25.05
   4   2  -2  578.10   20.20
   4  -2  -2  617.41   24.29
  -4   2  -3  163.84    5.58
  -4   2   3  144.90    7.21
  -4   2   3  157.13    9.33
   4   2   3  168.47    8.29
  -4  -2  -3  154.81    8.50
   4   2  -3  156.65    8.11
  -4   2  -3  154.81    8.98
   4  -2  -3  158.44    8.27
   4   2   3  144.22    8.13
  -4  -2  -3  174.33   11.93
   4  -2  -3  142.04    9.14
  -4   2  -3  143.63    6.71
   4  -2   3  151.20    6.47
   4  -2  -3  154.15    9.57
   4  -2   3  137.21    8.51
  -4  -2   3  158.46    7.94
  -4  -2   3  160.58    7.91
   4   2  -4  231.06    9.79
  -4   2  -4  239.44   12.50
  -4  -2  -4  233.87    8.75
  -4  -2  -4  234.62   12.51
   4   2   4  218.70   10.03
  -4  -2   4  225.63   11.46
   4  -2   4  222.84    9.35
   4  -2  -4  221.23   10.93
   4   2  -4  223.82   10.77
   4  -2  -4  243.82   13.06
  -4   2  -4  230.61    8.96
  -4   2   4  242.23   11.05
  -4   2  -4  237.79    9.30
   4  -2  -4  248.72   13.90
  -4   2   4  246.89   11.87
   4  -2   4  217.89   11.00
  -4  -2   4  246.80   14.18
  -4  -2  -4  225.92   17.63
   4   2   4  247.21   10.80
   4  -2  -5  223.03   12.73
   4   2  -5  239.58   12.46
   4   2   5  241.49   10.51
  -4   2  -5  228.41    8.62
  -4  -2   5  235.38   11.77
  -4   2   5  238.32   12.87
  -4  -2  -5  219.62   11.59
  -4   2   5  240.81   11.21
   4   2   5  236.70   11.55
   4  -2   5  226.89    9.49
  -4  -2  -5  237.88   11.49
   4   2  -5  241.16   13.17
   4  -2  -5  217.37   13.98
   4  -2   5  218.95   13.75
   4  -2  -5  229.88   19.06
  -4   2  -5  246.08   13.90
  -4   2  -5  214.92   10.34
  -4  -2   5  250.07   13.41
  -4  -2  -5  213.80   14.21
  -4  -2  -6  229.15   12.46
  -4   2  -6  268.90   12.63
   4  -2  -6  301.56   20.83
   4  -2   6  257.34   12.81
   4   2   6  248.22   12.32
   4  -2   6  265.75   13.92
  -4   2  -6  267.69   14.09
   4   2   6  254.11   13.11
  -4  -2  -6  253.39   17.36
   4  -2  -6  229.11   18.35
   4   2  -6  247.85   15.66
  -4   2  -6  275.80   15.36
  -4  -2   6  215.16   13.63
  -4  -2   6  238.82   17.48
  -4   2   6  261.70   12.91
   4   2  -6  229.73   15.08
  -4  -2  -6  199.20   14.23
  -4   2   6  263.27   16.58
   4  -2  -6  249.63   16.95
   4  -2   7  125.24   10.36
   4  -2  -7  123.10   12.96
  -4  -2   7  142.43   14.31
  -4   2   7  132.39   11.68
  -4  -2  -7  129.11    9.11
  -4   2  -7  127.17   11.03
   4  -2  -7  138.41   13.69
   4   2   7  128.95   10.81
   4   2   7  118.47   11.02
  -4   2   7  118.46   12.04
   4  -2   7  125.08    9.92
  -4  -2   7  129.87   13.10
   4   2  -7  147.53    8.81
  -4   2  -7  108.91   13.06
  -4   2  -7  127.24    7.38
  -4  -2  -7  122.32   11.21
   4  -2   8   93.19   10.32
  -4   2  -8  104.70    8.53
   4  -2   8   95.53    8.71
  -4   2   8   96.23   12.46
   4  -2  -8  102.65   10.00
   4   2  -8   93.86   12.33
  -4  -2   8  103.40   11.16
   4   2   8   67.69   11.76
   4   2   8   99.54   10.31
  -4  -2  -8  117.27   10.03
   4   2  -9   54.78   10.88
   4  -2  -9   61.69    8.31
   4   2   9   77.21   12.21
   4  -2   9   60.27   10.67
   4   2   9   40.79    9.72
  -4   2   9   51.90   17.94
  -4  -2   9   76.86   14.72
   4   2 -10  274.20   20.87
  -4   2  10  323.05   26.74
   4  -2 -10  278.29   21.08
  -4  -2  10  286.37   21.81
   4  -2  10  287.08   22.19
   4   2  10  302.61   27.09
  -5   2   0  153.24    6.37
  -5  -2   0  121.60    6.32
  -5   2   0  158.08    6.88
  -5  -2   0  118.64    6.63
   5   2   0  119.37    5.27
   5   2   0  121.99    6.97
   5  -2   0  151.40    6.02
  -5   2   1  738.71   24.00
   5  -2  -1  736.34   24.60
   5   2   1  655.56   22.65
   5   2   1  700.83   26.34
  -5   2   1  715.04   32.30
  -5  -2   1  686.87   24.09
  -5   2  -1  688.02   19.81
  -5  -2  -1  700.10   23.71
  -5  -2   1  683.53   32.76
  -5   2  -1  683.40   23.98
   5  -2   1  676.84   21.65
   5   2  -1  670.56   28.43
  -5  -2  -1  719.44   26.27
  -5  -2  -2  403.84   20.77
   5  -2   2  424.88   15.52
  -5   2   2  418.30   16.57
  -5  -2   2  396.33   17.61
   5   2   2  398.68   12.80
   5   2   2  397.85   16.22
  -5   2  -2  404.43   13.17
   5   2  -2  410.38   15.24
   5  -2  -2  397.14   15.08
  -5  -2  -2  416.86   17.64
   5  -2  -2  427.13   17.77
  -5   2   2  419.81   15.20
   5  -2   2  418.90   19.02
   5  -2  -3   56.43    5.74
   5   2   3   49.22    4.49
  -5   2  -3   64.17    2.77
  -5   2   3   71.39    6.36
   5  -2   3   63.53    5.03
  -5  -2  -3   53.58    5.11
  -5   2  -3   67.92    5.63
   5  -2   3   67.89    3.48
   5  -2  -3   68.08    7.40
   5   2  -3   71.54    6.10
   5   2   3   53.59    5.17
  -5  -2  -3   54.39    5.48
   5  -2  -3   53.85    5.10
  -5   2   3   64.41    5.43
  -5  -2   3   58.73    6.24
  -5  -2   3   59.56    6.47
  -5  -2   4  291.27   16.67
   5   2   4  305.31   16.50
   5   2  -4  315.72   13.76
  -5   2  -4  344.07   20.94
  -5   2  -4  331.13   11.75
   5  -2  -4  330.78   20.19
  -5   2   4  324.77   13.45
   5  -2   4  346.62   15.26
  -5   2  -4  314.12   16.36
  -5  -2  -4  302.19   11.47
   5  -2  -4  339.05   16.36
  -5   2   4  346.10   18.09
  -5   2  -4  296.50   15.04
   5   2   4  315.04   11.92
  -5  -2   4  318.64   15.21
   5   2  -4  323.79   15.16
   5  -2  -4  324.56   16.58
  -5  -2  -4  306.00   20.37
   5  -2   4  297.78   12.40
   5   2   5  269.00   11.40
  -5   2   5  299.13   16.50
   5   2   5  292.26   15.75
  -5  -2  -5  304.51   19.20
  -5  -2   5  300.03   14.38
   5  -2  -5  272.56   15.23
   5  -2   5  286.06   16.58
  -5  -2  -5  298.05   17.61
  -5   2  -5  295.66   10.71
  -5   2  -5  296.65   11.50
   5   2  -5  276.03   14.73
   5   2  -5  266.13   16.18
   5  -2   5  289.96   13.90
   5  -2  -5  316.99   19.78
  -5   2  -5  300.71   16.28
   5  -2  -5  288.03   15.43
  -5   2   5  317.62   17.94
  -5  -2  -5  285.37   10.89
  -5  -2   5  285.92   14.45
   5   2  -6   48.98    9.51
   5  -2  -6   44.54    9.31
  -5  -2  -6   49.37    5.55
  -5  -2   6   55.92   10.01
   5  -2  -6   54.47    6.75
  -5   2  -6   53.05    3.90
   5   2   6   68.25   17.55
   5  -2   6   42.27    5.60
  -5   2   6   48.41    9.48
  -5  -2  -6   54.71    7.49
   5   2  -6   53.53    6.45
   5  -2   6   53.60    6.01
  -5   2   6   48.62    7.62
   5   2   6   46.60    6.43
  -5   2  -6   53.84    5.14
  -5  -2   6   53.83    8.80
  -5   2  -6   60.22    6.40
   5  -2   7  516.21   26.69
   5  -2  -7  499.11   28.96
  -5   2  -7  499.25   30.17
   5   2  -7  486.71   27.49
   5   2   7  507.64   25.34
  -5  -2   7  519.73   25.02
  -5  -2   7  510.95   29.74
  -5  -2  -7  530.89   25.13
   5  -2   7  505.67   24.11
  -5   2  -7  487.55   23.02
  -5  -2  -7  485.57   25.51
  -5   2   7  456.67   25.81
   5   2   7  491.67   28.78
   5   2   8   55.96    8.55
   5  -2  -8   46.05    8.40
   5   2  -8   63.24    8.80
   5   2   8   73.15   11.23
  -5  -2   8   60.34   10.20
  -5  -2  -8   56.10    6.38
  -5   2   8   39.98   13.13
   5  -2   8   49.92    9.51
   5  -2   8   56.42    8.80
  -5   2   9  232.93   21.48
   5  -2  -9  241.75   19.00
  -5  -2   9  226.52   18.17
   5  -2   9  204.61   17.27
   5   2  -9  255.88   20.01
   5   2   9  285.61   22.16
   5   2  10  144.56   18.52
  -5  -2  10  111.77   15.34
   5   2 -10  144.75   18.71
   5  -2  10  113.65   19.32
  -5   2  10  106.28   17.27
   5  -2 -10  143.01   16.01
  -6  -2   0   38.66    4.20
   6   2   0   41.42    4.20
  -6   2   0   41.55    3.03
   6  -2   0   43.69    3.27
  -6  -2   0   42.27    4.86
  -6   2   0   41.11    4.22
   6  -2  -1  598.18   24.17
  -6  -2   1  577.57   22.10
   6   2  -1  563.10   21.60
  -6  -2  -1  580.92   19.94
   6  -2   1  554.38   18.35
   6   2   1  598.98   19.02
  -6   2   1  579.48   21.99
  -6   2   1  599.18   17.55
  -6   2  -1  566.18   16.50
  -6   2  -1  563.26   20.06
  -6  -2   1  594.65   20.93
   6   2   1  598.53   19.69
  -6  -2  -1  580.88   25.80
  -6   2  -2  909.07   34.26
  -6   2  -2  924.76   43.02
  -6  -2  -2  991.32   34.34
   6   2  -2  979.16   35.58
   6   2   2  945.96   40.89
   6  -2   2  931.31   34.30
  -6   2   2  995.84   32.26
  -6  -2  -2  961.34   36.85
   6  -2   2  944.51   43.38
   6   2   2  968.19   30.92
  -6   2   2  994.22   34.98
  -6  -2  -2 1007.53   49.80
   6  -2  -2  913.42   37.65
  -6  -2   2  940.44   41.42
  -6   2   3  586.57   24.51
  -6  -2   3  545.42   20.58
   6  -2  -3  584.85   29.65
  -6  -2  -3  628.85   42.43
  -6  -2   3  585.06   20.40
   6   2  -3  594.91   20.16
   6   2   3  570.19   22.10
  -6   2  -3  524.97   25.08
   6  -2   3  568.38   22.25
   6  -2   3  595.18   22.13
   6  -2  -3  546.58   23.35
   6   2   3  574.21   23.12
   6  -2  -3  593.34   24.43
  -6   2   3  570.19   21.35
  -6  -2  -3  608.30   23.07
  -6  -2  -4  158.07    8.94
  -6  -2   4  154.62    8.55
  -6   2  -4  125.71   10.62
   6   2   4  128.36    7.74
   6   2  -4  127.50    7.84
   6  -2  -4  128.95   11.92
  -6   2   4  146.95   10.72
   6  -2   4  137.52    6.82
   6  -2   4  129.69    6.98
  -6  -2  -4  126.47    8.11
   6   2  -4  146.14    8.54
  -6   2   4  127.74    8.13
  -6   2  -4  137.22    5.76
  -6   2  -4  130.34    5.68
   6  -2  -4  116.45    8.77
  -6  -2   4  138.25    8.27
   6  -2  -4  110.66    9.03
   6   2   4  136.38    9.26
  -6   2  -4  104.74    8.58
  -6   2   5  481.39   18.92
  -6  -2  -5  478.52   21.60
  -6   2  -5  470.37   26.65
   6   2  -5  534.00   26.42
  -6  -2   5  455.75   19.78
   6  -2   5  504.53   21.23
  -6   2   5  511.01   26.36
  -6   2  -5  475.44   16.68
   6  -2  -5  469.95   23.84
  -6   2  -5  505.42   20.36
  -6  -2  -5  484.40   17.48
   6  -2  -5  504.45   25.58
   6   2   5  479.60   27.09
   6  -2   5  479.01   25.94
   6   2   5  460.67   25.90
  -6  -2  -5  477.03   32.93
   6  -2  -5  511.11   30.29
  -6  -2   5  536.80   24.87
  -6   2  -5  454.40   27.08
   6   2  -5  501.57   27.33
  -6   2   6  162.41   14.34
   6   2  -6  178.62   13.84
   6  -2   6  197.95   15.53
   6   2  -6  169.22   12.43
  -6  -2  -6  167.58    8.42
  -6   2  -6  180.51   14.09
  -6  -2   6  177.11   12.92
  -6   2   6  184.10   11.23
   6  -2  -6  173.45   11.58
   6   2   6  191.20   11.92
  -6   2  -6  178.03   10.36
  -6  -2  -6  187.90   12.79
  -6  -2   6  171.28   12.30
  -6   2  -6  174.62    9.92
  -6   2  -6  177.23   12.21
   6  -2  -6  137.95   14.97
   6   2   6  175.25   13.94
   6  -2   6  175.46   12.28
  -6   2   7  183.24   15.07
  -6  -2  -7  182.65   10.90
   6  -2   7  191.98   14.80
   6   2  -7  200.30   18.05
   6  -2   7  188.62   15.00
  -6  -2   7  185.29   15.71
  -6   2  -7  195.05   10.71
   6   2   7  209.52   17.21
  -6   2  -7  185.78   12.05
   6   2   7  168.93   12.21
   6  -2  -7  205.20   15.64
  -6  -2  -7  188.50   14.98
   6  -2  -8  113.49   13.05
   6   2  -8  149.50   14.32
   6  -2   8  115.44   11.51
  -6  -2   8  141.08   13.68
  -6  -2  -8  124.29   10.81
   6   2   8  114.62   13.39
  -6   2   8  147.27   19.70
   6   2   8  134.70   12.06
   6   2  -9   39.87   10.26
  -6   2   9   19.68   10.13
   6   2   9   39.91   11.79
   6  -2   9   40.35   10.94
  -6  -2   9   35.86   12.94
   6  -2  -9   50.06   10.55
  -6  -2  10   15.12   15.60
   6  -2 -10   15.91   12.00
  -6   2  10    4.36   13.22
   6   2 -10    6.87    9.88
   6   2  10   -9.39   12.56
   6  -2  10   18.55   10.03
   7   2   0   77.06    5.79
  -7   2   0   83.09    5.62
  -7  -2   0   75.20    6.59
  -7   2   0   92.55    6.24
  -7  -2   0   88.30    6.48
   7  -2   0   72.56    4.55
  -7  -2   1  668.44   27.25
  -7   2   1  637.07   22.70
   7   2   1  645.11   22.74
  -7  -2   1  640.51   25.00
  -7   2  -1  631.95   21.40
   7  -2  -1  605.91   21.66
   7   2   1  608.13   20.65
  -7  -2  -1  662.66   27.09
  -7   2   1  665.38   21.21
  -7  -2  -1  650.65   27.97
   7   2  -1  664.63   27.73
   7  -2   1  632.10   22.14
  -7   2  -1  613.67   25.67
   7  -2   2  177.36    9.49
  -7   2   2  180.36   10.08
  -7   2  -2  168.16    7.44
  -7  -2  -2  154.84    9.51
   7   2   2  160.81    8.93
  -7   2  -2  167.70    7.42
   7  -2  -2  160.92    9.11
  -7   2   2  175.02    9.76
   7  -2   2  180.50    7.76
   7   2   2  156.66    8.00
  -7  -2  -2  150.19    9.76
   7   2  -2  175.09    8.74
  -7  -2   2  152.87   10.15
  -7   2   3  652.63   29.06
  -7   2  -3  634.25   25.32
  -7  -2  -3  616.67   38.68
   7  -2  -3  666.62   30.26
   7  -2   3  664.03   27.80
  -7   2  -3  598.64   24.79
   7   2  -3  579.46   22.78
  -7  -2   3  608.85   30.04
  -7  -2   3  607.05   32.44
   7   2   3  613.36   22.56
   7  -2   3  642.57   22.55
  -7  -2  -3  621.12   20.24
   7   2   3  581.86   23.82
  -7   2   3  658.00   28.35
  -7  -2  -3  608.80   31.29
   7  -2  -4  813.03   35.38
  -7  -2  -4  852.02   27.16
   7  -2   4  904.00   29.18
  -7  -2   4  820.67   41.26
   7   2   4  785.75   29.62
   7  -2   4  890.45   38.33
   7  -2  -4  837.77   37.38
  -7   2   4  883.37   34.29
  -7  -2   4  796.38   28.62
  -7   2  -4  702.42   55.56
  -7   2  -4  827.03   36.23
   7   2   4  809.04   35.29
  -7  -2  -4  838.96   52.21
   7   2  -4  792.44   35.74
  -7   2   4  863.10   46.10
  -7  -2   5  609.38   33.00
  -7  -2  -5  610.45   29.19
  -7   2   5  641.21   35.04
   7  -2   5  632.20   25.89
  -7   2  -5  617.77   37.90
  -7   2  -5  583.52   26.85
  -7  -2   5  570.13   28.23
  -7   2  -5  619.74   29.43
   7   2   5  561.78   22.62
   7  -2   5  605.34   22.21
   7   2  -5  589.28   29.61
  -7   2   5  632.10   25.08
   7   2   5  610.05   32.38
   7   2  -5  569.51   28.58
   7  -2  -5  617.41   31.12
  -7   2  -5  621.76   23.82
   7   2   6 1203.97   46.07
   7  -2  -6 1203.67   52.32
  -7  -2  -6 1219.70   46.87
  -7   2   6 1246.71   51.03
  -7   2  -6 1225.00   70.12
  -7  -2  -6 1251.96   62.80
  -7   2  -6 1179.15   77.85
  -7   2  -6 1213.73   55.56
   7  -2   6 1292.65   78.22
   7   2  -6 1159.10   61.29
  -7   2  -6 1110.59   57.77
   7   2   6 1181.39   71.85
   7  -2   6 1228.95   61.21
  -7  -2   6 1238.42   59.12
   7  -2   7  212.89   15.74
   7   2  -7  190.73   15.73
  -7   2   7  174.69   16.08
   7   2   7  181.77   14.44
   7  -2   7  216.89   13.16
   7  -2  -7  203.02   16.13
  -7  -2  -7  189.90   12.67
   7   2   7  182.05   15.71
  -7  -2   7  206.01   13.08
   7   2  -8  235.48   17.89
   7  -2   8  220.48   17.13
   7  -2  -8  213.44   17.29
  -7   2   8  207.09   23.06
  -7  -2   8  184.27   15.95
   7   2   8  188.76   19.10
   7   2   8  215.11   19.23
   7   2   9   -6.53   15.27
  -7  -2   9   13.16   13.66
   7   2  -9   17.05   13.31
   7  -2  -9   10.73    9.05
   7  -2   9  -10.98   10.93
  -7   2   9   -9.73   15.63
   8   2   0   57.39    5.22
  -8   2   0   57.49    6.37
  -8  -2   0   68.03    5.98
  -8  -2   0   58.15    5.73
  -8   2   0   62.59    5.26
   8  -2   0   59.41    4.30
  -8   2  -1  281.11   12.63
   8  -2   1  311.45   11.68
   8   2  -1  329.62   15.82
  -8   2   1  316.42   12.95
   8   2   1  307.39   12.08
   8   2   1  311.92   12.31
   8  -2  -1  295.39   13.69
  -8  -2   1  329.90   16.26
  -8   2  -1  314.47   13.41
  -8  -2  -1  330.72   13.62
  -8  -2  -1  322.12   16.31
  -8  -2   1  306.19   14.64
  -8   2   1  305.17   14.66
  -8   2   2  721.50   27.71
  -8  -2   2  761.45   42.92
  -8   2  -2  754.56   30.11
  -8  -2  -2  839.23   39.27
   8   2   2  753.46   27.16
   8  -2   2  746.61   24.19
  -8  -2  -2  818.45   36.17
   8  -2   2  754.67   24.61
   8   2   2  783.82   32.72
   8  -2  -2  743.26   30.50
  -8  -2   2  815.75   37.64
   8   2  -2  817.52   28.44
  -8   2  -2  776.37   25.21
  -8   2   2  741.44   27.50
   8   2   3  170.91    9.86
   8  -2   3  172.65   10.65
  -8   2  -3  172.45    7.80
  -8   2   3  165.14   11.53
   8  -2  -3  171.98    9.93
  -8   2   3  173.46   11.69
  -8  -2  -3  170.31   11.01
  -8  -2   3  170.74   12.40
   8   2   3  188.67    9.64
  -8  -2  -3  174.82    8.10
  -8  -2   3  175.60   10.21
  -8   2  -3  179.12    7.66
   8   2  -3  179.54   11.33
  -8  -2   4  664.88   27.41
  -8  -2  -4  670.33   30.37
   8  -2  -4  630.34   26.56
   8   2   4  669.14   22.72
  -8   2  -4  609.83   26.75
  -8  -2   4  652.76   36.48
   8   2  -4  660.04   32.39
   8  -2  -4  631.92   30.73
  -8  -2  -4  668.02   37.89
  -8   2  -4  590.41   28.94
  -8  -2  -4  661.84   35.89
   8  -2   4  603.91   27.96
  -8   2   4  600.18   25.36
   8  -2   4  626.41   32.79
  -8   2   4  667.91   36.18
   8   2   4  684.84   28.04
  -8  -2  -5  684.81   43.39
  -8   2   5  672.36   29.02
   8  -2   5  646.23   27.44
   8   2   5  719.75   42.76
  -8  -2  -5  728.07   28.06
   8   2   5  707.27   25.76
  -8  -2   5  703.31   36.22
   8   2  -5  721.51   34.84
   8  -2   5  701.17   42.01
   8  -2  -5  657.28   35.81
  -8  -2   5  704.42   30.55
  -8   2  -5  667.36   30.31
  -8   2  -5  699.11   26.71
  -8   2  -5  634.35   33.68
   8  -2  -6  641.57   31.84
   8   2   6  580.48   41.90
   8   2   6  555.85   26.09
   8  -2   6  637.07   26.73
   8   2  -6  607.27   34.22
  -8  -2  -6  594.18   24.44
  -8   2   6  584.01   29.28
  -8  -2  -6  592.15   32.47
  -8   2  -6  587.74   38.02
  -8  -2   6  555.66   27.24
   8  -2   6  587.07   29.69
   8  -2   7  124.67   13.18
  -8  -2  -7  135.56   10.33
   8   2   7  135.90   13.76
   8  -2  -7  134.33   15.18
   8   2   7  125.74   11.29
  -8   2   7  124.19   12.80
  -8  -2   7  109.27   11.94
   8   2  -7  142.70   13.59
  -8   2   8  164.90   13.79
  -8  -2   8  178.29   19.12
   8   2   8  176.35   18.42
   8  -2  -8  173.36   17.48
   8   2  -8  194.23   18.32
   8  -2   8  146.42   15.39
   8  -2   9   37.53   12.02
   8   2  -9   67.50   12.46
  -8   2   9   60.09   17.50
  -8  -2   9   51.34   14.19
   8  -2  -9   83.18   13.56
   8   2   9   42.47   12.29
   9   2   0    4.02    3.33
  -9  -2   0   -1.27    3.80
  -9   2   0    4.19    2.78
  -9   2   0    2.05    3.12
  -9  -2   0    5.45    3.80
  -9   2   0    6.85    4.49
   9  -2   0    2.07    4.25
  -9  -2  -1   96.87    6.66
   9   2  -1  110.02    8.32
  -9   2  -1  123.81    7.23
  -9  -2   1  110.39    9.25
   9  -2  -1  120.76    7.66
  -9   2   1  118.74    7.82
   9  -2   1  125.29    7.04
   9   2   1  114.13    8.99
  -9   2   1  142.04   10.35
  -9  -2   1  123.36    9.86
  -9   2  -1  125.01    6.24
  -9  -2  -1  121.04    9.64
  -9   2  -2  433.45   16.10
  -9  -2   2  463.55   24.83
   9   2   2  449.84   19.33
  -9   2   2  451.14   18.97
  -9  -2  -2  467.84   19.40
   9  -2  -2  435.93   21.48
   9   2   2  459.60   22.03
   9  -2   2  446.49   15.04
  -9  -2   2  449.21   24.31
   9   2  -2  458.23   17.70
  -9   2   2  415.59   18.61
  -9  -2  -2  471.06   20.00
   9  -2   2  458.30   17.95
  -9   2  -2  426.57   19.05
  -9   2  -3   45.74    5.00
  -9  -2   3   35.19    5.71
  -9   2  -3   40.27    3.35
   9   2   3   53.03    7.00
   9   2   3   41.37    5.59
  -9  -2  -3   45.86    6.24
  -9  -2  -3   42.38    5.33
  -9   2   3   43.25    7.38
  -9  -2   3   44.73    8.19
   9   2  -3   45.55    6.81
   9  -2  -3   45.92    7.25
   9  -2   3   43.00    6.76
  -9   2   3   51.97    7.83
  -9  -2  -4  305.12   16.83
  -9  -2  -4  305.10   15.72
  -9   2  -4  314.44   13.31
   9  -2  -4  313.44   17.78
   9   2   4  286.39   16.72
   9  -2   4  275.86   14.08
  -9   2   4  335.91   16.25
  -9   2  -4  289.25   14.38
   9  -2   4  303.85   17.29
   9   2   4  316.04   16.09
  -9  -2   4  343.69   20.55
  -9  -2   4  277.57   15.33
  -9   2   4  282.02   18.44
   9   2  -4  304.18   17.88
  -9   2  -5   18.73    3.13
   9   2  -5    5.75    6.27
   9   2   5   18.79    6.34
  -9  -2  -5   24.81    4.48
   9  -2  -5   11.37    7.06
  -9   2  -5   19.32    2.71
  -9  -2   5   23.13    7.06
   9  -2   5   13.58    3.19
  -9   2   5    1.22    6.17
   9   2   5   20.02    5.42
  -9  -2  -5   18.69    4.78
  -9   2  -5   15.24    2.40
   9  -2   5   13.11    5.58
   9   2   6   45.81   12.29
  -9   2  -6   22.68    1.54
  -9  -2  -6   33.81    7.91
   9  -2   6   46.79   10.77
   9   2  -6   18.13    6.77
   9  -2  -6   43.41    8.97
   9  -2   6   27.39    5.41
   9   2   6   34.21    6.99
  -9  -2  -6   30.61    4.77
  -9  -2   6   24.97   11.78
  -9   2   6   39.90    8.73
  -9   2   7  137.54   15.33
  -9  -2   7  141.59   16.09
   9   2  -7  150.79   14.66
   9  -2  -7  132.07   13.92
  -9  -2  -7  127.52   11.63
   9   2   7  136.90   14.26
   9  -2   7  137.35   12.50
   9   2   7  132.44   14.34
  -9  -2   8  164.38   19.58
   9  -2   8  118.29   14.31
   9   2  -8  138.31   13.32
   9  -2  -8  147.30   17.81
  -9   2   8  147.26   14.51
   9   2   8  158.31   16.04
  -9  -2   9   94.13   14.91
   9   2  -9  111.02   14.91
   9  -2  -9  108.38   17.31
   9   2   9   90.70   17.03
   9  -2   9  113.34   19.93
  -9   2   9   74.30   17.04
 -10  -2   0   55.61    5.89
 -10   2   0   58.08    6.29
 -10  -2   0   45.17    6.33
  10   2   0   56.84    7.29
 -10   2   0   57.21    5.83
 -10   2   0   55.00    5.98
  10  -2   0   53.80    5.57
 -10  -2  -1   47.52    6.36
 -10  -2  -1   60.94    6.51
  10   2   1   57.15    6.48
 -10  -2   1   61.04    6.83
  10  -2   1   43.51    4.60
 -10   2   1   54.18    7.50
  10  -2  -1   37.48    5.82
 -10   2  -1   46.95    5.00
 -10   2  -1   43.08    6.26
 -10   2   1   55.62    7.16
 -10  -2   1   65.25    6.32
  10   2  -1   53.60    5.48
 -10   2  -2  211.70   10.09
 -10   2   2  196.13   13.12
 -10  -2  -2  180.54   11.56
  10  -2  -2  193.45   12.88
  10  -2   2  198.55   10.13
 -10   2  -2  184.58    9.29
  10  -2   2  198.93   10.49
 -10  -2  -2  197.30   10.83
  10   2  -2  214.80   16.14
 -10  -2   2  205.37   15.55
  10   2   2  180.86   10.41
 -10  -2   2  202.50   16.95
  10   2   2  184.40   12.68
 -10   2   2  185.88   12.09
 -10   2  -3  403.11   17.98
  10  -2  -3  406.32   21.53
 -10   2   3  429.68   21.90
  10   2   3  415.05   22.20
 -10  -2   3  369.84   17.85
 -10   2   3  436.37   19.11
  10   2  -3  362.87   18.20
 -10  -2   3  381.75   22.69
  10   2   3  362.71   20.46
  10  -2   3  413.63   19.56
 -10  -2  -3  397.36   24.09
 -10  -2  -3  387.82   20.18
 -10   2  -3  407.46   15.64
  10   2   4    0.08    5.36
 -10  -2  -4    7.80    4.88
  10   2  -4   17.65    7.56
 -10   2  -4    9.48    3.32
 -10   2  -4    9.61    3.18
 -10  -2   4   16.90    6.53
  10  -2  -4    8.12    5.77
 -10  -2  -4    6.87    4.94
 -10   2   4    8.19    5.74
  10   2   4   12.55    5.08
  10  -2   4   -4.85    6.25
  10  -2   5    7.73    5.40
  10   2   5   20.79    7.22
 -10  -2  -5   15.35    4.15
  10   2   5    6.94    6.64
  10  -2   5    7.18    3.17
 -10  -2   5    6.54   10.54
 -10   2   5    4.81    6.76
 -10  -2  -5   11.50    4.57
 -10   2  -5   13.81   16.41
  10   2  -5   11.26    8.19
 -10   2  -5   13.41    2.76
  10  -2  -5   11.87    8.97
  10   2  -6   17.16    9.05
  10  -2   6    9.15    6.78
  10   2   6   20.62    9.37
 -10   2   6    5.74   11.34
  10   2   6   16.53    5.81
 -10  -2   6   14.88    8.07
  10  -2  -6   21.75    9.86
  10  -2   7   -2.49    8.90
  10   2  -7   -0.99    9.88
  10  -2  -7    5.92    9.10
 -10  -2   7    8.69   11.84
 -10   2   7    4.74   13.00
  10   2   7   10.68    8.53
  10  -2   8   66.70   11.27
  10   2  -8   71.61   12.67
  10   2   8   61.48   11.42
 -10  -2   8   44.72   12.07
 -10   2   8   67.44   18.88
  10  -2  -8   36.34   15.03
  11   2   0  228.36   23.07
 -11   2   0  205.92   11.29
  11  -2   0  200.36   10.89
 -11   2   0  208.98   11.58
 -11   2   0  196.72   13.24
 -11  -2   0  206.48   14.30
 -11  -2   0  217.67   14.08
 -11  -2   1  145.35   11.73
 -11   2   1  145.08    8.52
 -11   2  -1  161.74   10.15
 -11   2  -1  151.58   11.07
 -11   2   1  155.72   10.73
 -11  -2  -1  149.68   13.89
 -11  -2  -1  144.87   10.76
  11  -2   1  157.13    9.11
  11  -2  -1  181.33   12.82
  11   2   1  154.88   11.16
 -11  -2   1  124.55   12.92
  11   2  -1  136.90   10.56
  11   2   2  175.55   10.83
 -11   2   2  174.05   14.98
 -11   2   2  175.40   14.03
 -11  -2  -2  175.57   11.67
 -11  -2   2  174.18   13.61
 -11   2  -2  181.38   11.26
  11  -2   2  176.61    9.22
 -11  -2  -2  186.51   12.01
  11  -2   2  164.62   10.29
 -11   2  -2  182.10   11.64
  11  -2  -2  154.22   13.00
  11   2  -2  163.45   13.77
 -11  -2   2  181.17   15.47
  11   2  -3  306.53   16.28
 -11   2  -3  275.88   14.93
  11  -2  -3  264.46   17.28
 -11  -2  -3  274.60   15.14
 -11  -2   3  294.90   15.74
 -11  -2  -3  310.87   16.04
 -11  -2   3  303.08   23.05
  11   2   3  309.30   17.14
  11   2   3  297.55   16.66
 -11   2  -3  273.09   17.23
  11  -2   3  262.09   15.74
 -11   2   3  262.97   16.02
 -11  -2   4    1.05    7.72
  11  -2  -4    7.22    6.99
  11   2   4    1.96    4.95
 -11   2   4    0.94    6.10
  11   2  -4    2.55    5.76
 -11  -2  -4    5.80    4.19
 -11  -2  -4    7.20    4.72
 -11   2  -4    6.48    3.12
  11  -2   4    9.56    5.51
 -11   2  -4    7.72    4.39
  11   2   4    7.95    7.89
 -11  -2   5   34.82   12.31
  11  -2   5    6.45    6.62
  11   2   5   10.65    5.93
  11   2  -5    6.26    7.81
  11  -2  -5    8.31    8.15
 -11  -2  -5    7.55    5.09
  11   2   5   14.45    7.06
 -11   2   5    4.08    7.62
  11  -2   6  234.59   18.90
 -11   2   6  285.70   21.31
  11   2   6  257.27   20.06
 -11  -2   6  240.26   19.07
  11   2   6  280.09   18.74
  11  -2  -6  261.53   21.31
  11   2  -6  255.00   21.25
  11   2  -7  127.01   18.05
  11  -2  -7  120.00   17.42
 -11  -2   7  130.33   18.36
 -11   2   7  122.14   15.79
  11   2   7  122.32   18.91
  11  -2   7  123.30   15.15
  11   2   8   -3.60   11.12
  11   2  -8   16.21   13.11
 -11  -2   8   31.75   14.84
  11  -2  -8   63.83   17.98
 -11   2   8   16.38   11.61
  11  -2   8   21.13   10.16
 -12   2   0    1.52    4.63
 -12   2   0   -1.61    4.40
 -12  -2   0    0.41    7.04
 -12   2   0    6.40    5.26
  12  -2   0    7.85    6.20
 -12  -2   0    2.77    4.97
  12   2   0   11.99    6.27
 -12   2  -1  108.82    8.24
 -12  -2  -1  110.70   15.67
  12  -2  -1   90.89    8.95
  12   2  -1  113.77    9.18
  12  -2   1  107.05    7.25
 -12   2   1  118.52   16.63
 -12   2   1  115.87   11.94
 -12   2   1  102.61    9.27
 -12  -2  -1  116.29   12.52
 -12  -2   1  111.75   11.09
 -12  -2   1  128.86   13.28
 -12   2  -1  111.92    9.11
  12   2   1  116.25    9.54
 -12  -2  -2  160.03   13.01
 -12   2   2  174.51   12.73
  12   2   2  173.50   12.94
 -12   2  -2  171.04   12.94
  12   2  -2  180.70   12.41
 -12  -2  -2  185.92   15.27
  12  -2  -2  178.22   11.51
 -12  -2   2  170.87   13.60
  12  -2   2  172.36   11.07
 -12   2  -2  173.33   13.55
 -12  -2   3  473.00   23.72
  12  -2  -3  446.98   25.59
 -12   2  -3  441.06   26.38
 -12  -2  -3  471.48   26.77
  12   2   3  432.31   23.68
  12  -2   3  449.17   25.84
 -12  -2  -3  463.02   32.74
 -12   2  -3  474.97   33.99
  12   2  -3  441.71   33.64
 -12   2   3  466.63   23.37
  12  -2   4  463.96   29.07
 -12  -2  -4  456.18   29.68
  12   2   4  459.51   26.13
  12   2  -4  457.02   30.34
  12   2   4  496.30   29.38
 -12   2  -4  465.21   29.91
 -12   2   4  445.64   23.75
 -12  -2   4  469.84   29.37
  12  -2  -4  439.16   24.90
  12  -2  -5   29.22    8.53
  12  -2   5   17.46    9.31
 -12  -2   5    6.94   11.50
  12   2  -5   14.88    7.38
 -12   2   5    5.59    8.57
  12   2   5   18.02   10.71
  12   2   5   11.41    6.54
 -12   2   6  210.64   16.31
  12  -2   6  212.06   18.72
  12  -2  -6  201.30   20.55
 -12  -2   6  216.69   19.20
  12   2   6  212.72   18.60
  12   2  -6  259.87   22.33
 -12  -2   7   79.53   21.12
 -12   2   7   79.56   14.66
  12   2  -7  136.55   19.77
  12   2   7  112.26   14.19
  12  -2  -7   88.06   14.17
  12  -2   7   82.97   13.51
  12  -2   8  130.60   17.28
  12   2   8  185.24   24.98
 -12   2   8  165.85   21.22
 -12  -2   8  172.49   21.49
  13   2   0    4.16    4.88
 -13   2   0    7.15    6.34
 -13   2   0   -5.85    5.03
  13   2   0   -0.94    5.01
  13  -2   0    9.81    4.97
 -13  -2   0    8.71    6.14
 -13   2   0    3.67    4.73
 -13  -2  -1  194.62   14.77
 -13  -2  -1  215.56   17.04
 -13   2  -1  192.00   16.37
 -13   2   1  194.14   13.95
 -13  -2   1  189.41   18.08
 -13   2   1  205.47   13.36
 -13   2  -1  186.82   12.34
  13  -2   1  193.48   16.60
  13   2  -1  228.43   19.52
  13  -2   1  209.36   18.06
  13  -2  -1  237.85   16.40
  13   2   1  228.15   16.20
 -13   2  -1  209.11   13.59
 -13  -2   2    4.05    6.87
  13  -2   2    0.99    6.96
  13   2   2   19.13    8.39
 -13  -2  -2    4.86    5.78
  13   2  -2    4.69    5.96
 -13  -2  -2   -0.73    4.92
 -13   2   2   20.37    6.90
 -13   2  -2    7.57    5.11
  13  -2  -2   11.56    7.05
 -13   2  -2   16.43    6.84
 -13  -2   3   88.27   10.97
 -13   2   3  100.64   11.26
  13   2   3   85.31    9.95
  13  -2   3   80.54   11.34
  13  -2  -3   68.39    9.64
 -13   2  -3   84.94    8.75
 -13  -2  -3   78.26   10.14
  13   2  -3   57.15    8.32
  13   2   4   90.60   12.02
 -13  -2   4   96.81   11.95
  13  -2   4   90.03   12.32
  13  -2  -4   99.67   13.79
  13   2  -4   90.76   16.14
 -13   2   4  103.59   12.70
 -13  -2  -4  102.01   12.84
  13   2  -5  104.32   13.61
  13   2   5  113.52   14.17
  13  -2   5  119.47   13.02
 -13   2   5  129.24   14.79
 -13  -2   5   93.63   11.94
  13  -2  -5  112.89   19.04
 -13  -2   6   99.16   14.36
  13  -2   6   56.28   12.43
  13   2  -6   60.16   16.41
 -13   2   6   73.91   14.63
  13  -2  -6   79.43   16.19
  13   2   6   66.66   17.35
 -13  -2   7   83.33   15.24
 -13   2   7   72.73   14.58
  13   2  -7   84.13   16.36
  13   2   7  103.90   21.13
  13  -2   7   91.73   18.61
 -14   2   0  490.26   28.58
  14   2   0  458.10   28.15
  14   2   0  448.24   28.86
 -14  -2   0  400.14   46.97
  14  -2   0  477.82   34.59
 -14   2   0  510.00   27.08
  14   2   1  161.68   15.33
 -14   2   1  177.91   18.03
 -14  -2  -1  142.40   19.59
 -14  -2   1  153.53   22.42
 -14   2  -1  196.39   15.81
 -14   2   1  207.45   14.90
  14  -2   1  213.21   17.71
  14   2  -1  183.54   14.14
  14  -2   1  196.38   15.71
  14  -2  -1  201.93   16.46
 -14   2  -1  221.50   14.21
  14  -2   2  150.97   13.84
  14  -2  -2  157.14   14.15
  14   2  -2  134.01   18.19
 -14   2  -2  164.05   12.56
 -14   2   2  172.48   12.69
  14   2   2  148.00   14.35
 -14   2   2  131.69   20.60
 -14  -2   2  160.07   12.35
 -14   2   3   73.29   10.81
  14   2   3   77.01   11.27
 -14  -2   3   69.93   11.67
 -14  -2  -3   76.41   10.22
  14  -2   3   69.30   11.75
  14   2  -3   49.85   12.79
  14  -2   4   35.81    9.85
  14  -2  -4   47.39   10.20
  14   2  -4   54.95   14.17
 -14  -2   4   55.39   13.24
  14   2   4   36.89   12.18
 -14   2   4   66.41   10.33
  14  -2   5   82.53   12.93
 -14   2   5   67.23   12.18
 -14  -2   5   83.19   13.13
  14   2   5   67.35   13.52
  14  -2  -5   63.81   11.83
  14   2  -5   80.76   13.32
  14  -2  -6   28.40   11.10
 -14   2   6   17.07   13.42
 -14  -2   6   20.37   12.18
  14   2  -6   27.50   13.21
  14  -2   6    9.35   13.66
  14   2   6   12.80    9.67
 -15   2   0    4.66    5.88
  15   2   0    8.42   11.86
  15  -2   0    3.35    7.12
  15  -2   1   67.80    8.83
  15  -2  -1   52.14   12.41
 -15  -2   1   72.81   11.05
 -15   2   1   58.72    9.65
  15   2   1   75.93   11.34
  15  -2   1   50.52   10.21
 -15   2  -1   39.31   10.11
  15   2  -1   91.61   13.24
 -15   2   2   91.22   15.08
 -15  -2   2  103.52   15.60
 -15   2  -2   79.25    8.52
  15   2   2   98.82   12.39
  15  -2   2  101.55   13.56
  15   2  -2  100.39   14.04
  15  -2  -2   74.24   11.28
  15   2   3   90.13   13.72
 -15  -2   3   76.15   12.80
  15   2  -3   73.86   14.92
 -15   2   3   89.44   15.33
  15  -2   3   67.74   10.69
  15  -2  -3   62.51   10.66
 -15  -2   4  301.61   22.74
  15   2   4  305.02   24.74
  15  -2  -4  286.24   21.68
  15   2  -4  241.14   21.52
 -15   2   4  266.22   24.88
  15  -2   4  305.16   22.63
  15  -2  -5   47.76   12.53
  15   2  -5   30.52   12.04
 -15   2   5   29.80   12.16
 -15  -2   5   20.98   10.95
  15  -2   5    9.81    9.72
  15   2   5   40.67   15.56
  15  -2   6    4.09   11.72
 -15  -2   6    5.19   12.20
  15   2   6    8.10   11.71
 -15   2   6    2.75   11.86
 -16   2   0    3.69    6.60
  16  -2   0    8.95    6.69
  16   2   0    0.86    9.29
  16  -2   1   81.45   12.07
  16  -2  -1   87.15   11.18
 -16   2  -1   96.56   12.36
  16   2  -1   85.06   12.74
  16  -2   1   79.69   10.84
  16   2   1   79.04   12.06
 -16   2   1   85.51   14.22
 -16  -2   1   64.24    9.90
 -16   2  -2   84.86   10.39
  16   2   2   74.25   15.36
  16  -2   2   73.67   11.29
  16  -2  -2   77.63   14.56
 -16  -2   2   88.98   13.01
  16   2  -2   86.09   13.56
 -16   2   2   87.48   12.65
 -16   2   3   18.37    9.21
  16  -2   3   42.00   10.63
  16   2   3   37.74   14.32
  16   2  -3   39.64   15.48
 -16   2  -3   33.15    8.68
  16  -2  -3   21.27   11.95
 -16  -2   3   43.56   10.29
  16   2  -4   21.10   12.18
 -16  -2   4   30.99   17.16
 -16   2   4   17.85   14.76
  16  -2   4   18.01   10.63
  16   2   4   35.12   15.96
  16  -2  -4    9.24   10.03
 -16   2   5   64.14   15.85
 -16  -2   5   64.42   18.05
  16  -2   5   42.61   13.46
  16   2   5   42.24   16.99
 -17   2   0   20.58    8.28
  17   2   0   21.45   10.34
  17  -2   0   20.08    9.54
  17  -2   0   12.30   10.92
 -17  -2   1   -1.80    9.76
  17  -2   1   21.59   13.54
 -17   2   1   14.94    8.79
  17  -2  -1   13.39    9.83
 -17   2  -1    8.00    9.33
  17   2  -1    6.58   10.65
  17   2   1    7.93   11.23
  17   2  -1   11.43   12.05
  17   2   2   59.16   13.90
 -17   2   2   26.22   11.02
 -17  -2   2   22.86   12.16
  17  -2   2   45.83   15.52
  17  -2  -2   31.01   11.56
  17   2  -2   40.20   11.54
 -17   2  -2   28.67    8.30
 -17   2  -3   10.97    6.19
  17   2   3   14.81   18.48
  17  -2   3  -11.13   12.99
 -17  -2   3    6.57   10.49
  17   2  -3   22.00   10.63
  17  -2  -3   -1.21   15.75
 -17   2   3   -5.68   10.35
 -17   2  -4   37.64    9.10
  17   2   4   26.06   17.92
  17  -2   4   14.78   18.19
  18  -2   0    1.92   15.51
 -18  -2   0   -4.34    7.50
  18  -2   0   -4.08    9.13
 -18   2   0    5.34   11.24
  18   2   0    0.84   17.11
  18  -2   1   77.62   11.16
 -18   2  -1   73.63   18.90
 -18   2   1   61.87   12.06
  18   2  -1   58.83   15.87
  18   2   1   56.10   13.07
  18  -2  -1   58.88   15.29
 -18  -2   1   52.63   12.59
 -18   2   2    2.65    9.71
  18  -2  -2   16.77   11.84
  18   2   2    4.72   12.63
 -18   2  -2    3.29    8.89
  18  -2   2    0.97    9.43
  18   2  -2  -17.48   14.21
   0  -3   0    1.39    1.45
   0  -3   0    2.29    1.16
   0   3   0    1.83    1.08
   0   3   0    0.43    0.65
   0   3  -1 2328.34   86.80
   0  -3   1 2373.67   93.37
   0  -3  -1 2346.76   68.25
   0   3   1 2490.23   75.47
   0  -3  -1 2475.36   96.93
   0   3   1 2368.62   67.89
   0  -3  -2 3573.18  143.03
   0   3  -2 3593.84   99.95
   0   3  -2 3556.01  128.50
   0  -3  -2 3657.10  131.48
   0  -3  -2 3642.24  122.26
   0  -3   2 3500.58   95.65
   0   3   2 3562.64   96.96
   0  -3   2 3657.73  110.73
   0   3   2 3503.09  110.17
   0  -3   2 3604.44  123.57
   0  -3  -3   44.09    4.40
   0  -3   3   53.12    3.99
   0   3  -3   50.69    3.75
   0   3   3   48.59    4.43
   0  -3  -3   48.95    4.11
   0  -3  -3   51.79    4.79
   0   3   3   45.63    3.96
   0   3  -3   51.96    3.16
   0  -3   3   46.39    3.68
   0  -3   3   46.58    2.63
   0   3   3   50.71    4.50
   0   3   4 1197.33   40.89
   0  -3  -4 1195.01   39.53
   0   3   4 1140.53   34.09
   0   3  -4 1190.14   36.31
   0  -3   4 1206.16   32.83
   0   3  -4 1197.10   57.22
   0  -3  -4 1196.47   55.01
   0  -3   4 1171.45   34.13
   0   3   4 1115.91   35.12
   0  -3  -4 1148.35   32.54
   0  -3   4 1127.21   39.39
   0   3  -5   31.07    3.34
   0  -3   5   26.68    3.11
   0  -3  -5   41.94    7.07
   0   3   5   27.52    5.12
   0  -3   5   25.77    3.88
   0  -3  -5   39.47    6.39
   0   3  -5   35.21    4.46
   0  -3   5   32.95    4.92
   0   3   5   33.76    5.45
   0  -3  -5   37.66    4.95
   0   3   5   28.96    4.80
   0  -3   6 2243.38   77.47
   0  -3  -6 2386.47  110.93
   0   3   6 2378.32  117.64
   0  -3  -6 2283.11  143.81
   0   3   6 2234.44   72.02
   0   3   6 2187.03   76.65
   0   3  -6 2179.64   92.61
   0  -3  -6 2214.26   78.48
   0  -3   6 2206.19   77.25
   0   3  -6 2217.40   85.85
   0  -3   6 2252.50   94.77
   0   3  -7  147.83   10.17
   0  -3  -7  122.43   10.31
   0  -3   7  150.49    8.75
   0  -3   7  125.49    9.50
   0  -3   7  137.86   10.11
   0   3   7  121.93   11.17
   0  -3  -7  137.56   11.32
   0   3   7  138.42   12.48
   0   3  -7  139.57   11.73
   0   3   8  169.65   13.70
   0  -3   8  185.69   14.94
   0  -3   8  181.95   12.58
   0  -3  -8  144.82   16.57
   0  -3  -8  196.44   14.62
   0  -3   8  185.01   11.40
   0   3  -8  195.90   11.32
   0   3   8  177.63   13.63
   0  -3   9  221.42   17.95
   0  -3   9  198.47   15.99
   0   3   9  187.58   17.75
   0   3  -9  174.20   15.64
   0   3   9  204.67   18.83
   0  -3  -9  178.07   14.23
   0   3  10   -5.23   11.06
   0   3  10   -2.98    9.97
   0  -3 -10   -5.29    7.02
   1  -3   0 8066.81  256.28
   1   3   0 7630.97  348.57
   1  -3   0 8551.76  250.25
  -1  -3   0 8715.27  240.04
  -1  -3   0 7234.39  399.76
  -1   3   0 8176.95  275.84
   1   3   0 8393.92  279.93
  -1  -3  -1 1391.53   46.45
  -1   3  -1 1252.30   52.60
  -1  -3   1 1297.02   48.70
   1   3   1 1347.84   44.49
  -1   3   1 1383.49   42.96
   1  -3   1 1389.47   51.39
  -1  -3   1 1327.18   54.58
   1   3  -1 1335.69   49.64
   1  -3   1 1354.18   45.20
  -1   3   1 1448.30   50.65
   1  -3  -1 1387.29   52.66
   1  -3  -1 1346.33   40.49
   1  -3  -1 1375.30   44.23
  -1  -3  -1 1396.55   43.88
  -1   3   1 1376.21   37.32
   1   3   1 1365.88   50.29
  -1   3   2  951.30   34.94
   1  -3   2 1000.32   37.23
  -1  -3  -2  998.54   33.12
  -1  -3  -2  949.51   29.62
   1  -3  -2  973.71   30.36
  -1   3  -2  963.68   33.82
   1  -3  -2 1012.21   31.74
   1  -3  -2  999.83   31.13
   1  -3   2 1006.77   42.70
  -1   3   2  959.70   32.77
   1  -3   2 1028.62   33.19
   1   3  -2  947.46   24.90
  -1   3   2 1000.62   29.64
   1   3   2  981.52   32.18
   1   3   2  983.81   30.08
  -1  -3   2  994.94   47.14
   1   3  -2  969.42   35.18
   1   3   3  187.35    8.59
  -1  -3   3  190.22    8.33
   1   3  -3  192.58    7.25
   1  -3   3  204.54    7.40
  -1  -3  -3  175.24    7.80
   1  -3   3  201.65    7.82
  -1   3  -3  195.93    9.42
  -1   3   3  205.64    8.80
   1  -3  -3  211.52    8.75
   1   3   3  171.95    8.51
  -1   3   3  194.10    7.89
  -1   3  -3  198.97    8.46
   1   3  -3  191.62    8.71
  -1  -3  -3  188.22    8.88
  -1  -3  -3  184.64    9.91
   1  -3   3  196.90    9.64
  -1   3   3  204.61    9.50
  -1  -3   3  194.76    7.61
   1  -3  -3  204.68    9.48
   1  -3  -3  197.80    9.24
  -1  -3  -4  146.31    8.18
  -1  -3  -4  157.29    9.10
   1   3  -4  151.58    8.09
   1   3  -4  146.71    7.44
  -1  -3  -4  144.70    8.33
  -1   3   4  150.74    8.78
   1  -3   4  137.52    6.57
  -1  -3   4  157.68    6.98
  -1   3  -4  142.52    6.51
  -1  -3   4  135.84    6.44
   1  -3  -4  148.65   10.86
  -1  -3   4  150.38    7.61
  -1   3   4  153.43    8.54
   1  -3  -4  137.54    7.58
   1   3   4  140.08    9.52
  -1   3  -4  154.38    7.62
  -1   3  -4  148.74    5.75
   1  -3  -4  149.08   10.81
  -1   3   4  159.53    8.76
   1   3   4  148.18    7.96
   1  -3   4  150.31    7.77
   1  -3   4  151.62    7.89
  -1  -3   5   73.50    7.29
  -1  -3  -5   83.87    7.39
  -1   3  -5   62.52    6.41
  -1  -3   5   75.19    5.85
   1  -3   5   67.05    5.14
  -1   3   5   65.21    6.22
   1  -3  -5   70.65    8.79
   1   3  -5   71.83    6.16
   1  -3   5   67.44    4.89
   1  -3   5   75.29    5.93
  -1   3   5   65.57    7.68
  -1  -3   5   73.00    6.22
   1   3   5   81.57    7.18
  -1   3  -5   69.80    5.12
   1  -3  -5   73.77    7.14
   1   3   5   72.61    7.71
  -1  -3  -5   60.79    5.76
  -1   3  -5   69.84    6.98
   1  -3  -5   62.64    6.18
  -1   3   5   72.49    6.59
  -1  -3  -5   71.04    6.85
  -1   3  -6    2.28    3.17
   1  -3  -6    8.56    4.03
   1  -3   6    7.11    3.68
  -1   3   6    0.84    4.66
   1   3  -6    4.40    2.97
  -1  -3  -6    0.25    5.59
  -1  -3  -6   -4.43    7.22
   1   3  -6    1.11    3.59
  -1  -3   6    7.18    4.03
   1  -3   6    2.79    3.54
  -1  -3   6    1.74    4.89
  -1   3   6    3.56    4.65
  -1  -3  -6    0.16    5.83
   1  -3  -6    3.41    7.90
   1   3   6    9.70    5.96
   1  -3   6    1.02    4.78
  -1   3  -6    7.35    3.14
  -1  -3   6    0.68    6.20
   1  -3  -6    2.09    5.50
  -1   3  -6    6.58    5.01
  -1   3   6    2.82    6.67
   1   3   6    2.64    5.08
   1   3  -7  498.59   29.70
  -1   3   7  502.32   28.59
  -1   3  -7  487.29   25.64
  -1  -3  -7  459.03   26.03
   1   3  -7  467.58   24.87
   1   3   7  458.67   21.31
  -1   3  -7  482.25   18.84
   1  -3   7  483.21   22.71
   1  -3  -7  486.75   22.98
  -1   3   7  444.10   18.02
  -1  -3   7  431.50   24.21
   1   3   7  473.77   21.83
  -1  -3   7  466.12   24.18
  -1   3  -7  469.11   28.71
   1  -3  -7  453.09   23.63
   1  -3   7  486.39   23.26
  -1  -3  -7  458.57   19.65
  -1   3   7  494.65   25.82
   1  -3   7  488.62   28.81
  -1  -3   7  500.78   19.81
  -1  -3  -8   36.07   10.53
   1  -3   8   35.04    7.34
  -1  -3   8   36.12    8.48
  -1   3   8   32.66    9.40
  -1   3   8   22.58    9.23
  -1   3   8   36.61    8.05
   1  -3  -8   26.15    6.27
   1  -3  -8   31.57    8.59
   1   3  -8   44.66    5.89
  -1   3  -8   25.75    5.31
   1  -3   8   20.01    6.84
   1   3   8   55.34    9.37
  -1  -3   8   38.91    7.04
   1  -3   8   31.05    7.03
   1   3   8   27.02    8.40
  -1   3   9   49.51   10.29
  -1  -3  -9   53.91    8.83
   1  -3  -9   38.52    9.83
  -1  -3   9   57.58   12.28
   1   3   9   32.95   13.43
   1   3   9   35.97   10.36
   1   3  -9   44.56    7.80
   1  -3   9   40.92    8.17
  -1   3   9   48.68   11.04
   1   3  10   19.57   11.85
   1   3  10   35.22   11.88
  -1   3  10   33.20   14.15
  -1   3  10   13.84   17.55
   1  -3  10   24.50   12.52
   1  -3 -10   20.26    8.02
  -2  -3   0 7689.21  286.81
   2   3   0 7429.44  299.05
  -2   3   0 7430.69  238.12
   2   3   0 7739.67  270.37
   2  -3   0 7659.36  219.56
  -2  -3   0 7717.16  234.16
  -2   3   0 7840.05  250.98
   2  -3   0 7548.49  216.98
   2  -3  -1  236.99    8.16
   2  -3  -1  236.02    8.21
   2   3  -1  206.27   10.15
   2  -3   1  216.94    8.16
  -2  -3  -1  205.96    9.18
  -2   3  -1  220.56    9.44
   2  -3   1  224.97    7.18
  -2   3   1  223.78    7.65
   2   3   1  202.19    8.26
  -2  -3   1  194.77    8.98
  -2  -3   1  194.09    8.80
  -2  -3  -1  219.48    8.32
   2   3   1  208.72    8.47
  -2   3   1  236.60    8.86
   2  -3  -1  247.35    9.25
  -2   3   2  362.89   11.95
  -2   3   2  362.25   21.42
  -2  -3   2  354.65   13.75
   2   3   2  368.41   15.86
  -2   3   2  347.29   13.06
   2  -3   2  366.78   10.81
  -2   3  -2  366.13   14.21
   2  -3  -2  365.84   16.25
   2   3  -2  339.91   16.61
  -2  -3  -2  370.40   14.68
  -2  -3  -2  372.77   12.06
   2  -3  -2  358.18   13.01
   2  -3  -2  352.30   11.92
   2   3   2  360.37   20.08
   2  -3   2  403.11   13.30
   2  -3   2  367.33   14.35
   2  -3  -3  917.76   29.35
  -2   3  -3  929.82   32.85
  -2   3   3  965.36   27.41
  -2   3   3  917.48   30.06
   2  -3  -3  923.90   28.66
  -2   3  -3  946.04   53.94
  -2  -3  -3  983.08   32.29
  -2  -3  -3  958.63   29.74
   2  -3  -3  929.77   31.22
   2   3  -3  965.37   29.79
   2   3   3  999.89   33.88
  -2   3   3  909.39   31.09
  -2  -3  -3  972.97   46.70
   2  -3   3  938.31   32.68
  -2  -3   3  994.27   44.07
   2   3   3  967.29   34.13
  -2  -3   3  953.04   29.85
   2  -3   3  951.91   29.42
   2  -3   3  917.65   27.84
   2   3  -3  965.69   32.04
  -2   3   4 1175.25   58.97
  -2  -3  -4 1191.05   67.28
   2  -3  -4 1117.67   37.19
  -2   3   4 1131.50   35.86
   2   3   4 1132.35   35.02
   2  -3   4 1125.33   32.08
   2   3  -4 1163.03   42.44
  -2  -3   4 1181.05   42.37
   2   3  -4 1193.74   35.10
   2  -3  -4 1180.20   57.18
   2  -3   4 1183.83   34.88
   2  -3   4 1201.78   40.83
   2   3   4 1152.63   34.02
  -2   3   4 1153.02   37.37
  -2  -3   4 1182.90   35.71
  -2  -3  -4 1136.83   32.15
   2  -3  -4 1226.46   44.31
  -2   3  -4 1145.87   49.94
  -2   3  -4 1146.27   54.24
  -2   3  -4 1152.17   39.04
  -2  -3  -4 1181.35   41.14
  -2  -3   5  533.50   22.84
  -2   3  -5  517.07   22.96
   2  -3  -5  531.34   25.65
   2   3  -5  516.41   21.21
  -2   3   5  524.74   21.62
  -2   3   5  543.42   20.91
   2   3  -5  554.28   32.32
  -2  -3  -5  509.67   25.70
   2  -3   5  538.88   18.53
  -2  -3  -5  533.65   21.39
  -2   3   5  565.26   25.51
  -2   3  -5  537.07   20.70
  -2  -3   5  520.51   20.78
   2  -3   5  535.68   17.93
   2  -3  -5  534.71   26.78
  -2  -3  -5  499.11   30.58
  -2   3  -5  518.88   22.71
   2   3   5  489.88   19.78
   2  -3   5  528.88   23.19
   2   3   5  493.46   19.79
   2  -3  -5  505.61   20.11
   2   3   6  168.62    9.86
   2  -3  -6  176.08   10.44
  -2  -3  -6  162.47    9.85
  -2  -3  -6  181.57   13.30
   2  -3   6  174.11    7.54
  -2   3   6  157.05   13.39
  -2   3   6  175.43   12.27
   2   3  -6  157.76   10.92
  -2  -3   6  178.24   10.53
   2   3   6  177.41   11.81
  -2  -3  -6  184.72   15.57
  -2  -3   6  160.76   11.08
   2  -3  -6  172.71   13.98
  -2   3  -6  179.64   11.73
  -2   3  -6  177.44   12.01
  -2   3  -6  167.38    9.48
  -2   3   6  171.39    9.76
   2  -3   6  187.65   10.33
   2  -3   6  173.45    9.67
   2  -3  -6  166.24   15.03
   2   3  -6  165.53   11.97
  -2   3   7   20.87   10.02
  -2  -3   7    4.88    5.86
   2  -3   7    9.84    4.72
  -2  -3  -7    5.63    6.93
  -2   3  -7   11.12    3.39
  -2   3  -7    7.36    4.72
   2   3  -7    6.16    4.45
   2   3   7   14.37    9.64
   2  -3   7   11.91    7.98
  -2   3   7   -0.51    9.30
   2   3   7    0.53    7.83
   2  -3  -7    8.68    7.12
   2   3  -7    4.21    4.80
  -2   3   7   15.26    6.64
  -2  -3   7    5.37    7.27
  -2   3  -7    8.85    6.22
   2  -3  -7    8.76    7.31
  -2  -3  -7    4.10    3.76
  -2   3   8   25.63    8.78
  -2   3  -8   10.16    3.46
   2  -3   8   22.21    7.14
  -2   3   8    3.55    6.86
   2  -3   8   11.72    9.00
   2  -3  -8   11.83    8.90
  -2  -3   8   17.89    7.42
  -2  -3  -8   15.16    8.96
  -2  -3   8   13.65    7.25
   2   3   8   13.33   10.14
   2   3  -8   14.88    6.02
  -2  -3  -8   21.93    6.37
   2   3   8   16.50    7.44
   2   3   9   58.00   12.59
  -2   3   9   67.99   14.40
   2   3   9   45.22    9.85
   2  -3  -9   61.22   12.08
   2  -3   9   54.78   10.13
   2   3  -9   59.21    8.22
  -2   3   9   61.42   11.50
  -2  -3   9   42.25   14.25
  -2  -3  -9   54.36    8.96
   2  -3  10   87.89   14.31
  -2   3  10   68.42   13.96
   2   3  10   90.68   19.64
   2  -3 -10   88.12   14.26
   3  -3   0 2462.74   68.91
  -3   3   0 2452.53   73.53
   3  -3   0 2392.59   69.42
   3   3   0 2469.91   89.60
  -3   3   0 2330.47   84.40
   3   3   0 2439.08   97.78
  -3  -3   0 2519.46   77.59
  -3  -3   0 2451.24  104.46
   3   3   1 2875.35   86.84
  -3  -3  -1 2942.20   94.29
  -3   3   1 2946.68  104.52
  -3   3  -1 2792.60   91.33
  -3  -3   1 2909.19  121.24
  -3  -3  -1 2989.43   92.92
   3  -3  -1 2899.08   82.74
  -3   3   1 3002.95  112.87
   3  -3   1 2865.59   94.65
   3   3  -1 2907.74  109.77
   3  -3  -1 2975.31   89.60
  -3   3  -1 2832.92   86.08
  -3  -3   1 2889.98  106.41
   3   3   1 2963.35   88.72
   3   3   2 1565.56   52.22
  -3  -3   2 1660.37   49.37
  -3   3   2 1685.33   58.87
   3  -3  -2 1673.50   55.23
  -3  -3  -2 1638.77   52.26
  -3  -3  -2 1763.00  101.16
   3   3  -2 1634.27   63.24
   3  -3   2 1617.00   50.13
   3  -3  -2 1682.24   50.73
   3   3   2 1690.96   53.18
   3  -3  -2 1581.37   48.76
  -3   3   2 1732.82   55.44
   3  -3   2 1787.50   66.90
   3   3   3  221.85    9.08
  -3   3   3  194.07   10.44
   3  -3  -3  207.37   12.17
  -3   3  -3  203.61   11.05
  -3   3   3  205.04    8.76
   3   3  -3  201.40    8.26
   3   3   3  193.62   10.02
  -3  -3   3  204.94    9.37
  -3   3   3  213.90    9.12
   3  -3   3  196.22    8.52
   3   3  -3  199.51    8.99
   3  -3  -3  194.21    9.86
   3  -3   3  211.67    7.53
  -3  -3   3  218.24   12.48
  -3  -3  -3  213.31   10.10
  -3  -3  -3  228.94   13.56
   3  -3  -3  213.41    9.68
   3   3   4  140.63    7.40
  -3   3   4  144.79    8.19
  -3  -3   4  153.69    7.92
   3  -3   4  150.58    6.58
  -3   3   4  150.53    9.51
  -3  -3  -4  140.14    6.81
  -3  -3   4  138.31    7.67
  -3   3   4  152.00    8.69
   3   3  -4  141.00    8.82
   3  -3   4  137.07    7.45
   3  -3  -4  142.24    9.30
   3   3  -4  141.43    8.53
  -3   3  -4  141.83    8.87
  -3  -3  -4  155.73    9.99
   3  -3  -4  133.27    9.20
  -3  -3  -4  158.67    8.32
   3   3   4  134.05    7.85
   3  -3  -4  163.70   12.67
  -3   3  -4  149.00    7.25
  -3   3  -4  129.80    7.15
  -3  -3   5    0.29    3.91
  -3   3  -5    9.94    3.65
  -3   3  -5    5.42    1.44
   3   3   5    6.07    4.28
   3  -3   5    6.79    2.23
   3   3  -5    5.96    4.80
  -3  -3   5    8.39    3.37
  -3  -3  -5    5.30    4.85
   3  -3  -5   -0.97    5.01
   3  -3   5   11.13    4.40
  -3   3  -5   -0.35    3.22
   3   3   5    4.38    4.03
  -3  -3  -5    6.23    4.42
   3  -3  -5    4.90    4.94
  -3   3   5    3.14    5.06
  -3   3   5    5.23    5.48
  -3   3   5    8.48    5.68
   3   3  -5    3.49    3.86
  -3  -3  -5    6.44    6.43
   3  -3  -5    5.80    4.28
   3  -3   6   53.16    5.78
  -3   3   6   62.48    8.96
   3  -3   6   59.97    6.84
  -3   3   6   48.12    7.35
   3  -3  -6   57.87    7.78
  -3   3  -6   58.32    4.56
  -3   3  -6   63.53    7.97
  -3  -3  -6   56.29    5.71
  -3  -3  -6   54.42   10.40
   3   3  -6   52.16    5.99
  -3   3  -6   58.84    6.69
  -3   3   6   57.25    8.26
  -3  -3   6   58.62    7.85
   3  -3  -6   53.07    8.80
  -3  -3   6   53.64    6.58
   3  -3  -6   70.83   10.80
   3   3   6   46.98    7.32
   3   3   6   46.11    7.45
   3   3  -6   54.38    7.19
  -3  -3  -6   59.12    9.86
   3   3  -7  321.22   20.20
  -3   3   7  323.07   25.11
  -3  -3   7  329.80   18.45
   3  -3  -7  291.53   19.91
  -3   3   7  338.45   20.87
   3   3  -7  331.28   16.85
   3  -3   7  314.49   16.79
  -3   3  -7  329.88   22.22
  -3   3  -7  335.78   19.47
  -3  -3  -7  331.21   16.05
  -3  -3   7  346.29   18.95
  -3   3  -7  342.47   20.64
  -3   3   7  311.66   17.88
   3   3   7  322.72   17.62
   3  -3  -7  317.49   19.71
   3  -3   7  353.07   19.02
  -3  -3  -7  309.54   19.31
   3   3   7  311.81   17.95
   3   3   8  175.24   17.87
   3  -3   8  177.97   12.42
  -3  -3   8  177.20   14.35
   3   3   8  167.47   15.26
   3   3  -8  184.63   13.53
  -3  -3  -8  181.39   10.30
   3  -3   8  173.04   14.60
  -3   3   8  147.25   14.36
   3  -3  -8  143.63   11.76
  -3  -3   8  150.44   13.04
  -3   3   8  159.45   13.58
  -3   3  -8  145.87   11.19
   3   3  -9   30.61    8.38
  -3   3   9   33.78   12.03
   3  -3   9   28.98   10.54
  -3  -3   9   38.48   11.75
   3   3   9   34.36    9.04
  -3  -3  -9   41.07    6.25
   3   3   9   50.40   10.10
   3  -3  -9   33.57    8.70
   3   3  10  136.50   17.62
   3  -3  10  113.73   15.40
  -3   3  10   95.26   15.59
   3  -3 -10  118.15   15.82
   4  -3   0   62.53    3.47
   4  -3   0   62.96    3.41
  -4   3   0   64.97    3.93
  -4   3   0   59.80    3.34
   4   3   1  184.13    8.36
  -4   3  -1  167.12    7.21
   4  -3   1  177.98    7.76
  -4  -3   1  178.30    8.35
   4   3  -1  196.33    8.92
  -4  -3   1  190.94    9.94
  -4  -3  -1  194.20    8.84
   4  -3  -1  189.38    9.60
   4  -3  -1  185.61    9.37
   4   3   1  175.55    8.58
  -4   3   1  195.39    8.03
  -4   3   1  193.20    7.64
  -4  -3  -1  188.77   10.13
  -4   3  -1  183.93    7.39
   4  -3   2  532.67   21.39
  -4  -3  -2  484.11   24.12
   4  -3  -2  536.74   18.91
  -4   3  -2  545.60   20.92
  -4   3  -2  508.36   15.62
  -4  -3   2  520.95   18.13
   4  -3  -2  527.80   18.87
  -4   3   2  530.05   19.61
   4   3  -2  463.88   19.39
   4   3   2  490.08   20.30
   4  -3  -2  561.15   18.69
  -4  -3  -2  480.51   18.64
  -4   3   2  575.36   19.78
   4  -3   2  518.27   23.22
   4   3   2  474.06   16.77
  -4   3  -3 1296.26   55.38
  -4  -3   3 1301.97   49.62
   4   3   3 1196.43   58.43
  -4  -3  -3 1293.09   42.32
  -4   3  -3 1232.78   45.49
  -4   3   3 1302.06   58.53
   4  -3   3 1299.13   49.40
   4  -3  -3 1303.40   43.49
  -4  -3  -3 1321.82   51.20
   4   3  -3 1268.36   43.92
   4  -3   3 1369.92   53.84
  -4   3   3 1339.28   49.42
  -4  -3   3 1238.19   43.34
   4  -3  -3 1235.25   47.03
   4  -3  -3 1322.55   45.67
   4   3   3 1273.60   44.45
   4  -3  -4  685.13   30.15
   4  -3  -4  721.04   31.39
  -4   3   4  709.13   30.49
   4   3  -4  725.28   27.41
  -4   3   4  701.23   22.60
   4  -3   4  679.57   22.87
  -4  -3  -4  701.26   28.06
   4  -3  -4  702.30   26.32
   4   3   4  688.66   22.77
  -4  -3   4  722.61   22.34
  -4  -3   4  694.59   26.25
   4   3   4  657.51   21.63
  -4   3  -4  681.53   35.39
   4  -3   4  695.24   22.72
   4   3  -4  649.42   25.64
  -4  -3  -4  689.39   22.36
  -4  -3  -4  714.24   46.71
   4  -3  -5  199.79   12.44
  -4  -3  -5  234.40   14.30
  -4   3  -5  227.87   11.21
  -4   3   5  221.96   11.84
   4  -3  -5  261.21   18.42
   4  -3  -5  221.73   15.76
  -4   3  -5  229.67   15.57
  -4  -3   5  235.78   13.39
  -4   3   5  247.31   13.67
   4   3   5  188.26   11.19
  -4  -3  -5  217.47   12.53
   4   3   5  219.63   12.75
   4   3  -5  224.72   14.65
   4   3  -5  207.81   11.00
  -4  -3   5  230.10   12.28
   4  -3   5  235.02    9.72
  -4   3  -5  223.15    9.17
  -4  -3  -5  216.50   10.38
   4  -3   5  234.81   10.57
  -4  -3  -6  595.41   31.53
   4  -3  -6  617.87   24.39
  -4   3  -6  640.63   29.40
   4  -3   6  644.00   29.80
  -4  -3   6  617.02   29.63
  -4   3   6  594.07   26.78
   4   3   6  626.80   28.69
  -4  -3  -6  642.79   33.82
   4  -3   6  606.31   22.09
  -4   3  -6  631.11   35.89
  -4   3   6  637.93   29.80
   4  -3  -6  634.99   34.31
   4   3  -6  614.37   33.20
  -4  -3   6  618.21   28.24
   4   3   6  634.80   26.83
   4   3  -6  622.19   32.98
  -4   3  -6  648.52   31.71
  -4  -3  -7  102.48    8.43
   4   3  -7  135.99   11.61
   4  -3  -7  166.36   13.33
  -4   3  -7  131.11   11.26
  -4   3  -7  132.60   11.42
  -4  -3   7  140.21   10.93
   4  -3   7  151.57   10.31
  -4   3  -7  128.02    8.07
   4   3   7  133.51   11.84
   4   3   7  130.88   13.11
   4   3  -7  138.01    9.01
   4  -3   7  134.46   10.98
  -4   3   7  125.81   12.41
  -4  -3  -7  113.23   12.86
  -4  -3   7  131.73   10.00
   4  -3  -8  567.12   29.75
   4   3   8  518.51   31.82
   4  -3   8  554.67   30.72
  -4   3   8  542.64   32.40
  -4  -3  -8  544.85   30.07
   4   3   8  508.16   30.28
   4   3  -8  544.11   33.28
  -4  -3   8  482.88   39.19
  -4  -3   8  567.19   32.06
   4  -3   8  575.28   29.56
  -4   3   9   52.85   13.72
   4   3   9   10.64   10.19
  -4  -3   9   24.15   14.30
   4  -3   9   62.86   13.41
   4  -3  -9   52.38   10.23
   4   3   9   49.01   15.24
  -4  -3  -9   24.58    6.46
   4   3  -9   38.12    7.26
   4   3  10   18.50   17.23
  -4   3  10   18.50   18.55
   4  -3  10   13.03    9.46
   4  -3 -10    7.27   14.31
  -5  -3   0   17.78    3.01
  -5  -3   0   16.37    3.43
   5   3   0   13.63    3.40
   5   3   0   20.51    3.02
  -5   3   0   22.61    2.91
   5  -3   0   18.62    2.49
   5   3   0   22.32    2.66
  -5   3   0   27.83    3.74
   5  -3  -1  699.88   26.06
  -5  -3  -1  743.80   25.63
  -5   3  -1  693.30   23.94
   5   3  -1  756.83   29.43
  -5   3  -1  651.87   29.14
  -5  -3  -1  776.27   26.70
   5   3   1  765.40   22.30
  -5  -3   1  768.51   25.07
  -5  -3   1  789.67   24.02
  -5   3   1  684.41   24.39
   5  -3   1  668.14   27.33
   5  -3  -1  691.08   25.96
   5   3   1  724.32   33.40
  -5   3   1  688.07   22.76
   5   3   2  344.32   17.35
   5   3   2  342.88   11.84
   5  -3   2  354.30   14.19
  -5   3   2  377.76   14.38
  -5   3  -2  345.93   16.90
  -5  -3  -2  349.23   17.62
  -5   3  -2  364.34   13.67
   5  -3   2  363.52   13.64
  -5   3   2  360.08   14.41
  -5  -3   2  358.55   16.02
   5   3  -2  355.03   14.27
   5  -3  -2  339.04   12.55
  -5  -3  -2  359.05   14.94
   5  -3  -2  390.16   18.70
   5  -3  -3  314.52   15.65
   5   3  -3  352.77   13.95
   5   3   3  324.23   14.44
   5  -3   3  322.79   14.02
  -5   3   3  327.63   14.13
  -5  -3  -3  317.41   18.86
  -5   3  -3  314.26   11.45
  -5   3   3  324.95   15.12
   5  -3   3  326.41   11.51
   5   3   3  334.43   13.64
   5  -3  -3  322.21   17.49
  -5  -3   3  323.01   16.19
  -5  -3  -3  304.84   12.48
   5  -3  -3  302.88   13.11
  -5  -3   3  336.76   12.42
  -5   3  -4  125.55    7.95
  -5  -3   4  144.96    8.33
  -5   3   4  131.46    9.51
   5  -3   4  133.54    7.42
   5  -3   4  139.21    6.97
  -5  -3   4  143.83   10.32
   5  -3  -4  139.81   11.93
   5   3   4  129.43    9.03
  -5  -3  -4  129.99    9.09
   5   3  -4  132.75    7.80
   5   3   4  135.77    7.44
   5  -3  -4  124.98    8.51
  -5   3   4  118.99   10.21
  -5  -3  -4  143.56    8.58
   5   3  -4  146.16    9.49
   5  -3  -4  128.38    8.65
  -5   3  -5  164.33   11.01
   5  -3  -5  162.47   14.87
   5  -3   5  129.06   10.53
   5   3   5  130.53    9.60
  -5  -3  -5  131.70    7.38
  -5  -3   5  135.09    9.41
  -5  -3  -5  145.82   12.30
  -5   3   5  155.94   11.82
   5   3  -5  144.14    9.70
   5  -3  -5  162.94   14.75
   5   3  -5  135.39   10.35
  -5  -3  -5  143.55    9.00
  -5  -3   5  143.51    9.31
   5  -3   5  159.42    7.37
   5  -3  -5  170.67   10.37
  -5   3   5  154.00   12.38
   5   3   5  144.07    8.90
  -5  -3  -6  200.96   14.44
   5   3   6  164.44   11.16
  -5   3  -6  220.03   11.87
   5   3   6  175.66   12.94
  -5   3   6  205.83   17.54
   5  -3  -6  210.47   18.68
   5  -3   6  210.11   11.17
  -5   3   6  233.23   15.19
   5   3  -6  190.12   13.08
   5   3  -6  189.93   15.02
  -5  -3   6  207.98   11.66
  -5   3  -6  212.72   13.84
   5  -3  -6  201.20   14.37
  -5  -3  -6  208.42   12.52
  -5  -3   6  204.25   13.18
   5  -3   6  216.69   14.29
  -5  -3   7   35.91    9.09
  -5   3  -7   25.66    6.22
   5  -3  -7   42.43    6.96
  -5   3  -7   26.57    4.58
   5   3  -7   42.66    7.67
  -5  -3   7   32.24    7.64
   5  -3   7   30.48    5.98
  -5   3  -7   30.42    2.09
  -5  -3  -7   37.28    6.28
   5  -3   7   39.60    7.29
   5   3   7   29.43    6.93
  -5   3   7   39.63    8.30
   5   3   7   22.29    7.77
  -5  -3  -7   37.49   10.31
   5   3   8   63.73    9.54
   5  -3   8   66.01   11.85
   5   3   8   58.56   10.05
   5  -3  -8   50.48   12.03
   5   3  -8   49.22    9.80
  -5  -3  -8   65.52    7.63
  -5   3   8   48.28   11.62
  -5  -3   8   45.16   10.56
  -5   3   9   37.59   16.13
   5   3  -9   54.16    9.91
   5  -3   9   38.66   12.98
  -5  -3   9   34.00   10.51
   5   3   9   23.53   14.78
   5  -3  -9   31.39   10.28
   5   3 -10   42.73   12.44
   5  -3 -10   31.01   14.62
  -5   3  10    2.56   13.70
   5  -3  10   15.62   14.62
   5   3  10   12.58   12.58
   6  -3   0 2672.46   85.04
  -6  -3   0 2717.47  130.69
   6   3   0 2589.00   96.83
  -6   3   0 2526.70  107.55
  -6   3   0 2581.51   75.81
   6   3   0 2611.37   88.17
  -6  -3   0 2629.57   83.92
   6   3   0 2581.81   78.46
  -6  -3   1  110.96    6.54
  -6  -3  -1   93.27    6.40
  -6   3   1  117.60    6.82
   6  -3   1  113.02    5.27
  -6  -3  -1  103.31    7.10
  -6   3  -1  104.50    5.53
  -6   3  -1   99.50    5.33
  -6  -3   1  112.31    7.18
   6   3   1   99.46    6.31
   6   3   1   91.30    7.16
   6  -3  -1   95.42    6.33
  -6   3  -1  104.62    5.37
   6   3  -1  104.45    6.63
  -6   3   1  109.44    6.07
  -6   3  -2  496.61   17.34
   6   3   2  489.21   18.77
  -6  -3  -2  526.90   25.67
   6   3  -2  512.10   20.06
  -6  -3   2  511.94   20.74
   6  -3  -2  516.08   22.49
  -6  -3  -2  530.11   17.59
   6   3   2  513.19   21.65
   6  -3   2  502.56   18.84
  -6   3   2  526.79   17.86
  -6  -3   2  538.42   23.50
  -6   3   2  502.10   18.19
  -6  -3  -2  534.32   26.59
   6  -3   2  502.50   16.56
   6  -3  -2  515.85   19.99
  -6   3  -3  134.68    5.88
   6  -3  -3  142.23   10.47
  -6  -3   3  168.35    9.06
  -6   3  -3  123.80    6.20
  -6  -3  -3  159.18   12.66
   6  -3  -3  132.99    9.10
   6  -3  -3  154.58    8.90
  -6   3   3  148.02    9.25
  -6  -3   3  151.46    9.84
   6   3  -3  144.26    9.23
   6   3   3  158.86    8.00
  -6  -3  -3  153.37    8.34
   6   3   3  149.37    8.04
   6  -3   3  143.14    6.10
  -6   3   3  143.09    9.00
   6  -3   3  138.00    7.76
   6   3   4  366.70   16.07
  -6  -3  -4  391.11   16.26
   6   3   4  374.49   15.84
   6  -3   4  383.23   22.48
   6  -3  -4  410.21   17.46
   6   3  -4  392.45   17.75
   6  -3  -4  383.19   23.63
  -6  -3   4  379.74   18.56
   6  -3   4  386.34   14.58
  -6   3   4  375.64   16.53
  -6  -3  -4  369.19   21.66
   6  -3  -4  351.17   17.27
  -6  -3   4  373.48   15.76
   6   3  -4  367.01   18.18
  -6   3   4  401.76   22.24
   6   3  -5  288.83   19.64
  -6   3   5  257.95   15.58
  -6  -3   5  310.54   17.50
  -6   3  -5  311.45   20.59
  -6  -3   5  279.52   14.47
   6  -3   5  312.19   17.11
  -6  -3  -5  275.31   20.39
   6   3  -5  288.95   15.05
  -6  -3  -5  290.71   15.40
   6   3   5  311.73   17.09
   6   3   5  307.20   14.85
  -6   3   5  303.29   15.61
   6  -3   5  294.96   14.27
  -6  -3  -5  300.82   13.28
   6  -3  -5  305.45   22.91
   6  -3  -5  276.75   18.80
   6  -3  -5  268.93   18.19
  -6  -3   6  465.03   26.76
  -6  -3  -6  460.71   21.55
  -6   3   6  405.80   20.32
   6   3   6  465.19   28.86
   6   3  -6  447.41   21.86
   6   3  -6  467.59   25.36
  -6   3  -6  376.52   24.47
   6   3   6  476.83   21.03
  -6  -3  -6  434.01   24.19
  -6   3  -6  473.65   27.54
   6  -3  -6  466.27   22.15
   6  -3   6  461.87   27.44
   6  -3   6  455.16   21.56
  -6  -3   6  481.04   22.24
   6  -3  -7   40.72   12.09
   6   3   7   29.64    9.95
   6  -3   7   43.89    5.86
   6  -3   7   35.17    8.18
   6   3  -7   65.05   10.78
   6   3   7   42.10    7.45
  -6  -3   7   51.27    8.64
  -6   3   7   49.48    8.98
  -6  -3  -7   42.66    9.08
  -6  -3  -7   39.49    7.04
  -6   3   8  109.42   13.52
   6   3   8  133.04   12.97
  -6  -3  -8  137.74   11.51
   6   3  -8  145.81   13.39
   6   3   8  122.08   15.47
  -6  -3   8  137.96   16.40
   6  -3  -8  150.10   17.10
   6  -3   8  132.36   14.55
  -6  -3   9   29.44   11.09
  -6   3   9    9.96   15.85
   6  -3   9   31.61   12.71
   6   3   9   15.74   12.25
   6  -3  -9   16.80   10.80
   6   3  -9   15.45   13.35
   7  -3   0 1646.11   62.92
  -7  -3   0 1561.36   49.68
  -7   3   0 1585.06   57.50
  -7  -3   0 1531.98   54.52
  -7   3   0 1507.83   43.48
   7   3   0 1490.02   54.46
   7   3   1  410.40   16.16
  -7   3  -1  401.27   16.00
   7  -3   1  424.76   14.53
  -7   3   1  425.02   15.25
  -7   3  -1  401.55   15.52
  -7   3  -1  401.85   14.94
   7   3  -1  445.75   17.51
   7   3   1  430.91   15.66
  -7  -3  -1  444.30   20.02
   7  -3  -1  413.29   16.74
  -7  -3  -1  437.19   20.45
  -7  -3   1  433.20   17.33
  -7   3   1  453.15   17.64
  -7  -3   1  418.42   16.62
  -7   3   2  394.26   16.83
  -7  -3   2  388.63   17.74
   7   3  -2  396.65   17.04
   7  -3  -2  374.66   15.96
   7   3   2  366.80   15.21
  -7  -3  -2  390.13   17.51
  -7  -3   2  395.94   17.06
   7   3   2  383.61   15.02
   7  -3   2  387.15   15.64
  -7  -3  -2  425.17   17.74
   7  -3   2  397.96   15.10
  -7   3   2  398.48   17.10
  -7   3  -2  401.39   16.21
  -7   3   3   43.89    5.76
   7   3  -3   27.98    4.56
  -7  -3  -3   25.49    5.61
   7  -3  -3   35.38    5.79
  -7   3   3   43.80    6.38
  -7  -3  -3   43.79    4.50
   7  -3  -3   34.70    6.85
   7   3   3   36.32    4.56
  -7  -3  -3   32.69    5.27
  -7   3  -3   41.91    2.76
  -7  -3   3   29.03    6.32
   7  -3   3   38.42    4.10
  -7  -3  -4  204.80   15.42
   7  -3   4  205.24   11.12
   7  -3  -4  251.62   18.16
   7   3   4  210.89   12.45
   7  -3   4  207.75   12.99
   7  -3  -4  231.13   15.56
  -7   3   4  202.63   10.71
  -7  -3   4  212.60   15.79
  -7   3   4  226.04   15.20
  -7  -3  -4  213.79   11.77
   7  -3  -4  225.26   13.95
  -7  -3   4  219.71   13.91
  -7   3  -4  209.28    8.16
  -7   3  -4  221.36    9.31
   7   3  -4  207.18   12.37
   7   3   4  225.95   12.27
   7  -3   5  137.76    8.24
   7  -3   5  121.29    8.67
   7  -3  -5  129.68   13.45
  -7  -3  -5  127.81   10.62
  -7   3   5  144.05   10.13
   7   3   5  131.60   10.28
  -7   3   5  143.03   10.47
  -7  -3   5  122.23   11.29
   7   3  -5  136.93    9.88
  -7  -3   5  114.92   10.14
   7   3  -5  142.32   11.12
   7   3   5  131.60    9.55
   7  -3  -5  116.00   13.44
   7  -3  -6   21.23    7.02
   7  -3   6   21.19    3.68
   7   3   6   19.39    7.70
   7   3  -6   26.38    7.12
  -7  -3  -6   16.59    6.05
  -7  -3  -6   24.09    4.68
  -7   3  -6   26.27    5.22
  -7  -3   6   15.39    6.58
  -7   3   6   26.01    7.65
   7  -3   6   18.49    7.65
  -7  -3  -7    9.33    4.92
   7   3   7   12.21    7.97
   7  -3  -7    2.22    7.06
   7   3  -7    7.77    6.41
   7   3   7    7.95    6.53
  -7  -3   7    4.37    7.37
  -7   3   7    5.25    7.88
   7  -3   7    4.13    8.20
   7  -3   7    6.88    4.45
   7   3  -8   93.09   12.94
  -7  -3  -8   66.07    7.12
  -7   3   8   92.42   14.32
   7  -3   8   79.47   13.16
   7   3   8   73.99   11.85
  -7  -3   8   80.37   12.79
   7  -3  -8   93.28   13.56
   7   3   8   71.33   13.06
   7  -3   9   88.95   12.95
   7   3  -9   97.44   13.99
   7  -3  -9   95.50   14.42
  -7   3   9  126.62   21.75
   7   3   9   95.08   14.57
  -7  -3   9   95.80   19.26
  -8  -3   0  134.35    8.91
   8   3   0  127.44    7.15
  -8  -3   0  126.37    6.73
   8  -3   0  114.83    6.64
  -8   3   0  125.64    7.15
  -8   3   0  133.53    8.37
  -8  -3  -1   49.92    5.42
   8  -3   1   46.93    4.36
  -8   3  -1   52.19    3.90
  -8  -3   1   63.25    6.42
   8   3  -1   54.21    5.71
   8  -3  -1   52.59    4.73
  -8   3   1   58.45    4.72
   8   3   1   54.47    5.17
   8   3   1   50.05    6.10
  -8  -3  -1   66.71    5.61
  -8  -3   1   60.27    5.69
  -8   3  -1   46.60    4.82
  -8   3  -1   41.60    4.27
  -8   3   1   50.78    5.01
  -8  -3   2    0.38    5.08
   8   3   2    0.87    3.55
   8  -3   2    6.83    1.98
  -8  -3   2   -0.14    5.57
  -8  -3  -2    6.19    4.48
   8   3  -2    8.77    4.70
   8  -3  -2    3.74    3.76
  -8   3  -2    5.23    2.33
  -8  -3  -2    5.38    2.70
  -8   3   2    1.12    3.68
   8   3   2    5.76    4.52
   8  -3   2    9.43    3.93
  -8   3  -2    4.67    1.94
  -8   3   2    4.32    4.24
  -8  -3   3  537.04   24.00
  -8   3   3  529.66   19.62
   8   3   3  502.73   28.02
   8  -3  -3  561.74   24.01
   8   3  -3  492.23   21.54
  -8  -3  -3  542.92   18.22
   8  -3   3  542.33   20.44
  -8   3   3  575.57   29.14
  -8   3  -3  532.62   20.27
  -8  -3  -3  549.04   25.12
   8   3   3  502.69   24.29
   8   3  -4  216.43   13.03
  -8   3   4  210.69   12.36
  -8   3  -4  220.56   10.41
  -8  -3   4  239.01   16.44
   8   3   4  222.98   12.19
   8  -3  -4  231.58   16.09
  -8   3   4  237.36   14.89
  -8  -3  -4  186.19   16.04
  -8  -3  -4  220.65   15.18
  -8  -3   4  220.66   12.75
   8  -3   4  226.69   13.54
  -8  -3  -4  196.77   10.56
   8   3   4  247.04   12.26
   8  -3   4  234.13   11.94
  -8  -3   5  331.03   19.44
  -8  -3   5  319.27   20.73
  -8   3   5  330.38   15.81
   8  -3  -5  308.10   19.54
   8   3   5  299.94   16.34
   8   3  -5  316.88   21.00
   8   3   5  321.30   19.19
   8   3  -5  336.12   19.70
   8  -3   5  329.44   22.27
   8  -3   5  327.47   15.77
  -8  -3  -5  340.36   15.09
  -8  -3  -6   90.04    9.01
   8  -3   6   88.24    9.00
   8  -3   6   81.58    7.59
   8  -3  -6   87.06   13.10
   8   3   6   81.79   10.19
  -8   3   6   86.69    9.30
   8   3  -6   83.57    9.72
   8   3   6   79.21    8.44
  -8  -3  -6   91.66    7.41
  -8  -3   6   88.05   13.16
   8   3  -7  129.94   12.11
  -8   3   7  134.04   15.92
   8   3   7  111.73   10.29
   8  -3  -7  129.71   13.10
  -8  -3   7  101.14   14.70
  -8  -3  -7  116.06    8.87
   8   3   7  141.66   16.33
   8  -3   7  115.07   11.92
   8  -3  -8  198.97   18.05
   8   3   8  210.80   22.96
  -8   3   8  228.07   18.32
  -8  -3   8  182.54   15.65
   8   3  -8  186.30   15.62
   8  -3   8  215.31   16.33
  -8  -3   9   -7.05   11.56
   8  -3  -9    6.10   12.46
   8   3  -9    2.91    9.53
   8  -3   9   12.63    8.99
   8   3   9  -15.51   16.45
  -8   3   9    9.72   14.38
   9  -3   0    2.07    2.90
   9   3   0    3.15    3.05
  -9   3   0    7.88    3.28
  -9  -3   0    5.87    3.81
  -9  -3   0   14.93    4.61
   9   3   0    2.82    3.48
  -9   3   0    8.70    3.55
  -9  -3  -1  814.11   32.83
  -9   3  -1  844.79   33.94
  -9  -3   1  796.93   48.19
   9   3   1  775.90   26.36
  -9   3   1  822.17   29.17
  -9   3  -1  779.79   30.86
  -9  -3   1  811.24   40.37
   9  -3  -1  862.53   34.48
  -9   3   1  896.33   38.98
   9   3   1  755.49   25.73
   9  -3   1  832.19   32.97
   9   3  -1  778.93   35.39
  -9  -3  -1  799.57   41.67
  -9   3  -1  803.51   31.49
   9  -3   2  446.92   20.00
  -9   3  -2  461.63   16.18
  -9  -3  -2  473.91   21.49
  -9   3   2  436.44   17.05
   9  -3   2  449.77   17.10
  -9   3   2  492.23   20.31
  -9  -3  -2  445.68   24.94
   9   3   2  446.53   17.25
   9  -3  -2  449.63   18.01
   9   3   2  446.42   22.01
  -9  -3   2  446.98   23.21
  -9  -3   2  434.94   27.74
  -9   3  -2  465.71   17.20
   9   3  -2  434.38   22.16
   9   3   3  145.95    9.92
  -9  -3   3  164.66   12.46
   9  -3   3  186.46   12.89
   9   3   3  149.63   10.86
  -9  -3   3  149.42   11.57
  -9   3   3  196.36    9.99
  -9   3  -3  126.31   11.61
  -9  -3  -3  163.30    9.49
   9   3  -3  163.87   10.98
  -9   3   3  189.16   15.80
  -9   3  -3  185.62    8.40
  -9  -3  -3  160.53   10.93
   9  -3  -3  176.89   11.28
  -9   3   4   94.95   10.04
  -9  -3   4  114.58    9.21
  -9  -3   4  100.80   11.42
  -9  -3  -4  102.91    7.92
   9   3  -4  106.60   11.37
   9  -3  -4   87.94    9.75
  -9   3  -4  106.05    5.32
   9   3   4   81.95    8.40
  -9   3   4  126.88   12.46
  -9  -3  -4  107.79    8.32
   9  -3   4  109.47    9.01
   9   3   4   98.84    7.76
   9   3  -5   39.00    7.17
   9   3   5   29.02    8.81
  -9  -3  -5   42.34    7.22
  -9   3   5   37.11   10.21
  -9  -3  -5   36.54    6.54
   9  -3   5   45.98    6.62
   9   3   5   38.87    9.20
  -9  -3   5   36.47    7.83
   9  -3   5   44.38    4.31
   9  -3  -5   45.59    9.59
  -9   3  -5   32.08    3.41
  -9  -3   6  153.96   11.88
   9  -3   6  167.43   12.61
  -9  -3  -6  160.73   14.63
   9   3   6  167.55   15.07
   9   3  -6  144.22   15.73
   9  -3  -6  171.04   16.82
   9  -3   6  158.26   15.00
  -9   3   6  181.88   17.90
  -9  -3  -6  165.52   11.72
   9   3   6  155.71   11.80
   9   3   7   23.88    8.41
   9  -3  -7   28.02    8.84
   9   3   7   11.19    7.43
  -9  -3   7   14.47    9.30
  -9   3   7   34.64    9.98
   9  -3   7   19.21   10.81
   9   3  -7   22.61   11.73
  -9  -3  -7   18.48    6.85
   9  -3  -8   17.49    9.02
   9   3  -8    6.98    9.44
   9   3   8   24.29   10.60
   9  -3   8    5.24    8.04
  -9   3   8   20.95   13.04
  -9  -3   8   10.33    9.70
  -9  -3   9   49.82   15.12
   9   3   9   48.35   14.66
  -9   3   9   42.78   14.72
   9  -3  -9   48.75   13.95
   9  -3   9   51.76   13.82
   9   3  -9   81.49   18.68
 -10  -3   0   58.17    8.09
 -10   3   0   29.56    5.66
  10   3   0   49.45    7.99
 -10  -3   0   50.96    6.33
 -10   3   0   36.78    4.61
  10  -3   0   36.85    4.92
 -10   3   0   36.17    4.90
  10   3   0   45.64    5.41
 -10   3   1  481.03   22.10
  10   3  -1  485.50   22.12
 -10   3  -1  476.61   20.91
  10  -3   1  476.94   18.15
  10   3   1  466.63   22.39
 -10  -3   1  472.49   26.07
 -10   3  -1  425.11   17.41
 -10   3  -1  503.84   24.52
 -10  -3   1  462.97   29.95
  10  -3  -1  478.08   23.61
 -10  -3  -1  446.37   25.03
 -10  -3  -1  452.74   25.24
 -10   3   1  477.19   21.96
 -10   3   2  549.81   28.21
  10  -3   2  589.61   20.55
 -10  -3  -2  554.68   26.28
  10  -3   2  550.74   20.43
  10   3  -2  563.59   28.23
 -10  -3   2  579.81   28.23
  10   3   2  561.04   27.45
  10   3   2  553.65   22.56
 -10   3  -2  577.62   22.25
 -10  -3  -2  582.02   31.53
  10  -3  -2  569.35   31.17
 -10   3   2  541.32   22.37
 -10   3  -2  575.67   23.98
 -10  -3   2  564.81   36.29
 -10   3   3  109.08   10.53
  10  -3  -3  105.65    9.12
 -10  -3   3  113.80   10.72
 -10  -3   3  119.13    9.65
 -10  -3  -3   94.03    7.76
  10  -3   3  110.29    7.81
  10   3  -3  108.97   10.15
  10   3   3  108.70    8.93
 -10  -3  -3  114.64    9.32
 -10   3  -3  113.34    7.84
 -10   3  -3  109.75    7.02
 -10   3   3   96.33    9.66
  10   3   3  105.27   10.68
 -10  -3   3   99.94   10.86
 -10  -3  -4 1853.06  102.39
 -10   3  -4 1751.81   90.03
  10  -3   4 1752.06   68.35
  10   3   4 1883.90   94.23
  10  -3  -4 1842.53   74.12
 -10  -3   4 1735.43   64.38
  10   3   4 1811.11   62.67
  10   3  -4 1830.77   78.94
 -10   3   4 1800.28   73.86
 -10  -3  -4 1819.99  101.58
 -10  -3  -5  382.25   21.58
  10   3  -5  377.71   20.85
  10  -3  -5  376.00   22.00
 -10   3  -5  329.09   19.95
 -10   3  -5  299.02   18.56
  10   3   5  367.31   22.16
 -10   3  -5  354.80   22.18
  10   3   5  331.96   19.91
  10  -3   5  334.09   22.73
 -10  -3   5  368.67   19.97
 -10  -3  -5  352.89   23.55
 -10   3   5  350.05   17.64
 -10  -3   6  252.08   16.87
  10  -3   6  236.09   18.94
  10  -3  -6  232.57   18.83
  10   3   6  250.90   19.94
 -10   3   6  241.72   17.37
  10   3  -6  249.39   20.63
  10   3   6  252.43   19.01
  10   3   7  307.40   21.57
  10   3  -7  260.53   21.77
 -10  -3   7  298.00   21.98
  10  -3  -7  282.84   21.42
  10  -3   7  307.18   21.69
 -10   3   7  265.40   22.56
  10  -3  -8  156.07   15.83
  10  -3   8  158.51   15.57
  10   3   8  145.12   17.56
 -10   3   8  189.70   17.26
  10   3  -8  161.51   22.72
 -10  -3   8  166.26   19.29
 -11  -3   0  141.96   11.02
  11  -3   0  139.20    9.12
 -11   3   0  137.48   13.35
 -11  -3   0  165.07   13.29
  11   3   0  135.48   11.81
  11   3   0  142.73   11.25
 -11   3   0  122.51    9.12
 -11   3   0  142.26   10.22
  11  -3   1  815.99   48.10
  11   3  -1  790.08   39.54
 -11  -3   1  791.81   42.37
 -11   3   1  806.16   36.68
 -11   3  -1  866.59   35.85
  11   3   1  840.54   33.16
 -11  -3  -1  755.53   42.75
 -11   3  -1  778.77   36.10
 -11   3   1  840.49   36.50
  11  -3  -1  827.42   41.71
 -11   3  -1  840.04   50.62
 -11  -3  -1  804.64   33.59
 -11  -3   1  838.36   61.31
 -11   3   2  614.30   25.95
  11   3  -2  591.45   35.96
 -11   3   2  634.88   30.97
 -11  -3   2  587.97   36.42
  11  -3   2  598.10   36.83
  11  -3   2  572.05   35.36
  11   3   2  611.65   30.84
 -11   3  -2  632.82   30.02
  11  -3  -2  597.14   36.39
 -11  -3  -2  589.96   31.20
  11   3   2  596.98   29.99
 -11   3  -2  577.55   31.23
 -11  -3  -2  590.24   27.48
 -11  -3   2  646.30   36.01
 -11   3  -2  633.97   28.54
 -11   3  -3   43.31    4.88
  11   3   3   44.81    6.69
  11  -3   3   35.61    7.18
 -11   3   3   40.90    7.71
 -11   3  -3   51.05    5.48
  11  -3  -3   65.04    9.70
 -11  -3  -3   28.87    5.67
  11   3   3   27.84    8.28
 -11  -3   3   34.54    8.78
 -11  -3  -3   36.25    7.91
  11   3  -3   31.89    7.67
  11   3   4  141.32   11.56
  11  -3   4  105.00   12.29
 -11   3   4  130.84   11.80
  11  -3  -4  115.52   11.93
  11   3   4  131.70   11.39
  11   3  -4  146.65   12.81
 -11  -3  -4  142.54   10.42
 -11  -3   4  132.83   14.61
 -11   3  -4  121.95    7.83
 -11  -3  -4  121.66   11.33
  11   3   5   90.69   12.95
  11  -3  -5   74.04   12.87
  11   3   5   84.93    8.90
 -11  -3   5   74.01   10.48
 -11   3   5   95.94   13.53
  11  -3   5   75.64    7.93
  11   3  -5   69.70   12.81
 -11  -3  -5   72.06    8.82
  11   3   6   20.41    9.41
  11  -3  -6   27.22   13.13
 -11   3   6   19.60   13.25
  11   3  -6   29.89   10.44
 -11  -3   6   28.24    8.68
  11   3   6   24.25    7.93
  11  -3   6   34.71    8.10
  11  -3  -7   73.44   14.02
  11   3   7   80.71   12.82
  11  -3   7   83.39   12.55
 -11  -3   7   88.73   17.88
  11   3  -7  100.30   14.49
 -11   3   7  113.80   20.91
  11   3  -8  297.76   28.55
  11  -3   8  294.18   20.38
  11  -3  -8  265.16   26.07
 -11   3   8  329.45   27.25
 -11  -3   8  327.53   23.69
  11   3   8  317.72   26.99
 -12   3   0  140.14    9.47
 -12   3   0  146.20   11.44
 -12  -3   0  136.31   11.68
 -12   3   0  129.08   10.39
  12   3   0  123.29    9.47
 -12  -3   0  124.90   12.18
  12   3   0  121.12   11.18
  12  -3   0  117.77    8.87
 -12   3   1   55.96    8.14
 -12  -3   1   54.40    9.51
 -12   3  -1   55.23    7.05
 -12   3   1   54.54    8.21
  12  -3   1   44.07    7.56
  12  -3  -1   49.44    6.29
 -12   3  -1   52.29    5.95
 -12  -3  -1   56.69    8.21
  12   3  -1   46.53    8.27
 -12  -3  -1   56.84    8.92
 -12   3  -1   50.66    8.17
  12   3   1   55.52    7.68
 -12  -3   2  327.29   22.86
 -12   3   2  355.25   15.71
 -12  -3  -2  305.54   22.05
  12  -3   2  348.69   19.84
  12  -3  -2  369.14   20.77
  12  -3   2  346.24   20.45
 -12   3  -2  335.67   20.01
 -12   3  -2  309.70   16.40
  12   3  -2  348.42   23.18
  12   3   2  309.43   22.80
 -12  -3  -2  318.31   18.93
 -12   3  -2  346.65   23.12
 -12   3   3  112.55   11.92
  12   3  -3  109.03   13.94
 -12  -3   3  105.01   10.47
  12   3   3   99.34   11.67
 -12  -3  -3  124.76   12.10
  12  -3   3  108.35    9.92
  12   3   3  113.72   11.29
 -12   3  -3  113.01    9.47
 -12  -3  -3  114.62    9.51
  12  -3  -3  117.14   10.70
 -12   3  -3  111.01    8.44
  12  -3  -4   22.10    8.60
  12   3   4   33.08    8.49
 -12   3   4   26.08   10.58
  12   3  -4   17.88    7.86
  12   3   4   30.91    6.34
 -12  -3  -4   36.33    7.46
 -12  -3   4   23.29    7.84
  12  -3   4   24.59    7.42
  12   3   5   12.41    6.15
 -12  -3   5    9.22    8.81
  12  -3   5    9.47    6.62
 -12   3   5   -0.36    6.56
  12  -3  -5    0.39    7.13
  12   3   5   14.96    7.51
  12   3  -5    5.16   10.79
  12  -3  -6   91.13   13.70
  12   3  -6  103.55   12.45
  12   3   6   98.83   15.59
 -12  -3   6   89.91   12.77
  12  -3   6   72.37   11.15
 -12   3   6   63.74   12.42
 -12   3   7  -11.90   11.68
  12   3   7  -18.50   14.53
  12  -3  -7   10.08   12.07
  12   3  -7    8.71    9.98
 -12  -3   7    9.95   14.88
  12  -3   7   -7.45    9.21
  12  -3   8   38.41   11.41
 -12  -3   8   25.58   14.54
  12   3   8   17.60   19.08
 -12   3   8   18.39   14.24
  13   3   0  520.99   30.36
 -13  -3   0  518.00   35.49
  13  -3   0  491.64   23.15
  13   3   0  474.50   26.81
 -13   3   0  458.61   29.73
 -13   3   0  473.21   27.00
 -13   3   0  466.51   26.99
  13  -3   1  265.36   18.53
 -13   3   1  298.27   19.14
 -13   3   1  299.56   22.22
 -13   3  -1  290.96   16.22
  13   3   1  330.38   19.42
 -13   3  -1  319.49   23.75
 -13  -3  -1  293.69   25.37
 -13   3  -1  299.77   25.70
 -13  -3   1  284.77   23.67
  13   3  -1  303.81   21.04
  13  -3  -1  305.95   18.91
  13  -3   2  373.39   20.11
 -13   3   2  350.20   18.03
 -13  -3  -2  346.66   24.64
 -13   3  -2  353.07   23.23
 -13  -3  -2  315.89   21.16
  13  -3  -2  338.37   22.62
 -13   3  -2  358.70   19.78
 -13   3  -2  341.36   25.12
  13  -3   2  329.28   22.91
  13   3   2  334.88   24.80
  13   3  -2  322.02   21.27
  13   3   3  152.10   14.36
 -13  -3  -3  144.21   15.17
  13  -3  -3  187.46   15.09
 -13   3   3  182.36   16.53
 -13  -3   3  157.94   17.05
  13   3  -3  167.17   12.88
  13  -3   3  165.03   13.66
 -13  -3  -3  168.46   14.07
 -13   3  -3  172.97   13.06
 -13   3   4   39.66   12.94
  13   3   4   57.99   10.54
 -13  -3  -4   32.86    9.33
  13   3   4   42.66    8.51
  13  -3  -4   57.11   12.44
  13  -3   4   43.03    9.66
  13   3  -4   47.18   11.59
 -13  -3   4   55.50   10.14
  13   3   5   28.00    9.43
  13  -3   5   44.22    8.47
  13  -3  -5   35.46   11.43
  13   3  -5   37.94   10.98
 -13  -3   5   32.72   12.91
 -13   3   5   42.06   12.14
  13   3   6  130.65   16.23
  13   3  -6  106.87   14.18
  13  -3  -6  112.17   16.16
 -13  -3   6  107.65   13.47
 -13   3   6  124.77   15.92
  13  -3   6  106.34   11.84
  13   3   7   33.92   12.46
 -13  -3   7   14.11   12.32
  13  -3   7    8.01   13.84
 -13   3   7   29.08   11.71
  13   3  -7   -3.82   11.67
 -14   3   0    5.86    6.79
  14   3   0    8.30    6.52
 -14  -3   0    4.80    6.88
  14  -3   0   -5.26    7.76
  14  -3   1    8.74    5.74
 -14   3  -1    3.07    8.74
  14   3  -1   10.48    7.12
  14   3   1    9.38    6.66
 -14   3  -1    1.24    4.71
 -14  -3  -1    2.70    8.41
 -14   3   1    7.90    7.32
  14  -3   1    5.84    7.08
  14  -3  -1   15.72    7.45
 -14   3   1    6.90    5.01
  14  -3   2  127.54   12.22
  14   3   2  121.58   13.36
 -14   3  -2  126.60   11.73
 -14   3  -2  121.89    9.20
  14   3  -2  141.58   15.61
 -14   3   2   96.92   15.78
 -14   3   2  118.41   12.21
  14  -3  -2  122.40   13.20
  14   3  -3    3.48    7.84
  14   3   3   11.09    6.42
 -14  -3   3   13.37    9.30
 -14   3  -3    7.73    3.63
  14  -3  -3   18.11    7.80
 -14   3   3   19.85    9.50
  14  -3   3   12.72    8.07
  14  -3  -4  123.49   14.47
 -14  -3   4  110.52   15.45
  14   3  -4  121.82   16.60
 -14   3   4   87.09   16.25
  14  -3   4  118.74   13.80
  14   3   4   82.38   13.10
  14  -3  -5   95.75   15.80
 -14   3   5  104.79   14.59
  14  -3   5   93.17   14.73
 -14  -3   5   86.31   13.47
  14   3   5  105.94   15.88
  14   3  -5   90.22   13.64
 -14  -3   6    7.79   11.09
  14   3  -6   44.40   11.98
 -14   3   6   34.39   12.87
  14  -3  -6   34.88   12.64
  14  -3   6   22.86    9.50
  14   3   6   32.00   16.83
  15  -3   0    9.18    6.75
 -15   3   0    7.14    5.97
  15   3   0    9.04    7.53
  15   3   1   52.49    9.34
  15   3  -1   33.29    8.52
 -15   3   1   48.56    9.21
 -15   3  -1   55.28    8.93
  15  -3   1   33.22   11.33
  15  -3  -1   40.32    8.98
  15   3  -1   58.27   10.24
  15  -3   1   37.23    7.40
 -15   3  -2  107.88   10.56
 -15  -3   2  104.29   12.73
  15  -3  -2   82.97   18.85
 -15   3   2  115.57   14.98
  15   3  -2  107.16   11.98
  15  -3   2  117.56   12.27
  15   3   2  122.32   12.00
  15   3   3   19.30   10.06
 -15   3  -3   27.28    6.08
  15  -3   3   43.22    9.80
 -15   3   3   18.04    9.01
  15   3  -3   39.72   10.32
  15  -3  -3   38.41   11.49
 -15  -3   3   40.02   13.81
  15  -3   4   61.63   11.70
 -15   3  -4   79.42    8.86
  15  -3  -4   90.91   14.11
  15   3   4   59.78   11.24
  15   3  -4   61.07   12.54
 -15  -3   4   65.35   12.30
 -15   3   4  104.90   15.70
  15   3   5   62.89   12.80
  15  -3   5   52.73   15.73
  15   3  -5   54.06   13.54
  15  -3  -5   29.56   13.18
 -15  -3   5   45.80   11.33
 -15   3   5   54.74   11.95
  15  -3   6   16.01   12.29
  15   3   6   14.36    9.31
 -15  -3   6   12.10   19.87
  16   3   0   37.68   11.24
  16  -3   0   24.81    8.69
 -16   3   0   11.74    6.47
  16  -3   1    1.93    7.28
 -16   3   1    4.99    7.04
  16   3   1   -5.42   11.83
  16  -3  -1    2.26   11.30
  16   3  -1  -16.60    8.61
  16   3  -1    4.27   10.79
  16  -3   1   -6.59    5.27
 -16   3  -1   -2.73    7.38
  16  -3   2   34.02    9.21
  16  -3  -2   23.37   10.30
 -16  -3   2   44.50   10.79
  16   3  -2   38.17   12.30
  16   3   2   36.03    9.99
 -16   3   2   31.31   11.32
 -16   3  -2   34.43    8.26
 -16   3  -3    8.79    6.65
  16   3   3   -1.70   10.21
  16  -3  -3   -2.81   10.56
  16  -3   3   -8.10   12.02
  16   3  -3    2.53    9.30
 -16  -3   3   -2.50    9.85
 -16   3   3    4.10    8.72
 -16   3   4    6.70   10.85
 -16   3  -4    8.56    4.38
  16  -3  -4   12.40   11.62
  16   3   4   12.05   11.25
 -16  -3   4    5.47   11.77
  16   3  -4   40.72   15.19
  16  -3   4   -1.18    9.99
 -16  -3   5   72.51   19.15
  16   3   5   71.28   14.22
  16  -3   5   56.02   17.64
  17  -3   0  237.09   20.58
 -17   3   0  230.67   22.06
  17   3   0  238.74   24.22
  17  -3   1   90.24   14.58
  17   3   1  116.10   15.78
  17   3  -1  117.71   18.45
 -17   3  -1  133.96   13.72
  17  -3   1  120.42   16.23
 -17   3   1  123.00   13.65
  17  -3  -1  108.79   12.33
 -17  -3   1  120.57   15.42
 -17   3   2   84.00   12.44
  17  -3   2   85.83   14.15
  17  -3  -2   66.88   13.97
  17   3  -2   63.21   14.37
  17   3   2   78.11   16.27
 -17   3  -2   95.37   11.70
 -17  -3   2   80.76   15.09
 -17  -3   3    6.47   11.19
  17  -3  -3  -10.98   11.68
  17   3   3   -8.69   15.22
  17  -3   3    1.38   10.26
 -17   3   3   -4.96    9.28
 -17   3  -3    5.59    5.28
  17   3  -3   15.57   14.61
  17   3   4   26.99   16.10
  17  -3   4    9.40   11.06
  18  -3   0   -1.86   11.41
  18  -3   0  -19.29   14.98
  18   3   0    3.83   10.21
 -18   3   0    7.97   10.24
  18  -3   1  100.53   17.47
  18  -3  -1   82.80   13.37
  18   3  -1   66.41   15.41
 -18  -3   1   58.11   13.21
 -18   3  -1   74.86   13.53
  18   3   1   74.77   18.67
 -18   3   1   79.85   17.24
  18  -3  -2   92.35   15.00
 -18   3  -2  118.03   13.73
 -18   3   2  119.74   16.26
  18   3  -2  126.50   18.11
  18  -3   2  147.72   20.26
  18   3   2   92.93   16.11
   0  -4   0  204.99    7.51
   0   4   0  218.86    7.11
   0   4   0  202.19    9.03
   0  -4   0  210.66   11.42
   0   4  -1  805.71   35.08
   0   4   1  766.33   24.35
   0  -4  -1  844.48   25.39
   0  -4  -1  835.57   26.76
   0  -4   1  803.02   25.92
   0   4   1  812.02   28.47
   0  -4  -2   53.16    3.83
   0  -4   2   52.95    3.29
   0   4  -2   53.75    2.46
   0  -4  -2   60.02    4.15
   0   4   2   50.93    4.50
   0  -4   2   55.16    2.73
   0   4   2   53.38    4.32
   0  -4  -2   51.09    4.94
   0  -4  -3  254.45   12.47
   0  -4   3  263.20    9.59
   0   4   3  265.10   10.04
   0   4  -3  266.77   10.29
   0  -4  -3  272.38   12.45
   0  -4   3  268.23   12.82
   0  -4   3  256.13    9.41
   0   4  -3  268.37   11.11
   0  -4  -3  279.17   12.74
   0   4   3  252.56    9.87
   0  -4  -4  658.10   30.18
   0  -4  -4  660.03   20.80
   0  -4   4  634.23   19.91
   0  -4   4  602.27   23.85
   0  -4  -4  657.52   20.41
   0  -4   4  623.70   24.30
   0   4  -4  591.52   25.36
   0   4   4  630.99   22.02
   0   4  -4  622.20   31.00
   0   4   4  615.15   28.65
   0   4   5   12.15    4.78
   0   4   5    9.90    5.60
   0  -4  -5   16.34    7.04
   0  -4   5    5.82    3.62
   0  -4   5    9.90    3.21
   0  -4  -5   10.83    4.18
   0  -4   5    6.43    3.35
   0  -4  -5    6.69    4.17
   0   4  -5   15.65    3.29
   0   4  -5   10.84    2.37
   0   4  -6    2.52    5.16
   0  -4   6    8.13    3.78
   0  -4  -6   12.28    5.30
   0  -4   6    1.19    4.02
   0   4   6    2.61    7.55
   0   4  -6    6.21    2.54
   0  -4   6    3.99    3.89
   0   4   6   11.22    5.11
   0  -4  -6   11.60    6.13
   0  -4  -6   14.01    7.02
   0  -4   7  142.38   10.06
   0   4   7  133.35   11.39
   0   4  -7  149.42   11.24
   0  -4  -7  137.52   12.95
   0  -4   7  135.44   10.13
   0  -4   7  139.90    8.57
   0  -4  -7  149.05   12.83
   0   4   7  160.69   11.11
   0   4  -7  134.18    8.31
   0   4   8   13.99   11.38
   0  -4  -8   -1.09    5.44
   0   4  -8    7.07    6.44
   0  -4   8   -1.45    5.42
   0   4   8    9.88    8.84
   0   4  -8   13.00    4.10
   0  -4   8    7.68    4.12
   0  -4   8    6.23    5.34
   0  -4  -8   10.00   12.97
   0   4   9   83.10   12.08
   0   4   9   80.30   12.31
   0  -4  -9   77.61   11.40
   0   4  10   38.46   11.63
   0  -4 -10   26.65   11.60
   0   4  10    9.69   13.16
   1  -4   0 3589.97  199.81
   1   4   0 3740.73  122.70
  -1   4   0 3665.01  122.58
  -1  -4   0 3842.64  136.84
   1   4   0 3729.26  118.76
   1  -4   0 3718.60  148.26
  -1  -4   0 3851.78  147.08
  -1   4   0 3591.39   97.07
   1  -4   1  946.21   29.93
   1   4   1  927.38   30.36
  -1   4  -1  948.80   37.81
   1   4  -1  949.55   38.38
  -1  -4  -1  942.59   36.07
   1  -4  -1  937.83   29.50
  -1  -4   1  927.91   35.91
   1   4   1  942.87   36.33
   1  -4  -1  930.35   27.41
   1  -4  -1  934.53   33.22
   1   4  -1  948.81   36.04
  -1   4   1  949.54   27.81
  -1   4   1  909.01   32.10
  -1  -4  -1  975.84   32.99
   1  -4   2  162.70    7.59
   1  -4   2  158.67    6.45
  -1   4  -2  160.83    5.52
  -1  -4  -2  149.98    6.84
   1  -4  -2  163.36    7.18
  -1   4   2  169.29    7.73
  -1   4   2  163.84    7.49
   1  -4  -2  173.98    7.61
   1   4   2  161.96    7.44
   1  -4  -2  172.54    7.84
  -1  -4   2  161.83    7.44
   1   4   2  173.22    9.12
  -1  -4  -2  164.75    7.42
  -1   4   2  166.45    9.21
  -1  -4   2  158.55    6.98
   1   4  -2  151.75    4.71
   1  -4   2  163.61    8.00
   1   4  -2  160.88    7.24
  -1   4  -3 1238.48   46.11
   1  -4   3 1279.42   39.75
  -1  -4  -3 1304.06   42.56
   1   4  -3 1241.72   42.06
  -1   4   3 1216.73   34.85
   1  -4   3 1283.08   38.66
   1  -4  -3 1253.49   47.47
   1   4  -3 1329.03   35.16
  -1   4   3 1223.56   38.33
  -1   4   3 1279.76   45.04
   1  -4  -3 1285.08   37.10
  -1  -4   3 1252.00   37.10
   1   4   3 1245.47   36.96
   1  -4  -3 1240.40   40.66
  -1  -4  -3 1302.21   45.26
   1  -4   3 1318.67   48.24
  -1  -4   3 1279.32   57.23
  -1  -4  -3 1275.02   36.37
   1   4   3 1262.75   37.87
  -1   4  -3 1278.96   43.16
   1   4   4  133.04    9.50
   1  -4   4  145.09    6.48
   1  -4   4  133.55    5.68
  -1  -4  -4  145.00   10.38
   1  -4  -4  130.36    7.63
   1   4  -4  122.42    8.40
   1  -4  -4  135.42    9.26
   1   4  -4  132.76    7.55
  -1   4   4  146.69    9.28
  -1  -4  -4  152.38    9.38
  -1   4  -4  128.12    6.99
  -1  -4   4  129.37    6.94
   1  -4  -4  141.64    7.95
  -1   4   4  134.13    7.35
  -1   4   4  135.34    8.58
   1   4   4  127.88    9.16
  -1  -4  -4  138.83    9.44
  -1  -4   4  135.20    8.13
   1  -4   4  142.05    5.96
  -1   4  -4  132.25    8.25
   1   4  -5   38.28    4.37
   1  -4   5   45.17    4.58
  -1   4   5   58.12    6.80
  -1  -4   5   40.15    4.95
  -1  -4  -5   42.84    6.49
   1   4   5   38.85    7.76
  -1   4  -5   45.64    4.13
   1   4  -5   43.59    4.96
  -1   4   5   42.48    6.02
   1  -4  -5   45.41    8.67
   1   4   5   45.09    6.88
   1  -4   5   46.66    4.05
   1  -4  -5   50.34    5.56
  -1   4   5   44.16    6.03
  -1  -4   5   45.16    4.86
  -1  -4  -5   32.28    5.00
  -1   4  -5   47.91    6.02
   1  -4   5   50.71    4.09
  -1  -4  -5   36.81    6.36
   1  -4  -5   52.25    7.12
   1   4  -6   67.14    6.68
   1  -4   6   69.52    6.06
  -1   4   6   67.56    8.52
   1  -4   6   70.94    7.08
  -1  -4   6   63.33    6.14
  -1   4   6   66.66    7.74
   1  -4  -6   74.14    7.12
   1   4   6   66.11    7.04
  -1   4  -6   70.89    5.58
   1   4   6   65.97    6.82
   1  -4  -6   77.05    9.85
  -1  -4  -6   75.09    8.96
   1  -4   6   64.85    5.12
  -1   4  -6   72.71    6.75
  -1  -4  -6   65.17    6.46
  -1  -4   6   56.15    6.93
  -1  -4  -6   81.32    8.69
   1  -4  -6   67.19    8.96
  -1   4   6   64.43    7.61
   1   4  -6   76.42    7.83
   1  -4  -7  149.60    9.69
   1  -4   7  129.84    9.67
  -1  -4   7  144.53   10.32
   1   4  -7  132.89   10.81
  -1  -4  -7  149.18   11.52
  -1   4   7  138.75   12.40
   1  -4   7  141.91   11.56
   1  -4  -7  148.04   17.14
   1   4  -7  135.26   10.84
  -1   4   7  155.55   13.70
  -1   4  -7  137.51    8.25
   1   4   7  142.08   11.62
  -1  -4  -7  179.32   14.55
   1   4   7  141.48   12.17
  -1   4   7  142.57   11.61
  -1   4  -7  157.95   12.45
  -1  -4   7  158.61   10.42
   1  -4   7  151.86   10.06
   1   4   8  336.86   22.59
  -1   4  -8  273.85   21.19
   1  -4   8  277.85   15.14
   1   4  -8  248.90   18.28
   1  -4  -8  314.00   19.69
  -1   4   8  277.01   16.71
  -1  -4   8  281.77   15.76
  -1   4   8  274.45   18.04
  -1  -4   8  278.69   18.80
  -1  -4  -8  300.55   17.24
   1   4  -8  298.40   21.49
   1  -4   8  296.40   15.51
   1   4   8  302.87   20.98
   1  -4   8  318.12   19.29
  -1   4  -8  290.17   20.07
  -1  -4  -8  255.93   30.51
   1  -4  -9  522.15   31.86
  -1  -4   9  536.61   36.89
   1  -4   9  507.88   30.62
   1   4  -9  509.27   36.06
  -1  -4  -9  511.57   25.55
   1   4   9  506.33   31.54
   1   4   9  493.18   34.75
  -1   4   9  476.15   31.58
  -1   4   9  492.48   34.31
  -1   4  10  408.19   31.67
   1   4  10  401.81   25.91
   1   4  10  338.32   27.62
   1  -4  10  385.40   27.65
  -1   4  10  478.68   32.99
   1  -4 -10  413.93   37.27
  -2  -4   0  442.19   15.54
   2  -4   0  455.80   14.61
   2  -4   0  441.08   13.10
  -2   4   0  413.46   15.45
  -2  -4   0  433.21   15.62
  -2   4   0  431.62   12.85
   2   4   0  421.43   15.69
   2  -4   0  441.32   14.77
   2   4   0  431.35   17.73
   2  -4  -1 1417.35   42.09
  -2   4   1 1396.60   37.97
   2  -4  -1 1406.74   52.80
  -2   4   1 1424.72   49.97
  -2  -4  -1 1353.06   41.76
   2  -4  -1 1359.26   41.60
   2   4   1 1328.40   54.47
  -2  -4   1 1354.78   43.46
  -2  -4  -1 1402.67   40.86
   2   4   1 1351.49   42.03
   2   4  -1 1297.24   53.40
  -2   4   1 1376.30   50.58
  -2   4  -1 1334.06   53.88
   2  -4   1 1370.49   38.52
  -2  -4   1 1335.44   44.65
   2  -4   1 1382.99   42.84
   2  -4   2 2421.57   84.40
  -2   4   2 2423.20   69.11
  -2  -4  -2 2523.92   85.76
   2   4   2 2453.93   71.71
   2  -4   2 2460.33   87.79
   2  -4   2 2368.73   87.54
   2   4   2 2454.55   87.59
   2  -4  -2 2401.08   73.55
   2   4  -2 2472.08   85.36
   2  -4   2 2452.32  113.03
   2  -4  -2 2497.29   73.67
   2  -4  -2 2502.76   97.31
  -2  -4  -2 2578.11   95.38
  -2   4   2 2531.86   78.37
  -2  -4   2 2510.19  106.84
  -2   4   2 2472.78   78.82
  -2  -4   2 2482.88   84.43
   2  -4   3 1197.74   35.27
   2  -4  -3 1172.70   41.66
   2  -4  -3 1141.32   42.48
  -2   4   3 1200.81   42.21
   2   4   3 1222.50   45.80
  -2  -4   3 1210.98   40.43
  -2   4   3 1107.89   32.46
   2   4  -3 1286.92   51.70
   2  -4   3 1177.77   49.91
   2   4   3 1195.12   65.44
  -2  -4  -3 1303.00   39.72
   2  -4  -3 1132.59   44.17
  -2  -4  -3 1253.41   38.84
  -2   4   3 1134.90   39.48
   2   4  -3 1274.44   37.64
  -2  -4   3 1259.33   65.56
   2  -4   3 1177.09   40.26
  -2   4  -3 1105.09   45.60
  -2  -4  -3 1291.65   53.36
  -2  -4  -4 1578.06   44.51
  -2   4   4 1502.84   42.60
   2  -4   4 1551.04   45.13
  -2   4   4 1475.96   42.02
  -2   4  -4 1482.87   63.14
  -2  -4   4 1509.67   52.27
   2  -4   4 1507.06   50.31
   2  -4   4 1503.37   44.74
  -2  -4   4 1603.54   43.08
  -2   4  -4 1510.19   74.52
   2   4  -4 1540.86   52.70
  -2  -4  -4 1639.31   89.04
   2  -4  -4 1601.53   85.77
   2  -4  -4 1469.24   56.91
   2  -4  -4 1638.17   54.76
  -2  -4  -4 1496.14   41.72
   2   4  -4 1580.05   53.54
  -2   4   4 1654.21   72.64
   2   4   4 1495.84   63.98
   2   4   4 1500.20   46.90
  -2  -4   5  105.17    6.93
   2   4   5   98.82    7.43
   2  -4   5  109.66    5.54
   2  -4   5  111.64    5.98
   2   4  -5   98.84    6.85
   2  -4   5  107.00    6.59
   2  -4  -5  126.17   11.43
  -2  -4  -5   98.68    9.29
   2   4  -5   99.75    7.44
  -2   4   5  109.66    8.23
   2  -4  -5  113.47    7.92
  -2   4   5  121.44    8.30
  -2  -4  -5   97.58    8.23
  -2   4   5  102.59    8.00
  -2   4  -5  110.17    5.85
   2   4   5   89.12    7.02
  -2   4  -5  118.91    8.39
  -2  -4   5  119.31    7.23
  -2  -4  -5   93.35    7.83
   2  -4  -5  116.12   10.14
  -2   4   6  975.03   43.92
  -2   4  -6  924.22   47.29
   2   4   6  928.60   40.98
   2  -4   6  979.04   33.84
  -2  -4  -6  895.13   38.31
  -2   4   6  920.07   34.13
  -2  -4   6  874.07   43.87
   2   4   6  866.82   36.08
   2   4  -6  872.40   36.65
  -2   4   6  906.48   35.70
   2   4  -6  935.13   49.12
  -2  -4  -6 1000.83   44.85
   2  -4  -6  863.92   31.99
   2  -4   6  962.79   40.41
   2  -4  -6  956.61   66.07
   2  -4   6  981.83   42.40
  -2   4  -6  914.68   44.85
  -2  -4   6  898.05   39.84
  -2   4  -7  211.21   13.65
   2   4   7  222.25   16.24
  -2  -4  -7  220.36   13.38
  -2   4   7  185.73   13.24
   2   4  -7  201.79   14.32
   2   4   7  183.99   12.75
   2   4  -7  212.48   13.90
   2  -4   7  218.65   12.91
  -2  -4   7  195.97   13.29
  -2   4  -7  195.97   13.47
  -2   4   7  209.14   15.92
  -2  -4  -7  205.50   16.06
   2  -4  -7  192.78   14.87
  -2   4   7  221.57   17.53
  -2  -4   7  214.80   13.57
   2  -4  -7  217.46   12.74
   2  -4   7  196.72   12.58
   2   4   8   94.88   11.02
  -2   4  -8   75.72    9.56
   2   4  -8   72.19    7.46
  -2   4   8   96.19   11.48
   2   4  -8   60.98    9.48
   2  -4   8   79.11    8.85
  -2  -4  -8   58.00   11.28
   2   4   8   83.01   11.63
   2  -4   8   77.19    9.10
  -2  -4   8   92.09   10.08
   2  -4  -8   94.38    9.69
  -2   4   8   89.42   11.48
  -2   4  -8   90.49    9.36
  -2  -4  -8   79.40    8.72
  -2  -4   8   88.76   10.53
   2  -4  -9  101.83   11.12
   2   4   9   92.23   21.15
  -2  -4  -9  126.48   13.99
   2   4   9  120.88   15.89
  -2  -4   9  113.25   13.25
  -2   4   9  124.72   13.66
   2  -4   9  101.65   10.70
   2   4  -9  100.55   11.46
  -2   4   9  140.43   17.79
  -2   4  10   77.80   14.38
   2  -4 -10   73.76   11.31
   2   4  10   71.83   18.34
  -2   4  10   74.45   13.87
   2  -4  10   64.58   11.71
  -3  -4   0 2928.60  105.92
   3   4   0 2828.06  130.47
   3  -4   0 2797.54   97.07
  -3   4   0 2729.49   97.94
  -3  -4   0 2946.05   84.77
  -3   4   0 2752.18   80.17
   3   4   0 2882.07  103.18
   3  -4   0 2704.73   80.27
  -3   4  -1   22.84    1.42
   3   4  -1   22.84    2.94
  -3   4  -1   25.64    1.71
  -3  -4  -1   18.85    2.44
  -3  -4   1   27.24    3.43
  -3   4   1   21.73    3.11
  -3  -4  -1   22.74    3.14
  -3   4   1   22.10    2.84
   3   4   1   24.10    3.06
   3   4   1   31.62    4.05
   3  -4  -1   25.36    3.22
   3  -4   1   21.27    2.18
   3  -4  -1   24.18    3.31
   3  -4  -1   21.75    3.56
   3  -4   1   21.59    1.19
  -3  -4   1   29.59    2.54
   3   4  -2 1805.69   67.65
   3   4   2 1873.24   65.21
  -3   4   2 1929.99   54.54
  -3  -4   2 1869.48   59.88
   3  -4  -2 1986.19   66.95
  -3  -4  -2 1915.65   56.11
   3  -4   2 1894.27   64.41
   3   4   2 1929.84   59.77
   3  -4   2 1817.96   67.81
  -3   4   2 1948.34   55.36
  -3  -4   2 1879.31   76.20
   3  -4  -2 1977.66   63.81
   3  -4  -2 1969.30   94.39
  -3  -4  -2 1928.99   85.98
   3  -4   3 1505.47   52.80
   3  -4  -3 1604.05   50.27
  -3  -4  -3 1507.79   44.68
  -3   4   3 1419.97   46.43
  -3  -4  -3 1527.64   58.27
  -3   4  -3 1541.12   61.32
  -3   4   3 1528.00   77.75
  -3   4   3 1516.24   49.30
   3   4   3 1467.41   45.98
   3  -4  -3 1495.42   50.52
   3  -4  -3 1463.47   47.46
   3   4   3 1472.60   54.43
   3   4  -3 1409.52   52.23
  -3  -4   3 1514.33   59.64
   3   4  -3 1470.75   43.29
   3  -4   3 1578.83   60.36
   3   4   4  990.08   38.76
  -3   4   4  985.94   33.52
   3  -4  -4  967.98   40.30
  -3   4   4 1067.62   42.30
   3  -4  -4 1017.88   32.72
   3   4  -4 1021.22   38.05
  -3   4   4  997.10   46.83
   3   4  -4 1016.35   47.61
  -3  -4  -4 1079.12   32.28
  -3  -4   4 1094.94   31.68
  -3  -4   4 1046.55   42.47
   3  -4   4 1004.00   29.39
  -3  -4  -4 1035.62   30.60
   3  -4  -4 1050.40   45.05
   3  -4   4 1052.24   45.35
   3   4   4 1041.52   33.94
  -3  -4  -4 1027.56   47.97
  -3   4  -4  999.67   48.80
  -3   4   5  167.99    9.68
   3   4  -5  168.42    9.70
   3   4   5  176.82    9.48
  -3   4  -5  177.52   10.19
  -3   4   5  176.28   12.85
  -3  -4  -5  189.32   11.58
  -3  -4  -5  181.43   12.92
   3  -4  -5  158.34   14.80
   3  -4   5  160.49    8.06
  -3  -4  -5  190.34   10.07
  -3   4  -5  172.98    9.39
  -3   4  -5  169.05   11.45
   3  -4  -5  147.68   14.01
  -3  -4   5  173.46    8.82
   3  -4   5  178.77    8.99
  -3  -4   5  168.63    9.01
   3   4   5  158.79    9.69
  -3   4   5  165.29   11.64
   3   4  -5  179.45    9.33
   3  -4  -5  149.38   10.17
  -3  -4   6  101.68    8.15
  -3  -4   6   81.47    7.68
  -3   4  -6   77.07    6.49
   3   4   6   71.60    9.13
  -3  -4  -6   71.47    8.77
   3  -4  -6   90.32   11.27
  -3   4   6  104.57   10.98
  -3   4   6   85.74   11.26
   3   4   6   91.66    7.91
   3  -4   6   64.47    5.98
   3   4  -6   78.67    7.45
  -3  -4  -6   74.31    6.89
  -3   4   6   87.73    8.85
   3  -4   6   79.76    6.87
  -3   4  -6   83.48    7.52
   3  -4  -6   91.70    8.36
  -3   4  -6   77.88    3.98
   3   4  -6   71.39    8.56
   3   4  -7  151.72   11.07
  -3   4  -7  143.50   11.01
  -3  -4  -7  145.74   11.95
   3  -4   7  140.92    9.63
  -3  -4  -7  159.04   14.01
  -3   4   7  159.54   14.24
  -3   4  -7  149.97    8.53
   3   4   7  171.49   12.05
   3  -4  -7  140.95   11.71
   3   4  -7  151.30   15.30
  -3  -4   7  159.13   14.29
   3   4   7  181.27   14.45
   3  -4   7  148.05   10.21
  -3   4   7  132.28   12.33
  -3   4   7  148.33   11.89
  -3  -4   7  160.93   12.10
   3   4  -8   30.45    6.34
  -3   4   8   20.65    8.00
   3  -4   8   15.00    6.54
  -3  -4   8   24.16    8.31
   3   4   8   35.83    8.28
   3  -4   8   24.58    7.06
  -3   4  -8   28.71    9.59
  -3  -4   8   16.32    9.56
  -3  -4  -8   17.59    6.02
  -3  -4  -8    9.21   10.22
  -3   4   8   23.16   12.74
   3   4   8   14.45   11.91
   3  -4  -8   23.50    8.30
   3  -4   9  134.42   14.15
   3  -4  -9  113.41   13.41
  -3  -4  -9   84.87   10.04
   3   4   9   96.94   15.17
  -3  -4   9   89.12   11.80
   3   4   9   93.01   15.95
   3   4  -9  112.24   12.16
  -3   4   9  126.77   16.08
  -3   4  10    7.81   17.42
   3  -4 -10   24.94   11.08
   3   4  10   20.84   13.18
   3  -4  10   19.71    9.78
   4   4   0  110.88    6.39
  -4  -4   0  107.96    5.40
  -4  -4   0  114.83    5.64
  -4   4   0  114.03    4.95
   4  -4   0  114.70    4.95
   4  -4   0  126.62    5.56
  -4   4   0  114.39    4.84
   4   4   0  102.82    5.77
   4  -4  -1 2916.26  104.14
  -4   4   1 2978.90  107.45
  -4  -4  -1 2904.65  110.42
   4   4   1 2811.83   85.55
  -4   4  -1 2688.81   90.31
  -4  -4   1 2839.80  119.36
  -4  -4   1 2909.79  101.16
  -4   4  -1 2796.40   76.31
   4   4   1 2832.09   87.34
   4   4  -1 2701.11  105.11
  -4   4   1 2877.54   86.85
   4  -4   1 2803.97  106.82
   4  -4  -1 2887.04   77.11
  -4  -4  -1 2884.72  106.41
   4  -4  -2 4132.60  112.62
  -4   4   2 4260.27  130.69
  -4  -4  -2 4241.25  139.49
  -4   4   2 4306.82  125.21
   4   4  -2 4265.17  166.28
  -4  -4   2 4224.36  124.04
  -4  -4  -2 4143.41  141.78
   4  -4  -2 4422.13  146.49
   4  -4   2 4049.98  175.82
   4   4   2 4114.07  136.86
  -4  -4   2 4299.86  193.85
   4  -4  -2 4222.73  120.48
   4  -4   2 4103.81  125.41
   4   4   2 4251.85  148.93
   4  -4   3 1149.25   39.58
   4   4  -3 1071.25   45.93
   4  -4  -3 1054.50   36.32
  -4  -4   3 1121.87   49.56
   4  -4  -3 1030.88   35.49
  -4  -4  -3 1147.27   66.84
   4  -4  -3 1093.99   41.91
  -4   4   3 1025.29   36.09
  -4   4   3 1066.89   40.01
   4  -4   3 1027.12   37.67
   4   4   3 1031.67   46.41
   4   4   3 1108.49   37.46
  -4  -4  -3 1089.72   33.81
   4  -4   4  425.49   16.27
  -4   4  -4  438.87   15.11
  -4   4   4  416.42   20.25
  -4  -4  -4  464.90   21.68
   4   4   4  456.72   23.94
   4  -4  -4  421.06   23.95
   4   4   4  470.77   18.94
  -4   4   4  437.64   21.24
  -4  -4   4  433.52   14.45
  -4   4  -4  440.20   23.15
   4   4  -4  424.19   16.72
   4  -4   4  456.33   14.66
  -4  -4  -4  448.72   20.86
   4   4  -4  446.55   16.60
  -4  -4   4  412.43   18.20
   4  -4  -4  414.60   19.36
   4  -4  -4  438.18   18.90
   4   4  -5  153.99    8.67
  -4  -4   5  145.80   10.39
  -4  -4   5  160.28   10.08
  -4  -4  -5  171.09   12.11
  -4   4   5  161.13   10.10
   4   4   5  164.06   10.89
   4   4  -5  158.69   10.77
   4  -4  -5  147.70   12.23
   4  -4   5  156.83    8.00
   4  -4  -5  169.15   12.30
   4   4   5  147.63    9.57
  -4   4   5  151.98   10.38
   4  -4   5  174.45    7.33
   4  -4  -5  158.86    9.30
  -4  -4  -5  161.28    9.08
  -4  -4  -5  153.03   11.10
  -4   4  -5  161.34   11.89
   4  -4  -6  147.49   13.78
  -4  -4   6  160.89   12.19
  -4   4   6  139.66   11.07
   4  -4  -6  147.77   12.51
  -4  -4  -6  151.65   13.27
   4  -4   6  152.90    8.10
  -4   4   6  147.59   16.28
  -4  -4  -6  142.68    9.27
   4   4  -6  157.16   12.34
   4   4   6  165.56   11.66
   4   4  -6  137.41   11.37
   4   4   6  160.86    9.96
   4  -4   6  157.11   11.41
  -4   4  -6  157.32   10.78
  -4  -4   6  163.82   11.97
  -4   4  -6  157.56   11.38
  -4  -4  -7   27.79    8.63
  -4  -4  -7   25.97    6.62
  -4   4  -7   24.25    6.59
   4  -4   7   22.80    6.29
  -4   4  -7   16.58    4.33
  -4   4  -7   22.16    1.79
   4  -4  -7   23.66    6.35
   4   4  -7   26.17    6.51
   4   4   7   33.12    7.23
  -4  -4   7   30.57    9.21
  -4  -4   7   17.43    6.95
   4   4  -7   38.94   10.07
  -4   4   7   27.61    8.20
   4  -4   7   21.39    5.52
   4   4   7   21.55    7.23
   4   4   8   24.91    9.15
   4  -4   8    9.88    8.33
  -4  -4   8    1.65    7.64
  -4  -4   8   12.83    7.76
   4   4   8   17.95    7.39
   4   4  -8   14.83    6.24
  -4   4   8   19.13    9.42
  -4  -4  -8   13.24    7.43
   4  -4  -8   10.88    7.26
   4   4   9    7.89   10.58
   4   4   9  -10.21   10.49
   4   4  -9    0.67    6.76
  -4  -4  -9    8.99    6.18
  -4   4   9    9.71   11.72
   4  -4  -9   10.44   12.12
  -4  -4   9   10.37   10.06
   4  -4   9    3.34   10.46
   4  -4  10   12.31   11.25
   4   4  10   36.42   13.85
   4  -4 -10   23.96   13.60
  -4   4  10   28.12   14.18
  -5  -4   0 2574.66   81.77
  -5   4   0 2424.47   79.47
  -5   4   0 2579.68   72.64
   5  -4   0 2487.70   97.55
   5   4   0 2409.77   76.63
   5   4   0 2434.33   85.57
   5  -4   0 2388.59   73.31
  -5  -4   0 2479.98   69.33
   5  -4  -1 1709.75   54.75
   5   4  -1 1793.63   68.47
  -5  -4   1 1804.69   60.10
   5  -4   1 1730.69   63.43
  -5  -4  -1 1871.52   64.22
  -5   4  -1 1622.91   60.71
   5  -4  -1 1762.16   79.63
   5   4   1 1723.43   61.42
  -5  -4   1 1841.55   65.35
  -5  -4  -1 1799.41   68.19
  -5   4   1 1798.52   53.98
  -5   4  -1 1662.58   50.90
  -5  -4  -1 1898.68   80.82
  -5   4   1 1695.80   56.67
   5   4   1 1758.48   50.18
  -5  -4  -2 1236.29   70.61
  -5   4  -2 1119.49   42.49
  -5   4  -2 1282.10   53.86
   5  -4  -2 1327.16   39.94
   5  -4   2 1204.34   38.08
   5  -4  -2 1267.86   43.72
   5   4   2 1265.34   38.45
  -5   4  -2 1188.57   32.29
   5   4  -2 1213.61   46.74
  -5   4   2 1271.98   41.87
   5  -4   2 1239.51   38.31
   5   4   2 1204.34   47.59
  -5  -4  -2 1286.58   38.97
  -5  -4   2 1213.66   43.70
  -5   4   2 1207.37   39.91
  -5  -4   2 1284.49   44.06
   5  -4  -2 1275.01   44.48
  -5   4   3 1217.28   37.69
   5  -4  -3 1278.05   48.27
   5   4   3 1183.91   34.51
  -5  -4  -3 1207.93   61.29
  -5  -4   3 1238.64   38.97
   5  -4  -3 1282.31   39.93
  -5   4   3 1258.74   48.99
   5   4   3 1196.36   38.52
   5  -4   3 1209.86   37.84
   5  -4  -3 1299.51   40.16
   5   4  -3 1178.08   44.73
  -5  -4  -3 1189.54   41.85
   5  -4   4  369.77   16.45
  -5   4  -4  342.58   16.39
   5   4  -4  337.90   13.83
  -5  -4   4  351.78   16.31
   5   4   4  347.98   17.07
  -5   4   4  373.20   17.81
  -5   4   4  350.57   15.31
   5  -4   4  363.66   14.03
   5  -4  -4  347.38   18.56
  -5  -4  -4  367.62   25.35
   5   4   4  334.68   15.00
  -5  -4  -4  368.85   15.64
   5  -4  -4  358.20   17.84
  -5  -4   4  315.95   17.14
   5   4  -4  351.82   15.13
   5  -4  -4  345.96   13.77
  -5   4   5   97.63    8.90
  -5  -4   5  115.87    9.32
  -5  -4   5  118.14    9.44
   5  -4   5  108.29    6.47
  -5   4   5   88.26    9.95
  -5  -4  -5  118.32    7.91
  -5  -4  -5  116.67    6.18
   5   4  -5  108.03    7.93
   5  -4   5  100.90    7.69
  -5   4  -5  106.52    8.18
  -5  -4  -5  118.27   11.21
   5  -4  -5  103.30   11.58
   5   4   5  118.82   10.97
   5   4  -5  111.54    9.66
   5   4   5  107.51    9.18
   5  -4  -5   96.02    9.93
   5  -4  -5   90.18    7.92
   5  -4  -6   38.18    6.92
   5   4  -6   40.28    7.08
  -5   4   6   52.95    7.24
  -5   4   6   57.54    8.75
  -5  -4  -6   36.41    5.25
   5  -4   6   45.02    6.89
   5   4  -6   36.82    6.03
  -5  -4  -6   33.89    8.60
  -5   4  -6   37.17    6.54
  -5  -4   6   53.06    6.24
  -5  -4   6   33.62    6.93
   5   4   6   39.11    9.15
   5  -4  -6   19.53   10.53
   5   4   6   35.73    7.03
   5  -4   6   41.78    4.13
  -5  -4  -7  150.36   14.41
  -5   4   7  176.76   14.25
   5   4  -7  154.30   12.53
   5  -4   7  192.44   13.37
  -5   4  -7  171.59   13.28
   5   4   7  187.68   16.94
  -5  -4   7  161.16   13.51
   5   4  -7  152.00   11.40
  -5  -4   7  180.12   16.74
   5  -4  -7  157.81   13.91
   5  -4   7  196.50   13.40
  -5   4  -7  195.41   12.23
   5   4   7  182.61   14.38
  -5  -4  -7  170.16   12.41
  -5  -4  -8   13.82    5.86
   5  -4  -8    2.78    8.41
  -5  -4   8   -9.31    9.91
   5   4   8    4.53    8.95
   5  -4   8    6.63    5.66
   5   4   8   20.53    8.64
   5   4  -8   11.37    9.17
  -5   4   8    5.73    7.39
   5   4  -9  198.42   14.86
   5  -4  -9  163.32   21.08
   5   4   9  204.93   22.87
   5   4   9  161.20   20.33
  -5   4   9  174.81   19.48
   5  -4   9  154.93   13.33
  -5  -4   9  178.70   18.66
   5  -4 -10   95.79   15.50
   5   4  10   58.32   14.56
  -5   4  10   68.89   16.44
  -6   4   0 1566.19   49.59
  -6  -4   0 1762.11   64.54
   6   4   0 1751.99   51.73
  -6  -4   0 1755.81   61.74
   6  -4   0 1510.17   52.20
   6   4   0 1670.02   47.80
  -6   4   0 1486.59   47.20
   6  -4   1 1171.81   46.15
  -6  -4  -1 1138.66   44.59
   6  -4  -1 1075.37   40.93
   6  -4  -1 1145.51   50.10
  -6  -4   1 1138.37   40.46
  -6   4  -1 1136.60   34.23
  -6  -4  -1 1202.03   37.43
  -6   4   1 1167.19   42.28
   6   4  -1 1123.21   40.77
  -6   4  -1 1096.78   34.58
   6   4   1 1145.42   32.63
  -6   4   1 1145.07   42.84
   6   4   1 1087.50   40.75
  -6  -4   1 1153.72   34.15
  -6   4  -2  811.72   32.80
   6   4   2  859.51   26.17
  -6   4  -2  862.71   38.01
   6  -4   2  898.27   33.07
  -6  -4  -2  890.52   45.65
  -6   4  -2  857.77   26.71
   6   4   2  839.80   27.95
  -6  -4   2  847.88   36.87
   6  -4  -2  874.43   26.31
   6  -4   2  852.11   30.79
  -6   4   2  853.12   30.18
  -6  -4  -2  874.56   24.34
   6  -4  -2  887.21   37.48
  -6   4   2  899.17   27.93
  -6  -4   2  882.97   28.43
   6   4  -2  890.39   36.05
  -6  -4  -3 1851.88   52.68
   6  -4  -3 1822.51   60.71
  -6   4   3 1823.18   60.67
  -6  -4  -3 1907.87   92.24
  -6   4  -3 1894.18   67.92
   6  -4  -3 1895.32   87.40
   6  -4  -3 1976.66  102.70
   6   4   3 1843.24   66.61
  -6  -4   3 1895.90   67.71
  -6   4   3 1821.18   75.90
   6   4   3 1909.43   70.67
   6  -4   3 1792.75   65.57
   6   4  -3 1806.56   78.74
  -6   4  -3 1641.77   62.95
   6  -4   4 1839.12   62.37
  -6   4  -4 1870.07   79.03
   6  -4   4 1928.03   83.24
   6  -4  -4 1778.11   84.74
   6   4   4 1823.93   63.23
   6   4  -4 1836.76   67.09
   6  -4  -4 1907.10  123.92
  -6  -4   4 1871.00   81.47
  -6   4   4 1927.75   93.49
  -6  -4  -4 1899.68   68.66
   6  -4  -4 1818.46   63.25
  -6  -4  -4 1912.54   99.17
   6   4   4 1789.38   59.09
  -6   4   4 1787.66   55.76
  -6  -4   4 1769.58   65.75
  -6  -4   5  456.13   23.68
   6   4  -5  433.85   21.42
   6  -4   5  470.37   17.92
  -6   4  -5  439.67   18.63
  -6   4  -5  446.89   24.68
  -6   4   5  428.59   23.72
   6   4   5  411.77   20.63
   6  -4  -5  441.29   24.48
  -6   4   5  444.10   21.40
   6  -4   5  453.32   19.78
  -6  -4  -5  443.84   20.55
   6  -4  -5  462.38   32.47
   6   4  -5  432.11   19.64
   6   4   5  403.48   25.86
  -6  -4   5  428.75   17.50
   6  -4  -6   11.48    6.19
   6  -4   6   26.72    4.69
   6   4  -6   18.74    8.49
  -6  -4   6   12.09    6.45
  -6  -4  -6   26.10    5.50
   6   4  -6   22.38    7.62
  -6   4  -6   29.43    5.60
  -6  -4   6   15.58    9.26
   6   4   6   24.41    6.10
  -6  -4  -6   22.12    7.02
   6   4   6   26.34    5.51
  -6   4  -6   21.31    3.44
   6  -4   6   21.16    3.58
  -6   4   6   17.68    9.86
  -6  -4  -7  167.92   15.93
  -6  -4   7  183.66   14.34
  -6   4   7  179.23   14.50
   6  -4   7  188.01   13.78
   6   4   7  199.90   15.00
  -6  -4  -7  204.29   12.94
   6  -4  -7  181.59   12.78
   6  -4   7  188.68   15.28
   6   4  -7  207.35   14.65
   6   4   7  172.98   15.53
  -6   4  -7  176.55   15.46
  -6   4   8   77.68   11.55
   6   4   8   83.62   15.87
   6  -4   8   70.97    8.86
   6   4  -8   71.47   10.95
  -6  -4   8   71.09   12.14
   6   4   8   83.20   13.06
   6  -4  -8  100.69   13.43
  -6  -4  -8   89.99   10.11
   6  -4   9   -2.23    7.75
   6   4  -9   -9.52    9.71
  -6   4   9  -26.05   15.23
  -6  -4   9    4.46   14.66
   6   4   9   -4.49    9.98
   6  -4  -9    5.50    8.98
   7   4   0  668.50   23.65
   7   4   0  667.18   22.42
   7  -4   0  631.12   24.09
  -7  -4   0  660.19   25.99
  -7  -4   0  694.95   29.94
  -7   4   0  657.23   22.75
  -7   4   0  617.49   24.57
  -7   4   1  549.07   19.53
  -7  -4  -1  543.96   20.06
  -7   4  -1  523.49   20.33
  -7  -4   1  559.89   24.40
  -7   4  -1  557.68   19.73
   7  -4  -1  552.38   22.45
   7   4   1  539.57   22.19
   7  -4   1  544.19   22.65
  -7  -4   1  521.86   21.71
  -7   4   1  559.06   26.78
  -7  -4  -1  540.40   19.92
   7   4  -1  539.49   19.55
   7   4   1  577.56   17.14
  -7   4  -1  560.84   20.05
   7  -4  -2   58.48    6.65
  -7   4  -2   59.04    4.22
  -7  -4   2   42.92    5.72
  -7   4  -2   60.33    3.51
  -7  -4  -2   63.64    5.94
   7  -4   2   62.92    5.09
  -7  -4   2   56.79    6.68
  -7  -4  -2   58.63    5.89
   7   4  -2   52.06    5.87
   7  -4  -2   58.00    5.48
  -7   4   2   61.37    7.70
   7   4   2   54.78    6.70
  -7   4   2   64.45    5.41
  -7  -4  -2   55.03    5.22
   7  -4   2   57.44    3.89
   7   4   2   51.57    4.94
  -7   4   3  311.40   15.13
  -7   4   3  313.49   15.82
   7  -4  -3  306.66   13.91
   7  -4  -3  295.64   16.51
  -7  -4  -3  320.57   24.66
   7  -4   3  298.13   15.77
  -7   4  -3  292.13   11.92
   7   4  -3  321.32   16.90
   7  -4  -3  326.96   18.23
  -7  -4   3  328.54   16.95
   7   4   3  301.90   11.97
  -7   4  -3  321.90   13.73
  -7  -4  -3  307.82   13.29
   7   4   3  316.81   17.47
  -7  -4   3  318.36   19.51
  -7  -4   4  346.53   15.75
  -7  -4  -4  368.28   17.13
  -7  -4   4  372.26   20.01
  -7   4   4  330.10   15.59
  -7  -4  -4  379.27   30.58
  -7   4  -4  323.28   13.00
   7  -4  -4  358.04   23.57
   7  -4  -4  292.56   16.58
   7   4  -4  383.48   16.53
  -7   4   4  370.42   18.40
   7   4   4  371.04   18.90
   7   4   4  333.46   13.99
   7  -4  -4  359.08   21.24
   7  -4   4  314.76   13.32
   7   4  -5  404.57   21.37
  -7  -4   5  409.95   22.42
   7  -4  -5  394.66   21.74
   7   4   5  395.48   21.12
   7  -4   5  365.51   16.49
  -7  -4  -5  451.35   19.51
  -7   4  -5  398.52   14.59
  -7   4   5  360.06   19.20
  -7  -4   5  431.05   23.61
   7   4   5  408.81   19.73
  -7   4   5  387.57   28.11
   7  -4   5  420.63   20.86
   7   4  -5  408.47   22.04
  -7   4  -6   64.55    4.74
  -7  -4  -6   77.41    6.98
   7   4  -6   59.13    8.56
   7  -4   6   48.38    8.39
   7  -4  -6   59.41   11.54
  -7  -4   6   67.82    8.82
   7   4  -6   78.28    9.23
  -7   4   6   71.57   13.96
   7   4   6   64.95    8.40
   7   4   6   80.13    9.59
   7  -4   6   66.66    4.44
  -7  -4  -6   76.55    8.56
  -7   4   7   73.79   12.31
  -7  -4   7   80.82    9.95
   7   4   7   86.51   11.08
  -7  -4  -7   85.06    7.50
   7   4   7   95.84   10.98
   7   4  -7   85.57   11.16
   7  -4  -7   88.44   12.34
   7  -4   7   77.78   10.09
  -7  -4   8  244.47   21.23
   7   4   8  288.91   21.99
   7  -4  -8  258.65   21.79
   7  -4   8  244.02   16.27
   7   4  -8  269.30   17.56
  -7   4   8  258.52   20.14
  -7  -4  -8  250.73   16.26
   7   4   8  275.13   21.60
  -7  -4   9   56.12   18.27
  -7   4   9   47.48   15.33
   7  -4  -9   60.88   12.87
   7  -4   9   58.68   13.97
   7   4   9   70.13   14.37
   7   4  -9   66.64   11.49
   8  -4   0   12.57    4.25
  -8  -4   0   13.46    5.05
   8   4   0    6.23    3.87
  -8   4   0   18.98    3.35
  -8  -4   0   11.80    4.27
  -8   4   0   14.29    4.10
   8  -4  -1  146.39    8.22
  -8   4  -1  138.88    6.78
   8   4   1  165.57    8.85
  -8   4  -1  149.31    6.88
   8  -4   1  146.19    7.15
  -8  -4   1  162.35   11.71
  -8   4   1  155.39    8.74
  -8  -4   1  156.87    9.74
  -8  -4  -1  160.18    9.02
  -8   4   1  153.98    9.56
   8   4   1  155.46    9.20
  -8   4  -1  163.90    7.79
   8   4  -1  141.36    9.58
  -8  -4  -1  164.86   10.91
   8   4   2   92.22    7.38
  -8  -4  -2  106.27    7.74
  -8  -4   2  102.58    8.68
  -8   4  -2   92.87    5.48
  -8  -4   2  105.90    9.55
   8   4  -2  113.63    7.74
   8  -4   2   95.90    6.35
  -8   4  -2   95.05    6.05
  -8   4   2   99.76    8.89
   8   4   2  100.27    8.05
  -8  -4  -2  111.01    8.40
  -8   4   2   92.65    8.64
   8  -4   2   89.84    5.13
   8  -4  -2   91.87    6.92
  -8  -4   3 1075.78   54.04
  -8   4   3  970.03   42.11
  -8   4  -3 1024.63   42.40
  -8   4   3 1004.04   36.94
   8  -4   3 1000.44   35.37
   8  -4  -3  977.47   41.11
  -8  -4  -3  992.09   61.96
   8   4   3 1061.45   54.44
  -8  -4  -3  993.35   59.56
  -8  -4   3 1070.11   44.24
  -8   4  -3  982.50   35.31
   8   4   3 1000.10   37.49
   8   4  -3 1010.97   57.48
  -8  -4  -3 1044.52   38.50
  -8  -4   4  366.31   18.91
  -8   4   4  352.25   23.38
   8  -4  -4  317.70   25.80
   8  -4   4  338.01   17.99
  -8  -4   4  347.16   18.69
   8   4  -4  352.29   18.19
  -8  -4  -4  370.45   19.97
   8   4   4  399.10   19.67
  -8  -4  -4  357.98   24.65
   8  -4  -4  351.38   18.61
   8   4   4  390.73   20.24
  -8   4  -4  352.76   13.23
  -8   4   4  361.10   18.22
   8   4  -5  221.54   15.84
  -8   4   5  231.37   13.93
  -8   4  -5  261.59   13.75
   8   4   5  274.24   19.48
   8  -4  -5  257.08   18.08
   8   4  -5  243.01   16.31
  -8  -4   5  252.55   15.15
   8  -4   5  243.93   13.34
  -8  -4  -5  242.97   18.39
   8   4   5  239.57   15.22
  -8  -4   6  282.39   16.42
   8   4   6  263.41   21.93
   8  -4  -6  274.44   19.96
  -8  -4  -6  282.24   16.98
   8  -4   6  278.39   17.57
   8   4   6  288.70   17.64
  -8   4  -6  280.28   15.69
   8   4  -6  286.35   18.29
  -8   4   6  269.32   16.55
  -8  -4  -6  268.78   21.99
   8  -4   6  282.32   20.00
   8  -4   7   12.92    6.14
   8   4   7   -8.42    8.50
  -8  -4  -7   15.60    6.47
  -8  -4   7   22.84    9.80
   8   4  -7   32.21    9.55
  -8   4   7   14.51    8.46
   8  -4  -7   12.74    8.14
   8   4   7   20.87    7.19
   8  -4  -8  161.59   17.96
   8   4  -8  164.11   16.25
  -8  -4   8  142.84   17.32
   8  -4   8  162.57   14.04
   8   4   8  161.02   17.73
  -8   4   8  166.54   16.89
  -8   4   9   66.11   13.82
   8   4  -9   62.41   15.90
   8   4   9   50.07   17.87
   8  -4   9   55.49   11.25
  -8  -4   9   26.93   13.61
   8  -4  -9   56.89   12.89
  -9   4   0  186.83    9.67
  -9   4   0  183.40   10.77
  -9  -4   0  184.82   12.39
   9  -4   0  193.23    9.59
   9   4   0  181.11   11.78
  -9  -4   0  201.25   12.81
  -9   4   1   37.59    5.23
  -9  -4  -1   52.61    6.28
  -9   4   1   54.33    6.05
  -9  -4  -1   48.79    5.78
   9   4  -1   45.06    7.11
  -9  -4   1   51.18    6.63
  -9  -4   1   50.02    6.31
  -9   4  -1   42.61    4.38
   9   4   1   39.04    4.92
   9  -4   1   47.18    4.32
  -9   4  -1   48.51    4.07
   9  -4  -1   45.01    4.97
  -9   4  -1   46.65    6.04
   9   4   1   44.54    6.47
   9  -4  -2  233.32   11.95
   9   4   2  221.01   12.07
   9  -4   2  238.01   12.80
  -9  -4  -2  258.53   13.78
  -9  -4   2  235.12   16.70
  -9   4  -2  234.02   10.31
   9   4   2  233.57   13.56
   9  -4   2  239.08   11.18
  -9   4   2  234.03   11.07
  -9   4   2  238.37   17.94
  -9   4  -2  244.81   11.16
  -9   4  -2  216.03   10.01
   9   4  -2  240.30   14.64
  -9  -4  -2  250.90   15.49
  -9  -4   2  252.09   14.33
  -9   4   3   29.24    5.70
   9  -4   3   40.02    5.44
   9   4   3   39.51    5.50
   9   4  -3   40.14    6.52
   9   4   3   32.41    5.30
  -9  -4  -3   50.46    6.32
  -9   4  -3   34.63    3.68
  -9   4  -3   35.97    2.92
  -9  -4   3   47.31    8.12
  -9  -4   3   39.91    8.30
   9  -4  -3   32.54    7.89
  -9   4   3   27.90    8.06
  -9  -4  -3   42.54    5.48
  -9   4  -4   11.39    1.60
   9   4   4    5.49    5.00
   9   4   4    9.36    4.74
  -9   4  -4   12.40    2.08
  -9   4   4   18.92    7.41
  -9  -4   4    5.64    5.62
  -9  -4   4   11.99    8.73
   9   4  -4    6.38    5.39
   9  -4   4    5.71    4.47
  -9  -4  -4   12.59    5.21
   9  -4  -4   12.37    6.04
  -9  -4  -4    1.54    6.58
   9   4   5  145.00   12.13
   9  -4  -5  161.01   12.35
   9   4  -5  183.29   14.38
  -9   4  -5  148.42    6.95
  -9   4   5  137.36   11.26
  -9  -4  -5  160.84   13.07
   9   4   5  169.97   11.73
   9  -4   5  149.16   11.85
  -9  -4  -5  148.89   12.83
  -9  -4   5  143.55   12.67
  -9  -4   6   52.46   10.18
   9  -4  -6   43.53   12.96
  -9   4  -6   53.22    3.78
   9  -4   6   56.93    9.07
   9   4   6   56.85   12.83
  -9   4   6   45.19    8.31
   9   4   6   58.07    8.03
   9   4  -6   50.65    9.14
   9  -4   7   27.97    9.13
   9   4   7   25.89    7.37
   9   4   7   20.45    8.35
  -9  -4   7   16.45    9.81
   9  -4  -7   25.73    9.83
  -9   4   7   18.83   11.22
  -9  -4  -7   26.75    5.57
   9   4  -7   25.27    7.64
  -9  -4   8  223.88   21.79
  -9   4   8  246.41   23.40
   9  -4  -8  241.71   24.13
   9   4  -8  227.70   20.36
   9  -4   8  222.39   22.36
   9   4   8  254.05   23.29
  -9  -4   9  128.95   18.68
   9   4   9  168.00   22.83
   9   4  -9  162.80   16.22
  -9   4   9  135.28   22.68
   9  -4  -9  118.26   24.25
   9  -4   9  114.37   15.33
 -10   4   0  126.70    7.39
  10   4   0  124.18   10.26
  10  -4   0  124.19    9.82
 -10   4   0  135.64    9.34
 -10  -4   0  111.13    9.93
 -10  -4   0  118.40   10.09
 -10  -4  -1   88.42    8.30
 -10   4  -1   80.57    5.76
 -10  -4   1   90.70    9.10
 -10   4   1   86.63    7.65
 -10   4  -1   89.56    7.46
 -10   4   1   91.19    7.39
  10   4   1   77.18    7.74
 -10  -4   1   82.01   10.38
 -10  -4  -1   80.02    8.43
  10  -4  -1   70.55    6.98
  10   4  -1   84.38    7.64
 -10   4  -1   82.72    5.69
  10   4   1   70.51    6.27
  10  -4   1   77.93    5.95
 -10  -4   2  280.21   18.15
  10  -4   2  256.02   13.14
  10   4   2  253.66   13.86
 -10   4   2  292.94   18.45
 -10   4  -2  262.33   12.43
  10   4   2  280.73   14.63
  10  -4   2  240.43   14.65
 -10   4  -2  274.92   13.07
 -10   4   2  275.86   13.35
 -10  -4  -2  268.89   17.34
 -10  -4  -2  274.01   17.23
  10   4  -2  294.38   17.19
 -10   4  -2  263.66   14.56
 -10  -4   2  254.50   18.10
  10  -4  -2  278.52   15.95
  10  -4  -3   73.06    8.40
  10   4   3   82.06    7.40
 -10  -4  -3   72.60    8.09
  10  -4   3   72.01    7.38
  10   4   3   78.37    8.87
 -10   4  -3   68.02    4.96
 -10  -4   3   80.27    9.05
  10   4  -3   73.82    8.41
 -10   4   3   80.44    8.14
 -10  -4  -3   72.25    7.16
 -10   4   3   54.25    9.42
 -10   4  -3   70.66    5.31
 -10   4   4   78.39    9.47
 -10  -4  -4   81.48    8.56
 -10   4  -4   84.37    6.24
 -10  -4   4   88.36    9.65
  10  -4  -4   93.15   11.52
  10  -4   4   68.84    9.21
 -10  -4  -4   91.76    9.20
  10   4  -4   92.23   11.54
  10   4   4   80.40    8.48
  10   4   4   85.22    9.91
 -10   4  -4   84.83    4.83
 -10  -4   5  273.37   17.65
 -10  -4  -5  287.36   21.55
  10   4   5  260.43   18.74
  10  -4   5  278.71   17.56
  10   4  -5  276.30   17.09
 -10  -4  -5  272.84   19.66
  10   4   5  248.93   16.32
  10  -4  -5  254.63   16.61
 -10   4   5  278.35   18.35
 -10   4  -5  273.58   18.17
  10   4   6   36.34    7.86
  10   4  -6   59.19    9.22
 -10  -4   6   52.02    8.99
  10  -4  -6   49.12   10.31
 -10   4   6   53.81    9.44
  10  -4   6   56.97    8.52
  10   4   6   41.54   12.59
 -10  -4  -6   34.96    7.83
 -10  -4  -7   38.85    6.27
 -10  -4   7   29.51   10.33
  10  -4   7   32.73   10.00
  10   4   7   33.35   14.14
  10  -4  -7   49.70   13.26
 -10   4   7   34.42   10.16
  10   4  -7   49.04    8.81
  10  -4   8   46.55   10.97
 -10   4   8   43.43   12.55
 -10  -4   8   29.03   13.53
  10   4  -8   43.66   12.12
  10  -4  -8   34.44   12.41
  10   4   8   48.19   15.74
 -11   4   0   76.46    6.89
 -11  -4   0   65.27    9.38
 -11  -4   0   55.95    7.09
 -11   4   0   62.91    6.93
  11   4   0   48.25    6.29
 -11   4   0   72.38    7.77
  11  -4   0   68.44    7.71
 -11   4  -1  187.10   13.38
 -11  -4  -1  165.31   14.71
 -11   4  -1  180.08   11.32
 -11   4   1  157.56   12.51
  11  -4  -1  175.96   13.62
 -11  -4   1  197.47   14.14
 -11   4   1  196.68   10.65
 -11  -4  -1  191.67   13.19
  11   4  -1  174.17   15.75
 -11  -4   1  165.24   15.58
  11  -4   1  190.82   11.33
  11   4   1  158.40   14.91
 -11   4  -1  182.29    9.43
 -11   4  -2   55.51    5.06
 -11   4   2   61.28    7.20
  11   4   2   58.44    7.31
  11  -4  -2   57.07    7.49
  11  -4   2   56.16    5.22
 -11   4   2   68.53    9.28
 -11  -4  -2   54.59    7.89
  11   4   2   45.95    6.32
  11  -4   2   66.24    8.03
 -11  -4   2   45.12    8.30
 -11  -4  -2   50.13    7.40
 -11   4  -2   54.19    4.83
 -11   4  -2   52.46    5.41
  11   4  -2   53.62    7.61
  11   4  -3  599.08   39.38
  11  -4   3  566.01   25.91
  11   4   3  594.04   29.39
 -11   4  -3  560.88   30.63
 -11   4   3  570.23   25.05
  11  -4  -3  542.60   31.64
 -11  -4  -3  575.50   41.54
 -11  -4  -3  595.63   34.27
  11   4   3  648.92   37.22
 -11   4  -3  532.40   28.55
 -11  -4  -4   15.95    5.63
 -11   4   4   14.71   10.98
 -11  -4   4   19.96    8.31
 -11  -4  -4   17.16    6.53
 -11   4  -4   19.85    3.24
  11   4  -4   20.26    6.21
  11  -4   4   14.28    7.08
 -11   4  -4   18.72    2.99
  11   4   4   15.70    6.47
  11   4   4   26.97    8.62
  11  -4  -4   23.87    7.14
  11  -4  -5   -5.77    7.22
  11  -4   5   13.90    8.73
 -11  -4   5   -0.20    7.32
  11   4  -5    8.58    6.57
  11   4   5   12.94    8.98
 -11  -4  -5    9.47    6.23
 -11   4   5   -2.25    7.20
  11   4   5   10.00    6.95
 -11  -4   6  273.52   20.18
  11   4   6  305.89   23.48
  11  -4   6  301.12   20.76
  11   4  -6  270.60   23.71
 -11   4   6  262.98   20.25
  11  -4  -6  269.85   18.88
  11   4   6  245.67   23.32
  11  -4  -7   90.94   13.75
  11  -4   7   75.62   11.58
  11   4   7   63.06   14.29
 -11  -4   7   67.68   17.04
  11   4  -7   70.18   15.10
 -11   4   7   65.73   14.47
  11  -4   8  138.55   17.11
 -11  -4   8  146.24   22.11
  11   4   8  144.57   16.97
 -11   4   8  118.40   19.12
  11   4  -8  137.58   14.75
  11  -4  -8  162.60   37.12
 -12   4   0    7.83    5.53
 -12   4   0    9.51    5.62
 -12   4   0   12.53    5.17
 -12  -4   0    5.78    5.09
  12  -4   0    7.31    5.04
  12   4   0   12.21    5.48
  12  -4  -1   24.29    8.19
  12   4   1   20.04    7.44
 -12   4  -1   23.82    4.06
  12   4  -1   15.54    5.85
  12  -4   1   27.91    4.78
 -12  -4  -1   32.11    7.54
 -12  -4   1   19.93    9.61
 -12   4   1   28.52    5.06
 -12   4  -1   24.73    7.30
 -12  -4  -1   25.34    8.40
 -12   4   1   19.63    6.91
 -12   4  -1   27.04    5.54
  12  -4  -2  361.62   23.78
  12  -4   2  371.60   20.74
  12   4   2  345.27   21.15
 -12  -4  -2  380.54   21.70
 -12  -4  -2  375.23   24.05
  12   4  -2  341.22   22.15
 -12   4   2  362.76   21.83
  12  -4   2  359.24   22.23
 -12   4  -2  363.66   23.12
 -12   4  -2  365.28   18.69
 -12   4  -2  382.02   27.91
 -12   4  -3  318.71   20.40
  12  -4   3  290.42   15.04
 -12   4  -3  297.60   15.17
 -12  -4  -3  287.79   23.92
 -12   4  -3  316.28   29.23
 -12  -4  -3  305.25   20.17
  12  -4  -3  301.26   21.07
 -12   4   3  305.02   20.95
  12   4   3  306.03   20.08
  12   4   3  290.51   19.17
  12   4  -3  304.16   18.92
  12  -4  -4  246.46   20.25
 -12   4  -4  268.17   18.06
  12   4   4  303.87   26.25
  12  -4   4  266.08   18.13
 -12  -4  -4  262.78   18.98
  12   4  -4  276.04   18.60
 -12   4   4  289.06   19.10
 -12  -4   4  259.60   19.61
  12   4   4  291.17   20.16
  12  -4  -5   72.79   13.15
 -12  -4   5   50.23   10.64
  12   4   5   56.11   10.92
  12   4  -5   60.62   12.26
 -12   4  -5   53.78    5.23
 -12  -4  -5   46.66    7.63
  12   4   5   55.92    8.80
 -12   4   5   64.29   11.99
  12  -4   5   53.25    9.07
  12  -4   6  223.18   19.59
 -12   4   6  231.30   20.51
  12   4  -6  226.24   24.91
 -12  -4   6  245.85   18.80
  12   4   6  250.40   19.93
  12  -4  -6  201.39   19.33
 -12   4   7    8.30   12.29
  12   4   7    7.57    9.36
  12   4  -7    5.34   11.88
 -12  -4   7    4.36   16.76
  12  -4   7    2.28    8.77
  12  -4  -7    1.55   12.29
  13   4   0  661.59   34.83
 -13   4   0  601.26   32.69
 -13   4   0  646.59   40.98
 -13   4   0  674.05   36.82
 -13  -4   0  595.95   51.00
  13  -4   0  616.76   39.86
 -13   4  -1  588.85   31.93
 -13   4   1  564.19   36.43
 -13   4   1  584.89   29.90
  13  -4   1  620.80   38.46
  13   4   1  599.52   37.53
 -13  -4   1  557.15   46.80
 -13  -4  -1  507.60   47.07
 -13   4  -1  622.88   40.26
  13   4  -1  553.45   30.19
 -13   4  -1  589.96   46.89
  13  -4  -1  604.28   32.85
  13  -4  -2  429.83   25.12
 -13   4  -2  423.52   25.20
 -13   4   2  429.58   25.77
 -13   4  -2  410.67   21.23
  13   4   2  444.71   26.81
 -13  -4  -2  438.36   29.50
  13  -4   2  458.87   28.98
  13   4  -2  409.01   25.91
  13  -4   2  480.49   24.25
 -13  -4  -3   50.66    9.76
  13   4   3   51.63    9.80
  13   4   3   79.64    9.31
  13   4  -3   86.22   10.97
 -13   4  -3   76.36    7.06
 -13  -4   3   55.17    9.35
  13  -4   3   60.64    8.83
  13  -4  -3   80.61   10.83
 -13   4   3   66.26   11.67
  13   4   4   51.39    9.78
  13   4   4   43.90    7.95
 -13   4  -4   45.64    6.04
 -13   4   4   47.22   10.06
 -13  -4  -4   44.92    9.55
  13  -4   4   32.22    9.54
  13   4  -4   65.18   14.18
 -13  -4   4   34.16   10.38
  13  -4  -4   59.59   10.68
 -13   4  -5   32.42    3.87
 -13   4   5   18.05    9.54
  13   4   5   49.00   10.87
  13  -4   5   40.04   11.13
  13   4  -5   31.55   10.15
  13   4   5   38.14    9.36
 -13  -4   5   25.26   13.71
  13  -4  -5   44.64   11.05
  13   4   6   12.91   14.34
  13  -4   6   30.28   11.36
  13   4  -6   36.13   11.46
 -13  -4   6   29.33   12.45
  13  -4  -6   31.24   11.84
 -13   4   6   35.46   15.71
 -13  -4   7   16.59   17.65
  13   4   7    4.42   17.22
  13   4  -7  -24.32   15.63
  13  -4   7    2.41   15.22
 -13   4   7   -3.25   10.79
 -14  -4   0   10.45    8.88
  14   4   0   13.99    6.80
  14  -4   0   12.86    6.29
 -14   4   0   11.94    6.53
 -14  -4  -1   -2.24    8.81
 -14   4  -1   10.94    7.08
  14   4   1   -5.04    6.40
  14  -4   1   19.67    7.12
  14  -4  -1   11.79    9.66
 -14   4   1    6.56    8.27
  14   4  -1   12.19    7.78
 -14   4  -1    9.49    6.04
  14  -4  -2    0.58    7.69
  14   4  -2    3.87    8.68
  14  -4   2   -1.40    5.07
 -14   4  -2    5.17    5.24
 -14   4   2    9.07    7.58
 -14   4  -2    8.11    5.26
  14   4   2   10.76    7.22
  14  -4   2    5.17    6.46
  14  -4  -3   86.85   17.00
  14  -4   3   82.37   13.49
 -14   4   3   91.32   14.54
  14   4   3   78.97   13.85
 -14  -4   3  109.35   13.38
 -14   4  -3   95.50    8.28
  14   4  -3   85.06   15.53
  14   4   4  109.47   13.38
  14   4   4  124.69   12.25
  14  -4  -4   85.36   14.31
 -14   4  -4  100.04    8.98
  14   4  -4  141.10   15.49
 -14   4   4  107.30   13.64
 -14  -4   4  109.93   14.55
  14  -4   4  111.31   14.24
  14  -4  -5    2.40   11.17
  14   4   5   16.61    9.74
 -14  -4   5   12.18    9.59
 -14   4   5   -7.16    9.61
  14   4  -5    0.19   13.24
  14  -4   5    3.70    7.94
 -14   4   6   23.69   12.81
 -14  -4   6   50.45   15.13
  14  -4  -6   11.84   12.94
  14   4  -6   34.62   15.27
  14   4   6   47.42   13.43
  14  -4   6   38.00    9.98
  15   4   0  597.59   39.95
 -15   4   0  600.73   33.36
  15  -4   0  647.92   33.81
 -15   4  -1  491.50   29.46
  15  -4   1  474.39   28.40
  15   4   1  481.08   34.70
  15  -4  -1  506.00   30.10
  15   4  -1  485.57   38.91
 -15   4   1  491.61   29.99
  15  -4   1  516.76   32.21
  15   4  -1  537.92   30.49
  15   4   2  254.86   23.29
  15  -4  -2  295.30   22.04
  15  -4   2  279.59   24.07
  15   4  -2  252.66   17.35
 -15   4   2  285.07   17.57
 -15   4  -2  274.24   17.01
  15  -4   2  304.99   18.07
  15  -4  -3  157.19   16.71
  15   4  -3  146.11   17.30
  15  -4   3  145.80   15.77
 -15  -4   3  157.81   17.43
  15   4   3  131.24   14.38
 -15   4   3  145.88   18.18
 -15   4  -3  143.60   13.49
  15  -4   4   22.72   11.48
 -15   4   4   14.42   10.65
 -15   4  -4   18.13    5.27
 -15  -4   4   14.04   10.31
  15  -4  -4    3.88    9.18
  15   4   4    6.29    8.98
  15   4  -4   15.61   11.65
 -15   4   5    1.57   10.53
  15  -4  -5   13.51   13.40
  15   4   5   25.23   10.93
  15   4  -5   22.04   12.06
  15  -4   5    9.97   11.25
 -15  -4   5    3.97   11.42
  15   4   6  215.07   28.20
  15  -4   6  230.52   22.35
 -15  -4   6  237.98   25.69
 -16   4   0    0.08    6.85
  16   4   0   16.24    7.92
  16  -4   0   -4.17    7.72
  16   4   1  119.06   18.05
 -16   4   1  101.10   11.83
  16  -4   1   71.55    9.95
  16  -4  -1  100.13   14.89
 -16   4  -1   93.41   11.31
  16  -4   1  101.06   17.56
  16   4  -1  124.03   17.77
 -16   4   2   99.82   17.40
  16  -4  -2   78.61   15.73
  16  -4   2   72.49   12.62
 -16  -4   2   83.19   13.03
  16   4  -2   75.46   12.86
  16   4  -2  114.25   17.64
 -16   4  -2   84.11    9.73
  16   4   2   84.48   13.14
  16   4   3   17.82   11.93
  16  -4  -3   16.10   10.60
 -16   4  -3   23.54    5.28
  16  -4   3    9.79   10.37
 -16  -4   3   12.92   10.02
  16   4  -3    8.18   19.47
 -16   4   3   18.35   10.08
  16  -4   4  157.50   18.26
  16   4   4  155.17   21.55
  16   4  -4  143.64   19.34
 -16   4   4  180.16   19.31
 -16  -4   4  183.78   19.46
  16  -4   5  208.52   23.17
 -16  -4   5  212.33   26.54
  16   4   5  223.01   25.72
  17   4   0   30.97   14.73
  17  -4   0   10.74    8.15
 -17   4   0   25.83    9.46
  17  -4  -1   14.60    8.81
  17   4  -1   10.68   12.13
  17  -4   1   20.38   14.46
 -17   4  -1   26.68    7.90
 -17   4   1    7.43    8.43
  17   4   1   23.58   12.33
  17  -4   1   23.28    8.80
  17  -4  -2   25.02   10.58
 -17   4   2   28.71    9.92
  17   4   2    8.50   13.95
  17  -4   2   33.85   13.68
 -17   4  -2   11.59    7.86
  17   4  -2   18.87   12.70
 -17  -4   2   12.69   10.61
  17   4  -2   21.62   11.86
  17  -4   3   -0.80   13.33
 -17   4  -3   24.28    6.14
  17   4  -3   -9.60   21.54
 -17   4   3   19.18   10.93
 -17  -4   3   21.01   12.69
  17  -4  -3   13.00   11.93
  17   4   3   20.13   11.93
  18   4   0    8.66   11.19
 -18   4   0   26.83   12.06
  18  -4   0   26.52   13.01
  18  -4  -1    9.66   10.65
  18   4   1   40.10   17.80
  18   4  -1    0.73   10.62
 -18  -4   1   24.60   11.69
  18  -4   1   15.52   12.39
 -18   4  -1    3.23    7.67
 -18   4   1   15.10   13.42
  18  -4   1   -6.01   12.62
  18  -4  -2   17.39   14.10
  18   4   2   37.28   15.45
 -18   4  -2   17.12    9.47
 -18   4   2   54.68   17.42
  18   4  -2   65.81   14.59
  18  -4   2   39.10   12.32
   0   5   0   -0.44    1.20
   0  -5   0    1.59    1.57
   0   5   0    1.61    1.68
   0  -5   0    1.02    1.55
   0   5  -1   12.90    1.94
   0   5  -1   13.38    0.94
   0   5   1   13.15    2.67
   0  -5  -1   14.33    2.85
   0  -5   1   17.07    1.76
   0  -5  -1   13.92    2.49
   0   5   1   17.78    2.31
   0  -5   1   15.10    0.89
   0   5   2 1255.02   36.13
   0  -5  -2 1235.66   37.57
   0  -5  -2 1268.25   44.83
   0  -5   2 1255.69   52.84
   0   5   2 1288.60   39.89
   0  -5  -2 1309.08   36.27
   0  -5   2 1258.42   46.04
   0   5   3  100.08    6.55
   0  -5  -3   98.21    6.92
   0  -5  -3   95.21    6.40
   0  -5   3   95.73    5.34
   0  -5  -3   95.12    8.03
   0   5   3   98.99    6.10
   0   5  -3   95.32    4.23
   0  -5   3   99.04    4.53
   0  -5   4   21.76    3.83
   0   5   4   16.52    5.99
   0  -5  -4   16.26    5.02
   0  -5   4   18.07    2.11
   0  -5  -4   11.60    3.91
   0   5  -4   15.27    2.45
   0   5  -4   18.66    2.30
   0  -5  -4   17.79    4.56
   0   5   4   10.57    5.69
   0  -5   4   15.14    2.73
   0  -5   5  152.34    8.24
   0   5   5  166.81    8.92
   0   5  -5  159.03    9.60
   0   5  -5  145.65    9.77
   0  -5   5  157.40    7.89
   0  -5  -5  159.01   10.85
   0  -5   5  153.20    7.52
   0   5   5  155.27   11.00
   0  -5  -5  184.86   11.89
   0  -5  -5  148.19   11.29
   0  -5  -6  462.00   23.02
   0  -5   6  477.24   27.75
   0  -5   6  462.18   18.94
   0  -5  -6  437.66   25.09
   0   5   6  486.52   18.94
   0  -5   6  453.51   15.30
   0   5  -6  469.20   21.28
   0   5   6  422.88   24.10
   0   5  -6  451.17   26.96
   0   5   7  201.95   13.11
   0  -5   7  221.67   12.91
   0   5  -7  219.76   12.31
   0  -5   7  250.71   11.90
   0   5  -7  234.96   12.97
   0   5   7  237.10   14.78
   0  -5   7  239.33   14.79
   0  -5  -7  223.34   13.50
   0  -5  -7  209.54   17.20
   0   5   8  164.11   14.19
   0  -5  -8  162.38   12.20
   0   5  -8  135.41   11.79
   0  -5   8  159.59   11.92
   0  -5   8  142.51   10.82
   0   5  -8  149.13   13.81
   0   5   8  169.66   13.66
   0   5   9   20.14   12.35
   0   5   9    7.64    9.69
   0  -5  -9   23.19    8.38
   0   5  10    6.78   15.83
   0   5  10    4.35   14.06
   0  -5 -10   -6.97    8.41
  -1   5   0  870.81   47.07
   1   5   0  926.28   32.65
   1  -5   0  884.67   29.45
  -1  -5   0  942.63   46.96
  -1  -5   0  906.98   29.94
  -1   5   0  878.93   27.23
   1   5   0  931.79   51.26
   1  -5   0  921.87   33.15
  -1  -5   1 1431.54   52.64
  -1  -5  -1 1509.97   57.32
   1  -5   1 1535.99   72.36
  -1   5  -1 1464.12   66.67
  -1   5   1 1497.28   46.72
   1  -5  -1 1520.05   46.91
   1   5   1 1458.64   46.67
   1   5  -1 1434.05   57.57
   1  -5   1 1535.51   55.03
   1   5  -1 1464.74   59.56
   1  -5  -1 1480.82   42.41
  -1   5   1 1486.78   52.83
   1   5   1 1449.57   53.94
  -1  -5  -1 1526.40   56.22
   1  -5  -1 1553.21   45.04
   1  -5   2  359.37   14.34
   1  -5  -2  416.73   17.65
   1   5   2  387.85   13.88
   1  -5   2  388.93   18.49
   1  -5  -2  409.04   23.32
  -1  -5   2  405.89   18.92
   1  -5   2  376.20   12.83
   1  -5  -2  373.90   13.23
   1   5   2  425.44   15.72
  -1  -5  -2  404.52   22.58
   1   5  -2  403.27   12.98
  -1  -5   2  407.49   15.57
  -1   5   2  381.33   14.06
  -1   5   2  384.04   12.17
  -1  -5  -2  412.18   18.28
   1  -5  -3  360.85   14.33
  -1  -5  -3  347.93   14.83
   1   5   3  322.64   13.43
   1  -5   3  346.44   11.46
   1  -5   3  349.85   16.25
  -1  -5  -3  335.08   20.62
  -1   5  -3  336.21   16.80
   1  -5  -3  325.42   14.36
  -1   5   3  349.11   15.02
   1  -5  -3  370.03   13.03
   1   5  -3  333.81   15.95
  -1  -5   3  328.25   11.73
  -1   5   3  360.64   13.81
  -1  -5  -3  324.54   11.59
   1   5   3  320.81   14.48
  -1   5   3  344.88   13.10
   1  -5   3  327.80   11.60
   1  -5   3  357.17   12.43
   1   5  -3  330.17   11.73
  -1  -5   3  312.26   15.29
   1   5   4  102.45    8.03
  -1  -5  -4   95.24    9.11
  -1   5   4   89.82    7.37
  -1  -5  -4  108.70    9.63
  -1  -5   4   92.31    6.18
   1   5  -4   91.10    6.00
  -1   5   4   98.22    7.60
   1  -5   4   91.25    5.02
  -1   5   4  112.44    7.77
   1  -5  -4   97.58    8.94
   1  -5  -4   87.99    6.87
  -1   5  -4   97.00    5.88
  -1   5  -4   97.01    5.24
   1   5  -4   87.93    5.54
  -1  -5   4  105.37    5.73
   1  -5  -4  111.90    8.93
   1  -5   4   99.82    5.04
   1   5   4   86.63    8.33
  -1  -5  -4   84.54    6.82
   1  -5   4   92.66    4.91
   1  -5   5  414.31   14.70
   1  -5   5  425.51   17.29
  -1   5   5  395.51   16.99
  -1   5   5  392.59   18.47
   1  -5  -5  409.78   24.83
  -1  -5  -5  409.84   16.92
  -1   5  -5  430.83   18.69
   1  -5  -5  398.91   17.11
  -1   5   5  396.48   18.61
   1  -5   5  396.75   12.95
  -1   5  -5  405.25   19.14
  -1  -5   5  388.57   15.29
   1  -5  -5  417.79   24.28
   1   5  -5  409.05   24.39
  -1  -5   5  438.01   19.84
   1   5   5  404.95   19.06
   1   5   5  400.06   16.33
  -1  -5  -5  406.64   17.84
  -1  -5  -5  428.94   24.39
   1   5  -5  444.68   21.54
   1   5   6 1452.97   47.41
   1  -5  -6 1487.89   51.52
  -1  -5   6 1470.68   57.07
   1  -5   6 1554.82   58.15
  -1   5   6 1489.07   48.96
  -1  -5  -6 1413.00   58.23
   1   5  -6 1487.05   86.80
   1  -5  -6 1593.76   79.01
  -1  -5  -6 1476.48   59.60
  -1   5  -6 1503.08   74.67
   1  -5   6 1612.13   62.75
  -1   5   6 1455.97   54.46
   1   5   6 1507.92   58.61
  -1  -5   6 1512.92   73.79
  -1   5  -6 1611.07   74.51
   1   5  -6 1531.06   62.38
  -1   5   6 1511.30   77.47
   1  -5   6 1597.86   59.70
   1   5  -7  174.79   11.22
  -1  -5   7  180.54   12.78
   1  -5   7  177.93   12.10
  -1   5   7  193.70   13.98
  -1   5  -7  170.58   10.54
  -1  -5   7  182.90   11.78
   1   5   7  165.07   15.26
   1  -5   7  187.18   12.62
   1   5  -7  170.89   10.68
   1  -5  -7  189.08   15.44
  -1   5  -7  173.57   12.22
  -1  -5  -7  207.29   19.65
  -1  -5  -7  211.54   12.96
   1   5   7  172.41   14.90
   1  -5   7  182.50   12.80
  -1   5   7  162.26   12.71
   1  -5  -7  162.13   15.11
   1  -5   8  135.05   10.53
   1   5  -8  101.48   12.09
  -1   5   8  151.35   14.28
  -1  -5   8  109.36   10.66
  -1  -5   8  129.84   10.45
   1   5   8  140.53   13.36
  -1   5   8  124.05   14.47
  -1  -5  -8  121.46   11.40
   1   5  -8  133.11   10.59
   1  -5  -8  138.18   12.05
  -1   5  -8  122.32   11.60
   1   5   8  150.89   15.39
  -1   5  -8   98.52   10.78
   1  -5   8  115.11    9.40
   1  -5   8  112.56    9.15
   1   5   9  138.70   18.47
  -1  -5  -9  125.84   12.67
   1  -5   9  138.36   13.73
   1  -5  -9  160.65   15.14
  -1   5   9  144.27   20.30
   1   5   9  123.27   14.48
  -1   5   9  144.06   14.54
   1   5  10   36.11   13.05
  -1   5  10   69.35   14.13
   1  -5 -10   58.10   12.84
  -1   5  10   65.51   15.71
  -1  -5 -10   60.69    9.94
   1   5  10   76.72   20.35
   2  -5   0 2125.50   57.83
  -2  -5   0 2020.83   71.08
  -2  -5   0 2054.28   67.32
  -2   5   0 2045.41   68.70
   2   5   0 2019.19   74.18
   2   5   0 1958.10   80.60
   2  -5   0 2081.42   59.15
   2  -5   0 2105.18   68.69
  -2  -5   1   12.88    2.31
   2  -5   1    8.63    1.55
  -2   5  -1    6.48    1.10
  -2   5   1    8.78    2.27
   2  -5  -1    9.00    2.63
  -2   5   1    7.82    2.40
   2  -5  -1    7.79    2.73
   2  -5  -1   11.01    3.04
   2   5  -1   14.60    2.58
  -2  -5  -1    9.09    2.83
   2  -5   1    8.00    1.20
   2   5   1   13.15    2.82
  -2  -5  -1   14.94    2.52
  -2  -5   1   11.86    3.01
  -2   5   1    7.51    2.30
   2  -5  -2 1307.96   44.06
   2  -5   2 1268.49   57.31
   2   5   2 1328.85   44.71
   2  -5  -2 1289.54   44.46
   2  -5   2 1261.25   50.31
   2   5   2 1310.96   44.65
  -2  -5   2 1328.86   52.32
  -2  -5  -2 1444.37   74.23
  -2   5   2 1312.45   41.62
  -2   5   2 1281.59   35.72
  -2  -5   2 1337.31   47.06
  -2   5   2 1250.90   37.07
  -2  -5  -2 1317.65   39.41
   2  -5  -2 1285.14   40.46
  -2   5   3  127.36    8.48
   2  -5  -3  132.40    8.82
   2  -5   3  132.23    4.81
   2   5   3  145.42    8.57
   2  -5   3  139.52    5.78
   2  -5   3  138.69    7.05
  -2   5   3  145.26    8.77
  -2  -5   3  144.57    6.12
  -2  -5  -3  146.18    8.13
  -2   5   3  137.16    8.12
   2   5  -3  147.07    8.44
   2  -5  -3  126.09    8.39
   2   5   3  145.52    8.63
   2   5  -3  143.04    5.78
  -2   5  -3  133.07    6.06
   2  -5  -3  146.58    7.80
   2  -5   3  131.81    6.96
  -2  -5  -3  151.96    9.52
   2   5  -4  924.78   26.43
   2  -5   4  921.08   27.56
  -2  -5   4  886.18   26.79
   2   5   4  895.87   28.41
  -2   5   4  925.94   36.06
   2  -5   4  908.54   37.61
  -2   5   4  833.69   33.78
  -2   5   4  870.22   25.31
   2  -5   4  852.30   30.93
  -2  -5  -4  935.81   30.21
   2  -5  -4  861.00   27.78
   2  -5  -4  892.69   42.85
  -2  -5  -4  921.36   53.21
  -2   5  -4  881.54   43.77
  -2  -5   4  955.64   30.31
   2   5   4  935.18   28.57
  -2  -5  -4  911.98   40.66
   2   5  -4  903.00   37.72
   2  -5  -4  954.77   32.50
  -2   5   5  122.14    8.96
   2  -5  -5  126.06   10.40
  -2   5  -5  135.70    9.23
   2   5   5  124.51    9.38
   2  -5   5  149.01    5.43
  -2  -5  -5  124.04   11.40
  -2  -5   5  128.94    7.37
   2  -5   5  133.76    7.19
   2   5   5  126.73   10.20
   2  -5  -5  140.55   11.05
  -2   5  -5  137.63    9.43
   2   5  -5  129.00    7.77
  -2   5   5  147.40   12.26
  -2  -5  -5  128.18   11.70
   2   5  -5  126.28    9.01
   2  -5   5  137.47    7.47
  -2   5   5  132.99    8.51
   2  -5  -5  120.90    9.01
  -2  -5   5  111.35    7.39
  -2  -5  -5  129.66    8.60
  -2   5  -6  150.09    8.29
   2  -5  -6  152.88   14.36
   2  -5  -6  160.66   11.97
  -2   5   6  129.63   13.11
  -2   5   6  161.45   12.68
   2   5  -6  142.47   10.42
  -2  -5   6  135.06    9.58
   2  -5   6  154.94    7.62
   2  -5   6  152.96    9.26
  -2  -5  -6  136.59   12.08
   2   5   6  155.41   12.89
  -2  -5  -6  137.49   10.51
  -2   5  -6  156.13   10.31
   2   5  -6  146.06    8.82
   2   5   6  142.26   12.81
  -2  -5   6  131.43   10.15
  -2   5   6  138.52   10.57
   2  -5   6  144.74    8.87
   2  -5  -7  369.45   19.24
  -2  -5   7  374.26   23.60
  -2   5  -7  407.68   29.85
   2   5  -7  411.49   23.73
  -2   5   7  420.69   24.19
   2   5   7  416.78   23.42
  -2  -5  -7  380.47   24.66
   2   5   7  370.88   22.77
  -2  -5  -7  409.09   24.57
   2  -5  -7  310.51   24.93
  -2   5   7  416.17   25.30
  -2   5   7  389.42   20.10
  -2  -5   7  391.32   22.09
   2  -5   7  430.16   18.89
  -2   5  -7  404.49   23.83
   2  -5   7  404.29   20.78
   2   5  -7  388.82   20.37
   2  -5   7  457.21   19.37
   2   5   8   11.91   10.91
  -2   5   8    4.04    9.01
   2   5  -8    1.85    5.79
  -2   5   8    9.11   11.69
  -2  -5   8    9.88    5.36
   2   5  -8    5.16    5.88
   2   5   8   11.63    8.48
   2  -5   8    7.78    5.87
  -2  -5  -8    7.62    6.24
   2  -5   8    5.82    7.68
  -2  -5   8   -0.84    6.48
   2  -5  -8   11.82    9.47
  -2  -5  -8    6.36   13.00
  -2   5   9   41.65   13.35
  -2  -5  -9   19.39    7.55
   2   5  -9   21.23    7.09
   2   5   9   33.79   14.26
  -2  -5   9   11.76    8.85
   2   5   9   -3.49   14.66
  -2   5   9   36.00   15.26
   2  -5   9   22.76    9.80
   2  -5  -9   24.39    8.24
   2   5  10   85.68   30.41
  -2   5  10   81.01   14.30
   2  -5 -10  102.11   12.78
  -2   5  10   94.75   17.13
   2   5  10   85.42   16.76
  -3   5   0 6906.66  220.43
  -3   5   0 6682.86  232.07
   3   5   0 6710.31  216.92
   3  -5   0 6861.39  224.14
  -3  -5   0 6617.74  223.43
   3   5   0 6573.58  208.22
   3  -5   0 6764.70  186.00
  -3  -5   0 7017.30  271.31
   3  -5   1  359.85   11.68
  -3  -5  -1  314.70   12.16
   3  -5  -1  357.59   13.67
  -3  -5   1  317.13   11.94
   3   5  -1  329.45   16.71
   3  -5  -1  359.94   13.16
  -3   5   1  361.92   12.38
  -3   5  -1  350.75   11.16
   3   5   1  302.39   12.98
   3   5   1  333.77   12.95
  -3   5   1  362.61   12.57
   3  -5  -1  373.72   14.05
  -3  -5  -1  315.86   12.01
   3  -5   1  356.22   10.30
  -3  -5   1  308.45   12.99
   3   5  -1  326.38   13.63
  -3   5   2  168.21    8.48
  -3  -5  -2  169.92    7.32
  -3  -5  -2  178.96    8.65
   3  -5   2  150.84    6.56
   3  -5   2  152.52    5.00
  -3   5   2  159.80    8.95
   3   5  -2  176.84    8.53
   3  -5  -2  147.45    7.45
   3  -5  -2  153.82    9.05
  -3  -5   2  167.31    7.52
   3   5   2  162.25    8.99
  -3  -5   2  175.59    7.76
   3   5   2  156.72    8.31
  -3  -5   3 2608.35   77.56
   3  -5   3 2398.93  112.45
   3   5   3 2439.69   89.08
  -3  -5   3 2531.36  117.92
  -3   5   3 2352.94   76.35
   3  -5  -3 2581.40   76.83
  -3  -5  -3 2567.48   88.53
  -3   5   3 2463.14   66.56
  -3   5   3 2598.88   92.47
   3  -5  -3 2564.62   79.23
   3  -5   3 2413.49   81.97
   3   5   3 2499.62   74.98
   3   5  -3 2334.92   85.86
  -3  -5  -3 2470.74   85.91
   3  -5  -3 2470.89   75.66
   3  -5   3 2563.34  116.64
  -3  -5  -4   61.57    6.90
   3  -5  -4   56.00    7.94
  -3   5   4   41.21    5.60
   3  -5  -4   52.38    6.53
   3   5   4   55.87    6.40
  -3  -5   4   63.87    5.58
  -3   5   4   66.32    7.65
   3   5  -4   54.81    4.79
   3  -5  -4   50.53    6.70
  -3  -5   4   48.04    6.27
   3   5   4   66.48    6.39
   3   5  -4   53.63    4.93
  -3  -5  -4   57.69    7.52
  -3   5  -4   55.85    4.47
   3  -5   4   53.59    3.18
  -3  -5  -4   50.84    5.66
   3  -5   4   56.99    3.70
  -3   5   4   49.77    5.87
   3   5   5   59.96    7.57
   3  -5  -5   47.23    6.07
   3   5  -5   50.44    5.36
   3   5  -5   51.70    5.23
  -3   5   5   46.85    7.85
  -3  -5  -5   50.94    5.08
  -3   5   5   51.84    8.80
   3  -5   5   55.82    5.41
  -3   5   5   49.16    6.93
  -3  -5  -5   52.02    8.81
   3  -5   5   51.18    3.83
  -3  -5   5   60.18    6.34
   3  -5  -5   48.31    8.87
   3   5   5   40.97    6.98
  -3  -5  -5   49.64    7.56
  -3   5  -5   54.19    4.92
  -3  -5   5   49.47    5.50
   3  -5  -5   51.44    7.77
  -3   5   6   11.65    8.68
   3  -5   6   27.54    4.11
  -3  -5   6   30.65    5.72
  -3   5   6   17.76    6.68
   3  -5  -6   25.08    5.99
   3  -5   6   19.38    4.64
  -3   5   6   31.40    8.26
  -3  -5   6   24.57    4.53
   3   5   6   27.06    6.81
  -3  -5  -6   33.70    6.04
   3   5   6   20.60    5.61
   3  -5  -6   24.56    8.31
  -3   5  -6   28.52    3.91
   3   5  -6   30.30    4.97
   3   5  -6   26.09    6.88
  -3  -5  -6   33.77    7.10
  -3   5   7  438.16   26.26
   3   5   7  393.64   23.60
   3   5  -7  430.43   24.02
  -3   5  -7  411.59   29.45
   3   5  -7  422.79   23.33
  -3  -5   7  419.70   23.98
   3   5   7  427.08   22.04
   3  -5  -7  405.40   22.22
  -3  -5   7  438.07   21.47
  -3  -5  -7  418.01   20.68
  -3  -5  -7  425.06   25.92
   3  -5   7  412.57   20.71
   3  -5   7  434.85   26.64
  -3   5   7  428.32   23.90
  -3  -5  -8   13.48    5.79
  -3   5   8   16.18   11.48
   3   5  -8    0.65    6.50
  -3  -5  -8  -10.24    8.62
  -3  -5   8    7.29    6.04
   3   5   8   12.93    8.80
  -3  -5   8    6.54    6.44
  -3   5   8   19.37    9.34
   3  -5  -8   16.41    7.94
   3   5  -8   14.32    6.88
   3  -5   8   10.64    5.28
   3   5   8    7.03   12.08
   3   5   9  207.61   18.99
   3  -5  -9  216.30   17.68
  -3   5   9  176.57   17.27
  -3  -5  -9  183.90   14.70
  -3  -5   9  187.91   17.21
   3  -5   9  177.94   17.67
   3   5  -9  206.92   18.12
   3   5   9  194.36   21.39
  -3   5  10  174.85   23.67
   3  -5 -10  185.74   18.19
   3   5  10  233.83   21.11
  -4  -5   0  445.01   15.16
  -4   5   0  428.18   14.91
   4  -5   0  384.37   12.97
   4  -5   0  416.76   13.80
   4   5   0  458.66   15.84
  -4  -5   0  446.19   16.46
  -4   5   0  408.33   16.47
   4   5   0  434.86   18.78
   4  -5  -1  508.71   16.63
  -4  -5   1  535.83   19.83
  -4  -5   1  541.58   18.59
   4  -5   1  478.11   15.28
  -4  -5  -1  514.54   24.51
  -4   5  -1  496.60   16.96
   4  -5   1  502.10   21.86
   4   5  -1  529.25   21.09
   4  -5  -1  527.62   21.20
   4   5  -1  531.44   20.80
  -4   5  -1  501.82   15.56
  -4  -5  -1  539.89   21.89
  -4   5   1  546.60   18.67
   4   5   1  528.18   18.07
   4  -5  -1  521.26   18.08
   4   5   1  534.64   22.54
  -4   5   1  510.47   16.53
  -4  -5   2  350.03   14.53
   4   5   2  354.86   19.36
  -4  -5   2  368.10   13.06
  -4  -5  -2  344.58   13.30
  -4   5   2  404.18   13.11
   4  -5  -2  361.36   13.27
   4   5  -2  349.15   15.04
  -4  -5  -2  356.39   14.46
  -4   5   2  406.25   18.29
   4  -5   2  397.08   13.98
   4  -5  -2  375.54   13.33
   4  -5   2  372.15   12.09
   4   5   2  328.10   14.88
   4  -5  -2  384.72   14.87
   4  -5  -3   34.28    6.91
   4   5   3   18.80    4.55
  -4  -5  -3   34.67    5.40
  -4  -5   3   24.25    3.57
  -4  -5   3   28.28    4.11
  -4  -5  -3   29.68    5.62
   4   5   3   23.74    4.55
   4  -5  -3   30.71    5.17
  -4   5   3   39.11    5.63
  -4   5   3   28.33    5.22
   4  -5  -3   39.50    6.29
   4   5  -3   26.80    4.04
   4  -5   4  592.84   27.11
  -4   5   4  583.86   23.42
   4   5   4  620.32   24.69
   4   5   4  609.30   19.12
  -4  -5  -4  632.47   28.49
  -4  -5   4  595.32   26.48
   4  -5   4  614.96   27.31
   4  -5  -4  622.35   24.21
  -4  -5   4  599.84   22.45
  -4  -5  -4  615.68   24.63
  -4   5   4  603.12   28.40
   4  -5  -4  625.24   28.73
   4  -5  -4  615.29   30.98
   4   5  -4  588.58   23.37
   4   5  -4  618.82   22.17
   4   5  -5  267.95   15.32
  -4   5   5  299.76   14.81
   4  -5  -5  298.31   16.31
   4   5   5  274.38   15.34
  -4   5  -5  292.88   14.10
  -4  -5  -5  282.47   16.46
  -4   5   5  296.81   18.44
  -4  -5  -5  246.08   10.47
   4   5  -5  236.69   13.48
   4  -5   5  299.09   12.86
  -4  -5   5  250.93   13.22
  -4  -5  -5  280.98   17.37
  -4  -5   5  250.78   14.02
   4  -5   5  306.91   10.05
   4  -5  -5  289.76   21.14
   4   5   5  268.56   14.75
   4  -5  -5  282.53   15.55
  -4   5   6  135.59   12.78
  -4  -5   6  146.37   11.67
   4   5   6  148.21   11.94
   4  -5   6  144.91    9.12
  -4   5   6  134.27   11.13
   4  -5  -6  162.15   16.09
  -4   5   6  141.32   11.42
   4   5  -6  125.96   10.63
   4  -5  -6  137.36   11.36
  -4  -5   6  140.79    9.54
  -4  -5  -6  137.34   10.70
  -4   5  -6  173.88   10.77
   4   5  -6  128.28   10.13
   4  -5   6  149.01    8.42
  -4  -5  -6  144.65    8.85
   4   5   6  132.93   12.57
  -4  -5   7  382.13   19.68
   4  -5   7  381.52   18.55
  -4  -5  -7  376.43   22.21
  -4  -5   7  396.17   22.39
  -4   5  -7  376.07   25.02
  -4  -5  -7  365.42   24.86
   4   5   7  398.42   22.78
   4  -5   7  411.80   23.32
  -4   5   7  370.83   21.33
   4   5  -7  380.83   18.55
   4   5   7  393.87   23.58
   4   5  -7  404.36   24.56
   4  -5  -7  411.85   22.29
   4  -5  -8   23.89    7.34
  -4  -5   8   28.05    7.81
   4   5   8   29.58   11.08
  -4   5   8   13.86    9.60
   4   5  -8   28.46    7.66
  -4  -5   8   22.13   10.65
   4   5   8   29.06    8.42
   4  -5   8   23.21    8.18
  -4  -5  -8   30.72    7.51
  -4  -5  -9   30.91   10.11
   4   5   9   24.24   12.02
   4   5  -9   19.32    7.32
  -4   5   9   23.42   12.17
  -4  -5   9   34.78   11.95
   4  -5   9   22.38   10.43
   4   5   9   18.80   11.20
   4  -5  -9   22.73    9.87
   4  -5 -10   15.27   10.91
   4   5  10    4.74   12.89
  -4   5  10   11.49   12.99
  -5  -5   0 3443.32   97.74
   5  -5   0 3568.54  163.93
   5  -5   0 3297.11   90.19
  -5  -5   0 3434.69  108.04
   5   5   0 3308.89  128.61
  -5   5   0 3388.18   94.99
   5   5   0 3361.51  107.34
  -5   5   0 3288.27   97.83
   5  -5   1    8.62    2.25
  -5  -5   1    9.53    3.10
   5  -5  -1   13.59    3.10
  -5  -5   1   11.74    3.10
   5   5   1    9.46    3.33
  -5   5  -1    9.52    1.81
   5   5  -1   15.51    4.19
  -5   5   1   12.04    4.26
   5  -5  -1    9.59    2.94
  -5   5   1   13.75    4.37
   5   5   1    8.12    3.28
  -5  -5  -1   15.52    4.13
  -5  -5  -1    9.94    3.36
  -5   5  -1    8.26    1.51
   5  -5   2  100.51    5.09
  -5  -5   2   93.50    7.30
  -5  -5  -2   98.62    6.82
  -5  -5  -2   83.75    6.67
   5   5  -2   96.22    7.07
   5  -5  -2  100.33    6.46
   5  -5  -2   93.38    7.52
  -5   5   2  103.68    7.15
  -5   5  -2   88.50    3.72
  -5  -5   2  105.95    7.54
   5   5   2  101.09    6.96
   5  -5   2   91.82    4.82
   5   5   2   95.17    6.54
   5  -5  -2  110.79    6.37
  -5   5   2  102.56    6.74
  -5  -5   3   19.77    3.98
  -5  -5  -3   11.74    3.82
   5  -5   3    9.40    2.58
   5  -5  -3   11.73    6.62
   5   5  -3   11.70    4.20
  -5  -5  -3   10.20    4.97
   5  -5  -3    7.10    4.48
  -5  -5   3   11.49    4.87
   5   5   3   18.22    3.85
   5  -5  -3   15.72    4.19
  -5   5   3   16.47    4.52
  -5   5   3   10.85    4.46
   5   5   3    7.75    3.71
  -5   5   4  130.38    8.95
  -5  -5   4  139.50    8.08
   5   5   4  129.92    8.51
   5  -5  -4  139.30   10.33
  -5  -5  -4  146.74    9.38
   5   5  -4  136.45    7.28
   5  -5  -4  134.08   10.66
   5  -5   4  130.12    8.03
  -5  -5   4  146.98    9.81
   5  -5  -4  129.53   10.95
   5   5   4  119.72    9.14
  -5  -5  -4  141.32   10.07
   5   5  -4  129.05    8.47
  -5   5   4  142.26    9.97
   5  -5   5  532.85   20.68
   5  -5  -5  448.86   30.19
  -5  -5  -5  507.83   24.71
   5   5   5  465.27   21.79
  -5  -5  -5  511.15   20.40
   5  -5   5  494.76   18.37
  -5   5   5  498.81   22.08
  -5   5  -5  461.85   23.79
   5   5  -5  506.70   24.20
  -5  -5   5  478.87   20.92
   5   5  -5  473.48   21.98
  -5  -5   5  466.57   22.13
   5  -5  -5  512.29   24.96
  -5   5   5  539.23   25.85
   5   5   5  473.07   32.75
   5   5  -6   83.66    8.70
  -5  -5   6   84.65    9.01
  -5  -5  -6   85.16   11.58
   5  -5   6   87.93    5.61
  -5   5   6   70.58    9.68
  -5  -5  -6   80.41    6.92
  -5  -5   6   81.22    7.99
   5   5   6   98.10    9.21
   5  -5   6   75.66    6.03
   5   5  -6   80.32    8.69
   5   5   6   65.33    9.45
  -5   5  -6   85.44    7.54
   5  -5  -6   69.24    8.68
  -5   5   7   98.48   12.24
   5  -5   7  107.66    8.36
   5   5   7   76.27   10.21
   5   5   7   84.62   10.71
   5  -5  -7  101.71   11.42
   5   5  -7   94.20   10.69
  -5  -5   7   91.91   13.88
  -5  -5  -7   77.53    9.17
   5  -5   7   86.12    8.68
   5   5  -7   87.10    9.06
  -5   5  -7   86.81    9.34
  -5  -5  -7   76.90   10.60
  -5  -5   7   87.33    9.62
   5   5   8   63.45   13.50
  -5   5   8   60.77   12.81
   5  -5   8   71.53    9.34
  -5  -5  -8   64.79    9.97
   5   5   8   51.53    9.75
   5   5  -8   66.13    7.17
  -5  -5   8   52.64   13.70
   5  -5  -8   37.34    9.64
  -5  -5   9   39.59   13.37
   5   5  -9   35.93    9.42
   5  -5  -9   40.98   10.68
   5   5   9   45.01   13.38
  -5   5   9   23.44    9.66
   5   5   9   23.14   15.71
   5  -5   9   40.39    8.37
   6   5   0    3.37    2.79
  -6   5   0    1.70    2.95
   6   5   0    1.77    3.46
  -6  -5   0    3.28    4.00
  -6   5   0    0.60    3.48
   6  -5   0   -5.93    3.18
  -6  -5   0    7.30    3.79
  -6   5  -1  662.34   20.04
  -6  -5  -1  649.66   24.12
   6   5  -1  677.99   25.06
   6   5   1  666.30   23.99
  -6  -5   1  689.71   25.45
  -6   5   1  703.59   23.74
   6   5   1  699.76   23.18
  -6   5  -1  758.91   24.50
  -6  -5   1  712.33   28.90
   6  -5  -1  787.31   31.34
  -6  -5  -1  675.83   30.17
  -6   5   1  745.99   30.67
   6  -5   1  709.85   30.89
   6  -5  -1  718.03   23.29
  -6  -5  -2  176.39   12.29
   6  -5   2  180.28    9.50
  -6   5   2  180.21    9.63
   6   5   2  190.20    9.88
   6   5  -2  192.33   10.12
  -6  -5   2  209.35   11.25
  -6  -5  -2  196.23    9.94
  -6   5  -2  181.46    7.09
  -6   5  -2  170.41    6.44
   6   5   2  196.40    8.65
   6  -5   2  179.11    8.00
  -6   5   2  174.96    8.98
   6  -5  -2  179.70    9.54
   6  -5  -2  186.18   10.29
  -6   5  -2  188.01    9.37
   6  -5  -2  186.84   10.43
  -6  -5   2  188.74   11.52
   6   5   3  570.08   24.39
   6  -5  -3  606.60   25.70
   6  -5  -3  561.62   28.49
   6  -5  -3  560.27   19.89
  -6   5   3  557.91   21.03
  -6  -5  -3  571.49   33.86
  -6  -5  -3  575.06   20.26
   6  -5   3  538.26   20.87
  -6  -5   3  596.36   23.60
   6   5   3  560.48   19.78
  -6  -5   3  584.23   28.81
   6   5  -3  554.03   23.20
  -6   5   3  582.99   32.38
   6   5  -4   72.66    6.85
  -6   5   4   65.36    6.90
   6   5   4   64.39    6.67
   6  -5  -4   74.90    7.75
   6  -5   4   67.15    6.78
  -6  -5  -4   71.48    7.70
  -6  -5   4   73.41    8.55
   6  -5  -4   66.41    8.26
   6   5   4   72.58    8.43
   6  -5  -4   66.55    8.04
  -6   5   4   79.89    8.75
  -6  -5  -4   76.40    7.44
  -6  -5   4   72.93    7.05
   6  -5  -5   92.27   11.30
   6  -5   5  127.36    5.01
   6  -5  -5   91.03   11.36
   6   5   5  133.00    9.86
  -6  -5  -5  117.35   10.39
   6   5  -5  123.09   10.21
   6   5  -5  120.85    9.79
  -6   5   5  114.59   10.40
  -6  -5   5  113.68    9.49
   6   5   5  130.24    9.12
   6  -5   5  119.25    8.33
  -6   5   5  121.24   10.44
  -6  -5   5  131.02   11.20
   6   5   6  274.25   14.79
  -6  -5  -6  276.23   18.04
   6  -5   6  298.64   19.46
   6   5  -6  290.29   17.44
   6  -5  -6  279.97   17.16
   6   5  -6  265.80   18.88
  -6  -5   6  262.82   16.24
   6  -5   6  290.57   13.39
  -6  -5  -6  294.82   16.71
  -6   5   6  275.53   18.93
  -6  -5   6  308.14   19.66
   6   5   6  279.07   18.86
  -6   5  -7  105.19   11.49
   6   5   7   98.29   13.14
  -6  -5   7   93.62   13.16
   6   5  -7   99.95   11.51
   6  -5  -7   76.19   10.75
  -6  -5  -7   75.53    8.68
   6  -5   7   89.26    7.19
  -6   5   7   95.66   15.11
  -6  -5  -7   69.49   13.35
   6  -5   7   87.59    7.62
   6   5   7   92.66   13.08
  -6   5   8  153.47   17.23
   6  -5   8  144.92   11.86
  -6  -5  -8  136.98   10.91
   6   5   8  137.87   13.96
   6   5  -8  142.77   15.31
  -6  -5   8  130.53   16.45
   6  -5  -8  149.05   16.20
   6   5   8  138.89   14.55
  -6   5   9  319.35   26.73
  -6  -5   9  370.71   28.00
   6   5  -9  298.79   22.56
   6  -5  -9  301.24   26.45
   6   5   9  299.85   26.40
   6  -5   9  293.43   22.66
   7   5   0   -0.10    3.04
   7  -5   0    6.89    2.55
  -7  -5   0    7.34    3.30
  -7  -5   0    5.22    2.94
   7   5   0   -0.97    2.88
  -7   5   0    3.47    2.89
  -7   5   0    3.70    2.97
  -7   5  -1   61.78    4.24
  -7   5   1   50.31    5.53
   7   5  -1   58.42    6.05
  -7  -5   1   69.58    6.25
   7   5   1   54.42    5.60
  -7  -5  -1   60.69    6.15
  -7  -5  -1   67.38    5.37
  -7   5  -1   56.03    4.89
   7   5   1   65.89    6.64
  -7   5   1   56.25    5.69
   7  -5   1   52.64    4.10
  -7  -5   1   70.76    5.83
  -7   5  -2  927.50   44.83
   7  -5  -2  971.68   46.71
   7  -5   2  891.38   34.35
  -7  -5  -2  862.55   53.01
  -7  -5  -2  921.97   36.37
   7   5   2  870.60   37.73
  -7  -5  -2  909.53   39.62
   7   5   2  850.76   28.65
  -7  -5   2  941.07   32.59
  -7   5  -2  888.23   29.70
  -7   5   2  908.93   32.33
   7   5  -2  902.55   35.39
  -7   5   2  943.86   34.30
  -7  -5   2  886.93   35.92
   7  -5  -2  921.68   36.92
   7  -5   2  899.54   29.81
  -7   5  -2  852.98   33.04
  -7  -5  -3  284.96   18.75
  -7  -5   3  301.71   16.82
   7  -5   3  327.32   16.43
   7   5  -3  308.69   16.25
   7   5   3  270.60   13.01
  -7  -5   3  304.13   17.31
   7  -5  -3  330.18   16.09
   7   5   3  280.21   13.22
   7  -5  -3  301.47   16.74
  -7   5  -3  297.35   10.67
   7  -5  -3  313.18   18.17
  -7   5   3  315.09   16.94
  -7  -5  -3  265.01   12.01
  -7   5   3  297.36   12.24
   7  -5   4    2.72    4.15
  -7  -5   4    9.84    4.70
   7   5   4    3.42    4.99
   7   5  -4   14.35    4.72
   7  -5  -4   13.54    6.63
   7   5   4    8.36    4.44
  -7   5   4    5.64    5.56
  -7  -5  -4    3.42    4.84
  -7   5   4    7.85    4.79
  -7  -5   4    5.15    4.83
  -7  -5  -4    8.93    5.59
   7  -5  -4    4.56    9.97
   7  -5  -4   -0.93    6.44
   7   5  -5   87.54   10.28
   7   5   5   81.11    8.53
   7  -5   5   80.82    8.48
   7  -5  -5   82.81    9.86
  -7  -5   5   85.14    7.59
  -7   5   5  102.59   11.18
   7   5  -5   71.23    8.64
   7   5   5   94.69   11.47
  -7  -5   5   74.57    7.15
  -7  -5  -5   80.90    8.63
   7   5  -6   83.44    8.90
   7   5  -6   92.77   12.20
   7  -5   6   92.19    8.41
  -7  -5  -6   94.30   13.93
  -7   5   6   89.78   11.42
  -7  -5  -6   89.17    7.77
   7  -5   6   93.27    5.62
   7  -5  -6   98.73   10.33
   7   5   6   91.84    9.32
   7   5   6   92.01    9.40
  -7  -5   6   86.70   11.62
   7  -5  -7   36.52    9.05
  -7   5   7   18.94   12.17
   7   5   7   15.16   12.26
   7   5   7   25.67    8.35
   7   5  -7   34.92    7.22
  -7  -5  -7   26.15    5.05
   7  -5   7   23.06    8.00
  -7  -5   7   22.78    9.41
  -7  -5   8   84.46   13.56
   7   5  -8   86.04    9.35
   7  -5  -8   73.29   13.28
   7  -5   8   84.59   13.34
   7   5   8   81.98   12.70
  -7  -5  -8   92.45    9.78
  -7   5   8   95.86   14.37
   7   5   8   87.77   10.27
   7  -5   9   29.64   11.06
  -7  -5   9   29.55   13.79
   7  -5  -9   35.82   17.19
   7   5   9   43.34   13.08
   7   5  -9   27.38    8.49
  -7   5   9   41.36   12.79
  -8  -5   0   30.81    4.58
  -8  -5   0   29.75    4.45
   8   5   0   34.02    4.66
   8  -5   0   23.85    4.06
  -8   5   0   24.29    4.61
  -8   5   0   35.92    5.37
   8   5   0   24.76    4.28
  -8   5  -1   53.80    3.80
  -8  -5  -1   59.89    6.94
   8   5  -1   57.86    5.38
  -8   5  -1   52.08    4.72
   8  -5  -1   45.94    7.12
   8  -5   1   45.93    3.89
  -8   5   1   47.78    5.36
   8   5   1   57.07    6.88
  -8  -5   1   48.89    7.16
  -8  -5   1   52.99    6.12
   8   5   1   62.57    6.10
  -8   5   1   45.99    5.53
  -8   5  -1   47.81    5.36
  -8  -5  -1   49.49    5.66
  -8  -5   2  182.57   11.70
  -8   5   2  143.60    9.23
   8  -5   2  157.48    8.31
  -8   5   2  173.72   12.13
  -8  -5  -2  158.79   11.75
   8  -5  -2  169.07    9.62
   8   5  -2  158.51   10.16
  -8  -5   2  169.67   12.70
   8  -5   2  163.19    7.11
   8   5   2  172.57    8.99
  -8   5  -2  149.08    6.67
  -8   5  -2  164.84    7.31
  -8  -5  -2  158.45   10.47
   8   5   2  162.68   10.69
  -8   5   3  323.91   15.77
   8   5   3  266.91   16.86
  -8  -5  -3  286.96   16.16
  -8  -5  -3  307.19   21.28
  -8  -5   3  286.78   17.65
   8  -5   3  308.49   15.01
   8   5  -3  287.13   16.40
   8   5   3  266.71   13.36
  -8   5   3  294.52   14.01
  -8   5  -3  271.25   13.36
  -8  -5   3  299.52   17.46
   8  -5  -3  320.74   18.36
  -8   5  -3  311.74   14.58
  -8   5  -3  289.17    9.05
   8  -5  -3  317.21   18.71
  -8  -5  -3  294.82   18.06
   8  -5  -3  336.96   20.53
  -8  -5   4   64.67    6.83
   8   5   4   57.65    7.00
  -8   5   4   68.66    8.86
  -8  -5  -4   52.09    7.72
  -8   5   4   58.41    8.07
   8   5  -4   72.21    8.16
  -8  -5   4   68.99    7.67
   8  -5  -4   53.74    7.53
   8   5   4   69.33    7.88
   8  -5   4   53.57    6.13
   8   5   5  596.20   24.73
   8   5  -5  627.18   36.31
   8   5   5  644.81   39.58
  -8  -5   5  635.64   29.00
   8  -5   5  575.63   29.29
   8   5  -5  594.55   44.78
   8  -5  -5  613.17   33.19
  -8  -5  -5  623.19   35.31
  -8   5   5  594.63   28.29
  -8  -5   6   54.40    8.06
   8   5  -6   49.35    8.74
   8   5   6   55.49    9.64
   8  -5   6   49.32    7.77
  -8  -5  -6   62.82    8.67
  -8   5   6   69.45    9.68
  -8  -5  -6   43.65    8.73
   8  -5  -6   41.18    9.89
   8   5   6   42.67    8.56
   8   5  -7   30.32   10.82
  -8   5   7   37.08   10.54
   8   5   7   53.74   10.26
   8   5   7   29.09    7.81
  -8  -5   7   37.33   11.08
   8  -5   7   35.53   10.03
  -8  -5  -7   52.78    9.50
   8   5  -8  230.90   21.69
  -8   5   8  223.30   20.25
   8  -5  -8  200.36   21.18
  -8  -5   8  191.98   20.96
   8   5   8  192.01   21.47
   8   5   8  178.98   15.67
   8  -5   8  191.54   16.19
   8  -5  -9   60.39   14.91
   8   5   9   41.47   14.91
  -8   5   9   31.57   11.49
   8   5  -9   32.11   10.09
  -8  -5   9   33.63   13.12
   8  -5   9   34.34   15.25
  -9  -5   0    9.68    5.68
  -9   5   0   -2.92    3.46
   9  -5   0    2.24    3.24
   9   5   0    1.11    3.67
  -9  -5   0   13.64    6.04
  -9   5   0    4.41    4.80
   9  -5  -1  149.60    9.40
  -9  -5   1  172.52   12.74
   9   5   1  178.06    9.26
  -9  -5  -1  177.37   12.49
  -9   5   1  174.74    9.03
   9   5   1  161.61   11.19
  -9   5  -1  179.12    9.10
  -9   5  -1  160.81    8.48
  -9   5  -1  161.12    9.07
   9   5  -1  173.67   10.21
   9  -5   1  161.72    9.40
  -9  -5   1  191.27   14.69
  -9   5   1  156.78   10.98
  -9  -5  -1  193.79   12.00
   9   5  -2  917.58   39.51
  -9   5   2  963.81   45.59
  -9  -5  -2  973.68   55.47
   9  -5   2  940.41   32.34
   9   5   2  989.24   33.37
  -9  -5   2  961.34   59.74
  -9  -5  -2  931.66   44.83
  -9   5   2  869.53   31.02
   9  -5   2  888.49   33.05
  -9   5  -2 1004.48   38.81
   9  -5  -2  922.50   37.62
   9   5   2  926.75   39.38
  -9  -5   2  941.42   59.68
  -9   5  -2  886.81   38.10
  -9   5  -3  411.56   18.30
   9   5   3  393.91   23.94
  -9  -5   3  436.84   32.88
   9   5   3  457.32   20.68
  -9  -5   3  443.54   25.70
  -9  -5  -3  432.58   30.17
  -9   5   3  451.57   22.99
  -9   5   3  424.05   19.25
   9   5  -3  429.62   25.27
  -9   5  -3  424.19   18.83
   9  -5  -3  416.98   19.92
  -9  -5  -3  422.48   21.56
   9  -5   3  445.43   23.93
  -9   5  -3  453.30   20.37
  -9   5   4  397.62   20.89
   9  -5   4  429.50   20.62
  -9  -5   4  385.00   21.85
  -9  -5  -4  412.03   23.08
   9   5  -4  392.20   30.13
   9   5   4  394.20   22.10
   9  -5  -4  369.17   18.99
  -9  -5  -4  429.02   32.33
   9   5   4  428.54   26.77
   9   5   5  195.35   15.23
   9  -5   5  208.92   12.96
   9   5   5  186.54   12.65
  -9   5   5  200.07   15.60
  -9  -5   5  215.57   14.13
  -9  -5  -5  191.29   15.72
   9   5  -5  186.01   17.19
   9  -5  -5  192.69   16.02
   9   5   6   18.65    7.40
   9   5  -6   49.05    9.15
   9   5   6   30.44    9.86
   9  -5   6   26.60    7.18
   9  -5  -6   34.66    8.76
  -9   5   6   55.99   12.03
  -9  -5   6   26.90    7.49
  -9   5   7  150.53   19.66
   9  -5   7  154.54   13.11
   9   5   7  142.10   14.17
   9   5   7  140.01   18.04
  -9  -5   7  174.71   18.37
   9  -5  -7  139.57   18.94
  -9  -5  -7  155.13   11.62
   9   5  -7  157.79   19.11
  -9   5   8  140.07   18.39
   9   5   8  165.98   17.26
   9  -5   8  154.32   16.52
   9  -5  -8  182.33   19.57
   9   5  -8  161.80   19.03
  -9  -5   8  179.73   17.40
   9   5   9   29.44   19.32
  -9   5   9    2.62   13.17
  -9  -5   9   27.55   17.38
   9   5  -9   16.60   10.19
 -10   5   0   60.68    5.90
  10  -5   0   62.07    6.22
 -10   5   0   58.26    6.74
 -10  -5   0   62.94    9.35
 -10  -5   0   69.18    6.68
  10   5   0   69.84    7.06
 -10   5  -1   26.79    4.43
  10   5   1   11.47    4.51
 -10   5  -1   21.59    3.35
 -10  -5   1   20.12    6.78
  10  -5  -1   19.67    5.03
 -10   5   1   36.18    7.73
 -10  -5   1   15.88    5.79
 -10  -5  -1   18.85    6.30
  10   5   1   23.34    5.35
 -10  -5  -1   25.90    7.74
  10   5  -1   17.74    4.88
 -10   5   1   18.49    5.79
 -10   5  -1   22.66    3.96
  10   5  -1   17.38    4.88
  10  -5   1   22.83    4.62
  10  -5  -2   90.13    9.96
 -10  -5   2   95.09   13.05
  10   5  -2  111.75   10.37
 -10   5   2   70.13    7.94
  10   5   2   88.86    9.45
  10  -5   2   86.37    6.27
 -10  -5  -2   98.28   10.03
 -10  -5  -2   95.41    8.49
  10   5   2   97.38    9.39
 -10  -5   2   94.16    9.42
 -10   5  -2   80.71    6.73
  10  -5   2   79.98    7.67
 -10   5  -2   71.73    5.52
 -10   5  -2   83.19    5.53
 -10   5   2   89.73    9.23
  10   5   3  180.82   13.40
  10   5  -3  183.21   13.47
 -10  -5  -3  221.54   15.48
 -10   5  -3  212.80    9.09
  10  -5   3  227.41   13.25
  10   5   3  210.78   15.31
 -10   5  -3  231.58   11.03
  10  -5  -3  226.76   16.79
 -10   5  -3  225.14   14.02
 -10   5   3  229.38   12.68
 -10  -5  -3  209.14   13.34
 -10   5  -4  838.02   32.71
 -10  -5  -4  806.75   55.03
 -10   5   4  787.04   36.54
  10  -5  -4  821.88   38.01
  10   5   4  820.47   33.02
  10   5   4  803.67   42.76
 -10  -5  -4  804.60   44.08
  10  -5   4  839.32   43.23
 -10   5  -4  728.99   32.86
 -10  -5   4  716.77   30.08
 -10   5  -4  769.36   34.77
  10   5  -4  783.36   49.72
  10   5   5   83.85   11.53
 -10  -5   5  112.77   12.34
  10   5  -5   97.31   11.69
  10  -5   5  103.93    9.00
 -10   5   5  107.26   11.91
 -10  -5  -5  103.11   11.37
  10   5   5  101.46   10.07
  10  -5  -5   97.98   12.29
 -10  -5  -5   87.37   14.26
 -10  -5   6  345.76   22.45
 -10  -5  -6  319.33   21.07
  10   5   6  342.50   23.44
  10   5  -6  341.06   24.53
 -10   5   6  349.40   24.15
  10  -5   6  354.55   19.03
  10  -5  -6  336.00   24.70
  10   5   6  303.36   21.06
  10  -5   7   63.08   13.09
 -10  -5  -7   48.49    8.25
  10   5  -7   33.88   13.70
  10   5   7   37.45   10.21
 -10   5   7   27.44   15.55
  10   5   7   41.94   10.27
 -10  -5   7   44.88   11.46
  10  -5  -7   45.05   12.43
  10  -5  -8   14.45   12.32
  10  -5   8   13.62   12.47
  10   5   8   -6.30   10.05
 -10  -5   8  -23.67   16.20
  10   5  -8    1.52   10.66
 -10   5   8  -14.30   10.82
 -11   5   0  203.92   13.40
  11  -5   0  220.03   13.66
 -11  -5   0  178.95   15.78
 -11   5   0  227.02   15.23
 -11  -5   0  195.94   14.08
  11   5   0  197.32   11.93
  11   5   1  442.77   23.26
 -11  -5   1  445.43   29.31
 -11  -5   1  472.17   29.68
  11   5  -1  393.72   22.90
  11   5  -1  399.24   21.32
  11  -5  -1  460.43   24.90
 -11   5  -1  471.56   21.70
 -11   5   1  420.38   26.41
 -11  -5  -1  413.45   28.84
 -11   5  -1  462.24   19.81
 -11  -5  -1  449.11   28.56
  11  -5   1  439.57   22.76
 -11   5   1  434.04   21.00
 -11   5  -1  432.48   17.60
 -11  -5  -2  300.64   20.07
 -11   5  -2  280.76   15.31
 -11   5   2  267.39   16.33
 -11   5   2  298.52   21.19
 -11   5  -2  286.24   13.78
  11  -5   2  279.01   14.28
 -11  -5  -2  310.52   16.76
  11   5   2  263.24   16.31
  11   5   2  284.71   15.27
  11  -5   2  272.97   17.26
 -11   5  -2  287.54   12.71
  11   5  -2  278.43   19.29
  11  -5  -2  279.92   17.26
 -11  -5   2  261.55   23.30
  11  -5   3  173.10   13.29
 -11   5   3  164.86   13.17
 -11   5  -3  156.08   10.96
  11  -5  -3  146.22   13.73
  11   5   3  188.35   12.05
  11   5   3  192.86   14.50
 -11   5  -3  163.81    9.60
 -11   5  -3  158.90   12.27
 -11  -5  -3  186.69   13.51
 -11  -5  -3  204.43   13.95
  11   5  -3  198.40   15.00
  11   5  -4  254.88   21.18
 -11   5  -4  258.05   13.57
 -11  -5  -4  263.22   21.05
 -11   5  -4  289.48   15.69
 -11  -5  -4  275.64   16.17
  11  -5  -4  282.22   16.58
 -11   5   4  256.94   17.34
  11   5   4  300.58   20.23
  11  -5   4  277.14   16.88
 -11   5  -4  261.38   12.95
 -11  -5   4  295.36   19.23
  11   5   4  285.12   18.84
  11  -5  -5   40.35    8.45
  11   5  -5   58.57   10.50
  11   5   5   39.96   11.41
  11  -5   5   63.39    9.42
 -11  -5  -5   60.57    7.33
  11   5   5   67.80   10.22
 -11   5   5   66.00    9.87
 -11  -5   5   53.68    9.54
  11  -5  -6   14.79   10.66
  11   5   6   37.64    9.52
  11   5   6   40.44   11.52
 -11   5   6   26.52    9.23
  11  -5   6   14.38    7.16
 -11  -5   6   44.84   10.18
  11   5  -6   23.86    8.67
  11  -5  -7   25.30   15.35
 -11   5   7   21.53   11.05
  11   5  -7   20.71   10.77
  11  -5   7    5.00    7.86
  11   5   7   40.46   11.76
 -11  -5   7   32.30   15.35
 -11   5   8  107.31   17.21
  11   5  -8  126.31   16.95
 -11  -5   8  107.82   16.28
  11   5   8  109.36   16.64
  11  -5   8  118.77   15.85
  12   5   0    6.24    5.34
 -12  -5   0   -1.76    5.59
  12  -5   0    2.40    4.23
 -12   5   0   16.89    6.54
 -12   5   0    6.10    3.97
 -12   5   0   -1.15    7.11
  12  -5   1   79.05    7.44
  12   5   1   74.78   10.23
 -12   5  -1   76.94    6.85
 -12  -5   1  106.84   12.21
 -12   5  -1   78.79    8.43
 -12   5   1   86.98    9.79
 -12  -5  -1   85.46   11.20
 -12   5   1   95.86   10.73
  12  -5  -1   82.65   10.91
  12   5  -1   91.43    9.80
 -12   5  -1   85.27    9.35
  12   5  -1   87.53   10.30
  12  -5   2  568.34   32.31
 -12   5  -2  524.91   57.88
  12   5  -2  550.78   34.14
 -12   5  -2  496.76   34.11
  12   5   2  521.45   27.45
 -12  -5  -2  567.79   39.88
 -12  -5  -2  522.78   37.43
  12   5   2  569.79   29.00
  12  -5  -2  511.41   32.25
 -12   5  -2  510.80   26.36
 -12   5   2  545.49   27.09
  12  -5   2  558.24   78.24
  12   5   3  151.32   13.91
  12  -5  -3  130.24   12.99
  12   5  -3  156.67   12.98
 -12   5  -3  132.35    9.55
 -12  -5  -3  145.61   15.68
  12   5   3  153.81   16.31
 -12   5   3  155.92   15.12
  12  -5   3  123.79   11.32
 -12  -5  -3  156.45   15.08
 -12   5  -3  143.70    8.62
  12  -5   4  252.23   18.19
 -12   5  -4  224.35   14.00
  12  -5  -4  250.34   17.45
 -12  -5   4  238.36   18.09
  12   5  -4  205.44   20.29
 -12   5   4  231.17   17.44
  12   5   4  256.15   20.69
  12   5   4  233.76   20.08
 -12  -5  -4  224.65   16.70
  12  -5   5   23.66    7.63
  12   5   5   50.67   13.24
 -12   5   5   31.99   13.73
  12   5  -5   20.07   11.48
 -12  -5   5   39.51    9.20
  12   5   5   48.90   10.31
  12  -5  -5   20.83   12.77
 -12  -5  -5   40.56    7.41
 -12   5   6   19.07   10.49
  12  -5   6   10.51    8.79
 -12  -5   6    0.12    8.22
  12  -5  -6   19.50   14.18
  12   5  -6    2.65    9.41
  12   5   6    4.63   13.37
  12  -5   7    8.12    8.40
  12  -5  -7   25.00   14.24
  12   5  -7   16.06   11.56
 -12   5   7   28.98   17.46
 -12  -5   7   32.69   15.90
  12   5   7   15.98   14.12
 -13   5   0   -3.85    8.57
  13   5   0    8.78    6.57
 -13   5   0   -1.26    6.39
  13  -5   0    0.16    4.64
 -13  -5   0    0.29    8.62
 -13   5   0    2.52    4.54
  13   5  -1   10.54    7.79
 -13   5  -1    8.09    6.41
  13  -5  -1    7.61    8.45
  13   5   1   23.59    7.29
 -13  -5  -1    7.61    6.18
  13  -5   1    9.79    6.32
 -13   5  -1   14.48    5.90
 -13   5  -1    7.15    4.40
 -13   5   1   12.67    8.29
 -13  -5  -2  118.84   14.15
  13   5   2  161.05   14.95
 -13   5  -2  136.38   10.17
  13  -5  -2  135.34   13.80
 -13   5   2  153.53   13.45
  13  -5   2  141.44   12.92
  13   5  -2  149.99   14.09
  13  -5   2  146.55   10.60
 -13   5  -2  126.77    9.01
  13   5   3   55.86    8.32
  13   5  -3   63.84   11.57
 -13   5  -3   58.85    5.18
  13   5   3   54.92   10.87
 -13   5   3   51.47   10.22
  13  -5  -3   57.45    9.41
  13  -5   3   54.89    9.10
 -13  -5  -3   32.73   13.15
  13   5  -4  134.08   14.09
 -13   5  -4  140.50    8.74
  13   5   4  142.10   15.81
  13   5   4  145.25   12.23
  13  -5   4  151.60   15.06
 -13  -5   4  169.78   15.92
 -13   5   4  135.21   14.44
  13  -5  -4  139.66   13.11
  13   5   5  153.19   16.16
  13   5   5  158.60   16.05
 -13  -5   5  157.18   16.64
  13  -5   5  149.19   14.78
 -13   5   5  151.62   14.81
  13   5  -5  177.62   18.71
  13  -5  -5  168.92   25.05
  13  -5   6   58.51   13.81
 -13   5   6   50.72   14.89
  13   5   6   71.67   14.14
  13   5  -6   46.02   11.69
  13  -5  -6   65.34   14.24
 -13  -5   6   59.63   12.35
  13   5   7   18.41   13.31
  13  -5   7   19.25   14.80
 -13  -5   7   25.27   18.25
 -13   5   7   31.34   11.41
  14  -5   0   28.36    9.86
  14   5   0   21.50    7.41
 -14   5   0   21.41    7.66
 -14   5  -1   73.44    9.66
 -14   5  -1   77.50   10.81
 -14   5   1   69.83    9.84
  14   5  -1   99.90   14.13
  14  -5   1   75.78    8.02
  14   5   1   90.45   11.72
  14  -5  -1   70.60   10.01
 -14  -5  -1   50.76   15.12
  14  -5   2  104.87    9.79
 -14   5   2  134.03   12.07
  14   5   2  113.70   13.43
  14  -5  -2  119.38   13.24
  14   5  -2  104.11   14.75
  14  -5   2  123.05   10.85
 -14   5  -2  111.38    7.76
 -14   5   3  254.42   18.38
  14  -5  -3  236.73   23.87
 -14  -5   3  248.85   23.03
  14  -5   3  252.12   19.97
  14   5  -3  265.85   20.17
  14   5   3  239.01   18.59
 -14   5  -3  251.39   16.87
 -14   5   4   18.88    9.49
  14   5   4   21.46    8.80
  14   5   4   27.27    8.22
  14  -5   4   25.02    7.82
  14  -5  -4   21.13   14.28
 -14  -5   4   16.25    9.62
  14   5  -4   35.23    9.51
 -14   5  -4   32.50    4.51
  14   5   5   38.63   15.90
 -14  -5   5   24.80   11.14
  14  -5  -5   38.44   20.50
 -14   5   5   26.35   10.99
  14  -5   5   17.80    8.41
  14   5  -5    2.15    9.56
 -14  -5   6  109.00   15.99
  14   5   6  121.33   21.97
  14   5  -6   66.84   15.90
  14  -5   6   97.88   14.46
 -14   5   6  139.79   17.74
  15   5   0   11.31   11.21
  15  -5   0    7.56    7.71
 -15   5   0    5.55    6.38
  15   5  -1   76.04   11.75
  15   5   1   78.48   12.75
  15  -5   1   77.49    9.28
  15  -5   1   77.89   12.50
 -15   5  -1   94.33    9.84
  15  -5  -1   72.21   10.10
 -15   5   1   89.38   12.76
  15  -5  -2   58.85   11.27
  15  -5   2   56.30    7.72
 -15   5   2   63.05   12.01
  15   5  -2   72.08   12.64
 -15   5  -2   72.64    8.46
  15  -5   2   48.03   10.33
  15   5   2   58.49   11.69
 -15   5   3   14.11   13.19
 -15  -5   3   28.94   12.75
  15   5  -3   26.03   19.37
 -15   5  -3   10.72    5.53
  15  -5  -3   19.25    9.24
  15   5   3    4.98   10.44
  15  -5   3   15.82   10.82
  15  -5   4   71.90   12.52
  15   5  -4   33.44   12.94
 -15  -5   4   62.33   14.56
  15   5   4   38.70   16.35
 -15   5   4   53.29    9.87
  15  -5  -4   43.82   11.14
  15  -5  -5   54.88   16.02
 -15   5   5   75.52   17.74
  15  -5   5   61.62   10.53
  15   5   5   55.38   12.47
  15   5  -5    9.90   18.75
 -15  -5   5   46.07   10.97
  16  -5   0   10.90   10.26
  16   5   0   36.15   11.21
 -16   5   0   15.83    9.45
  16  -5   1    2.76    6.59
  16   5   1   16.47   12.81
 -16   5  -1    5.07    6.61
 -16   5   1   -8.45    6.86
  16  -5   1    8.76    9.56
  16  -5  -1   -3.93    7.84
  16   5  -1    3.66   11.82
  16  -5  -2   35.03   14.31
  16   5  -2   30.23   11.89
  16  -5   2   44.01    8.18
  16  -5   2   45.67   12.90
  16   5  -2   32.22   14.35
 -16   5   2   36.42   13.25
 -16   5  -2   46.29    8.70
  16   5   2   41.29   11.40
  16   5   3    9.26   12.25
  16   5  -3   25.39   11.10
 -16   5   3   18.78   11.87
  16  -5   3   10.38    7.53
 -16   5  -3   22.37    5.75
  16  -5  -3   36.77   12.89
 -16  -5   3   27.87   11.54
  16   5   4   81.47   19.31
 -16   5   4   86.11   16.59
  16  -5   4  100.87   17.22
 -16  -5   4   63.78   16.75
  16  -5  -4   60.73   16.06
  17  -5   0   24.24   10.38
  17   5   0   -7.87   14.49
 -17   5   0   22.80    8.91
  17  -5   1  105.63   12.82
  17   5  -1  108.82   15.78
 -17   5  -1  103.87   12.47
  17  -5  -1  129.98   16.63
  17  -5   1   85.50   13.95
  17   5   1  118.87   16.78
 -17   5   1  111.53   14.37
  17   5  -2   47.15   13.16
  17  -5   2   57.44   14.21
 -17   5   2   77.69   13.08
 -17   5  -2   74.70    9.10
  17   5   2   67.14   12.40
 -17  -5   2   72.46   15.56
  17  -5  -2   70.37   13.00
 -17  -5   3   50.27   14.45
  17   5   3   72.23   17.98
  17  -5   3   51.12   14.36
 -17   5   3   80.96   15.86
  17  -5  -3   73.15   16.87
  17   5  -3   68.95   15.70
  18   5   0  143.12   23.25
 -18   5   0   87.60   15.27
  18  -5   0  101.00   15.75
  18   5   1   48.10   17.10
  18  -5  -1   32.73   11.76
  18   5  -1   57.10   17.57
 -18   5   1   30.48   10.98
  18  -5   1   30.73   13.13
 -18   5  -1   19.79    6.50
   0  -6   0   54.33    3.74
   0   6   0   50.31    3.83
   0  -6   0   55.83    3.86
   0   6   0   53.13    3.31
   0   6  -1  664.47   22.31
   0  -6  -1  728.72   38.30
   0   6   1  662.94   26.65
   0  -6   1  679.40   22.57
   0   6   1  663.55   19.58
   0  -6   1  666.78   21.42
   0   6  -1  699.65   28.75
   0  -6  -1  683.96   27.68
   0  -6  -2 1688.32   67.72
   0  -6  -2 1710.28   70.00
   0  -6   2 1690.39   73.65
   0   6   2 1664.41   58.27
   0   6   2 1686.25   53.79
   0  -6  -2 1631.26   50.50
   0  -6   2 1682.32   64.66
   0  -6   3  287.60   13.82
   0  -6  -3  288.97   15.14
   0  -6  -3  274.90   10.72
   0   6  -3  288.15   10.87
   0  -6   3  296.65   11.70
   0   6   3  281.23   14.14
   0  -6  -3  293.38   11.39
   0   6   3  286.74   14.00
   0  -6  -4 1100.19   36.27
   0   6   4 1040.71   38.32
   0  -6  -4 1038.82   34.63
   0  -6   4 1055.34   39.10
   0   6   4 1008.47   32.01
   0  -6  -4 1108.31   66.44
   0  -6   4 1053.11   34.13
   0   6  -4 1009.82   41.70
   0  -6  -5  466.69   29.84
   0  -6  -5  454.02   18.96
   0   6  -5  447.72   24.40
   0   6   5  451.74   18.98
   0  -6  -5  422.27   22.46
   0  -6   5  459.11   18.77
   0   6   5  440.53   21.86
   0   6  -5  443.67   19.12
   0  -6   5  446.76   15.16
   0   6   6  277.61   13.58
   0  -6  -6  296.16   16.63
   0   6   6  331.01   18.99
   0  -6  -6  338.97   21.01
   0  -6   6  317.40   15.10
   0  -6   6  314.40   12.49
   0   6  -6  317.05   15.48
   0   6  -6  305.43   23.41
   0   6  -7   85.32    7.57
   0   6   7   86.68   11.13
   0   6  -7   78.32    7.39
   0   6   7   76.95   10.62
   0  -6  -7   88.53    8.96
   0  -6  -7   88.14   13.75
   0  -6   7   87.33    8.56
   0  -6   7   73.86    6.92
   0   6   8   59.95   11.88
   0  -6   8   45.88    7.80
   0  -6   8   59.82    8.12
   0   6  -8   74.54   20.03
   0   6   8   48.40    9.81
   0  -6  -8   59.90   12.74
   0  -6  -9   87.71   11.69
   0   6   9   69.63   14.52
   0   6   9   68.07   12.18
   0   6  10   72.87   14.83
   0   6  10   68.08   18.65
   0  -6 -10   70.54   15.63
   1   6   0  156.24    7.86
   1   6   0  157.91    7.23
   1  -6   0  162.97    7.14
  -1   6   0  162.53    6.65
  -1  -6   0  170.27    6.47
   1  -6   0  169.96    6.78
  -1  -6   0  160.22    8.38
  -1   6   0  161.39    6.86
   1  -6   1 1324.41   38.06
  -1  -6  -1 1435.04   49.43
   1  -6  -1 1281.57   37.11
  -1  -6  -1 1382.22   54.05
   1  -6   1 1368.01   67.94
   1  -6  -1 1313.96   40.45
   1   6   1 1339.28   46.04
  -1   6   1 1291.72   37.69
   1  -6  -1 1352.40   43.18
   1   6   1 1350.96   51.66
   1   6  -1 1359.65   56.76
  -1   6   1 1306.36   42.81
   1   6  -1 1413.93   55.25
  -1  -6   1 1404.74   46.96
  -1   6  -1 1251.79   56.04
   1  -6  -2 1414.03   42.91
  -1   6   2 1433.03   42.98
   1  -6   2 1396.31   47.04
   1   6   2 1432.78   46.14
  -1  -6   2 1429.75   46.43
   1  -6  -2 1370.04   41.90
   1   6   2 1455.96   45.23
  -1  -6  -2 1506.20   56.05
  -1   6   2 1385.25   39.42
  -1  -6  -2 1472.98   60.40
  -1  -6   2 1429.45   45.40
   1   6  -2 1431.52   57.10
   1  -6  -2 1390.57   47.73
  -1   6   3  528.70   22.94
   1   6  -3  549.34   20.76
   1  -6   3  516.23   17.74
   1  -6   3  557.00   25.17
   1  -6   3  557.68   20.20
  -1   6   3  514.15   18.92
  -1  -6  -3  567.62   19.47
   1  -6  -3  545.97   18.87
  -1  -6  -3  596.25   28.27
   1   6   3  596.18   21.91
   1  -6  -3  576.57   21.35
   1  -6  -3  564.87   25.45
   1   6   3  574.30   19.03
   1  -6   3  546.48   20.29
  -1  -6   3  555.02   27.01
  -1   6  -3  516.28   21.15
  -1  -6  -3  564.46   17.27
  -1  -6   3  554.85   26.87
   1  -6   4  152.44    8.67
  -1  -6   4  148.28   11.59
   1  -6  -4  155.49    9.81
  -1  -6  -4  137.56   10.32
  -1  -6   4  156.27    7.41
   1   6  -4  145.21    6.04
  -1  -6  -4  139.20    8.06
   1   6   4  154.84    9.47
  -1   6  -4  166.75    9.82
   1  -6   4  151.18    6.20
  -1   6   4  130.61   11.17
   1  -6  -4  153.80    9.90
   1  -6   4  156.69    7.99
  -1  -6  -4  153.41   12.00
   1   6   4  161.12   11.78
   1  -6   4  152.97    5.80
   1   6  -4  138.15    8.06
  -1  -6   4  151.02    7.37
  -1   6   4  138.24    9.06
   1  -6  -4  157.71   11.47
   1  -6  -5  447.22   18.74
   1  -6   5  404.96   14.63
  -1  -6  -5  420.27   27.76
   1   6   5  417.85   17.76
  -1  -6  -5  440.88   19.22
   1   6  -5  419.95   23.10
  -1  -6   5  445.95   23.29
   1  -6   5  442.69   18.66
  -1   6   5  457.13   22.20
  -1  -6  -5  451.41   29.38
   1   6   5  441.50   21.57
   1  -6  -5  450.14   22.73
   1   6  -5  412.50   23.62
   1  -6   5  426.05   20.45
   1  -6  -5  459.79   23.43
  -1  -6   5  433.75   16.15
  -1   6   5  432.06   18.77
  -1   6  -5  429.99   19.72
   1  -6  -6 1011.30   50.91
   1   6  -6  934.88   47.88
  -1  -6   6  977.84   40.15
   1  -6  -6  986.75   39.10
  -1   6   6 1001.47   39.29
   1   6  -6  916.61   42.95
  -1  -6  -6  932.52   47.16
  -1   6  -6  992.55   49.04
   1  -6   6  962.39   34.38
   1   6   6  893.25   33.06
  -1   6   6  995.89   36.22
  -1   6  -6  991.56   58.81
   1  -6   6 1027.24   44.56
  -1  -6   6  946.19   42.87
   1  -6   6 1019.26   44.29
   1   6   6  874.69   47.69
  -1  -6  -6  905.93   37.12
  -1   6   7   78.11   10.44
   1  -6   7   76.09    8.43
   1   6  -7   82.35    6.13
  -1  -6  -7   55.55   14.24
  -1  -6   7  104.02   10.35
   1   6  -7   94.19    9.08
  -1   6  -7   86.12    7.06
  -1  -6   7   97.17    8.28
   1   6   7   99.00   12.97
   1  -6   7   88.40    5.26
  -1  -6  -7   90.78    8.78
   1  -6  -7   98.32   12.01
   1  -6   7   77.99    7.93
  -1   6   7   88.90    9.49
   1   6   7   84.97    8.91
  -1   6  -7   90.06    8.05
   1  -6   8  400.67   22.64
   1   6  -8  423.11   25.64
   1   6   8  399.99   20.87
  -1   6  -8  398.61   30.74
   1  -6  -8  411.73   21.36
  -1   6   8  416.02   24.41
   1  -6   8  435.02   34.66
  -1   6   8  407.66   25.71
   1   6   8  369.61   21.48
  -1  -6   8  349.14   24.47
  -1  -6   8  417.56   26.33
  -1  -6  -8  406.70   22.20
  -1  -6  -9   46.27    9.58
  -1   6   9   39.58   17.39
  -1   6   9   53.85   12.71
   1  -6  -9   38.39   12.15
   1   6   9   34.78   12.93
   1   6   9   47.58   11.17
   1  -6 -10    8.79   10.85
  -1  -6 -10   -0.47   12.04
   1   6  10    7.12   12.13
   1   6  10    4.70   12.11
  -1   6  10   -2.86   13.61
  -1   6  10    5.19   12.05
   2   6   0   87.60    4.91
   2  -6   0   59.53    3.86
   2  -6   0   68.89    5.46
   2  -6   0   62.46    4.49
  -2  -6   0   86.34    4.84
  -2   6   0   63.67    3.83
  -2  -6   0   88.88    5.26
   2  -6   1 1497.58   42.18
   2   6   1 1534.15   63.81
   2  -6   1 1486.72   48.89
  -2   6  -1 1482.83   66.89
   2   6  -1 1558.74   64.99
   2  -6   1 1573.15   47.12
  -2   6   1 1529.48   43.69
   2  -6  -1 1594.46   47.95
   2   6   1 1617.33   55.13
  -2  -6   1 1572.56   55.08
  -2  -6  -1 1615.51   50.87
   2  -6  -1 1557.71   46.95
  -2   6   1 1539.09   60.01
   2   6  -1 1583.12   69.56
   2  -6  -1 1518.94   45.68
  -2  -6  -1 1549.83   53.48
  -2  -6   2  376.45   16.63
   2  -6  -2  365.66   15.91
   2  -6  -2  350.90   13.46
  -2   6   2  346.57   13.00
  -2  -6  -2  346.54   18.06
   2  -6  -2  355.62   13.86
   2   6   2  339.47   13.61
  -2   6   2  360.20   11.84
  -2  -6   2  366.16   17.89
  -2   6   2  345.89   12.10
  -2  -6  -2  364.14   20.45
   2  -6   2  336.02   12.50
   2   6   2  348.27   14.83
   2  -6   2  325.06   11.14
   2  -6   3  687.27   22.48
   2  -6   3  678.16   24.21
   2   6   3  658.67   24.47
   2   6   3  685.94   22.95
   2  -6  -3  676.80   31.57
  -2   6   3  647.22   25.35
  -2  -6  -3  683.01   23.25
   2  -6  -3  698.23   23.30
  -2  -6  -3  689.33   34.49
  -2  -6   3  712.45   32.49
   2  -6   3  690.33   29.99
  -2  -6   3  727.23   22.97
   2   6  -3  665.34   31.95
  -2   6   3  660.98   22.69
   2  -6  -3  728.88   28.80
  -2   6   3  691.90   27.52
   2   6  -3  720.46   20.32
   2  -6   3  691.31   25.73
   2   6  -4  394.25   19.05
  -2   6   4  379.66   23.16
  -2  -6  -4  381.10   13.61
  -2   6   4  409.81   15.73
   2  -6  -4  360.33   19.71
  -2  -6  -4  371.50   24.20
  -2   6   4  366.30   14.64
   2   6   4  418.33   18.05
   2  -6   4  377.38   16.00
   2  -6   4  346.24   13.56
   2  -6   4  401.19   17.11
  -2  -6  -4  406.39   19.91
   2  -6   4  371.74   23.18
   2   6   4  416.89   17.37
  -2  -6   4  396.59   15.89
   2   6  -4  396.19   14.77
  -2   6  -4  367.91   15.39
   2  -6  -4  359.50   16.54
  -2  -6   4  382.16   19.15
   2  -6  -4  396.70   20.36
  -2  -6   4  390.77   23.14
  -2  -6  -5  236.39   15.99
   2   6   5  247.49   12.81
   2   6  -5  249.19   13.98
  -2  -6  -5  251.34   12.42
   2  -6   5  248.41   12.21
   2  -6  -5  220.28   12.96
  -2  -6   5  243.06   10.93
  -2   6   5  232.11   13.54
  -2  -6  -5  247.62   13.48
   2  -6   5  232.88    9.36
   2   6  -5  272.96   14.16
  -2   6  -5  222.45   13.64
  -2   6   5  257.42   15.45
   2  -6  -5  231.15   15.28
   2  -6  -5  225.63   13.56
   2  -6   5  238.90   10.30
  -2   6   5  252.50   14.95
  -2  -6   5  242.26   11.77
   2   6   5  225.84   14.14
   2   6   6  499.29   22.60
  -2   6   6  525.04   25.68
  -2   6   6  482.79   21.55
   2   6  -6  507.27   31.52
   2   6   6  500.90   22.84
  -2   6  -6  490.04   24.41
   2  -6  -6  509.63   29.94
   2  -6  -6  508.81   25.65
  -2  -6   6  519.86   25.93
   2   6  -6  544.53   30.65
   2  -6   6  508.90   18.54
   2  -6   6  516.79   21.27
   2  -6   6  515.75   27.62
  -2   6   6  495.52   24.82
  -2  -6   6  547.66   29.78
  -2  -6  -6  521.62   27.60
  -2  -6  -6  535.00   23.43
  -2   6   7  246.88   16.87
  -2  -6   7  234.57   13.99
  -2  -6   7  244.44   14.00
   2   6   7  250.61   18.61
  -2  -6  -7  262.48   14.91
   2   6   7  240.22   15.86
   2  -6   7  241.84   14.24
  -2  -6  -7  259.66   17.35
  -2   6  -7  249.35   16.41
  -2   6   7  233.88   17.69
   2   6  -7  255.27   15.16
   2  -6   7  274.81   14.30
   2  -6  -7  274.41   16.54
   2  -6   7  276.50   12.66
   2   6  -7  251.76   14.61
  -2   6   8  149.29   15.95
  -2   6   8  124.56   13.12
   2  -6   8  135.10   12.11
  -2  -6  -8  135.79   13.90
   2   6   8  122.88   13.20
   2  -6  -8  116.66   13.10
   2   6   8  124.46   16.27
  -2  -6   8  118.11   11.41
   2   6  -8  124.03   11.40
  -2  -6   8  121.54   11.82
   2   6   9  147.54   16.48
  -2   6   9  139.07   19.99
   2  -6   9  138.76   11.80
   2   6   9  190.87   17.31
  -2  -6  -9  183.25   15.78
   2  -6  -9  199.76   16.48
  -2   6   9  168.95   20.12
   2  -6 -10   48.15   13.03
   2   6  10   69.58   14.89
  -2   6  10   41.08   13.37
  -2   6  10   45.49   14.06
   2   6  10   45.66   15.46
  -3   6   0  592.93   19.16
  -3  -6   0  648.05   26.35
   3  -6   0  635.07   20.43
   3   6   0  635.79   28.96
   3  -6   0  620.81   18.24
   3  -6   0  657.51   19.15
  -3  -6   0  682.49   21.51
   3   6   0  661.52   22.49
  -3  -6   1  977.42   31.34
   3   6   1  937.87   28.07
  -3   6   1 1009.47   35.21
   3  -6  -1 1016.36   31.09
   3  -6  -1 1005.91   33.98
  -3  -6  -1  949.75   32.84
   3  -6  -1  997.03   34.70
   3   6  -1  951.93   40.03
   3  -6   1  987.55   28.41
  -3   6  -1  964.18   39.02
   3   6   1  963.30   31.21
   3   6  -1  943.14   43.70
   3  -6   1 1028.29   29.62
  -3  -6   1  928.28   33.95
  -3  -6  -1  980.05   35.94
  -3   6   1 1044.47   28.77
   3  -6   2 1927.48   78.38
   3  -6  -2 1962.45   56.20
  -3   6   2 1927.38   69.03
   3  -6  -2 2015.55   70.79
   3  -6   2 2049.43   61.84
   3   6   2 1950.56   77.76
   3  -6  -2 2157.53   64.36
  -3  -6  -2 2008.09   89.18
   3  -6   2 1978.37   69.91
  -3  -6   2 2041.63   65.71
  -3  -6  -2 2068.34   61.95
  -3   6   2 1988.70   65.65
  -3   6   2 2041.40   70.12
  -3  -6   2 1968.39   78.87
   3   6   2 2060.03   65.80
   3  -6   3  929.34   36.67
   3  -6  -3  863.77   34.41
  -3  -6  -3  968.46   32.59
   3  -6  -3  864.20   29.90
  -3   6   3  893.31   32.91
  -3  -6  -3  988.90   38.68
   3   6   3  904.83   31.59
  -3   6   3  893.56   48.97
   3  -6   3  910.05   31.81
  -3   6   3  838.09   28.63
   3  -6   3  846.05   32.03
   3  -6   3  865.38   30.60
  -3  -6   3  941.81   28.42
   3  -6   3  839.10   30.98
   3  -6  -3  877.17   33.22
   3   6  -3  910.04   39.46
   3   6   3  883.78   33.85
  -3  -6   3  914.58   37.38
   3   6  -4 1475.82   61.62
  -3  -6   4 1569.76   66.02
   3  -6   4 1549.25   53.24
   3  -6   4 1495.76   82.38
  -3  -6  -4 1533.48   47.81
   3  -6   4 1467.06   54.77
   3  -6  -4 1473.73   47.33
   3  -6  -4 1511.21   71.88
  -3   6   4 1451.74   47.21
  -3   6   4 1472.29   52.59
  -3   6   4 1506.34   55.65
  -3  -6  -4 1495.22   51.80
   3   6   4 1505.82   49.21
  -3  -6   4 1485.39   49.94
   3   6  -4 1547.64   51.16
  -3  -6  -4 1597.00   80.11
   3   6   4 1505.46   67.55
   3  -6  -4 1571.20   75.90
   3  -6  -5  501.13   30.95
  -3   6   5  535.51   18.65
   3   6   5  515.65   21.36
  -3   6  -5  457.07   24.95
  -3  -6  -5  497.95   18.58
  -3  -6   5  525.66   21.05
   3   6  -5  534.06   22.71
   3   6   5  491.06   19.34
   3  -6  -5  499.39   25.34
  -3  -6  -5  491.19   34.90
   3  -6   5  505.06   22.11
  -3   6   5  502.70   21.94
   3  -6   5  515.84   17.44
  -3   6   5  520.13   24.83
   3  -6  -5  503.44   28.20
  -3  -6  -5  544.29   22.63
  -3  -6   5  524.77   28.66
   3   6  -5  534.80   25.26
  -3  -6   6  291.03   19.36
  -3  -6  -6  313.85   18.49
  -3   6   6  326.10   18.63
   3  -6   6  306.67   12.78
   3  -6   6  312.19   15.46
  -3   6  -6  310.11   17.70
   3  -6  -6  271.67   17.26
   3   6   6  310.99   16.24
   3   6  -6  303.16   17.91
  -3   6   6  306.94   15.69
   3   6  -6  283.39   18.61
   3  -6  -6  328.10   21.40
  -3   6   6  317.53   18.70
  -3  -6   6  286.80   15.27
   3   6   6  271.26   17.00
  -3  -6  -6  316.55   17.43
   3   6   7  124.84   11.83
   3   6  -7  136.93   11.09
   3  -6   7  151.49   12.59
  -3   6   7  167.00   15.76
  -3  -6  -7  145.22   12.69
  -3   6  -7  137.06   11.77
  -3   6   7  125.86   12.77
   3   6  -7  139.41   12.03
  -3  -6  -7  135.99   15.10
  -3  -6   7  132.40   12.26
   3  -6  -7  146.65   12.97
  -3  -6   7  127.25   10.22
   3   6   7  145.00   15.60
   3  -6   7  149.98    9.70
  -3  -6  -8   13.24    6.51
   3   6  -8    7.44    4.58
  -3  -6   8    5.74    6.60
   3  -6   8    1.51    5.51
   3  -6  -8    3.10    7.78
   3   6   8    4.42    8.53
   3   6   8    3.14    9.33
  -3  -6   8   -3.46    6.37
  -3   6   8    2.69    6.99
  -3   6   8    7.07    9.51
   3   6  -9   77.07    9.36
  -3  -6  -9  114.69   13.74
   3  -6   9   73.97   10.46
   3   6   9   97.20   14.12
  -3   6   9   86.72   14.10
   3   6   9   70.59   12.62
  -3   6   9   86.42   14.60
   3  -6  -9   87.06   12.70
   3  -6 -10  169.84   20.26
  -3   6  10  181.07   22.66
   3   6  10  212.71   23.47
   4  -6   0 3630.15  144.78
  -4  -6   0 3404.74   97.80
   4  -6   0 3678.37   98.66
   4   6   0 3366.53  103.35
   4   6   0 3337.49  116.73
  -4   6   0 3677.29  101.63
  -4   6   0 3447.90  102.79
  -4   6   1  846.49   24.26
   4   6   1  791.83   32.81
   4   6   1  817.73   35.88
   4  -6   1  807.93   21.65
  -4   6   1  825.47   33.66
  -4  -6   1  806.69   24.91
  -4  -6  -1  825.57   29.29
   4   6  -1  846.07   33.51
  -4  -6   1  831.02   33.39
  -4   6  -1  819.12   28.38
   4  -6  -1  854.01   25.90
  -4  -6  -1  818.49   34.44
   4  -6   1  807.25   34.26
   4  -6  -1  866.03   26.19
   4  -6  -1  865.37   31.37
   4   6  -1  790.46   27.95
   4  -6   2 1024.02   35.27
  -4  -6   2 1056.03   41.41
   4  -6  -2 1019.47   38.76
  -4  -6  -2 1069.04   32.75
   4  -6   2 1023.11   32.64
  -4  -6   2 1035.50   33.78
  -4  -6  -2 1086.97   51.44
  -4   6   2  998.54   37.43
   4   6   2 1009.70   34.18
   4  -6  -2 1021.39   29.55
   4   6   2 1012.74   31.09
  -4   6   2 1068.82   34.05
   4  -6  -2 1058.36   34.81
   4   6   3   60.07    5.98
  -4  -6  -3   57.33    6.90
  -4  -6   3   60.00    6.21
   4  -6  -3   51.25    6.01
  -4  -6   3   58.26    5.37
  -4   6   3   54.94    6.13
   4  -6  -3   49.14    6.89
  -4  -6  -3   52.08    7.06
  -4   6   3   51.82    5.73
   4  -6   3   44.34    3.70
   4   6  -3   59.25    5.49
   4   6   3   48.51    6.34
   4  -6  -4  675.59   33.49
  -4  -6  -4  683.14   26.40
   4  -6   4  685.65   26.37
  -4  -6   4  715.51   32.56
  -4  -6   4  710.22   27.52
   4   6   4  642.85   22.28
   4   6  -4  686.27   28.95
  -4  -6  -4  656.17   31.07
   4   6   4  703.23   26.37
   4  -6  -4  688.31   40.83
  -4   6   4  685.77   23.83
  -4  -6   4  702.11   39.64
   4   6  -4  679.90   25.54
   4  -6  -4  687.73   30.52
  -4   6   4  683.92   31.63
   4   6  -5  127.01    8.09
   4   6   5  118.88   10.84
  -4  -6  -5  129.60   11.69
   4  -6   5  142.29    6.35
   4  -6  -5  140.54   12.50
  -4  -6   5  115.97    9.73
   4  -6   5  137.50    9.10
   4   6  -5  125.34    8.54
   4   6   5  109.79    8.16
  -4   6  -5  129.45    8.76
   4  -6  -5  166.14   11.89
   4  -6   5  120.89    7.00
  -4   6   5  149.24   13.34
  -4  -6   5  122.90    9.41
  -4   6   5  144.13   10.98
  -4  -6  -5  119.22    9.11
   4  -6   6    9.82    2.66
  -4   6   6    8.71    6.75
  -4  -6   6   11.70    4.89
   4  -6  -6    6.99    8.76
   4   6  -6   12.51    4.58
  -4   6  -6    9.72    2.99
   4   6  -6   14.04    4.49
   4  -6   6    7.34    4.79
  -4  -6  -6    8.18   10.65
   4   6   6   16.61    8.92
   4   6   6   15.75    6.39
  -4  -6  -6   17.71    5.36
  -4  -6   6   12.38    7.38
   4   6   7   52.55    8.80
  -4   6   7   30.85    8.76
  -4  -6   7   42.16    7.56
   4   6  -7   45.51    9.25
  -4  -6   7   46.68    9.95
   4  -6   7   44.56    7.00
  -4  -6  -7   39.71   10.08
  -4   6  -7   44.18    6.69
   4   6  -7   46.39    6.90
   4  -6  -7   42.12    7.15
   4   6   7   37.49    9.24
   4  -6   7   42.79    5.95
  -4  -6  -7   35.71    6.49
  -4  -6  -8   74.04   10.32
  -4  -6   8   58.55   10.99
   4   6   8   93.21   11.67
  -4  -6   8   90.43   10.35
   4  -6   8   97.04    9.21
   4  -6  -8   74.09   10.61
  -4   6   8   84.06   16.37
   4   6   8  108.98   11.18
   4   6  -8   97.88   10.23
   4  -6  -9  160.56   18.93
   4   6   9  162.70   17.47
   4   6  -9  168.78   14.61
  -4  -6  -9  149.49   14.57
   4   6   9  176.27   18.83
   4  -6   9  169.81   14.38
  -4   6   9  157.49   17.73
  -4  -6   9  152.43   17.48
   4   6  10  208.55   20.82
   4  -6 -10  173.61   17.38
  -4   6  10  168.62   17.61
  -5  -6   0   53.77    6.11
   5   6   0   59.92    6.40
   5   6   0   48.83    5.45
   5  -6   0   41.60    4.12
  -5   6   0   46.36    3.90
   5  -6   0   46.60    3.89
  -5   6   0   40.11    4.14
   5  -6  -1  166.12    7.60
   5   6  -1  184.54    8.67
   5  -6   1  159.11    8.31
   5  -6  -1  156.39    9.00
   5  -6  -1  170.00    9.02
  -5  -6  -1  155.71   10.58
  -5   6  -1  150.36    5.83
   5   6  -1  167.01    8.48
  -5   6   1  167.82    7.40
  -5   6  -1  161.98    5.80
  -5   6   1  172.31    9.70
  -5  -6   1  169.93    9.89
   5   6   1  159.93    9.39
  -5  -6  -1  163.74    8.92
   5  -6   1  167.45    6.53
   5   6   1  184.47   10.02
  -5  -6   1  159.40    8.33
   5   6   2   67.82    6.64
   5  -6   2   90.65    4.21
  -5  -6   2   77.25    6.33
   5  -6  -2   95.54    6.99
   5  -6  -2   84.27    6.74
   5   6   2   67.53    5.36
   5  -6   2   83.00    5.37
  -5   6   2   85.67    6.80
   5   6  -2   69.88    6.32
  -5  -6  -2   79.11    6.90
  -5  -6  -2   88.63    6.18
  -5   6   2   96.28    7.82
  -5  -6   2   72.07    6.80
   5  -6  -2   86.98    6.89
  -5  -6   3   35.33    5.18
   5  -6  -3   30.52    5.60
   5  -6  -3   21.34    6.71
   5   6   3   36.41    5.88
  -5   6   3   25.02    5.44
  -5  -6   3   25.56    4.84
  -5   6   3   29.91    5.44
   5  -6  -3   30.40    5.49
   5   6   3   38.61    4.75
  -5  -6  -3   31.98    6.19
  -5  -6  -3   30.39    6.00
   5   6  -3   32.19    5.23
   5  -6   3   21.76    3.34
   5   6  -4  126.76    9.38
   5  -6  -4  131.57   11.97
   5  -6   4  124.21    7.11
  -5  -6  -4  104.21    9.79
  -5  -6   4  110.76    9.55
   5   6   4  126.18    8.70
  -5  -6  -4  101.52    9.82
  -5   6   4  132.53    8.50
  -5  -6   4  129.58    8.53
  -5   6   4  140.09    9.44
   5  -6  -4  138.38   12.90
   5   6   4   99.34    9.89
   5  -6  -5   54.04    9.05
   5  -6  -5   40.84    7.60
  -5  -6  -5   45.96    8.07
   5  -6   5   47.63    5.68
   5   6   5   41.32    7.16
  -5  -6   5   51.82    7.07
   5   6   5   35.19    6.25
  -5  -6   5   39.34    7.88
  -5   6   5   48.41    8.77
  -5   6   5   47.06    7.75
   5   6  -5   44.14    6.26
   5   6  -5   35.51    5.53
  -5  -6  -5   41.65    7.05
  -5  -6   6   87.27    8.62
  -5   6   6   90.33    9.19
   5  -6  -6   98.36   11.03
   5  -6   6   91.13    7.01
  -5   6  -6   98.79    7.85
   5   6   6  103.48   12.35
  -5  -6  -6   89.41   12.42
   5   6   6   93.97   10.01
  -5  -6   6   88.94   11.18
   5  -6   6  104.17    6.98
  -5  -6  -6   82.41    7.80
   5   6  -6   92.64    8.08
   5   6  -6   81.00    7.64
  -5  -6  -7  180.25   14.63
   5   6  -7  176.03   14.01
  -5   6  -7  177.01   12.28
   5  -6   7  186.71   11.88
  -5  -6   7  179.61   15.27
   5   6   7  178.82   14.28
  -5   6   7  156.41   15.48
  -5  -6   7  175.75   14.02
   5  -6   7  196.41   11.57
  -5  -6  -7  143.50   18.09
   5   6   7  156.26   15.94
   5   6  -7  177.49   15.03
   5  -6  -7  167.21   12.70
   5  -6  -8   19.48   12.89
  -5  -6   8   14.12   11.76
  -5  -6  -8   19.51    8.61
   5  -6   8   12.04    6.59
   5   6   8    8.36    6.88
   5   6  -8   22.20    6.64
  -5   6   8    9.66    8.53
   5   6   8    3.40   13.29
   5   6   9   27.45   12.26
   5  -6  -9   61.95   13.66
   5  -6   9   52.78   11.87
  -5   6   9   31.19   12.42
  -5  -6   9   32.19   10.63
   5   6  -9   26.67    9.45
  -5  -6  -9   24.61    7.43
   5   6   9   38.62   17.48
  -6   6   0 2578.72   76.32
   6  -6   0 2794.19  116.14
  -6  -6   0 2706.04  109.06
  -6   6   0 2752.49   92.41
   6  -6   0 2751.20   80.73
   6   6   0 2635.50   96.88
   6   6   0 2681.84   97.33
  -6  -6   0 2735.81  106.12
  -6  -6   1  591.21   26.82
  -6   6  -1  602.25   17.80
   6  -6  -1  652.59   27.70
   6   6  -1  549.06   19.20
   6   6   1  621.14   21.63
   6  -6   1  598.13   17.48
  -6   6   1  565.87   20.31
  -6  -6  -1  596.75   33.15
  -6  -6  -1  574.73   21.80
   6   6   1  561.93   19.29
   6   6  -1  590.12   20.61
  -6  -6   1  591.42   29.67
  -6  -6  -1  576.13   22.88
  -6   6  -1  579.12   18.29
  -6   6   1  573.69   23.74
   6  -6  -1  587.69   22.12
   6   6  -2  119.22    8.50
  -6  -6  -2  125.48    7.98
  -6   6  -2  115.25    4.94
  -6   6   2  108.48    7.25
  -6  -6   2  111.59    7.97
   6   6   2  115.74    7.49
   6  -6  -2  116.49    7.48
  -6  -6   2  118.88   10.25
   6  -6  -2   94.03    7.47
  -6  -6  -2  105.09    9.06
  -6   6  -2  106.67    5.53
   6  -6   2   98.74    5.24
  -6   6   2  104.96    7.27
   6  -6  -2  103.88    7.73
   6   6   2  132.88    7.99
   6   6   3  132.62    8.39
  -6  -6  -3  140.27   10.98
  -6   6   3  152.73   10.89
   6   6   3  136.92    8.09
   6  -6  -3  160.83   12.00
   6   6  -3  140.33    8.64
  -6  -6   3  143.03    9.06
   6  -6  -3  140.89    9.93
   6  -6   3  147.11    7.38
  -6   6   3  162.37    9.77
  -6  -6   3  137.74   10.45
  -6  -6  -3  149.60   10.75
   6  -6  -3  131.32    9.05
  -6  -6  -4  144.26   12.57
   6  -6  -4  176.00   12.62
   6  -6  -4  154.30   13.35
   6   6   4  150.90   10.74
  -6   6   4  178.90   13.66
  -6  -6  -4  146.89   13.29
   6   6  -4  149.04   10.59
   6  -6  -4  161.16   10.90
   6   6   4  151.42   11.02
  -6  -6   4  134.86   12.78
   6  -6   4  150.84    9.54
  -6  -6   4  164.03   10.25
  -6   6   4  168.50   11.29
   6   6  -5  492.22   22.63
  -6  -6  -5  489.48   23.82
  -6  -6   5  476.33   18.86
  -6   6   5  502.66   29.26
  -6  -6   5  492.86   26.50
  -6   6   5  494.83   26.15
   6  -6  -5  500.51   24.41
   6   6  -5  515.90   32.94
   6  -6   5  519.60   23.76
   6   6   5  491.88   26.72
   6   6   5  470.29   17.93
   6   6   6   64.11    9.41
   6   6  -6   82.41   10.87
   6   6  -6   62.78    7.50
   6   6   6   58.06    8.85
  -6   6   6   85.75   10.45
  -6  -6  -6   62.02    8.28
  -6  -6  -6   52.59    9.37
  -6  -6   6   58.53    8.68
   6  -6  -6   88.70    9.79
  -6  -6   6   55.23    8.28
   6  -6  -7  206.92   15.41
   6   6  -7  145.14   13.31
  -6  -6   7  222.76   17.23
   6   6  -7  171.16   15.17
  -6   6   7  190.27   14.24
   6  -6   7  184.47   13.83
  -6  -6  -7  143.38   19.55
   6   6   7  210.08   18.98
   6   6   7  184.79   16.90
  -6  -6  -7  177.78   13.54
   6  -6  -8   16.90   10.69
  -6  -6  -8    1.85    5.82
   6   6   8   11.33   11.67
  -6  -6   8    0.41    9.18
   6  -6   8   16.27    9.93
   6   6   8   14.21   10.57
  -6   6   8   13.28    8.95
  -6  -6   9   87.27   13.28
   6   6   9   92.16   14.80
  -6   6   9   76.46   15.37
   6  -6  -9  119.22   17.97
   6   6  -9  120.52   15.28
  -7  -6   0   19.57    4.54
  -7   6   0   25.03    5.28
   7   6   0   26.68    4.19
   7  -6   0   19.80    3.24
  -7  -6   0   31.92    5.79
   7   6   0   23.67    4.83
  -7   6   0   18.59    3.34
   7  -6  -1  189.27    9.31
  -7   6   1  197.27   10.53
   7   6   1  176.39   10.41
  -7  -6   1  179.93   11.68
  -7  -6   1  181.82   12.97
   7   6  -1  182.10    9.20
   7  -6  -1  196.83   10.30
   7   6   1  192.10    9.33
  -7   6  -1  186.37    7.66
  -7   6  -1  181.57    8.55
   7  -6   1  192.60    9.60
  -7  -6  -1  191.12   11.88
  -7   6   1  195.13    8.45
  -7  -6  -1  191.11   11.29
  -7   6  -2   52.14    3.56
   7  -6  -2   54.64    7.58
   7  -6  -2   39.03    7.06
   7   6   2   48.24    6.18
  -7   6   2   53.50    5.49
  -7  -6  -2   59.95    6.07
   7  -6  -2   45.82    5.80
  -7  -6   2   54.60    6.92
  -7   6   2   51.08    5.78
   7  -6   2   51.96    3.42
  -7   6  -2   45.75    2.55
  -7  -6   2   43.32    6.17
   7   6   2   61.36    6.29
  -7   6  -2   42.32    3.52
  -7  -6  -2   46.67    6.52
   7   6  -2   60.84    7.40
   7  -6   3  373.66   17.82
  -7  -6   3  397.48   19.63
   7   6  -3  359.65   20.73
   7  -6  -3  375.21   22.77
   7  -6  -3  387.91   19.78
  -7  -6  -3  400.98   18.63
   7  -6  -3  365.97   16.07
  -7   6   3  338.89   15.89
   7  -6   3  353.06   18.86
  -7  -6   3  382.76   21.28
   7   6   3  396.13   18.12
   7   6   3  357.02   17.61
  -7  -6  -3  391.06   28.96
  -7   6   3  375.29   21.16
   7  -6  -4  376.49   24.03
  -7  -6   4  417.09   26.25
  -7  -6  -4  451.99   23.11
   7  -6  -4  361.82   18.99
   7  -6   4  384.23   19.50
  -7   6   4  398.95   23.83
   7   6   4  443.72   20.90
  -7  -6   4  437.02   23.49
   7   6  -4  421.67   18.78
   7   6   4  454.62   24.22
  -7   6   4  419.10   19.94
   7   6  -5  164.13    9.52
  -7  -6   5  177.66   13.44
  -7  -6   5  170.75   10.20
  -7  -6  -5  164.30   11.85
  -7   6   5  162.94   13.76
   7  -6   5  165.28    9.69
   7   6   5  170.12   14.47
   7   6  -5  166.61   13.36
   7   6   5  144.04   12.97
   7  -6  -5  183.39   11.53
  -7   6   6  231.20   17.82
  -7  -6   6  273.08   19.25
   7   6   6  260.88   17.00
   7  -6  -6  261.17   21.25
   7   6  -6  262.72   20.04
  -7  -6  -6  224.07   19.28
   7  -6   6  245.18   14.92
   7   6  -6  229.45   17.12
   7   6   6  274.70   18.84
  -7  -6  -6  255.21   16.06
  -7  -6  -7  116.77   10.66
   7   6   7  128.79   15.42
   7   6   7  125.28   13.14
   7  -6   7  115.53   11.72
  -7  -6   7  109.54   13.90
   7  -6  -7  117.96   11.95
  -7   6   7  103.55   15.11
   7   6  -7   93.52   12.34
   7   6  -8  129.47   17.20
   7  -6  -8  145.18   17.17
   7   6   8   97.99   18.62
   7  -6   8  138.14   14.26
  -7  -6   8  133.88   15.87
   7   6   8  168.51   18.51
  -7   6   8  150.20   17.78
  -7  -6  -8  150.07   14.54
   7  -6  -9   16.12   17.04
  -7   6   9   11.48   13.18
   7   6  -9    7.04    7.94
   7   6   9  -10.39   12.69
  -7  -6   9   -4.68   11.54
   8  -6   0 1043.27   45.21
   8   6   0 1047.10   34.57
  -8  -6   0 1035.20   46.85
   8   6   0 1069.68   40.94
  -8   6   0 1094.58   39.22
  -8  -6   0 1115.28   57.61
  -8   6   0  963.89   31.35
  -8   6  -1  350.26   14.22
   8   6  -1  335.64   14.44
  -8  -6  -1  361.29   20.45
  -8   6   1  356.18   16.67
  -8  -6   1  340.18   19.62
  -8   6   1  329.76   12.61
  -8  -6   1  343.58   20.01
  -8   6  -1  360.57   14.98
   8  -6   1  349.27   15.36
  -8  -6  -1  382.00   22.33
   8  -6  -1  334.16   14.93
   8   6   1  368.27   15.56
   8   6   1  346.56   16.77
  -8  -6   2  185.71   13.06
  -8   6   2  155.46    9.34
   8  -6   2  167.24    7.58
  -8   6  -2  159.42    7.93
   8   6  -2  171.07    9.80
   8   6   2  170.45   11.51
   8  -6  -2  172.62   10.23
  -8   6  -2  149.00    6.93
  -8   6  -2  150.84    7.93
  -8  -6  -2  165.46   12.32
  -8   6   2  158.25   11.36
   8  -6  -2  136.16   11.48
  -8  -6  -2  182.73   15.59
   8   6   2  159.53   12.58
  -8  -6   2  157.84   12.02
   8  -6  -3   93.58    8.38
   8  -6  -3  107.06   10.84
  -8   6  -3   98.18    4.40
  -8   6   3   99.86    9.82
  -8  -6   3   88.36    8.37
   8  -6   3  102.40    5.09
   8   6  -3   78.81    8.55
   8  -6  -3  119.63    9.40
  -8  -6   3   99.56   11.30
  -8  -6  -3   79.16   10.21
   8  -6   3  108.16    7.51
   8   6   3   95.90    8.64
  -8  -6  -3   89.86    9.70
  -8  -6  -3   81.80    7.46
   8   6   3   99.82    7.88
  -8   6   3   99.33    9.56
   8   6   4  341.48   21.17
  -8  -6   4  377.67   23.79
  -8   6   4  355.10   24.91
   8   6   4  316.18   16.09
  -8  -6  -4  362.76   22.01
   8  -6  -4  387.38   20.21
   8   6  -4  330.19   20.94
  -8   6   4  349.55   17.38
   8  -6   4  363.25   23.89
   8  -6   5   49.73    6.46
   8   6   5   56.75    9.65
   8   6  -5   39.76    6.90
  -8  -6   5   50.87    8.68
  -8   6   5   56.62    9.27
  -8  -6  -5   54.33   11.58
   8  -6  -5   56.59    9.79
   8   6  -5   58.67    7.28
   8   6   5   59.16    9.01
   8   6   6  146.41   14.06
   8  -6   6  117.14   10.75
  -8   6   6  126.25   13.27
  -8  -6   6  143.76   11.86
   8  -6  -6  152.96   16.26
  -8  -6  -6  106.01   13.33
   8   6  -6  110.49   11.58
   8   6   6  127.70   11.93
  -8  -6  -6  145.15   11.30
   8  -6   7   29.67    6.11
  -8   6   7   20.12    9.73
   8  -6  -7   28.10    9.13
   8   6   7   16.40    8.76
   8   6   7   23.17    8.66
  -8  -6   7   20.55    8.18
  -8  -6  -7   20.29    6.89
   8   6  -7   24.05    9.85
   8   6   8    4.24    9.95
  -8  -6  -8    0.27    8.63
   8   6   8    7.17   11.73
   8  -6   8    0.09    6.44
  -8   6   8   -6.66   16.04
  -8  -6   8   -4.31    8.31
   8   6  -8   29.83   11.84
   8  -6  -8   11.10   13.97
   8  -6  -9   77.03   18.50
   8   6   9   93.55   15.04
  -8  -6   9   83.42   15.44
  -8   6   9   89.66   16.93
   8   6  -9   91.14   13.43
   9   6   0  726.09   26.99
  -9  -6   0  713.78   45.07
  -9  -6   0  720.12   42.27
   9   6   0  781.73   31.84
   9  -6   0  793.68   35.55
  -9   6   0  777.68   32.74
  -9   6   0  791.40   34.59
  -9  -6   1  537.60   33.49
  -9   6  -1  542.84   19.90
   9   6   1  533.00   26.56
   9  -6  -1  583.19   27.02
  -9   6   1  549.00   21.43
  -9  -6  -1  533.06   30.14
  -9   6  -1  566.30   25.69
  -9  -6   1  602.54   29.92
   9   6  -1  522.94   26.58
  -9   6   1  538.00   24.29
  -9   6  -1  551.51   24.13
  -9  -6  -1  553.66   32.10
   9  -6   1  541.20   22.48
   9   6   1  554.22   20.02
  -9   6  -2  656.08   33.06
  -9   6  -2  727.77   24.91
   9  -6   2  708.23   29.09
  -9  -6   2  724.58   38.10
   9  -6  -2  722.73   35.14
  -9   6   2  733.17   34.93
  -9  -6  -2  675.86   41.69
  -9   6   2  677.31   30.22
  -9  -6   2  699.29   39.79
   9   6   2  691.84   30.92
  -9  -6  -2  719.07   37.73
  -9   6  -2  677.74   31.41
   9   6  -2  664.03   31.82
   9   6   2  736.72   33.69
  -9   6   3  688.97   36.95
  -9  -6  -3  638.32   40.81
  -9   6  -3  682.96   24.46
  -9   6   3  637.44   24.23
   9  -6  -3  634.71   29.66
  -9  -6   3  560.52   37.03
   9   6  -3  611.69   35.42
   9   6   3  617.21   33.73
   9  -6   3  677.71   28.98
   9  -6   3  636.36   28.07
  -9  -6   3  644.41   34.63
  -9  -6  -3  623.59   32.56
   9   6   3  613.36   27.96
  -9  -6  -4  261.60   21.64
   9   6   4  327.92   19.19
   9   6   4  273.81   16.50
   9  -6   4  266.43   17.07
  -9   6   4  254.45   16.12
  -9  -6  -4  283.76   18.25
   9  -6  -4  270.05   17.42
   9   6  -4  288.92   19.17
  -9   6   5  219.46   18.65
  -9  -6   5  168.35   13.63
   9  -6   5  174.29   12.96
   9  -6  -5  187.08   14.95
   9   6   5  183.90   16.93
   9   6   5  191.63   16.49
  -9  -6  -5  162.86   14.95
   9   6  -5  191.81   16.58
   9   6   6   67.23    9.80
   9   6  -6   57.28    9.63
   9  -6  -6   56.90   11.61
  -9   6   6   59.09   10.98
   9  -6   6   57.34    8.98
   9   6   6   65.34   12.48
  -9  -6   6   63.55   10.03
  -9  -6   7   44.15   10.40
   9   6   7   42.43   13.13
   9   6   7   28.95   14.24
   9  -6   7   30.31    6.29
   9   6  -7   28.27    7.80
  -9  -6  -7   52.20   10.00
  -9   6   7   41.18   12.82
   9  -6  -7   14.86   10.85
   9   6  -8   28.31   10.46
   9   6   8   33.25   11.53
  -9   6   8   28.41   13.91
  -9  -6   8   30.61   10.34
   9  -6  -8   16.03   11.43
   9  -6   8   34.24   11.04
  10  -6   0  632.90   28.56
 -10  -6   0  654.05   43.68
 -10  -6   0  670.29   40.40
  10   6   0  683.68   27.37
 -10   6   0  634.38   25.77
 -10   6   0  655.76   31.46
  10   6   1  290.61   14.47
  10   6  -1  267.41   16.25
 -10  -6  -1  280.88   17.49
 -10  -6   1  285.15   17.26
 -10   6   1  257.93   13.65
 -10   6  -1  279.54   14.24
  10  -6  -1  263.00   14.43
  10  -6   1  289.30   14.29
 -10  -6  -1  278.90   19.65
 -10   6  -1  263.29   12.89
  10   6   1  272.80   14.96
 -10  -6   1  280.34   20.13
 -10   6  -1  280.77   17.78
 -10   6   1  280.94   13.28
 -10  -6  -2  322.12   20.35
  10   6  -2  323.38   19.04
 -10  -6   2  295.50   23.98
 -10  -6   2  336.97   23.52
  10  -6   2  306.28   15.61
  10   6   2  309.64   18.66
 -10   6  -2  292.19   15.77
  10  -6   2  308.79   14.74
  10  -6  -2  296.77   16.83
 -10   6  -2  322.00   13.80
  10   6   2  302.88   17.56
 -10   6   2  293.75   18.29
 -10   6   2  318.19   18.13
 -10  -6  -2  320.85   20.76
 -10   6  -3   53.52    3.15
  10   6  -3   48.13    9.23
  10  -6   3   64.92    5.05
 -10   6  -3   69.35    5.61
  10  -6   3   54.59    6.78
 -10   6   3   58.26    7.66
 -10   6  -3   69.82    4.33
 -10  -6  -3   56.99    9.10
  10   6   3   70.74    8.79
  10  -6  -3   54.76    7.78
  10   6   3   65.93    7.52
 -10  -6  -3   53.33    9.08
 -10  -6  -4  104.92   10.86
  10   6   4  106.90   12.26
  10  -6   4   88.68    8.56
 -10   6   4   83.72   12.23
 -10  -6  -4  104.32   13.32
  10  -6  -4  100.53   12.21
  10   6   4  110.43   11.17
  10   6  -4  126.09   11.90
  10  -6  -5   52.57   11.89
 -10  -6   5   57.14    9.54
  10   6   5   63.21   10.69
  10   6  -5   57.20    9.35
 -10   6   5   62.67    9.28
  10   6   5   53.43   10.42
  10  -6   5   59.21    8.74
 -10  -6  -5   66.79   12.39
 -10  -6  -5   56.07    7.84
  10  -6   6  153.97   13.11
  10   6  -6  184.79   18.72
 -10  -6  -6  146.25   19.25
 -10  -6   6  155.09   15.08
 -10   6   6  156.41   15.43
  10   6   6  164.89   14.14
  10   6   6  186.11   17.58
  10  -6  -6  159.39   17.47
  10   6   7   -0.55   14.38
  10   6  -7    5.71    8.09
 -10  -6   7   14.79    8.90
 -10   6   7    1.95   11.02
  10  -6  -7   10.93   10.94
  10  -6   7   -0.31   10.04
  10   6   7    8.98   10.38
 -10  -6  -7   13.60    9.01
  10   6   8  121.79   17.79
 -10   6   8  111.24   18.19
 -10  -6   8  128.59   19.76
  10  -6  -8   90.20   17.86
  10   6  -8  129.33   17.43
  10  -6   8   96.72   14.66
 -11  -6   0   24.48    7.05
  11   6   0   17.23    7.31
 -11   6   0   14.96    4.52
 -11  -6   0   22.21    6.83
 -11   6   0   23.16    7.23
  11  -6   0   21.79    4.68
  11   6   1  128.81    9.47
 -11   6  -1  114.01    9.00
  11  -6  -1  128.54    9.71
 -11  -6  -1  136.38   15.46
 -11   6  -1  134.37    8.84
  11   6  -1  127.73    9.36
  11   6   1  122.63   10.35
  11  -6   1  118.60    8.67
 -11   6   1  114.77   12.34
 -11  -6   1  126.58   13.77
 -11   6  -1  117.97    7.81
 -11  -6  -1  112.16   10.38
 -11   6   1  126.86   10.48
 -11   6   2   76.94   10.66
 -11   6  -2   63.95    5.93
 -11   6   2   72.38    9.18
  11   6  -2   57.60    9.92
  11  -6   2   56.29    6.85
  11  -6   2   64.96    6.27
  11  -6  -2   67.17    9.44
 -11  -6  -2   61.10    9.02
 -11  -6  -2   60.59    9.02
  11   6   2   74.52    9.34
 -11   6  -2   69.28    5.66
  11   6   2   63.91    7.93
 -11  -6  -3  123.32   13.36
  11   6   3  146.83   12.79
  11  -6   3  161.93    9.32
  11  -6  -3  176.28   12.14
 -11  -6  -3  123.35   11.98
  11   6   3  146.09   13.58
  11   6  -3  147.89   12.40
 -11   6  -3  163.28   12.17
 -11   6  -3  147.89    8.68
  11  -6   3  156.99   11.88
 -11   6  -3  141.17    9.44
 -11   6   3  171.92   12.77
  11  -6  -4  167.74   12.90
  11   6   4  176.36   14.16
 -11  -6  -4  170.93   16.72
  11   6   4  170.67   15.33
 -11  -6  -4  183.42   12.89
 -11   6   4  167.96   13.50
  11   6  -4  168.70   16.49
 -11  -6   4  185.77   12.47
  11  -6   4  200.51   12.50
  11   6   5   19.33    8.87
  11   6   5   23.01    7.85
 -11  -6   5   15.00    8.08
 -11   6   5   42.93   12.44
  11  -6   5   25.02    6.83
  11  -6  -5   28.02    9.33
  11   6  -5   21.98   10.67
  11   6  -6   38.26   10.81
  11  -6   6   49.39    9.91
  11   6   6   35.86    9.81
  11   6   6   50.53   12.99
  11  -6  -6   48.13   12.26
 -11   6   6   41.26   10.98
 -11  -6   6   38.20    9.79
 -11  -6   7  202.03   16.61
  11  -6  -7  207.36   24.37
 -11   6   7  187.39   24.55
  11  -6   7  195.61   18.14
  11   6  -7  157.24   15.81
  11   6   7  208.30   21.19
  11   6   8  232.35   23.02
 -11   6   8  210.90   21.01
  11   6  -8  239.45   24.80
  11  -6   8  216.70   21.65
 -11  -6   8  217.52   23.10
  12   6   0    0.96    4.99
 -12  -6   0   10.40    8.34
 -12   6   0    5.88    4.94
 -12   6   0    3.98    5.60
  12  -6   0   -3.78    5.08
 -12   6   1   49.33    9.16
 -12   6  -1   34.86    5.42
  12  -6   1   42.20    6.71
 -12   6   1   35.49    5.82
 -12   6  -1   37.30    6.41
  12   6  -1   49.81    7.32
 -12  -6  -1   58.69    9.31
  12   6   1   55.49    8.29
 -12   6  -1   47.35    7.80
  12  -6  -1   40.55    6.45
  12   6  -2   82.40   11.25
 -12  -6  -2   67.40   10.73
  12  -6   2   82.29    7.42
  12  -6   2   72.33    8.91
 -12   6  -2   86.50    7.07
 -12   6   2   70.31    9.06
  12   6   2   73.59    9.10
 -12   6  -2  102.80    8.21
 -12   6  -2   80.86    6.91
  12   6   2   92.86    9.21
  12  -6  -2   73.61    8.00
  12   6   3   48.70   10.69
 -12   6  -3   64.56    6.36
 -12  -6  -3   61.46   10.05
  12  -6  -3   64.08    9.44
  12   6  -3   63.08    9.72
 -12   6   3   80.85   11.25
 -12   6  -3   57.85    5.75
  12   6   3   77.09    9.51
 -12   6  -3   61.32    5.10
  12  -6   3   59.97    9.47
  12  -6  -4   70.72   14.82
  12  -6   4   92.73   10.16
 -12   6   4   83.22   10.10
  12   6  -4   88.08   11.72
  12   6   4   75.60   11.79
 -12  -6   4   86.21   12.73
  12   6   4   94.40   10.57
 -12   6   5   48.75   11.21
  12  -6  -5   49.47   10.77
  12  -6   5   43.81   10.09
  12   6   5   25.49    9.79
 -12  -6   5   36.09   10.95
  12   6   5   37.11    9.64
  12   6  -5   43.21   10.82
  12   6   6   64.12   13.38
 -12   6   6   77.04   15.89
 -12  -6   6   73.35   15.78
  12   6   6   84.11   14.56
  12  -6   6   75.95   10.97
  12   6  -6   74.17   16.95
  12  -6  -6   61.89   17.46
 -12  -6   7   13.03   11.48
  12  -6   7   26.83   14.07
  12   6  -7   14.51   10.08
 -12   6   7   31.11   15.56
  12   6   7    6.96   10.72
 -13   6   0   11.31    4.96
  13   6   0   -3.97    5.59
 -13   6   0    3.52    6.41
  13  -6   0    3.21    7.20
  13   6   1   84.43   11.94
  13  -6   1  110.37    8.92
 -13   6  -1  112.25   10.16
  13  -6  -1  106.88   11.06
  13   6  -1   77.89    9.77
 -13   6   1  115.94   11.00
 -13   6  -1  109.50    9.17
 -13   6   2   34.20    7.41
  13   6   2   16.20    8.37
 -13   6  -2   27.19    5.63
 -13  -6  -2   14.70    7.36
  13  -6   2   25.28    8.16
  13  -6  -2   30.88    8.94
 -13   6  -2   29.00    4.46
  13   6   3  130.29   14.71
 -13   6   3  115.54   10.80
  13  -6   3  127.18   13.31
 -13  -6  -3   70.54   21.18
 -13   6  -3  127.81    7.74
  13   6  -3  138.12   14.96
  13  -6  -3  115.85   13.34
  13   6   3  128.13   12.57
  13   6  -4   13.29   11.45
  13  -6   4   18.12    8.21
  13  -6  -4   15.83    9.41
 -13   6   4   13.82   10.71
 -13  -6   4    9.11    8.63
  13   6   4   30.22    9.76
  13   6   4    8.98    7.71
  13   6   5  179.45   17.45
 -13   6   5  175.22   18.43
  13   6  -5  195.83   20.16
  13  -6  -5  194.83   18.81
  13  -6   5  194.56   16.49
  13   6   5  177.55   17.10
 -13  -6   5  211.14   21.70
  13  -6   6  178.38   19.46
  13   6  -6  173.89   20.83
 -13  -6   6  180.66   20.45
  13   6   6  210.78   23.77
 -13   6   6  191.88   20.74
  13  -6  -6  216.71   20.53
  13  -6   7   50.20   16.86
  13   6   7   67.02   15.15
 -13  -6   7   57.16   12.60
  14  -6   0  297.89   18.04
 -14   6   0  285.17   19.06
  14   6   0  311.93   20.21
  14   6  -1  277.59   23.65
 -14   6   1  241.95   16.60
 -14   6  -1  282.63   20.72
 -14   6  -1  242.93   19.07
  14  -6  -1  228.58   14.93
  14   6   1  297.02   23.74
  14  -6   1  231.77   16.19
  14   6  -2  512.39   36.50
  14   6   2  468.54   29.61
  14  -6   2  447.07   29.72
 -14   6  -2  468.11   34.02
 -14   6   2  473.59   30.93
  14  -6   2  515.22   35.69
  14  -6  -2  465.16   31.58
 -14   6   3   21.89    8.97
  14   6   3   17.14    7.27
  14   6  -3   26.19   10.53
  14  -6  -3   32.24    9.36
 -14   6  -3   20.84    4.37
  14   6   3   14.37    9.08
  14  -6   3   23.21    6.40
  14  -6   4   28.90    9.29
  14   6  -4   24.82   10.26
  14   6   4   18.41   13.07
 -14  -6   4   39.23   10.15
  14  -6  -4   47.01   14.94
 -14   6   4   26.08    9.54
  14   6   4   44.53   11.82
 -14  -6   5   66.01   15.63
 -14   6   5   79.04   17.84
  14  -6   5   73.35   13.47
  14   6   5   66.93   13.76
  14   6  -5   60.13   12.53
  14  -6  -5   65.35   12.54
  14  -6   6   79.18   14.74
 -14   6   6   90.10   16.74
  14   6   6   88.48   17.35
 -14  -6   6  111.42   19.18
  15   6   0    5.14   10.21
  15  -6   0   12.66    6.84
 -15   6   0   -6.18    7.96
 -15   6   1   47.69    8.03
  15  -6   1   41.33    7.68
  15   6  -1   32.48    7.45
 -15   6  -1   31.77    7.13
  15  -6  -1   20.84   11.57
  15   6   1   27.29    9.94
  15  -6   2    2.11    7.49
  15   6  -2   24.41   10.09
 -15   6  -2   14.75    5.88
  15   6   2   16.54    9.38
 -15   6   2    5.63    7.79
  15  -6   2    7.23    7.28
  15  -6  -2   16.79    9.12
 -15   6  -3   33.23    5.76
  15  -6   3   17.96    8.48
  15   6   3   33.01   13.17
 -15   6   3   37.38   10.47
  15   6  -3   33.79   11.47
  15  -6  -3   29.33    9.92
 -15   6   4  120.31   15.39
  15  -6   4   85.15   14.36
  15   6   4  123.39   21.54
  15  -6  -4  116.86   13.24
  15   6  -4  114.67   16.70
 -15  -6   4   98.42   14.37
  15   6   4  101.67   16.60
 -15   6   5  179.53   22.58
  15  -6   5  177.75   17.37
  15   6   5  173.81   22.00
 -15  -6   5  175.45   20.31
  15  -6  -5  131.15   26.05
  16   6   0   95.06   14.13
  16  -6   0   63.60   12.36
 -16   6   0   66.77   11.17
 -16   6   1   21.83   10.86
  16   6   1   18.85   14.28
 -16   6  -1   27.39    7.96
  16   6  -1   28.74   10.24
  16  -6   1   23.17    9.75
  16  -6   1   33.52   10.29
  16  -6  -1   27.62    9.60
 -16   6   2   22.67    8.58
  16   6   2   27.68   10.44
  16  -6   2   22.36    6.98
  16   6  -2   22.30   14.39
  16  -6  -2   27.08   13.40
  16  -6   2   34.72   11.03
 -16   6  -2   27.59    6.75
  16   6   3    5.23   14.82
 -16  -6   3   -0.66   12.25
 -16   6   3   11.64    9.53
  16  -6   3   15.68   13.25
  16  -6  -3    8.23   10.21
  16   6   4    7.79    9.97
 -16  -6   4   31.98   16.24
  16  -6   4   21.06   11.20
  16  -6  -4   32.88   17.98
 -16   6   4   16.95   14.94
 -17   6   0    8.00    6.27
  17   6   0   11.64   15.27
  17  -6   0   -8.57    7.49
 -17   6  -1   18.75    6.41
  17  -6  -1    8.79    9.11
  17   6   1   13.90   11.39
  17  -6   1   11.29    8.47
 -17   6   1   14.88    8.66
  17   6  -1    6.97   12.54
  17  -6   1   32.73   15.05
  17   6  -2   31.59   13.01
 -17   6  -2   28.15    8.77
  17   6   2   28.92   12.55
  17  -6   2   38.16   11.14
  17  -6  -2   21.60   11.16
 -17   6   2   27.18   13.42
  17  -6   3   37.43   11.97
  17  -6  -3   52.81   13.72
 -17   6   3   43.22   16.80
  17   6  -3   43.61   17.94
  17   6   3   57.34   15.40
   0   7   0   -1.33    2.33
   0  -7   0    5.13    2.59
   0  -7   0    0.37    3.03
   0   7   0   -4.63    2.13
   0   7  -1   28.75    3.57
   0   7   1   26.23    3.81
   0  -7   1   31.57    1.85
   0  -7   1   30.27    3.18
   0  -7  -1   33.03    4.33
   0   7   1   23.19    3.35
   0  -7  -1   29.30    4.47
   0   7  -1   23.99    1.91
   0  -7   2 3079.18  120.50
   0   7  -2 2897.19  114.08
   0   7   2 2998.11   94.46
   0  -7  -2 2966.85   84.62
   0  -7  -2 3190.98  145.32
   0   7   2 2994.93   97.53
   0  -7  -2 3269.39   98.17
   0   7   3   95.60    6.57
   0  -7  -3   95.93    7.95
   0  -7  -3   96.96    8.98
   0  -7  -3  106.72    8.56
   0  -7   3  102.17    6.18
   0  -7   3   89.60    4.96
   0   7   3  105.97    7.49
   0  -7  -4    4.89    4.74
   0   7  -4    0.47    1.08
   0  -7   4    3.47    2.10
   0   7   4    0.38    4.71
   0  -7  -4    0.95    5.23
   0  -7   4   -0.51    2.10
   0  -7   4    0.34    2.60
   0   7   4    0.18    3.81
   0  -7  -4    3.01    4.40
   0   7   5  435.34   19.49
   0  -7  -5  431.02   17.70
   0  -7   5  449.52   15.57
   0  -7  -5  441.44   25.43
   0   7   5  408.20   20.93
   0  -7  -5  440.03   29.85
   0  -7   5  431.54   16.32
   0   7  -5  423.40   18.24
   0  -7   5  432.74   24.35
   0  -7  -6   58.64    9.64
   0   7   6   58.50    9.38
   0  -7   6   58.04    5.84
   0  -7  -6   53.71    8.25
   0  -7   6   63.88    6.79
   0   7   6   68.80   10.81
   0   7  -6   64.31    5.73
   0  -7  -7  112.77   13.23
   0   7   7  106.45   11.12
   0   7  -7   93.67    8.25
   0  -7   7   95.97    7.06
   0  -7   7  119.83    8.45
   0   7  -7   86.92    7.76
   0   7   7   74.29   10.30
   0  -7  -8    4.61    7.48
   0   7   8   -4.31    7.61
   0  -7   8   -4.30    8.64
   0   7   8   -7.08    8.85
   0   7  -8    9.85    4.01
   0   7   9    7.64   11.61
   0   7   9   -2.81   13.65
   0  -7  -9   10.34    7.87
   0   7  10   33.68   13.24
   0  -7 -10   17.14   15.46
   0   7  10   24.67   20.58
  -1   7   0  153.88    7.99
   1  -7   0  159.49    5.72
   1   7   0  152.87    8.26
   1   7   0  148.91    6.87
  -1  -7   0  148.08    6.95
  -1   7   0  162.29    7.92
   1  -7   0  159.11    7.57
  -1  -7   0  145.72    7.64
  -1  -7   1 1631.15   53.43
   1   7  -1 1612.80   62.60
  -1   7   1 1627.49   68.63
   1  -7   1 1656.93   57.10
  -1   7   1 1579.51   43.85
   1  -7   1 1649.21   50.75
  -1   7  -1 1546.51   63.66
  -1  -7   1 1596.21   67.32
   1   7   1 1607.02   47.05
   1   7   1 1636.68   53.94
   1  -7  -1 1621.07   50.20
  -1  -7  -1 1695.94   80.60
   1   7  -1 1618.92   67.77
   1  -7  -1 1648.37   61.49
   1  -7  -1 1664.75   81.16
  -1  -7  -1 1551.24   62.18
   1   7   2  235.39   11.83
   1  -7  -2  252.68   13.50
   1   7   2  252.13   13.79
  -1  -7   2  246.36   12.96
  -1   7  -2  226.59   12.48
   1  -7   2  251.00   14.18
   1  -7  -2  257.55   11.12
   1   7  -2  244.28   11.71
  -1   7   2  266.99   10.57
   1  -7  -2  266.18   11.06
  -1   7   2  258.16   11.17
  -1  -7   2  248.77   10.48
   1   7  -2  256.30   13.77
  -1  -7  -2  237.89   14.32
  -1  -7  -2  256.82   12.24
  -1  -7  -3  241.70   11.72
   1  -7   3  231.95   10.49
  -1  -7   3  225.77   10.59
  -1   7   3  209.22   10.07
  -1  -7  -3  234.05   11.96
  -1   7   3  199.05    9.74
   1  -7  -3  227.99   11.83
   1   7   3  253.55   12.07
  -1  -7   3  267.93   11.37
   1  -7  -3  241.53   11.52
   1  -7   3  221.18   11.74
   1   7   3  248.49   11.65
  -1  -7  -3  247.34   12.72
   1   7  -3  235.22    8.57
   1  -7  -3  227.03   14.91
   1  -7   4  603.98   26.46
  -1  -7  -4  533.25   20.29
   1  -7   4  607.22   26.15
  -1  -7  -4  571.01   21.78
  -1   7   4  555.92   23.14
   1   7  -4  529.96   27.14
   1  -7  -4  581.03   32.00
  -1  -7   4  552.02   22.45
  -1   7  -4  563.13   25.15
  -1  -7   4  566.21   21.59
   1   7   4  529.99   26.99
  -1   7   4  569.00   20.57
  -1  -7   4  533.13   27.59
   1  -7   4  578.57   19.76
  -1  -7  -4  591.22   25.19
   1   7   4  534.50   18.89
   1  -7  -4  522.49   23.38
   1  -7  -4  578.27   26.35
  -1  -7  -5  452.34   28.11
   1   7  -5  443.11   20.60
  -1  -7   5  461.95   20.34
   1   7   5  461.58   21.87
  -1  -7   5  466.67   26.46
  -1   7   5  430.46   19.80
   1  -7   5  446.75   21.56
   1  -7   5  445.55   27.40
   1  -7  -5  438.42   18.78
   1  -7  -5  438.47   33.58
  -1  -7  -5  475.84   19.51
   1  -7  -5  468.06   23.33
   1   7   5  462.98   21.59
   1   7  -5  435.61   27.67
  -1  -7   5  476.51   18.38
  -1   7  -5  448.74   21.07
  -1   7   5  455.31   23.84
   1  -7   5  461.31   22.77
  -1  -7  -5  464.21   23.40
   1  -7   5  427.62   16.38
  -1   7   6   54.97   10.24
  -1  -7  -6   53.32    9.99
  -1  -7   6   57.92    5.71
   1  -7  -6   78.50   12.05
  -1   7  -6   58.24    5.10
   1  -7   6   60.36    5.97
   1  -7  -6   67.22    7.26
   1   7  -6   55.70    6.13
   1   7  -6   57.80    5.98
  -1  -7  -6   53.56    6.24
  -1  -7   6   58.79    6.86
   1   7   6   75.03    8.69
   1  -7   6   55.00    4.80
   1   7   6   46.73    7.98
   1  -7   6   65.89    5.71
  -1   7   6   40.10    7.72
  -1   7   7   -5.43    9.22
   1   7   7   -1.70    7.85
   1  -7   7    1.23    3.73
  -1  -7  -7    4.87    5.92
   1   7  -7    2.58    2.96
   1  -7  -7   10.91    6.24
   1   7   7   12.31    8.32
  -1  -7   7    3.89    5.76
  -1  -7   7   -2.43    4.94
   1  -7   7   -4.26    4.53
   1   7  -7   -2.41    4.65
  -1   7   7    7.52    7.73
  -1   7  -7    3.47    3.81
   1   7  -8   -3.02    3.37
  -1  -7  -8   -4.04    6.05
  -1  -7   8    4.48    7.34
  -1   7   8    3.37    9.61
  -1   7   8   10.51    9.64
  -1  -7   8    2.35    6.67
   1   7   8   -4.73   11.65
   1  -7  -8    8.74    7.70
   1   7   8   11.58   13.30
  -1  -7  -9   39.36   16.84
  -1   7   9   38.45   16.50
  -1   7   9   45.28   14.43
   1  -7  -9   42.30   10.22
   1   7   9   29.77   13.09
   1   7   9   36.74   12.93
  -1   7  10    7.21   13.16
   1  -7 -10   21.17   14.22
  -1  -7 -10   14.59   13.53
   1   7  10   17.23   14.62
  -1   7  10    7.16   13.85
   1   7  10   20.48   11.96
  -2   7   0  220.86   10.24
   2  -7   0  220.19    9.96
  -2  -7   0  246.35    9.66
   2   7   0  224.31   13.34
  -2  -7   0  242.45    8.92
   2   7   0  217.36   10.07
   2  -7   0  229.07    8.39
   2  -7   0  202.17    9.93
  -2  -7   1  500.91   19.34
  -2   7  -1  545.51   23.39
   2  -7  -1  544.59   20.48
   2   7   1  495.13   23.40
  -2  -7  -1  560.53   23.09
   2   7  -1  544.49   24.34
   2  -7  -1  576.25   20.44
   2   7  -1  516.77   22.35
   2   7   1  515.67   19.80
  -2   7   1  595.69   18.43
  -2   7   1  576.75   19.58
   2  -7   1  578.59   23.41
   2  -7  -1  570.60   25.59
  -2  -7  -1  558.59   18.73
   2  -7   1  588.21   20.76
   2  -7   2  742.26   27.47
   2  -7  -2  801.40   29.51
  -2   7  -2  732.37   28.61
  -2  -7   2  731.11   31.78
   2   7   2  734.01   33.63
   2  -7   2  777.29   26.15
  -2  -7   2  733.53   24.16
   2  -7  -2  754.20   28.71
  -2  -7  -2  729.59   28.31
   2  -7   2  765.43   25.37
   2  -7  -2  713.23   24.16
   2   7   2  744.55   25.42
   2   7  -2  723.15   35.34
  -2   7   2  732.90   29.37
  -2   7   2  764.58   42.19
  -2  -7  -2  745.28   30.28
   2  -7  -3   27.83    5.37
  -2  -7  -3   25.17    5.12
   2  -7  -3   22.84    4.88
   2  -7   3   26.40    2.37
   2  -7  -3   26.31    5.36
   2   7   3   20.25    4.21
   2  -7   3   29.43    2.37
  -2  -7  -3   29.56    5.33
  -2  -7   3   22.01    4.36
   2  -7   3   25.86    1.74
  -2   7   3   24.74    4.95
   2   7   3   19.63    4.42
  -2   7   3   15.86    5.85
   2  -7   3   25.62    2.53
   2   7  -3   22.38    2.04
  -2  -7   3   24.30    3.68
   2  -7   4   47.12    3.84
  -2  -7  -4   56.55    6.71
   2   7  -4   48.66    3.92
  -2   7   4   46.51    7.63
   2  -7   4   48.76    2.77
   2  -7  -4   48.70    6.48
  -2  -7   4   44.05    4.86
  -2   7   4   44.00    6.13
   2  -7  -4   45.48    7.09
  -2  -7  -4   47.14    6.52
   2  -7   4   48.18    3.39
  -2  -7  -4   51.41    9.05
  -2  -7   4   47.09    5.40
   2  -7   4   47.26    2.74
   2  -7  -4   52.80    9.32
   2   7   4   42.31    5.56
   2   7   4   37.10    6.29
   2   7  -4   47.89    4.80
  -2  -7   5   56.84    7.12
  -2   7   5   45.08    6.80
  -2   7  -5   44.52    3.56
   2  -7   5   45.15    3.90
   2  -7  -5   42.42    8.94
  -2  -7   5   49.14    5.69
  -2  -7  -5   58.75    5.80
   2  -7   5   44.70    3.28
   2   7  -5   56.25    6.15
   2   7   5   59.06    7.75
  -2  -7  -5   39.61    6.86
   2   7  -5   50.54    4.60
  -2  -7   5   56.50    5.41
  -2   7   5   39.23    6.01
   2  -7   5   50.91    4.16
   2  -7   5   49.57    4.55
   2  -7  -5   51.12    9.98
   2  -7  -5   27.51    9.24
   2   7   5   57.85    6.94
  -2  -7  -5   53.86    7.65
  -2   7   6  516.30   22.18
  -2  -7  -6  501.81   23.47
   2  -7  -6  515.55   30.40
  -2  -7   6  529.06   28.86
   2  -7   6  552.82   22.12
   2  -7   6  502.27   23.98
   2  -7   6  529.45   24.27
   2   7  -6  485.92   32.36
   2   7   6  494.13   24.09
  -2  -7  -6  510.69   31.15
  -2   7   6  495.44   22.17
  -2   7  -6  539.84   24.67
   2   7  -6  531.12   24.55
   2   7   6  526.91   22.37
  -2  -7   6  524.02   22.62
   2  -7  -6  481.00   23.90
   2   7   7  269.56   17.36
  -2   7   7  276.48   18.27
   2   7  -7  262.68   18.05
  -2  -7  -7  226.29   25.81
  -2  -7   7  270.80   15.67
  -2  -7  -7  242.76   16.12
   2  -7   7  268.02   14.39
  -2  -7   7  263.00   14.46
  -2   7   7  284.23   18.25
   2   7  -7  249.18   14.72
   2   7   7  235.84   16.70
  -2   7  -7  241.60   15.47
   2  -7   7  262.63   16.64
   2  -7   7  291.34   17.03
   2  -7  -7  279.66   20.39
   2  -7   8  285.33   20.30
   2   7  -8  273.51   20.50
   2   7   8  294.93   23.01
   2   7   8  316.53   20.38
  -2  -7  -8  287.06   16.22
  -2  -7   8  289.45   18.48
  -2  -7   8  256.41   28.84
  -2   7   8  273.15   22.35
   2  -7  -8  311.53   23.08
  -2   7   8  253.84   18.36
  -2   7   9  136.47   14.58
   2  -7  -9  141.55   13.59
   2   7   9  156.60   18.21
  -2   7   9  140.96   21.00
  -2  -7  -9  138.64   16.18
   2   7   9  150.02   16.22
  -2   7  10  321.10   30.53
   2  -7 -10  316.90   29.65
   2   7  10  322.59   30.38
  -2   7  10  304.03   24.06
  -2  -7 -10  313.56   27.55
   2   7  10  295.45   27.25
  -3  -7   0    0.18    1.80
   3  -7   0    4.62    2.79
  -3   7   0    7.97    3.15
  -3  -7   0    3.02    2.96
   3  -7   0   10.34    3.27
   3   7   0    6.40    3.19
   3  -7   0   10.50    2.74
   3   7   0    2.67    2.27
  -3  -7   1   50.91    4.43
   3  -7  -1   71.74    6.01
   3  -7   1   59.10    4.03
   3  -7  -1   63.09    4.73
   3   7   1   60.63    4.44
   3  -7   1   57.84    3.01
  -3   7  -1   55.34    3.02
  -3   7   1   58.98    5.31
   3   7   1   58.66    5.98
   3   7  -1   57.88    3.47
   3  -7  -1   60.56    4.95
  -3  -7  -1   59.07    5.52
  -3   7   1   59.77    4.45
  -3  -7  -1   58.89    5.11
   3  -7   1   61.07    4.42
   3   7  -1   56.78    4.40
  -3  -7   1   58.43    4.67
  -3   7   2  159.58    8.16
   3  -7   2  147.95    5.77
  -3   7  -2  141.43    6.99
   3   7  -2  151.37    6.28
  -3  -7   2  156.47    8.63
  -3  -7  -2  158.98    8.90
   3  -7  -2  146.07    8.04
   3  -7   2  149.20    6.02
   3  -7  -2  155.53    8.35
   3   7   2  141.49    8.54
  -3  -7  -2  143.99    8.28
   3  -7  -2  144.21    8.98
  -3   7   2  153.35    7.76
   3   7   2  138.99    9.34
  -3  -7   2  131.40    7.70
   3  -7   2  152.22    6.06
  -3   7   2  146.89    7.76
   3  -7   3  352.59   12.73
   3   7   3  329.91   15.94
  -3  -7  -3  332.26   16.27
   3  -7  -3  351.38   19.01
  -3  -7   3  294.89   20.10
   3  -7  -3  340.54   13.54
  -3   7   3  350.26   18.02
  -3   7   3  340.40   15.42
   3   7   3  306.61   16.01
   3  -7   3  361.46   19.23
   3  -7   3  338.57   10.64
   3  -7   3  348.56   12.55
   3  -7   3  356.16   16.30
   3  -7  -3  353.64   16.25
  -3  -7  -3  363.00   16.87
  -3  -7   3  324.26   13.69
  -3   7   3  335.93   15.02
   3  -7   4  370.24   13.25
  -3  -7   4  401.59   16.72
   3   7   4  374.33   17.71
   3  -7  -4  392.96   18.34
  -3   7   4  383.12   19.03
  -3  -7   4  396.74   18.18
   3   7  -4  393.30   15.38
   3  -7  -4  376.30   27.48
  -3  -7  -4  356.62   22.71
  -3   7   4  413.76   18.47
   3  -7  -4  462.56   22.45
   3  -7   4  394.64   16.12
   3   7   4  377.76   19.91
  -3   7   4  398.84   17.07
   3   7  -4  387.72   18.36
   3  -7   4  375.17   20.65
   3  -7   4  383.87   18.07
   3  -7   4  385.23   14.02
  -3  -7  -4  386.86   19.44
  -3  -7  -4  363.95   13.52
  -3   7  -5  475.17   26.96
   3  -7  -5  477.34   28.16
  -3  -7  -5  455.57   18.87
   3  -7  -5  484.74   24.23
   3   7   5  445.53   20.23
   3   7  -5  468.92   24.21
  -3  -7   5  489.70   29.20
  -3   7   5  442.89   24.92
   3  -7   5  499.86   51.43
  -3  -7  -5  467.76   24.79
   3   7   5  472.01   21.62
  -3  -7   5  482.39   21.68
   3  -7   5  475.98   21.99
   3  -7   5  471.09   25.22
  -3   7   5  457.78   21.75
   3   7  -5  454.01   22.00
  -3  -7   5  453.03   19.48
  -3   7   5  492.32   27.94
   3  -7   6  372.14   18.48
  -3   7  -6  342.13   20.41
  -3   7   6  332.41   22.38
   3   7   6  285.96   18.45
  -3   7   6  311.70   16.22
   3  -7   6  337.38   18.17
   3   7  -6  305.23   17.63
   3   7  -6  293.03   17.32
   3  -7  -6  386.43   18.13
   3   7   6  302.92   17.47
  -3  -7  -6  318.21   17.39
   3  -7   6  343.68   16.44
  -3  -7   6  315.55   19.67
  -3  -7   6  336.72   19.25
  -3  -7  -6  295.61   19.05
  -3  -7  -7   86.29   14.80
   3   7  -7   73.01    9.26
  -3   7  -7   71.70    7.41
   3   7   7   76.75   10.58
   3  -7  -7   80.12   12.80
   3   7  -7   68.18    7.68
  -3  -7  -7   61.91    9.19
   3   7   7   80.56   13.97
   3  -7   7   68.55    6.57
  -3  -7   7   70.39    7.73
  -3   7   7   63.96   11.10
   3  -7   7   64.79    6.95
  -3  -7   7   58.35   10.15
   3   7   8  110.60   15.70
   3   7   8  122.53   14.99
  -3  -7  -8  124.07   10.58
   3  -7   8  102.64    9.51
  -3   7   8  105.53   13.83
   3  -7  -8  137.39   13.96
   3   7  -8  102.83   11.06
  -3  -7   8   70.02   15.87
  -3  -7   8  101.07   12.31
  -3   7   8   98.63   13.74
  -3   7   9  139.54   15.02
  -3   7   9  168.06   17.90
   3   7   9  193.25   17.03
   3   7   9  171.38   16.91
  -3  -7  -9  143.36   13.04
   3  -7  -9  158.55   17.42
   4  -7   0  592.29   21.70
  -4  -7   0  661.64   26.84
   4  -7   0  635.33   21.09
  -4   7   0  625.02   21.59
   4   7   0  678.37   33.05
  -4  -7   0  680.54   23.58
  -4   7   0  618.89   22.81
   4  -7   0  621.51   21.99
   4   7   0  692.58   23.03
   4  -7   1  196.49    7.76
   4  -7  -1  187.36   10.90
  -4   7  -1  195.68    7.67
   4   7  -1  190.11   10.17
  -4   7   1  210.57   10.41
  -4  -7  -1  220.94   13.71
  -4  -7   1  187.06    8.90
   4  -7  -1  181.75    8.22
  -4  -7  -1  198.55    9.75
  -4   7   1  195.07   10.35
  -4  -7   1  180.68   10.39
   4   7   1  181.14    9.41
   4  -7  -1  182.36    8.27
   4  -7   1  205.84    6.97
   4   7  -1  173.27    8.59
   4   7   1  188.59   11.51
  -4  -7  -2   36.43    6.37
  -4   7   2   23.00    4.42
   4   7   2   21.18    5.51
   4   7  -2   28.92    3.26
  -4  -7   2   29.32    4.10
   4   7   2   28.60    4.79
   4  -7  -2   22.11    5.27
   4  -7  -2   29.08    6.13
   4  -7   2   24.33    2.36
  -4   7  -2   20.60    1.48
  -4  -7   2   29.82    3.99
  -4   7   2   37.53    5.94
  -4  -7  -2   31.24    5.50
   4  -7  -2   20.93    5.29
   4  -7   2   23.77    1.25
   4  -7  -3  948.05   43.09
  -4   7   3  855.49   29.30
   4   7   3  833.62   34.03
  -4  -7  -3  890.70   59.41
  -4  -7   3  854.78   29.48
   4  -7   3  908.55   31.39
   4  -7   3  865.33   30.42
  -4   7   3  938.78   38.71
   4  -7   3  882.18   35.39
   4  -7  -3  838.16   29.40
  -4  -7  -3  881.90   32.82
   4  -7  -3  896.08   39.20
   4   7   3  819.41   31.30
  -4  -7   3  864.17   48.14
  -4   7   4  244.62   12.44
   4  -7  -4  255.59   15.62
  -4  -7   4  276.30   16.17
   4  -7  -4  240.04   16.64
   4   7   4  267.08   15.58
   4  -7  -4  259.32   14.12
  -4  -7  -4  279.13   18.00
   4  -7   4  234.45   10.29
   4   7  -4  293.16   10.71
   4   7  -4  257.18   12.54
  -4  -7   4  276.42   14.94
  -4  -7  -4  312.13   15.55
  -4   7   4  243.20   14.92
  -4   7   4  250.04   17.02
   4   7   4  265.78   13.43
   4  -7  -5  173.36   12.23
  -4   7   5  156.85   12.08
  -4   7   5  174.66   12.27
  -4  -7  -5  179.19   13.19
  -4  -7  -5  157.95   11.63
   4  -7  -5  203.22   16.81
   4  -7   5  183.18    9.73
   4   7  -5  176.01   12.60
   4   7   5  190.53   13.16
  -4   7   5  174.48   11.27
   4   7  -5  184.04    9.32
  -4  -7   5  178.83   11.16
   4  -7   5  165.21   11.20
  -4  -7   5  173.32   10.15
   4   7   5  181.71   13.58
  -4  -7   5  180.95   13.91
   4  -7   5  177.48    9.46
   4   7  -6   32.32   17.03
  -4   7   6   22.32    7.18
   4  -7   6   17.55    2.75
   4   7   6    9.32    6.57
  -4  -7  -6   15.09   12.48
  -4  -7   6   16.81    5.42
   4  -7  -6   14.38   10.24
  -4   7   6   19.61    7.16
   4   7   6   17.94    7.72
  -4  -7   6   16.59    7.33
   4  -7   6   13.03    4.72
   4  -7   6   14.86    2.67
  -4  -7  -6    9.41    7.45
   4   7  -6   11.04    4.62
  -4   7  -6   20.12    3.76
  -4  -7   7  231.16   14.70
  -4  -7  -7  227.65   16.14
  -4  -7   7  255.52   16.81
   4  -7   7  212.49   12.67
  -4  -7  -7  175.01   22.83
   4  -7   7  232.45   10.76
  -4   7  -7  208.29   17.19
   4   7   7  224.61   17.72
  -4   7   7  225.02   17.63
   4  -7  -7  216.94   15.28
   4   7  -7  233.00   15.32
   4  -7   7  222.83   20.89
   4   7  -7  203.77   13.64
   4   7   7  216.43   16.77
  -4  -7  -8  136.95   12.75
   4   7  -8  118.56   12.17
  -4  -7   8   83.66   14.87
  -4   7   8  149.22   15.40
  -4  -7   8  120.16   13.82
   4   7   8  122.35   13.52
   4  -7  -8  106.75   12.84
   4  -7   8  142.93   10.92
   4   7   8  132.90   14.72
   4   7   9  118.18   16.07
  -4  -7  -9   90.88   11.87
  -4   7   9  115.08   16.03
   4   7   9  126.46   16.24
   4  -7  -9  101.88   14.29
   4   7  -9   96.43   12.16
  -5  -7   0   15.63    4.04
  -5  -7   0   21.23    3.79
   5   7   0   13.85    3.60
   5  -7   0    4.35    3.45
  -5   7   0   12.62    3.66
   5   7   0   16.14    3.06
   5  -7   0   14.78    3.46
  -5   7   0    9.64    2.33
   5  -7  -1  625.26   24.99
   5  -7   1  604.96   17.92
   5   7   1  567.86   22.38
  -5  -7  -1  599.97   30.67
   5  -7   1  623.24   20.78
  -5   7   1  625.43   22.02
  -5  -7   1  591.42   23.38
  -5  -7   1  601.83   26.97
   5  -7  -1  648.17   22.73
  -5   7   1  613.04   22.61
   5   7  -1  573.27   21.88
   5   7   1  562.70   24.37
   5  -7  -1  632.63   20.35
  -5  -7  -1  589.56   38.88
   5   7  -1  558.77   20.08
  -5   7  -1  586.11   20.01
  -5  -7   2  900.42   35.34
   5  -7  -2  874.03   41.53
   5  -7  -2  904.71   37.28
   5  -7  -2  877.24   34.23
   5   7   2  876.74   35.50
  -5   7   2  931.16   34.80
  -5   7   2  825.81   25.63
   5   7   2  861.31   31.12
  -5  -7  -2  942.36   42.54
  -5  -7   2  890.98   38.08
  -5  -7  -2  935.94   32.63
   5  -7   2  894.23   29.98
   5   7   3  180.49   14.54
  -5  -7  -3  197.36   14.09
  -5  -7   3  194.94   12.92
  -5   7   3  169.86   11.50
   5  -7  -3  170.82   12.24
   5  -7  -3  181.30   10.67
   5   7   3  185.17    9.49
  -5   7   3  169.64   10.75
   5  -7  -3  185.94   13.36
  -5  -7   3  191.96   12.07
   5  -7   3  163.11    5.90
   5   7  -3  191.99   12.69
  -5  -7  -3  204.03   10.97
   5  -7   3  176.01    7.45
  -5  -7  -4  874.32   43.13
   5  -7   4  872.23   32.50
  -5  -7   4  872.63   47.44
   5   7   4  886.85   34.74
  -5  -7  -4  925.66   55.58
   5  -7  -4  867.11   36.49
   5   7   4  851.73   36.63
  -5   7   4  898.13   47.28
  -5  -7   4  806.87   38.39
   5  -7  -4  866.03   46.17
  -5   7   4  850.06   29.67
   5   7  -4  825.61   38.47
   5  -7  -4  934.44   43.82
  -5  -7  -5  626.93   30.14
  -5   7   5  624.15   30.81
   5  -7  -5  644.92   25.89
   5  -7   5  601.44   22.99
  -5  -7   5  630.54   26.06
  -5   7   5  652.33   38.26
   5   7  -5  637.80   30.60
  -5  -7  -5  624.09   24.41
   5   7   5  596.44   33.02
   5   7   5  634.59   25.77
  -5  -7   5  660.75   33.67
   5   7  -5  626.42   30.10
   5   7  -6  149.62   12.12
  -5  -7  -6  124.30   12.75
   5  -7  -6  177.14   14.45
   5  -7   6  151.21   10.30
  -5  -7  -6  157.76   10.74
   5   7   6  167.66   15.17
   5   7  -6  157.56   12.43
   5   7   6  147.03   12.34
  -5  -7   6  136.98   10.99
  -5   7   6  148.32   14.44
  -5  -7   6  155.98   13.01
  -5  -7   7  152.49   12.54
  -5  -7  -7  160.35   12.10
   5  -7   7  158.03   11.97
  -5   7   7  159.18   16.21
   5   7  -7  148.65   13.42
   5   7  -7  159.39   15.32
   5   7   7  152.71   12.86
  -5  -7   7  123.45   13.72
   5  -7   7  152.31   11.05
   5   7   7  145.65   16.64
  -5  -7  -7  130.01   21.86
   5  -7  -7  119.48   12.68
  -5  -7  -8  157.41   12.89
   5  -7   8  153.50   13.14
   5  -7  -8  153.64   16.10
  -5   7   8  160.22   18.69
   5   7  -8  152.78   16.29
   5   7   8  197.41   16.79
  -5  -7   8  158.20   13.67
   5   7   8  171.80   16.91
  -5   7   9  141.12   16.94
   5   7  -9  114.55   13.57
   5   7   9  133.56   17.71
   5   7   9  112.84   15.33
   5  -7  -9  107.33   16.31
  -5  -7  -9  105.64   12.00
   6  -7   0  405.64   17.46
   6   7   0  368.97   15.23
   6   7   0  384.50   15.81
  -6  -7   0  367.17   16.57
  -6  -7   0  408.50   20.08
  -6   7   0  428.39   15.50
  -6   7   0  375.34   12.78
   6  -7   0  376.53   13.99
   6   7   1 1529.06   49.72
  -6   7   1 1683.77   56.03
  -6  -7  -1 1620.99   51.17
  -6   7  -1 1547.55   47.55
   6  -7  -1 1713.92   52.94
   6  -7   1 1651.02   48.63
   6   7  -1 1478.50   46.04
  -6   7   1 1653.93   53.66
   6   7  -1 1555.61   54.03
   6  -7  -1 1645.01   72.07
  -6   7  -1 1664.64   56.09
  -6  -7  -1 1597.85   68.09
   6   7   1 1486.48   60.44
  -6  -7   1 1612.39   61.59
   6  -7  -1 1664.81   60.50
  -6  -7   1 1587.32   57.33
   6   7   2  578.86   21.39
   6  -7  -2  621.44   28.05
   6   7   2  616.19   22.70
   6  -7  -2  619.30   26.03
  -6  -7  -2  570.53   43.72
  -6  -7   2  581.59   23.11
  -6   7   2  604.22   27.51
   6  -7  -2  615.49   30.71
  -6  -7   2  597.58   28.42
  -6   7   2  588.03   19.75
   6  -7   2  575.78   23.90
  -6  -7  -2  614.37   21.71
   6   7   3  157.34   11.60
  -6  -7   3  165.60   11.99
   6  -7   3  157.88    5.35
  -6   7   3  162.99   11.47
  -6   7   3  172.25   11.65
   6   7   3  160.81   13.37
   6  -7  -3  187.00   12.04
   6   7  -3  155.84    9.58
  -6  -7   3  157.18   12.00
   6  -7  -3  173.27    9.16
   6  -7  -3  172.80    9.32
  -6  -7  -3  171.05   11.53
   6  -7   3  161.05    8.14
  -6  -7  -3  170.46   11.67
   6  -7   4  154.30    9.20
  -6   7   4  153.31   12.54
   6   7  -4  146.51   10.86
   6   7   4  155.81   11.88
  -6   7   4  166.95   14.17
  -6  -7  -4  146.79   12.79
  -6  -7   4  127.69   12.02
  -6  -7   4  154.46    9.54
   6  -7  -4  157.62   16.56
   6  -7  -4  144.96    9.88
   6   7   4  135.80    9.76
  -6  -7  -5   84.98   10.27
  -6  -7   5   89.06    9.93
   6  -7  -5   63.83    8.66
   6   7   5   79.64    9.60
  -6  -7   5   97.80    9.88
   6   7   5   80.43   11.15
   6   7  -5   76.02    7.06
   6  -7   5   74.68    6.50
  -6   7   5   67.46    8.59
   6   7  -5   81.79    8.44
  -6  -7  -6  431.91   19.35
   6   7   6  388.03   24.91
   6   7   6  398.06   21.97
   6   7  -6  390.06   21.66
   6   7  -6  385.02   24.11
  -6  -7   6  376.31   27.08
  -6  -7   6  425.63   22.19
   6  -7  -6  385.51   24.53
  -6   7   6  387.03   21.71
   6  -7   6  402.29   22.05
  -6  -7  -6  363.03   27.98
  -6  -7  -7    9.53   12.99
   6  -7   7   21.50    7.64
  -6  -7   7   28.46   12.54
   6   7  -7   23.45    7.84
   6  -7  -7   33.25    9.30
   6   7   7   22.95    9.01
  -6   7   7   17.31   10.55
   6   7   7   24.20    9.08
  -6  -7  -7   25.08    7.67
   6  -7   8  141.36   12.99
  -6   7   8  152.70   17.81
  -6  -7  -8  141.62   15.24
   6   7   8  146.18   17.92
   6   7   8  109.37   13.06
   6  -7  -8  138.74   14.93
   6   7  -8  139.10   13.93
  -6  -7   8  136.02   15.22
   6   7   9  117.26   18.93
   6   7  -9  151.91   16.07
  -6  -7   9  151.95   19.86
  -6   7   9  142.00   17.68
   6  -7  -9  158.12   19.56
   6   7   9  145.10   22.86
   7  -7   0   10.42    3.68
   7   7   0    5.36    3.38
  -7   7   0    4.01    2.79
  -7  -7   0    4.77    3.82
   7   7   0    4.51    3.32
   7  -7   0   11.64    3.34
  -7  -7   0    4.96    4.04
   7   7  -1   81.68    7.16
   7   7   1   73.23    6.41
  -7   7  -1   91.82    5.25
  -7  -7  -1   81.47    6.78
   7  -7  -1   71.93    5.78
  -7  -7   1   74.89    7.56
   7  -7   1   89.77    6.20
  -7  -7  -1   65.91    8.42
  -7   7   1   87.18    7.32
  -7   7   1   89.33    6.38
   7   7   1   85.19    8.33
   7  -7  -1   99.92    7.21
  -7   7  -1   77.97    5.56
  -7  -7   1   87.90    9.08
   7   7   2   70.36    7.10
  -7  -7   2   66.05    6.65
   7  -7  -2   70.55    7.49
  -7   7   2   68.98    7.53
  -7   7   2   56.74    6.31
   7   7   2   62.69    6.12
  -7  -7  -2   69.21    6.80
  -7  -7  -2   61.57    7.76
   7  -7   2   64.95    3.99
  -7   7  -2   68.45    3.70
   7  -7  -2   53.49    7.04
  -7  -7   2   68.22    7.55
   7  -7  -2   65.45    6.45
  -7   7  -2   63.92    3.97
  -7   7  -2   59.70    2.64
  -7  -7  -3    7.41    6.63
   7  -7  -3    5.56    5.48
  -7  -7   3    4.51    6.42
  -7   7   3    3.13    5.76
   7  -7  -3   -6.38    7.21
   7   7  -3    8.73    3.95
   7  -7   3    4.59    2.68
  -7  -7  -3   -1.72    6.71
   7   7   3    0.69    4.89
   7   7   3    6.93    5.87
   7  -7  -3    9.54    6.24
  -7   7   3    7.42    7.45
   7  -7   4  156.24   10.14
  -7  -7   4  176.85   13.82
  -7   7   4  153.94   13.43
   7  -7  -4  168.82   10.46
   7   7   4  182.26   13.85
   7   7   4  167.22   11.80
  -7   7   4  164.29   11.73
  -7  -7  -4  177.80   12.02
   7   7  -4  179.91   13.54
  -7  -7   5  389.47   25.45
  -7  -7  -5  395.08   24.03
   7   7  -5  392.99   24.66
   7  -7   5  379.63   18.51
   7  -7  -5  368.57   19.47
   7   7  -5  402.16   29.22
  -7   7   5  381.02   19.18
   7   7   5  377.34   20.79
   7   7   5  448.08   21.97
  -7  -7   5  380.92   21.46
  -7  -7  -6   32.18    6.28
   7   7   6   38.54    9.80
   7  -7   6   45.12    6.17
   7   7  -6   36.03    7.93
  -7  -7  -6   30.10   11.88
   7  -7  -6   25.76    7.92
   7   7   6   38.28    9.06
  -7  -7   6   44.11    9.15
   7   7  -6   35.82    9.80
  -7   7   6   33.87    9.23
  -7  -7  -7    6.99    8.04
  -7  -7   7    4.77    7.00
   7   7   7   15.06   12.05
  -7   7   7    5.71    8.79
   7  -7   7    1.69    5.69
   7   7   7    6.87    8.34
   7   7  -7    5.82    6.02
   7  -7  -7    0.08    7.91
   7   7  -8   21.20    8.35
   7   7   8    6.18   10.27
   7  -7   8   11.59    9.19
   7   7   8   10.22   10.61
  -7  -7  -8   14.81    6.84
  -7  -7   8    2.29    9.86
   7  -7  -8   14.45   11.79
  -7   7   8    3.87   16.24
  -7   7   9   15.43   12.09
   7   7   9   14.07   14.74
   7   7  -9   22.17   12.84
  -7  -7   9    9.73   12.84
   8   7   0 1450.98   57.18
  -8  -7   0 1567.10   78.14
  -8  -7   0 1577.91   71.99
   8   7   0 1502.71   49.06
   8  -7   0 1508.87   65.58
  -8   7   0 1562.01   67.47
  -8   7   0 1445.74   48.01
  -8  -7  -1  390.13   23.25
   8   7  -1  365.53   16.02
  -8   7  -1  437.34   19.49
   8  -7  -1  441.24   25.91
   8  -7   1  442.59   19.53
   8   7   1  379.51   17.95
  -8   7  -1  414.73   15.94
  -8   7   1  470.48   20.35
  -8   7   1  452.82   20.58
  -8  -7   1  381.79   21.14
  -8  -7  -1  400.13   22.70
   8  -7  -1  408.47   24.19
  -8  -7   1  380.27   23.93
   8   7   1  360.68   17.39
   8  -7  -2  582.75   31.28
  -8   7   2  572.99   20.85
  -8  -7  -2  608.04   43.46
   8   7   2  565.46   21.40
   8   7   2  581.29   31.10
  -8  -7   2  599.56   30.67
   8  -7  -2  586.94   21.10
  -8   7  -2  565.12   23.08
  -8  -7  -2  579.11   33.18
   8  -7  -2  615.18   30.83
  -8   7   2  593.05   28.36
  -8   7  -2  589.03   21.62
   8  -7   2  583.77   25.23
  -8  -7   2  584.82   34.29
  -8   7  -2  595.07   23.72
  -8  -7  -2  623.08   39.29
  -8  -7  -3  283.74   16.88
   8  -7   3  265.51   12.98
  -8   7   3  294.96   18.92
   8   7  -3  273.36   15.22
   8  -7  -3  222.87   17.21
  -8  -7   3  237.37   20.22
   8   7   3  309.48   14.75
   8  -7   3  281.94   12.76
  -8   7   3  253.65   14.15
  -8  -7   3  251.05   16.85
   8   7   3  284.85   14.23
   8  -7  -3  273.76   13.14
   8   7  -4   70.89    9.74
  -8  -7   4   76.93    7.95
   8  -7   4   69.38    7.07
  -8  -7  -4   84.96    8.70
   8  -7  -4   82.20    8.90
   8   7   4   74.43    9.28
   8   7   4   90.40   10.28
  -8   7   4   66.01    8.22
   8   7  -5  209.96   17.43
  -8  -7   5  208.75   17.23
  -8   7   5  209.18   16.42
   8   7   5  176.76   14.68
  -8  -7  -5  208.37   17.77
   8   7   5  198.55   11.91
   8  -7   5  205.82   12.96
   8  -7  -5  191.52   16.72
   8   7   6  326.18   25.99
  -8   7   6  303.41   20.81
   8  -7  -6  308.07   22.30
   8   7   6  299.96   21.72
   8  -7   6  309.51   17.10
   8   7  -6  352.46   28.83
  -8  -7  -6  282.86   37.65
  -8  -7   6  305.40   20.20
  -8  -7  -6  329.45   19.43
   8   7   7    4.95    8.20
   8  -7  -7    2.14    7.68
   8   7  -7    9.13    7.94
  -8  -7   7   -6.79    8.98
   8  -7   7   -7.48    7.48
  -8  -7  -7   -1.64    6.28
   8   7   7   10.00    8.75
  -8   7   7   -4.61   12.54
   8  -7   8   54.02    8.83
   8   7   8   63.56   15.19
  -8  -7   8   55.00   15.34
   8   7  -8   54.88   14.35
  -8  -7  -8   59.06   12.68
   8  -7  -8   70.00   17.10
   8   7   8   51.04   16.05
  -8   7   8   57.35   13.37
  -8   7   9    0.52   14.05
   8   7   9   10.21   14.03
   8   7  -9   18.79   10.61
  -8  -7   9   35.47   18.43
  -9  -7   0  362.49   24.94
   9   7   0  409.92   19.55
   9   7   0  428.47   17.48
  -9   7   0  438.64   19.32
  -9  -7   0  396.09   25.80
  -9   7   0  401.72   21.78
   9  -7   0  413.04   18.46
  -9  -7   1  458.55   24.99
  -9   7  -1  415.31   18.39
  -9   7  -1  397.94   16.94
  -9  -7  -1  484.37   24.84
   9   7   1  450.79   26.96
  -9   7   1  446.97   20.82
  -9  -7  -1  408.80   26.21
   9   7   1  442.83   19.74
  -9   7   1  421.19   17.63
  -9  -7   1  412.37   27.41
   9  -7   1  395.62   18.45
   9  -7  -1  427.81   20.23
   9   7  -1  426.65   19.20
  -9   7   2  142.07   11.08
  -9   7  -2  164.72    8.28
  -9   7  -2  139.78    7.45
   9   7   2  164.63    9.81
  -9  -7  -2  152.92   12.87
   9  -7   2  152.95    8.83
  -9  -7   2  158.24   13.25
   9  -7  -2  168.90   12.71
  -9  -7   2  166.38   13.16
  -9   7  -2  163.24    7.41
  -9   7   2  149.98   12.98
  -9  -7  -2  170.49   12.61
   9   7   2  163.27   13.12
   9  -7  -3  129.89   12.78
  -9   7   3  142.86    9.87
  -9  -7  -3  159.25   15.83
  -9   7   3  141.25   12.00
   9   7   3  135.00    9.91
  -9  -7  -3  140.90   13.64
   9   7  -3  151.67   12.01
   9   7   3  144.34   10.99
   9  -7   3  154.52    7.32
   9  -7   3  148.42    8.60
  -9   7  -3  147.31    6.33
   9   7   4  473.28   24.38
   9   7  -4  475.59   30.70
   9  -7   4  514.41   32.98
   9   7   4  522.16   26.65
   9  -7  -4  527.92   31.13
  -9  -7  -4  461.15   28.26
  -9   7   4  490.19   22.36
   9  -7   5   88.23    7.52
   9   7   5   88.89   10.72
  -9  -7  -5   92.80   10.65
   9   7  -5  104.86   11.95
   9  -7  -5   91.91   12.45
  -9  -7   5   89.23    9.52
  -9   7   5  111.87   10.66
   9   7   5   73.92   12.78
   9  -7   6  522.48   29.26
  -9   7   6  549.24   30.18
   9  -7  -6  522.26   34.00
   9   7   6  490.98   28.94
  -9  -7   6  514.51   25.22
   9   7   6  507.26   31.51
   9   7  -6  535.65   40.62
   9   7   7   51.84   13.65
  -9  -7  -7   56.65    9.51
  -9  -7   7   51.75   11.48
   9  -7   7   50.69    9.64
  -9   7   7   90.90   13.14
   9   7   7   71.37   11.86
   9   7  -7   68.80   13.52
   9  -7  -7   66.36   15.78
  -9  -7   8  121.68   17.05
  -9   7   8  128.83   16.14
   9   7   8  149.94   17.40
   9   7  -8  144.19   18.80
   9  -7  -8  117.12   15.05
 -10  -7   0  271.85   16.07
  10   7   0  239.32   15.62
 -10  -7   0  251.56   16.81
  10   7   0  267.02   16.75
 -10   7   0  236.66   11.48
  10  -7   0  234.09   13.29
 -10   7   0  243.98   13.91
 -10  -7   1  215.65   14.90
 -10  -7  -1  222.78   18.30
  10   7   1  216.65   13.74
  10   7  -1  222.40   15.33
 -10  -7  -1  219.78   16.35
 -10   7  -1  199.03   11.98
  10   7   1  205.73   12.85
 -10   7   1  212.80   11.33
  10  -7   1  218.43   13.54
 -10   7  -1  206.70    9.97
 -10  -7   1  218.63   16.59
 -10   7   1  232.95   16.26
  10  -7  -1  218.78   13.36
 -10   7  -1  227.73   13.39
  10   7   2  134.54   11.16
  10   7   2  151.21   11.10
 -10  -7  -2  155.44   11.92
 -10   7   2  134.35   13.81
 -10  -7  -2  149.01   11.84
 -10   7  -2  147.17    7.73
  10  -7   2  153.48    8.26
 -10   7  -2  138.76    6.86
  10  -7  -2  137.57   12.60
 -10   7   2  142.90   11.26
 -10   7  -2  150.71    7.57
  10  -7  -3   37.47    6.85
  10   7  -3   54.53    8.21
  10  -7   3   35.26    5.40
 -10   7  -3   40.68    3.98
 -10   7   3   42.31    9.01
 -10  -7  -3   40.44    7.50
  10   7   3   50.13    8.62
 -10  -7  -3   41.00    9.37
  10  -7   3   37.96    3.53
  10   7   3   42.79    8.97
 -10   7   4   60.97   10.34
  10   7   4   83.25    9.40
  10  -7  -4   81.20   11.13
  10   7   4   90.92   12.16
 -10  -7  -4   60.30   10.16
 -10  -7  -4   59.75    9.34
  10  -7   4   76.31    8.62
  10   7  -4   78.70    9.94
 -10   7   5  150.35   16.13
  10   7  -5  157.39   15.14
  10  -7   5  148.33   11.53
  10  -7  -5  149.40   11.92
 -10  -7   5  142.41   13.72
  10   7   5  143.36   14.02
 -10  -7  -5  111.66   20.94
  10   7   5  177.68   17.84
  10   7   6    9.69    9.56
  10  -7   6   10.71    6.04
  10   7   6   30.38    8.21
  10   7  -6   13.38    7.50
 -10  -7   6   30.94    9.49
 -10   7   6   13.88    9.98
  10  -7  -6    2.66   14.36
  10   7  -7   35.99   10.74
 -10  -7   7   46.18    9.90
  10  -7   7   22.76    7.40
 -10  -7  -7   36.63    8.54
  10  -7  -7   30.00   13.35
 -10   7   7   29.75   12.41
  10   7   7   30.52   11.08
  10   7   7   21.53   10.24
 -10   7   8   35.00   18.53
  10   7  -8    6.48   12.54
 -10  -7   8   15.39   13.35
  10   7   8    3.93   12.71
 -11  -7   0   79.44   10.46
  11  -7   0   66.50    7.95
 -11   7   0   66.25    7.02
 -11   7   0   69.43    8.97
  11   7   0   91.24    8.84
 -11   7   1  207.64   12.47
 -11   7   1  211.79   16.00
 -11   7  -1  176.77   10.87
  11   7  -1  162.79   12.31
 -11  -7  -1  162.41   14.80
  11   7   1  143.00   12.84
 -11   7  -1  193.87   11.41
  11  -7   1  182.06   12.86
 -11   7  -1  219.73   14.01
  11   7   1  154.08   13.40
  11  -7   2   36.36    5.06
 -11  -7  -2   46.91    9.43
 -11   7  -2   37.05    5.93
  11   7  -2   55.51    7.27
  11   7   2   46.44    7.32
  11   7   2   53.88    9.38
 -11   7  -2   48.46    4.40
  11  -7  -2   38.85    8.56
 -11   7   2   39.59    7.37
  11  -7   3  119.53    6.58
 -11   7  -3  108.36    4.66
  11   7   3  112.46   11.93
 -11  -7  -3  111.45   11.12
  11   7   3  110.29   11.68
 -11   7  -3  117.67    9.13
 -11   7  -3  124.34    6.10
  11  -7   3  105.25    8.71
 -11   7   3   95.59   10.80
  11   7  -3  125.72   11.26
  11  -7  -3  103.46    9.80
  11  -7   4  186.15   12.23
  11   7   4  173.28   16.05
 -11   7   4  160.34   13.91
  11   7   4  141.84   14.31
  11   7  -4  162.11   14.52
  11  -7  -4  150.41   15.89
 -11  -7  -4  129.26   20.11
  11   7  -5  285.75   21.00
 -11   7   5  249.15   18.43
 -11  -7   5  271.34   20.41
  11  -7   5  240.04   17.50
  11   7   5  252.45   21.86
  11   7   5  247.18   22.10
  11  -7  -5  255.68   20.02
 -11  -7   6  156.04   14.86
 -11   7   6  154.51   16.87
  11   7   6  176.15   19.88
  11  -7  -6  160.15   20.09
  11  -7   6  157.16   14.73
  11   7   6  168.37   19.73
  11   7  -6  163.54   19.18
  11  -7   7    7.64    8.54
  11   7  -7   10.88   10.78
  11  -7  -7   31.55   16.63
  11   7   7    4.76   10.63
 -11   7   7    1.88   17.50
 -11  -7   7   -1.75   10.72
 -11  -7  -7   12.88    7.10
  12   7   0  141.97   12.71
  12  -7   0  122.07   10.20
 -12   7   0  128.55   11.09
 -12   7   0  146.20   11.39
 -12   7  -1  426.95   22.86
  12  -7  -1  407.48   24.64
  12   7   1  453.53   26.87
  12  -7   1  419.86   20.82
 -12   7  -1  469.45   22.33
 -12   7   1  409.29   32.22
  12   7   1  453.43   28.39
 -12   7  -1  446.02   25.74
 -12  -7  -1  440.94   33.99
  12   7  -1  452.42   23.64
 -12   7   1  403.59   24.49
 -12   7   2  314.55   25.50
  12  -7   2  286.37   18.47
 -12   7  -2  267.53   14.96
  12  -7   2  276.10   13.69
  12   7   2  303.33   18.75
  12   7  -2  278.05   23.92
  12   7   2  305.80   23.07
 -12  -7  -2  238.70   29.79
  12  -7  -2  273.06   19.06
 -12   7  -2  277.38   20.30
  12   7   3  114.25   10.56
 -12  -7  -3   90.01   15.86
 -12   7  -3  111.39    8.02
  12   7   3   96.12   10.59
  12  -7   3  100.03    7.06
 -12   7   3  118.88   14.38
 -12   7  -3  100.08    6.41
  12  -7  -3  109.57   13.27
  12   7  -3  104.51   11.42
  12  -7   3  108.06   10.77
  12   7   4   66.25   10.42
  12  -7  -4   85.15   11.99
 -12   7   4   83.11   13.07
  12   7  -4   69.57   13.13
 -12  -7   4   79.95   13.49
  12   7   4   70.19   13.01
  12  -7   4   60.90    7.82
  12  -7  -5   23.77    9.69
 -12   7   5   29.88    9.55
 -12  -7   5   14.65    9.65
  12   7   5   13.11    8.37
  12   7  -5   26.49   10.63
  12  -7   5   24.82    9.66
  12   7   5   15.35    9.49
  12  -7   6   28.04    8.67
  12   7  -6   31.52   10.96
 -12   7   6   30.42   10.73
  12   7   6   26.02   13.23
  12   7   6   43.50   12.13
  12  -7  -6   47.24   17.95
 -12  -7   6    5.60    8.86
  12   7  -7   24.12   13.06
 -12   7   7   17.40   16.02
  12   7   7    9.14   17.48
 -12  -7   7   27.14   13.74
  12  -7   7   25.18   10.28
  13  -7   0    5.14    4.79
 -13   7   0    2.66    8.28
  13   7   0   -4.12    6.74
 -13   7   0    3.02    4.96
 -13   7  -1   21.30    5.16
  13   7   1   13.76    7.75
  13  -7   1   12.91    6.52
  13  -7  -1   17.58    6.14
  13   7  -1   11.32    8.92
 -13   7   1   14.13    7.48
 -13   7  -1    8.99    5.19
 -13   7   2   61.14    9.22
  13   7   2   75.55   11.20
 -13   7  -2   69.17    6.40
  13  -7  -2   49.37    8.40
  13   7  -2   57.72    9.97
  13  -7   2   62.01    8.71
  13  -7   2   57.55    6.50
  13   7   2   76.39   11.06
  13   7   3  224.68   21.23
  13   7  -3  218.69   19.30
 -13   7   3  240.83   19.16
 -13   7  -3  219.47   19.24
  13  -7   3  232.29   17.72
  13   7   3  232.72   18.36
  13  -7  -3  236.22   17.55
  13   7   4   50.04   11.43
  13  -7  -4   45.01   10.37
  13   7   4   24.65   12.12
  13  -7   4   36.01    9.90
  13   7  -4   50.82   12.06
 -13   7   4   48.81    9.96
 -13  -7   4   32.68   14.02
 -13   7   5   65.27   13.02
  13   7  -5   46.36   12.39
  13   7   5   49.09   17.20
  13  -7   5   55.47    9.34
  13   7   5   31.94   10.62
  13  -7  -5   61.89   13.46
 -13  -7   5   46.92   12.13
  13   7  -6  245.57   23.89
 -13   7   6  218.66   23.29
 -13  -7   6  256.56   23.04
  13  -7  -6  253.93   20.47
  13  -7   6  232.78   21.99
  13   7   6  259.17   25.22
  14   7   0   16.59   10.00
 -14   7   0    1.39    4.79
  14  -7   0   -7.04    4.96
  14   7   1  119.56   34.99
 -14   7  -1   67.92    8.88
 -14   7   1   58.42   10.96
  14  -7   1   48.26    7.61
  14  -7  -1   45.69    9.21
 -14   7  -1   54.30    8.97
  14   7  -1   56.82    9.37
  14   7  -2   62.71   12.29
  14  -7   2   35.91    8.95
 -14   7   2   51.39   10.06
 -14   7  -2   39.10    6.28
  14  -7   2   35.81    6.73
  14  -7  -2   41.21   10.09
  14   7   2   33.92    9.47
  14  -7   3   13.83    6.95
 -14   7  -3   16.39    3.36
  14   7  -3   37.47   12.97
  14  -7  -3    9.82    8.61
  14   7  -3   25.08    9.23
  14   7   3   20.88   11.74
 -14   7   3   36.55   10.46
  14   7   3   15.14   12.66
  14   7   4    2.65   10.63
 -14  -7   4   20.14   14.75
  14  -7  -4   13.24   12.55
  14  -7   4   10.16   10.66
 -14   7   4   22.74   12.92
  14   7  -4   10.96   14.44
  14   7   4    6.66    8.77
  14   7  -5    1.10    9.53
 -14   7   5   11.26   12.19
  14  -7   5    6.91    8.60
  14   7   5   -2.86   11.19
 -14  -7   5    4.66    9.66
  14  -7  -5   18.46   12.35
 -14  -7   6   45.24   13.65
  14   7   6   37.42   13.61
  14  -7   6   14.75   12.89
  15   7   0   15.60    9.46
 -15   7   0   15.08    6.30
  15  -7   0   13.41    7.76
 -15   7   1  121.90   13.98
  15   7   1  134.49   16.15
  15   7  -1   96.97   12.42
  15  -7   1   96.29    9.91
  15  -7  -1  135.21   15.19
 -15   7  -1  108.10   11.11
 -15   7   2  -12.50    7.70
  15  -7  -2   -7.57    7.70
  15   7  -2    4.00    8.75
 -15   7  -2    5.29    5.34
  15  -7   2   -3.78    6.72
  15  -7   2   -4.56    6.54
  15   7   2    1.53    9.09
  15   7   3  124.51   17.45
  15  -7  -3  119.93   14.83
  15  -7   3  120.13   13.24
 -15   7   3  115.15   14.38
  15   7  -3  106.98   15.84
  15   7   4  147.65   21.79
  15   7   4  111.18   18.36
  15  -7   4  116.36   13.64
 -15   7   4  120.84   15.76
  15  -7  -4  126.11   17.78
 -15  -7   4  108.47   16.04
  15   7  -4  123.86   18.89
 -15   7   5  245.37   23.33
 -15  -7   5  220.91   26.26
  15  -7   5  203.49   20.73
  15   7   5  220.54   25.00
  16  -7   0    6.81   10.74
 -16   7   0   -4.86    9.36
  16   7   0    3.45    8.89
  16  -7  -1   34.97   11.53
 -16   7  -1   53.74    9.56
  16  -7   1   32.40    9.92
  16  -7   1   63.69   10.55
  16   7   1   65.48   16.18
 -16   7   1   50.11    9.32
  16   7  -1   65.37   14.58
 -16   7  -2   94.68    9.73
  16  -7   2   97.79   14.51
  16   7  -2   95.39   15.08
  16  -7  -2   84.27   16.30
 -16   7   2  100.91   12.30
  16   7   2   94.08   18.49
  16  -7   3   14.96   10.23
  16  -7  -3   25.30   13.26
  16   7   3    2.67   16.72
  16   7  -3   26.24   12.14
 -16   7   3   -8.28    9.27
 -16  -7   4   43.03   13.44
 -16   7   4   60.25   15.78
  16   7   4   57.04   14.10
  16  -7   4   58.07   14.55
  17  -7   0    4.45    8.41
  17   7   0    5.53   14.79
 -17   7   0    3.96    7.48
 -17   7   1   14.48    7.88
 -17   7  -1   27.08    7.21
  17  -7   1   14.91    9.20
  17  -7   1    4.40    9.84
  17  -7  -1   10.59   10.20
  17   7   1    8.60   12.52
  17   7  -1    9.26   13.01
  17  -7   2    0.43    9.30
 -17   7   2   -5.51   12.77
  17   7  -2   11.46   11.53
  17   7   2  -10.68   11.61
  17  -7  -2   -3.24   10.98
   0  -8   0  726.59   22.72
   0  -8   0  698.09   20.68
   0   8   0  698.91   38.90
   0   8   0  708.77   27.01
   0   8   1  403.28   19.17
   0  -8   1  412.97   15.43
   0  -8  -1  408.38   16.65
   0   8  -1  387.24   12.61
   0  -8  -1  421.37   18.08
   0  -8   1  415.47   15.44
   0   8   1  387.57   14.83
   0   8  -1  399.02   18.64
   0  -8   2 2075.10   91.16
   0  -8  -2 1995.34   78.36
   0  -8  -2 2195.30   95.87
   0   8  -2 2000.43   79.34
   0   8   2 2093.77   60.89
   0  -8  -2 2126.46   66.69
   0   8   2 2001.44   60.12
   0   8   3   40.69    5.43
   0  -8  -3   57.27    5.25
   0  -8   3   53.01    4.70
   0  -8  -3   52.39    7.09
   0   8   3   64.54    6.91
   0  -8  -3   52.27    5.60
   0  -8   3   54.39    4.22
   0   8   4   58.29    8.48
   0  -8   4   55.20    5.36
   0  -8   4   53.91    4.56
   0   8   4   50.46    5.99
   0  -8  -4   52.62    9.58
   0  -8  -4   52.42    8.67
   0  -8  -4   58.79    6.86
   0  -8   4   51.66    5.23
   0  -8  -5   28.21    8.58
   0  -8   5   21.26    5.11
   0  -8   5   23.38    3.14
   0   8   5   13.33    7.70
   0  -8  -5   16.46    6.55
   0   8   5   34.50    9.01
   0   8  -5   20.77    2.40
   0  -8   5   23.69    4.03
   0   8   6  302.24   15.63
   0  -8   6  302.26   28.57
   0  -8   6  324.13   15.46
   0  -8   6  307.30   15.89
   0   8  -6  312.70   14.89
   0  -8  -6  285.37   16.71
   0  -8  -6  262.48   17.69
   0   8   6  294.33   19.62
   0  -8  -7    5.28    8.86
   0  -8   7   -0.48    5.33
   0   8   7   19.82    7.83
   0  -8   7    4.65    6.76
   0   8   7    4.13    7.85
   0  -8  -8  377.42   25.13
   0   8   8  328.56   20.31
   0   8   8  325.02   20.14
   0   8   9   55.40   11.67
   0  -8  -9   53.68   11.87
   0   8   9   62.45   16.35
  -1  -8   0   56.75    3.27
   1  -8   0   44.20    3.42
  -1   8   0   41.45    3.68
  -1   8   0   46.59    3.86
   1   8   0   51.99    5.01
  -1  -8   0   45.77    4.09
   1   8   0   44.32    3.66
   1  -8   0   46.92    4.20
   1   8   1  178.96    7.73
   1   8   1  194.37    9.58
   1   8  -1  186.17    9.36
   1  -8  -1  171.46    9.80
  -1  -8  -1  179.08    8.95
   1   8  -1  192.81    8.90
   1  -8  -1  153.05    7.99
  -1  -8   1  190.44    7.65
  -1   8   1  161.93    8.12
   1  -8  -1  168.68    8.54
   1  -8   1  179.82    7.66
  -1  -8  -1  175.27    9.69
   1  -8   1  185.72    6.05
  -1   8   1  170.37    6.87
  -1   8  -1  166.20    9.72
  -1  -8   1  175.59    9.06
   1   8   2    2.24    4.76
  -1  -8   2    7.56    2.64
   1   8  -2    7.02    3.24
  -1   8   2    1.19    3.39
  -1   8   2   11.88    4.06
   1   8  -2   10.74    1.03
   1  -8  -2   13.42    4.49
  -1  -8   2    5.35    2.44
   1  -8   2   10.09    2.87
  -1  -8  -2    8.70    5.27
  -1  -8  -2    6.82    3.50
   1   8   2    8.27    4.94
   1  -8  -2    9.01    3.67
  -1   8  -2    9.72    2.56
   1  -8  -2   15.33    3.80
  -1  -8   3  889.80   44.07
   1   8   3  814.55   26.15
   1  -8   3  824.90   34.72
  -1  -8   3  846.21   33.63
   1  -8  -3  850.37   31.78
  -1   8   3  831.18   24.26
   1  -8  -3  799.99   35.44
   1   8   3  836.55   34.65
   1  -8   3  833.36   37.94
  -1  -8  -3  895.26   34.06
  -1  -8  -3  820.20   27.39
   1  -8  -3  813.01   29.15
  -1  -8  -3  911.18   38.43
  -1   8   3  829.52   34.18
   1   8  -4  159.93    6.84
  -1  -8  -4  161.82   11.60
  -1  -8  -4  175.43   10.86
   1  -8  -4  175.35   14.45
   1  -8   4  178.17    9.43
  -1   8   4  164.73   10.25
   1  -8  -4  150.72   10.57
   1   8   4  161.12   11.36
  -1  -8  -4  181.39   11.43
   1  -8   4  179.08    8.05
   1  -8   4  172.38    7.57
  -1  -8   4  160.17    7.93
   1   8   4  168.59   13.07
   1  -8  -4  173.46   13.20
  -1  -8   4  163.00   11.67
  -1   8   4  162.42   11.15
   1   8  -5  668.49   29.18
   1  -8   5  721.78   23.93
  -1  -8   5  702.65   28.58
  -1   8   5  731.45   31.25
   1  -8   5  698.19   39.52
   1   8   5  690.98   25.66
  -1  -8   5  716.16   24.27
   1  -8   5  715.66   26.96
  -1  -8  -5  687.18   28.86
  -1  -8  -5  686.44   34.64
   1   8   5  661.40   26.51
  -1   8   5  699.45   28.31
   1  -8  -5  700.25   40.46
  -1  -8   5  735.80   31.02
  -1   8  -5  689.77   27.46
   1  -8  -5  676.70   27.82
  -1  -8  -6  710.03   30.47
  -1  -8  -6  699.78   41.35
   1   8  -6  712.68   30.21
  -1   8   6  696.39   30.10
  -1   8   6  649.53   33.85
  -1  -8   6  713.18   31.38
   1  -8  -6  696.53   38.73
   1   8   6  668.03   30.34
  -1   8  -6  698.95   35.33
  -1  -8   6  747.58   44.70
  -1  -8   6  734.50   47.70
   1  -8   6  709.73   30.83
   1  -8   6  746.74   35.03
   1  -8   6  729.93   30.76
   1   8   6  779.21   36.60
   1  -8   7    7.70    3.17
   1   8   7   -6.84    6.94
  -1   8   7    8.72    7.84
   1  -8   7   15.41    4.84
  -1  -8   7   10.30    4.80
   1  -8   7   -3.62    4.84
   1   8   7   10.91    8.47
  -1  -8   7    0.95    6.32
  -1   8   7    3.93    8.42
  -1  -8  -7    6.79    7.24
   1  -8  -7    5.54    6.41
   1   8   8  165.44   19.03
  -1  -8   8  130.96   10.40
  -1   8   8  118.72   15.67
  -1   8   8  112.79   13.18
   1   8   8  117.09   17.94
   1  -8  -8  126.03   14.43
  -1  -8  -8  120.47   13.80
   1   8   9   49.95   12.39
  -1   8   9   10.92   12.40
  -1   8   9   33.86   15.84
   1  -8  -9   23.21   10.18
   1   8   9   17.75   12.41
  -1  -8  -9   23.41   10.67
   2   8   0  337.93   14.89
  -2  -8   0  334.85   14.56
   2  -8   0  261.15    9.20
  -2   8   0  252.95   13.18
   2  -8   0  252.43   11.48
   2   8   0  320.21   14.93
   2  -8   0  250.92   10.19
   2   8   1 3283.92  114.61
   2  -8   1 3300.20  124.54
  -2  -8  -1 3401.66   94.86
   2  -8  -1 3412.88  148.01
  -2   8  -1 3282.36  163.40
   2  -8   1 3416.31  188.36
  -2  -8  -1 3478.40  123.60
   2  -8  -1 3189.52   87.87
  -2   8   1 3267.57  121.77
  -2  -8   1 3348.64  130.85
   2  -8  -1 3487.75  114.33
   2   8   1 3349.82  108.91
   2   8  -1 3370.29  130.59
  -2   8   1 3221.25   94.78
   2   8  -1 3279.85  104.52
  -2   8   2  476.68   24.87
  -2  -8   2  504.61   20.91
   2   8   2  477.81   26.61
   2  -8  -2  449.45   17.94
  -2  -8   2  490.33   18.20
   2   8  -2  463.11   22.37
  -2  -8  -2  543.74   26.26
   2  -8  -2  478.27   19.94
   2  -8  -2  443.47   16.83
   2   8  -2  481.92   23.06
   2   8   2  479.81   20.76
  -2   8  -2  442.79   21.38
  -2   8   2  431.17   17.64
   2  -8   2  462.72   17.57
   2  -8   2  472.08   18.64
   2  -8   2  443.26   16.77
  -2  -8  -2  508.28   21.29
   2  -8   3  145.17    6.51
   2  -8  -3  143.65   12.04
   2   8   3  141.80    8.93
   2   8   3  142.10    8.73
  -2  -8   3  138.74    7.49
   2  -8  -3  143.47   10.74
   2   8  -3  151.83    5.88
   2   8  -3  147.92    6.60
  -2   8   3  139.14   10.23
  -2  -8   3  135.56    9.30
  -2  -8  -3  143.08   10.47
   2  -8   3  135.89    7.74
  -2   8   3  131.55    7.39
   2  -8  -3  125.19    8.39
  -2  -8  -3  141.27    9.27
   2  -8   4   42.42    3.37
   2  -8   4   37.11    3.56
   2  -8  -4   35.28    7.43
   2  -8   4   36.82    3.30
  -2  -8  -4   23.54    6.39
  -2  -8  -4   27.87    6.08
   2  -8   4   36.12    1.75
   2  -8  -4   45.14    5.31
  -2   8   4   33.15    6.20
  -2   8   4   54.55    8.26
   2  -8  -4   55.23   10.14
   2   8   4   29.79    4.97
  -2  -8   4   31.01    4.85
  -2  -8   4   35.86    5.02
   2   8   4   32.60    7.56
  -2  -8  -4   28.22    5.25
   2   8  -4   36.54    2.95
  -2  -8   5  135.71   10.98
   2  -8   5  168.58    8.67
  -2   8   5  146.60    9.46
   2  -8   5  156.36   12.21
  -2  -8   5  147.81    9.16
  -2  -8   5  147.40    8.22
   2  -8  -5  145.39   13.18
   2   8   5  172.13   13.72
   2   8   5  141.35   11.76
  -2  -8  -5  141.74   12.80
   2  -8  -5  137.16   11.53
  -2  -8  -5  155.61   10.43
   2  -8   5  159.88    6.86
   2   8  -5  153.40    8.11
  -2   8   5  148.43   11.00
   2  -8   5  169.69    8.37
   2   8   6  949.45   45.43
   2  -8  -6  902.57   44.97
  -2  -8   6  933.97   38.84
  -2  -8  -6  903.08   40.24
   2   8  -6  941.16   41.73
   2  -8   6  995.03   63.67
   2  -8   6  978.74   38.32
  -2  -8   6  960.76   62.39
   2  -8   6  958.44   37.45
   2   8   6  891.21   36.26
  -2  -8  -6  988.54   50.77
  -2   8  -6  924.30   54.82
  -2   8   6  944.16   44.07
  -2   8   6  987.12   40.30
   2  -8   6  946.53   44.66
  -2  -8  -7   32.15    7.36
   2   8  -7   23.83    5.94
  -2  -8   7   12.50    5.98
   2  -8  -7   29.10    8.56
   2   8   7   27.16    8.59
  -2  -8   7   21.99    5.23
   2  -8   7   31.25    4.92
   2  -8   7   28.94    3.62
  -2   8   7   15.16    8.28
   2  -8   7   32.78    4.71
   2  -8   7   24.64    3.61
   2   8   7   25.47    8.95
  -2   8   7   25.50    7.67
   2   8   8  163.28   14.89
  -2  -8   8  145.05   13.83
  -2   8   8  113.24   16.09
   2   8   8  126.47   14.88
   2  -8  -8  137.74   15.87
  -2  -8  -8  139.37   14.59
  -2   8   8  148.57   14.71
   2   8  -8  154.32   12.91
  -2   8   9    5.31   18.40
  -2   8   9    2.80   10.24
   2   8   9   14.10   13.48
  -2  -8  -9   20.94   11.89
   2   8   9    0.53   17.15
   2  -8  -9    8.89   14.88
   3  -8   0   30.37    3.89
  -3  -8   0   37.19    5.30
   3  -8   0   28.37    3.85
  -3   8   0   24.59    2.98
   3   8   0   30.35    4.53
  -3  -8   0   31.39    4.17
   3  -8   0   27.64    3.65
   3   8   0   32.28    3.28
   3  -8   1  965.60   26.64
   3   8   1  916.47   36.98
   3  -8   1  959.55   34.95
   3   8  -1  868.20   38.09
   3  -8   1  892.41   25.50
   3  -8  -1  969.48   33.91
  -3  -8  -1  936.16   28.92
   3  -8  -1  899.34   27.09
  -3  -8   1  920.06   34.27
   3   8  -1  933.91   38.04
  -3   8  -1  922.25   32.07
   3  -8  -1  877.38   30.31
   3   8   1  917.76   30.64
  -3   8   1  902.14   32.17
  -3  -8  -1  930.65   40.76
  -3  -8  -2  312.93   16.86
  -3   8  -2  277.41   13.94
   3   8  -2  301.51   16.08
   3  -8   2  290.95   11.12
   3   8   2  303.36   13.97
   3  -8   2  301.58   13.01
   3  -8   2  295.29   15.34
   3  -8  -2  285.22   13.52
   3   8   2  312.78   14.77
   3   8  -2  300.25   14.71
  -3   8   2  309.40   13.58
   3  -8  -2  328.49   14.19
  -3  -8   2  318.50   12.75
  -3  -8  -2  339.87   16.17
   3  -8  -2  322.07   16.40
   3  -8   2  284.42   11.84
  -3   8   2  318.28   15.23
  -3  -8   2  315.56   14.93
   3  -8   3  152.62    7.88
  -3   8   3  145.42    8.34
   3  -8  -3  153.90    9.95
   3   8   3  130.13    8.83
  -3  -8   3  153.45   10.04
   3   8   3  145.64   10.06
   3  -8   3  153.86    8.82
   3  -8   3  141.85    6.68
   3  -8  -3  151.27   10.60
  -3   8   3  159.85   10.97
  -3  -8  -3  156.77   10.98
  -3  -8  -3  144.87   10.91
   3  -8   3  144.00    7.40
   3  -8   3  146.82    6.56
  -3   8   3  145.00    9.57
  -3  -8   3  154.31    7.90
   3  -8  -3  152.24   12.11
   3  -8  -4  351.45   21.48
   3  -8   4  321.35   12.70
   3   8   4  379.40   14.40
  -3  -8  -4  355.50   16.74
   3  -8   4  320.95   17.34
   3  -8  -4  329.63   21.32
  -3  -8   4  380.20   15.94
   3   8   4  378.11   15.99
  -3   8   4  362.26   15.36
  -3  -8   4  381.08   14.79
  -3  -8  -4  354.55   18.33
   3   8  -4  350.97   13.35
  -3   8   4  330.97   18.91
   3  -8   4  333.15   15.62
  -3  -8  -4  339.24   23.91
  -3   8   4  333.74   21.66
   3  -8   4  334.73   15.34
   3  -8   4  314.87   12.82
   3  -8  -4  342.33   18.61
   3  -8  -5  130.94   10.22
   3  -8   5  133.88    8.88
   3   8   5  124.17   12.31
   3  -8   5  114.63    6.10
  -3  -8  -5  126.37    9.70
  -3  -8   5  120.88    9.71
   3  -8  -5  103.84   11.26
  -3  -8   5  126.26    8.93
   3   8  -5  126.74    9.87
  -3   8   5  119.38   10.61
   3  -8   5  111.51    4.31
   3   8   5  119.45   10.32
   3  -8   5  131.72    6.41
  -3   8   5  122.08   13.20
  -3  -8   5  118.73    9.69
  -3   8   5  141.78   13.42
  -3  -8  -5  129.44   13.28
   3  -8   6  474.73   31.86
   3   8   6  465.58   24.25
  -3   8   6  452.60   21.08
  -3   8   6  448.40   22.10
  -3  -8   6  526.02   26.62
   3   8  -6  470.08   22.48
   3   8   6  519.48   27.54
   3  -8   6  488.09   31.97
   3  -8  -6  437.83   23.22
   3   8  -6  472.16   28.96
  -3  -8  -6  486.08   22.74
  -3  -8   6  480.91   23.46
  -3  -8  -6  480.50   28.42
   3  -8   6  469.50   21.30
  -3   8   7  384.41   20.79
   3   8   7  370.78   19.99
   3  -8  -7  346.32   21.53
  -3   8   7  378.67   29.44
   3   8   7  343.22   22.92
   3  -8   7  383.50   16.81
   3   8  -7  380.06   24.42
  -3  -8   7  379.21   21.58
   3  -8   7  388.68   24.63
  -3  -8   7  371.77   20.17
  -3  -8  -7  358.79   21.90
   3  -8   7  369.09   21.49
   3   8   8   57.26   13.26
  -3  -8  -8   58.61    9.77
  -3  -8   8   60.97   10.28
   3  -8   8   53.87    6.69
   3   8  -8   66.27    9.19
   3  -8  -8   69.59   13.75
   3   8   8   56.63    9.11
  -3   8   8   45.71   12.23
  -3   8   8   50.28   12.70
  -3   8   9  272.52   20.25
  -3   8   9  296.93   23.65
   3  -8  -9  263.95   26.39
   3   8   9  329.87   23.87
   3   8   9  291.38   26.89
  -3  -8  -9  278.96   21.27
   4   8   0  575.13   19.25
  -4  -8   0  560.13   19.51
  -4   8   0  502.75   18.03
   4  -8   0  522.19   20.28
   4  -8   0  538.72   17.96
   4  -8   0  522.27   16.84
  -4  -8   0  570.25   22.45
   4   8   0  562.80   25.66
   4  -8  -1  741.38   36.34
   4  -8   1  747.33   31.56
  -4  -8  -1  793.65   28.19
  -4  -8   1  762.04   28.74
   4  -8   1  741.94   21.36
  -4  -8   1  768.13   31.74
  -4   8   1  727.15   27.30
  -4  -8  -1  764.85   24.96
  -4   8   1  753.33   26.19
   4   8   1  716.40   29.22
   4   8  -1  740.53   25.77
   4  -8  -1  734.34   22.56
   4   8  -1  756.96   25.27
   4  -8   1  724.91   20.84
   4  -8  -1  740.98   27.05
  -4   8  -1  669.52   27.59
   4   8   1  729.98   28.45
  -4  -8   2  407.92   16.44
  -4   8   2  407.55   17.39
  -4  -8  -2  412.67   17.22
   4  -8   2  364.64   14.95
   4  -8  -2  377.46   18.63
   4  -8   2  359.36   12.81
   4  -8  -2  335.16   18.38
  -4   8  -2  343.16   17.42
  -4  -8   2  395.83   19.49
  -4  -8  -2  404.96   19.31
   4   8  -2  391.40   16.21
   4  -8  -2  340.13   13.57
   4   8   2  396.79   18.56
  -4   8   2  356.63   15.62
   4   8   2  381.80   16.76
  -4  -8   3  134.32    9.41
  -4   8   3  142.06    9.33
   4  -8   3  110.81    4.40
   4  -8  -3  135.62   10.52
  -4   8   3  120.83    8.65
  -4  -8   3  150.26    8.51
   4  -8  -3  121.20    9.46
   4  -8  -3  129.09   10.56
   4   8   3  129.67    9.90
   4   8   3  146.79    9.65
  -4  -8  -3  134.78   10.27
  -4  -8  -3  141.65   10.60
   4  -8   3  118.56    5.86
   4  -8  -4  101.87    9.73
   4   8   4  124.51   11.53
  -4  -8   4  130.64    8.38
  -4  -8  -4  109.27    9.01
  -4   8   4   99.41    8.40
  -4  -8   4  114.75   11.10
   4  -8  -4  102.07   10.20
  -4   8   4  108.02    9.72
   4  -8   4  103.13    5.25
   4  -8  -4  105.87   10.11
   4   8  -4  104.91    5.83
  -4  -8  -4  120.59   11.39
   4   8   4  118.21   10.79
   4   8   5  192.31   13.11
  -4  -8  -5  180.04   14.35
   4  -8  -5  209.96   12.15
   4  -8   5  195.67    8.92
   4   8  -5  175.94    9.84
   4   8   5  181.51   11.50
  -4   8   5  184.31   14.63
  -4   8   5  200.58   14.80
  -4  -8   5  178.82   11.15
  -4  -8  -5  170.65   11.74
   4   8  -5  192.32   12.52
  -4   8   5  191.08   11.61
  -4  -8   5  202.72   12.52
   4  -8  -6  102.92    9.73
  -4   8   6  135.75   11.01
  -4  -8  -6  127.23   13.44
  -4  -8   6  114.27    9.27
   4   8   6  116.10   12.52
  -4  -8  -6  139.76   13.72
  -4  -8   6   97.31    9.07
   4   8   6   99.33   11.31
   4   8  -6   97.15    9.27
   4  -8   6  117.35    7.09
   4  -8   6  112.54    9.92
   4   8  -6  109.92   10.20
   4  -8   6  108.89    7.09
  -4   8   6  111.32   11.65
  -4  -8  -7  146.64   14.06
   4  -8  -7  152.44   14.31
  -4  -8   7  151.55   12.89
   4  -8   7  151.92    9.04
   4   8  -7  140.35   10.32
   4   8   7  133.26   16.80
   4  -8   7  152.77   12.52
  -4  -8   7  124.31   12.95
  -4   8   7  160.61   13.07
   4   8   7  143.32   16.93
   4  -8   8   58.33    9.30
   4   8  -8   68.91    8.31
  -4  -8   8   39.03    9.41
   4   8   8   69.92   12.26
   4  -8  -8   66.97    9.45
  -4   8   8   43.19   11.65
   4   8   8   83.01   17.19
   4  -8  -9   64.49   12.07
  -4  -8  -9   77.68    9.92
  -4   8   9  113.95   15.46
   4   8   9   82.53   18.69
   4   8   9   79.53   19.73
  -5  -8   0  119.08    9.25
   5  -8   0  117.76    6.79
   5  -8   0  112.77    6.43
  -5   8   0  114.12    6.27
   5   8   0  122.29    8.70
  -5  -8   0  120.05   10.31
   5  -8   0  125.27    8.27
  -5   8   0  119.59    6.57
   5   8   0  103.64    7.81
   5   8  -1   99.06    7.06
  -5   8   1   79.64    6.66
  -5  -8  -1  106.35    7.75
  -5  -8   1  100.23    7.41
   5  -8   1   80.18    5.37
  -5  -8  -1   94.92    7.72
  -5   8  -1   88.72    4.29
   5  -8   1   88.82    6.83
  -5   8   1   93.06    7.16
   5   8   1  114.43    8.19
   5  -8  -1   89.56    7.74
   5  -8  -1   84.37    5.71
   5   8  -1   88.51    6.68
   5  -8  -1   99.91    7.58
  -5  -8   1  109.59    7.65
  -5  -8   2 1364.09   56.67
   5  -8  -2 1348.06   59.45
   5   8   2 1269.27   41.89
   5  -8  -2 1287.92   37.63
  -5  -8  -2 1317.19   70.98
  -5  -8  -2 1248.38   39.53
   5  -8   2 1314.08   39.98
  -5   8  -2 1177.45   64.43
  -5  -8   2 1275.60   57.02
  -5   8   2 1285.39   43.86
   5   8   2 1278.69   54.20
   5   8  -2 1258.06   43.98
   5  -8  -2 1352.98   57.26
  -5   8   2 1373.27   50.95
   5   8   3   60.47    8.69
   5  -8  -3   54.17    6.86
  -5  -8   3   61.17    7.32
   5   8   3   57.42    7.99
   5  -8   3   60.21    2.96
  -5  -8   3   50.84    7.26
   5  -8  -3   47.06    7.41
   5  -8  -3   40.96    6.20
   5  -8   3   58.83    3.87
  -5   8   3   62.09    7.73
  -5   8   3   69.33    8.31
  -5  -8  -3   51.44    6.30
  -5  -8  -3   62.75    7.35
  -5  -8   4  214.52   13.40
   5   8   4  218.66   11.81
   5  -8  -4  253.31   18.09
   5  -8  -4  243.28   12.95
  -5  -8   4  240.05   13.54
  -5  -8  -4  219.01   17.55
   5   8   4  221.55   13.92
   5  -8   4  253.28   11.43
  -5  -8  -4  243.76   16.65
  -5   8   4  231.57   14.94
   5  -8  -4  238.71   18.69
  -5   8   4  231.08   15.03
   5  -8  -5  282.07   15.62
   5   8  -5  301.87   17.79
  -5  -8   5  286.47   15.21
   5   8   5  287.14   14.37
  -5  -8  -5  305.21   17.57
   5   8   5  290.62   17.32
   5   8  -5  285.40   18.81
  -5  -8  -5  272.84   14.88
  -5   8   5  274.56   15.31
  -5  -8   5  283.07   20.07
   5  -8   5  305.20   13.81
  -5  -8  -6   16.94    5.71
  -5  -8   6    9.78    8.08
  -5   8   6    7.54    7.32
   5   8   6   -0.59   10.59
   5  -8  -6    5.71    7.38
  -5  -8   6    2.74    5.85
   5   8  -6    7.63    4.56
  -5  -8  -6   -0.64    7.74
   5   8   6   12.92    7.03
   5  -8   6    9.44    3.24
   5   8  -6    6.40    3.84
  -5  -8  -7  324.63   18.21
   5   8   7  321.96   21.36
  -5  -8   7  338.68   20.59
   5   8  -7  323.33   19.81
   5   8   7  342.53   23.03
   5  -8   7  312.87   15.37
  -5   8   7  326.01   18.66
  -5  -8   7  300.33   26.89
   5  -8  -7  294.19   19.46
  -5   8   8   69.44   14.83
  -5  -8   8   69.39   13.91
   5   8   8   81.17   12.68
  -5  -8  -8   98.58   13.52
   5  -8  -8   92.96   16.12
   5   8  -8   89.98   11.40
   5   8   8   82.84   15.71
  -5   8   9   -5.28   14.14
   5   8   9   17.11   16.38
  -5  -8  -9    4.46    8.93
   5  -8  -9    0.51   11.84
   5   8   9   -7.27   12.34
  -6  -8   0  683.52   38.38
   6  -8   0  707.97   24.68
   6   8   0  676.01   25.33
   6  -8   0  675.07   29.40
  -6   8   0  697.17   26.22
   6   8   0  663.04   24.48
  -6   8   0  679.38   22.60
  -6  -8   0  678.85   28.96
   6   8  -1  287.70   12.29
   6  -8  -1  270.97   14.65
   6  -8   1  266.99   15.26
  -6  -8  -1  316.01   17.90
   6   8   1  277.36   14.13
  -6   8   1  274.64   13.39
  -6  -8   1  281.48   15.16
  -6  -8   1  283.19   17.19
  -6   8  -1  258.88    9.29
  -6   8   1  265.97   12.31
   6  -8  -1  266.30   12.31
  -6  -8  -1  306.96   17.69
   6   8  -1  283.21   13.33
   6  -8  -1  255.19   11.42
   6   8   1  290.85   14.53
   6  -8   1  259.32   11.46
  -6  -8   2  252.87   15.02
  -6   8   2  281.06   14.65
  -6  -8   2  248.33   13.98
   6   8   2  266.89   12.18
  -6  -8  -2  295.97   12.62
  -6  -8  -2  263.02   19.09
   6  -8  -2  234.72   11.23
  -6   8   2  263.02   13.67
   6   8  -2  265.47   11.95
  -6   8  -2  232.65   12.43
   6  -8  -2  260.90   13.77
   6  -8  -2  248.67   16.70
   6   8   2  230.26   11.14
   6  -8   2  261.87   10.20
  -6  -8  -3  785.37   49.85
   6   8   3  763.04   40.63
   6   8   3  730.58   28.01
   6  -8  -3  815.18   45.92
  -6  -8   3  789.73   36.21
  -6   8   3  775.43   27.43
   6  -8   3  721.91   29.35
  -6  -8   3  779.27   47.84
   6  -8   3  793.54   34.36
   6  -8  -3  752.17   30.11
  -6  -8  -3  752.57   39.43
  -6   8   3  851.72   38.63
   6  -8  -3  755.56   38.59
   6   8  -4  145.43   12.57
   6  -8  -4  155.53   11.62
  -6  -8  -4  147.72   14.29
   6   8   4  151.68    9.93
   6  -8   4  134.49    8.11
  -6   8   4  134.65   12.36
  -6   8   4  134.05   10.73
   6   8   4  160.22   13.31
  -6  -8   4  156.02   11.07
  -6   8   5   23.47    7.77
   6  -8  -5   33.27    7.32
  -6  -8   5   19.13    8.62
   6   8  -5   22.86    5.51
  -6  -8  -5   20.26    7.45
   6   8   5   24.90    7.06
  -6  -8   5   23.77    5.51
   6   8   5   13.19    7.17
   6   8  -5   18.41    7.27
   6  -8   5   27.61    4.43
  -6  -8  -6    4.77    5.55
  -6   8   6    3.70    7.43
  -6  -8   6    4.52    5.21
   6  -8   6    4.48    3.69
   6   8   6    9.82    7.42
   6   8  -6    3.68    4.46
   6   8  -6    6.29    6.03
  -6  -8  -6    6.46   10.21
   6  -8  -6   18.65    8.02
   6   8   6   -2.27   10.58
   6   8   7   26.10    8.48
   6   8  -7   30.22    6.92
  -6   8   7   13.43    9.29
   6  -8   7   25.56    6.07
   6   8   7   20.85   10.35
   6  -8  -7   35.47   12.24
  -6  -8   7   31.76   10.47
  -6  -8  -7   17.35    6.63
  -6  -8   8  178.54   15.00
   6   8   8  192.18   19.46
  -6  -8  -8  188.69   16.13
   6  -8  -8  194.29   15.37
   6   8   8  146.16   18.38
   6   8  -8  192.94   15.58
  -6   8   8  205.94   19.01
   6   8   9   27.52   15.02
  -6   8   9   21.26   14.59
  -6  -8  -9   10.82    8.43
   6   8  -9   24.99   10.65
   6   8   9   35.13   19.54
   6  -8  -9   31.16   18.99
  -7   8   0   99.15    6.56
   7  -8   0   82.31    6.44
   7   8   0   86.71    7.33
   7  -8   0   97.30    6.42
  -7  -8   0   75.62    8.07
   7   8   0   90.63    7.22
  -7  -8   0   79.77    9.13
  -7   8   0   99.89    7.34
  -7  -8  -1  400.70   23.83
  -7  -8   1  408.28   23.72
   7  -8  -1  391.37   15.75
  -7  -8   1  435.59   24.13
   7  -8  -1  416.11   16.63
   7   8  -1  421.90   18.18
   7   8   1  434.34   18.94
   7   8   1  403.24   19.08
   7  -8   1  381.33   15.93
  -7   8  -1  364.33   12.24
  -7   8   1  359.48   17.90
   7   8  -1  396.21   20.54
  -7   8  -1  386.68   14.85
  -7   8   1  421.64   21.02
   7  -8  -1  417.93   20.82
  -7  -8  -1  417.95   23.01
   7   8  -2  208.51   11.70
   7  -8  -2  240.61   16.49
  -7   8  -2  218.27    9.68
   7   8   2  225.04   15.06
  -7  -8   2  214.87   17.58
  -7   8   2  228.14   10.88
   7  -8  -2  245.07   15.19
  -7  -8   2  195.01   12.87
   7   8   2  235.80   12.76
  -7  -8  -2  230.47   14.84
   7  -8   2  233.51   10.68
   7  -8  -2  232.33   12.74
  -7   8   2  244.54   12.79
  -7   8  -2  239.30   10.72
  -7  -8  -2  218.28   17.31
  -7  -8   3  641.91   41.25
  -7  -8  -3  598.71   53.57
   7  -8   3  613.24   25.12
   7   8   3  585.28   31.74
   7  -8   3  613.78   28.58
  -7  -8   3  594.33   26.69
   7  -8  -3  633.49   29.00
   7  -8  -3  589.44   30.56
  -7  -8  -3  647.13   33.75
   7  -8  -3  625.04   34.12
   7   8   3  622.65   27.14
  -7   8   3  577.76   22.22
  -7   8   3  664.57   39.94
  -7   8   4  123.25   10.88
   7  -8  -4  132.43   11.62
   7   8   4  116.70    9.47
  -7  -8   4  122.15   11.78
   7  -8   4  120.91    6.95
   7   8  -4  128.13   10.13
   7   8   4  136.17   11.06
  -7  -8  -4  117.04   10.12
   7   8  -5   24.82    8.70
   7  -8  -5   24.61   10.26
  -7   8   5   26.24    7.75
   7   8   5   24.77    7.30
   7   8  -5    8.41    4.65
   7   8   5    8.97    7.49
  -7  -8   5   16.10    8.33
   7  -8   5   19.53    4.95
  -7  -8  -5   14.77   10.02
   7   8  -6  130.09   12.65
  -7  -8   6   93.43   11.18
   7   8   6  105.41   12.99
   7   8  -6  125.65   11.94
  -7  -8  -6   77.17   15.96
  -7  -8  -6  110.43   10.49
   7  -8   6  117.73    8.82
   7   8   6  143.13   12.19
   7  -8  -6  128.62   11.49
  -7   8   6  109.99   11.63
   7  -8  -7  145.08   13.89
   7   8   7  120.88   15.36
   7   8  -7  129.36   13.09
  -7   8   7  122.28   13.84
   7   8   7  127.38   13.14
  -7  -8   7  130.11   12.97
   7  -8   7  123.05   11.46
  -7  -8  -7  115.69   11.53
  -7  -8   8  230.33   20.24
   7   8   8  255.38   23.73
   7  -8  -8  268.01   24.63
   7   8   8  216.57   26.05
  -7   8   8  227.03   22.35
  -7  -8  -8  238.40   19.47
   7   8  -8  240.03   22.03
   7   8   9   50.95   16.94
  -7   8   9   44.80   13.86
   7   8  -9   58.30   13.12
   8   8   0  253.73   12.88
   8  -8   0  272.16   11.73
   8   8   0  280.47   14.17
  -8  -8   0  271.25   15.59
  -8   8   0  281.49   12.00
  -8   8   0  298.76   14.55
  -8  -8   0  278.58   18.22
   8   8  -1  157.01    8.86
  -8  -8  -1  162.20   10.77
  -8  -8   1  163.63   13.98
   8  -8  -1  178.04   11.11
  -8  -8  -1  145.13    9.69
   8   8   1  155.95   10.97
  -8  -8   1  160.21   12.22
  -8   8  -1  160.19    8.37
  -8   8   1  156.40    8.75
   8  -8  -1  177.55   10.66
   8  -8   1  146.10    9.41
  -8   8   1  172.62   12.04
  -8   8  -1  160.37    7.77
   8   8   1  152.07    9.10
  -8   8   2  133.82    8.32
  -8   8  -2  143.33    6.68
  -8  -8  -2  123.19   12.26
   8  -8  -2  156.71   11.53
   8   8   2  121.69    9.43
  -8   8  -2  129.34    5.69
  -8  -8   2  121.59   11.50
  -8  -8  -2  119.98   12.50
  -8   8  -2  139.38    6.76
   8  -8   2  139.64    6.93
  -8  -8   2  141.19   12.26
  -8   8   2  159.18   12.63
   8   8  -2  137.79    9.87
   8  -8  -2  137.66   11.36
  -8  -8  -2  161.62   12.72
   8   8   2  117.59    9.29
   8  -8  -2  147.51   10.91
  -8   8   3  378.01   28.29
   8   8   3  382.82   21.03
   8  -8   3  366.84   13.92
   8  -8   3  374.19   19.83
  -8  -8  -3  334.03   25.37
   8  -8  -3  383.72   19.62
  -8  -8   3  361.79   23.80
  -8   8   3  375.46   20.21
   8   8   3  366.22   19.97
  -8   8   4  158.43   11.39
   8  -8  -4  164.23   12.36
   8   8  -4  143.79   11.91
   8   8   4  202.37   13.26
   8  -8   4  163.96    9.89
  -8  -8  -4  160.88   14.78
   8   8   4  144.66   14.60
   8  -8  -5  236.77   19.25
   8   8   5  259.40   20.59
  -8   8   5  251.22   17.53
  -8  -8  -5  207.16   16.87
  -8  -8   5  249.32   16.92
   8   8   5  243.64   18.12
   8   8  -5  240.04   14.09
   8  -8   5  262.36   15.79
   8   8  -5  211.27   16.54
   8   8   6  218.20   20.24
   8   8  -6  194.62   18.38
   8   8   6  223.74   22.02
   8  -8   6  252.24   16.34
  -8  -8   6  216.57   16.73
  -8   8   6  231.58   20.76
   8   8  -6  199.33   16.56
  -8  -8  -6  154.32   31.37
  -8  -8   7   58.05   13.99
  -8  -8  -7   59.89   11.35
   8   8  -7   62.49    9.32
   8  -8   7   43.71    8.83
   8   8   7   68.71   10.14
   8  -8  -7   43.72   12.88
   8   8   7   58.84   12.00
  -8   8   7   44.39   12.69
  -8  -8   8   63.63   12.88
  -8  -8  -8   49.13    9.37
   8  -8  -8   64.41   18.63
  -8   8   8   32.73   13.38
   8   8  -8   48.23    9.24
   8   8   8   36.55   12.44
   8   8   8   42.27   12.76
   9   8   0   13.20    6.87
  -9   8   0   17.88    4.40
  -9  -8   0   18.81    5.82
   9   8   0   21.65    5.61
   9  -8   0   13.59    4.42
  -9   8   0   14.84    3.74
  -9  -8   0   21.52    6.49
   9   8   1  254.16   15.85
   9   8  -1  235.44   12.39
  -9   8  -1  209.92   11.87
  -9   8   1  209.05   11.42
  -9  -8   1  229.11   18.31
  -9  -8  -1  219.67   14.52
  -9   8  -1  195.09    9.12
   9  -8  -1  205.29   14.63
   9   8   1  226.48   11.61
  -9   8   1  216.44   13.85
  -9  -8   1  239.27   17.84
  -9  -8  -1  242.10   18.51
   9  -8   1  189.29   10.85
   9  -8  -2  843.27   40.87
   9  -8  -2  844.73   58.20
  -9   8   2  895.57   36.94
  -9   8  -2  879.25   39.52
   9   8  -2  895.64   46.50
  -9   8  -2  894.68   35.32
  -9  -8   2  871.46   51.47
  -9   8  -2  813.63   34.18
  -9   8   2  901.96   47.96
  -9  -8  -2  913.18   49.03
   9  -8   2  900.76   45.11
   9   8   2  847.15   37.01
  -9  -8  -2  857.73   54.19
   9   8   2  845.03   43.09
   9   8   3  877.88   39.86
  -9   8   3  840.48   35.04
   9   8   3  931.60   60.87
   9  -8   3  901.61   44.50
  -9  -8  -3  847.38   52.44
   9  -8  -3  880.96   44.31
  -9  -8  -3  888.95   68.47
   9  -8   3  858.95   43.53
  -9   8   4  440.14   25.12
   9  -8   4  396.56   24.59
   9   8   4  436.40   23.99
   9  -8  -4  431.33   26.92
   9   8   4  400.81   21.77
  -9  -8  -4  437.94   32.58
   9   8  -4  407.73   24.26
  -9   8   5   33.13    9.06
   9   8  -5   47.67    9.85
   9   8   5   23.10    7.96
   9  -8   5   46.33    7.85
   9  -8  -5   40.96    8.42
   9   8   5   27.91    8.19
  -9  -8  -5   25.26    8.77
  -9  -8   5   44.46    8.53
   9   8  -6  148.00   14.21
  -9   8   6  139.61   16.30
  -9  -8   6  147.36   14.57
   9  -8  -6  156.81   17.60
   9  -8   6  130.00   12.38
   9   8   6  149.05   16.14
   9   8   6  125.67   17.12
  -9   8   7   25.24   10.41
  -9  -8  -7   19.99    7.70
  -9  -8   7    8.12    8.51
   9   8   7   18.82   13.37
   9   8   7   23.40   12.43
   9  -8   7    7.05    8.03
   9  -8  -7   21.68   11.35
   9   8  -7    8.14    7.71
  -9   8   8   17.56   12.52
  -9  -8   8   32.74   11.45
   9  -8  -8   12.10   13.23
   9   8  -8   39.28   11.08
   9   8   8   74.36   19.72
 -10   8   0 1129.57   65.19
 -10  -8   0 1161.81   71.12
 -10   8   0 1108.35   46.20
  10   8   0 1093.64   42.87
  10  -8   0 1169.21   56.07
  10   8   0 1072.49   53.59
  10   8   1  392.88   23.47
 -10   8  -1  351.50   19.59
  10   8  -1  350.12   20.02
 -10  -8  -1  331.36   23.15
  10  -8   1  347.30   18.74
  10   8   1  364.30   19.22
 -10   8   1  361.28   16.67
 -10   8  -1  325.65   13.78
  10  -8  -1  357.38   22.30
 -10   8   1  378.67   22.85
 -10   8   2  528.82   22.54
  10  -8  -2  557.42   31.58
  10   8   2  463.29   25.08
 -10  -8  -2  488.76   32.75
  10   8  -2  482.66   27.69
 -10   8   2  558.51   35.78
  10   8   2  474.85   26.65
 -10   8  -2  534.94   24.73
  10  -8   2  509.53   28.10
 -10   8  -2  532.39   28.85
 -10   8  -2  490.48   25.11
  10   8   3  345.63   18.61
  10  -8   3  374.45   23.27
  10  -8  -3  398.71   20.47
  10  -8   3  376.50   17.77
  10   8   3  368.21   23.69
 -10   8   3  385.43   20.10
 -10  -8  -3  351.55   25.45
  10  -8   4  304.73   22.37
  10   8   4  351.42   24.23
  10   8  -4  313.89   20.48
  10  -8  -4  294.37   25.18
 -10  -8  -4  308.13   34.30
 -10   8   4  282.76   17.70
  10   8   4  323.97   21.84
  10  -8  -5  115.45   13.60
 -10  -8   5   77.72   10.36
  10   8   5   82.30   13.51
  10   8   5   86.88   11.65
  10  -8   5  106.73   12.23
  10   8  -5   79.83   14.11
 -10   8   5  117.40   13.86
  10  -8   6   15.83    8.10
  10   8   6   17.45    8.25
 -10   8   6   28.86   10.28
 -10  -8   6   30.94    8.31
  10   8   6    5.30    9.99
  10   8  -6   34.07    8.86
  10  -8  -6   20.36   14.21
 -10   8   7   21.36   15.62
  10  -8  -7    6.47   11.63
  10   8   7   11.52    9.97
 -10  -8   7   29.56   11.13
  10   8   7   43.49   21.03
  10  -8   7   27.10   10.24
  10   8  -7   28.08   13.65
 -10  -8  -7   26.60    9.05
  10   8   8   73.34   15.77
 -10   8   8   70.76   18.40
  10   8  -8   57.33   17.20
 -10  -8   8   68.93   14.71
  11  -8   0   69.40    7.85
 -11   8   0   62.99    8.69
 -11   8   0   65.18    7.56
  11   8   0   51.75    9.52
  11   8  -1  159.90   13.39
  11   8   1  130.41   12.27
 -11   8  -1  158.49   11.43
 -11   8  -1  161.14    9.50
 -11   8   1  147.84   11.89
  11   8   1  146.11   12.28
  11  -8  -1  155.60   13.10
  11  -8   1  165.03   10.71
 -11   8   1  162.00   10.61
 -11   8  -1  158.60   12.86
 -11  -8  -1  134.91   12.21
  11   8  -2 1071.43   61.98
  11  -8  -2 1135.86   57.66
 -11   8  -2  984.75   55.72
 -11   8  -2 1106.51   58.08
 -11   8  -2 1110.72   55.52
  11   8   2 1074.71   63.61
 -11  -8  -2 1011.56   83.15
  11  -8   2 1122.37   47.59
  11   8   2 1077.14   43.28
 -11   8   2 1087.36   52.61
  11  -8  -3  122.57   12.02
  11   8   3  113.46   12.00
  11  -8   3  120.59    7.51
 -11   8  -3  134.97    8.89
  11  -8   3  122.99   10.89
 -11  -8  -3  106.55   15.83
 -11   8   3  106.03   10.40
  11   8   3  137.22   15.05
  11  -8  -4  376.40   23.96
  11   8   4  325.65   20.89
  11  -8   4  393.01   26.63
 -11  -8  -4  225.42   49.50
  11   8  -4  362.30   24.31
 -11   8   4  396.35   21.52
  11   8   4  369.57   25.42
  11  -8   5   56.71    8.40
  11   8   5   47.93   10.35
  11  -8  -5   88.60   14.64
  11   8  -5   52.24    9.99
 -11  -8   5   56.38   11.50
  11   8   5   53.94   13.46
 -11   8   5   61.73   13.62
  11  -8  -6    4.33   11.27
  11   8   6   19.43    9.90
 -11  -8   6   10.14    8.84
  11   8  -6    0.35    9.23
  11   8   6    4.28    9.42
 -11   8   6    6.55   11.48
  11  -8   6    4.44    9.76
  11  -8  -7   -2.73   13.97
 -11   8   7  -13.72   12.60
 -11  -8   7    1.47   10.60
  11   8  -7   17.74   10.06
 -11  -8  -7   -8.68    5.89
  11   8   7   -1.60   13.07
  11  -8   7    3.17    9.37
  12  -8   0   87.12    9.18
 -12   8   0  101.06    9.00
 -12   8   0   80.83    8.62
  12   8   0   76.22   11.68
 -12   8   1   98.75    9.50
 -12   8  -1   85.47    7.16
  12   8   1   78.03   11.17
  12  -8   1   91.08    8.74
  12   8  -1   94.81    9.98
 -12   8  -1   90.06   11.06
  12   8   1   88.45   10.73
  12  -8  -1   88.08   11.36
 -12   8  -2  319.03   18.15
  12  -8  -2  281.45   19.24
  12   8  -2  309.48   24.15
  12  -8   2  296.62   16.71
 -12   8   2  288.06   20.64
  12  -8   2  295.41   21.37
  12   8   2  308.45   19.60
  12   8   2  301.22   23.17
 -12   8  -2  283.04   17.48
  12  -8   3   13.66    3.85
  12  -8  -3    6.64   10.51
  12   8   3   21.24    7.26
  12   8   3   18.86    8.10
  12  -8   3   10.60    7.82
 -12   8   3   29.29   10.90
  12   8  -4   56.19   10.03
 -12   8   4   77.08   12.56
  12  -8   4   70.84   11.46
  12   8   4   66.24   12.80
  12   8   4   86.86   10.67
  12  -8  -4   82.30   13.60
 -12   8   5  128.46   17.17
  12   8  -5  150.11   15.86
  12  -8  -5  107.46   15.14
  12   8   5  109.43   15.55
 -12  -8   5  133.88   17.92
  12   8   5  130.97   14.87
  12  -8   5  126.29   14.80
 -12  -8   6   -3.37    9.45
  12  -8  -6    7.89   17.08
  12   8   6    4.20    9.73
  12   8  -6    3.59   13.04
 -12   8   6   25.63   12.71
  12  -8   6    3.47   10.82
  12   8   6    5.04   16.46
  12   8   7   21.28   15.09
 -12  -8   7   10.22   15.34
 -12   8   7  -19.92   21.01
  12   8  -7   16.75   13.88
 -13   8   0    8.36    6.89
  13   8   0    5.18    7.94
 -13   8   0    7.65    5.68
  13  -8   0   -3.55    6.02
  13   8   1   19.14    7.59
 -13   8   1   40.62    7.18
  13  -8  -1   30.88   10.16
 -13   8  -1   28.89    7.26
 -13   8  -1   36.11    4.66
  13  -8   1   29.79    5.91
  13   8  -1   29.57    7.76
  13   8   2   10.53    6.58
  13  -8  -2    2.63    7.73
  13  -8   2    3.66    8.19
 -13   8  -2    5.53    3.76
  13   8  -2    5.21    8.90
  13   8   2    3.91    7.39
  13  -8   2    9.84    5.73
 -13   8   2    7.11    9.12
  13  -8   3  113.88    8.83
  13   8  -3  137.93   16.00
  13   8   3  116.56   12.27
  13   8   3   96.49   15.31
  13  -8   3  130.71   12.16
 -13   8   3  133.88   10.78
  13  -8  -3  133.18   15.15
  13  -8   4    3.94    9.34
  13   8   4   17.87   12.51
 -13   8   4    1.35    7.73
  13   8   4    6.12    7.01
  13  -8  -4   14.82    9.23
  13   8   5  216.72   21.47
 -13  -8   5  184.42   18.12
  13  -8   5  214.79   19.32
  13  -8  -5  199.07   17.37
  13   8  -5  226.01   24.88
  13   8   5  208.00   20.51
 -13   8   5  241.55   21.80
 -13  -8   6   91.83   19.70
  13   8  -6  111.23   15.15
 -13   8   6  103.71   18.13
  13   8   6   83.44   19.13
  13  -8   6  103.22   13.45
  14  -8   0   11.30    6.36
 -14   8   0    3.30    5.31
  14   8   0   -4.82    5.86
  14  -8   1   27.85    6.53
  14  -8  -1   13.29   10.60
  14   8   1   26.48    8.05
 -14   8   1   36.63    7.08
  14   8  -1   39.36    9.86
 -14   8  -1   22.38    6.04
  14  -8  -2  162.48   15.63
  14   8  -2  156.60   15.30
 -14   8  -2  155.61   13.66
 -14   8   2  159.40   14.18
  14  -8   2  169.00   15.85
  14  -8   2  166.44   13.58
  14   8   2  174.08   18.50
 -14   8   3  181.30   16.85
  14   8   3  191.50   17.32
  14  -8   3  216.31   16.11
  14   8  -3  213.35   18.87
  14  -8  -3  192.33   15.61
  14   8   3  201.73   19.69
  14   8   4   57.17   12.30
 -14  -8   4   51.57   12.85
 -14   8   4   58.92   13.20
  14   8   4   57.41   13.95
  14  -8   4   50.18   12.95
  14  -8  -4   40.17   17.10
  14   8   5   47.62   14.75
 -14   8   5   71.55   13.98
 -14  -8   5   56.39   14.18
  14  -8  -5  102.67   19.62
  14   8  -5   51.66   13.17
  14  -8   5   52.49   11.30
  15  -8   0   53.73   11.20
 -15   8   0   55.01    8.30
  15   8   0   52.23   11.47
  15   8  -1   36.16   12.55
 -15   8   1   59.38    9.45
  15   8   1   73.76   12.73
  15  -8   1   46.64    9.51
  15  -8  -1   59.16   10.37
 -15   8  -1   47.70    7.20
 -15   8  -2    6.03    4.83
  15   8   2   14.13   10.46
  15  -8   2   -6.38    7.55
  15   8  -2   -2.58    8.37
  15  -8  -2   10.40    9.85
 -15   8   2    2.07    7.30
  15  -8  -3   44.70   11.33
  15  -8   3   59.47   13.83
 -15   8   3   63.10   11.00
  15   8   3   39.43   11.42
  15   8  -3   43.30   13.84
  15   8   4   34.27   11.03
  15  -8  -4   31.62   20.51
 -15   8   4   48.54   12.92
  15   8   4   48.51   13.26
  15  -8   4   33.18   12.45
 -15  -8   4   43.40   12.56
  15  -8   5   47.40   12.66
  15   8   5   31.33   20.44
 -15  -8   5   56.67   14.86
  16  -8   0   44.96    9.52
 -16   8   0   52.15    9.71
  16   8   0   49.51   12.34
 -16   8  -1   47.62    6.96
  16   8   1   50.19   16.72
  16   8  -1   62.21   14.68
  16  -8   1   54.48   12.34
  16  -8  -1   62.61   11.58
 -16   8   1   72.47   11.13
  16  -8   2   37.53   14.41
 -16   8   2   59.59   11.89
  16  -8  -2   39.18   15.49
  16   8   2   66.96   13.43
  16   8  -2   65.33   14.09
  16   8  -3   28.75    9.94
  16  -8   3   -3.89    8.38
 -16   8   3   10.66    8.72
  16  -8  -3   18.84   30.60
  16   8   3    7.34   12.38
  17   8   0  175.41   22.34
  17  -8   0  136.14   13.62
 -17   8   0  116.49   11.77
  17   8   1  136.48   20.90
 -17   8  -1   97.04   12.57
  17  -8   1  106.59   17.84
 -17   8   1  152.51   16.24
  17  -8  -1  125.43   16.19
  17   8  -1  108.12   19.29
  17   8  -2  210.02   22.57
  17  -8   2  163.77   20.93
  17  -8  -2  187.88   19.78
  17   8   2  208.06   23.33
 -17   8   2  220.48   22.74
   0   9   0    1.38    2.45
   0  -9   0   -0.31    1.73
   0   9   0    2.10    2.70
   0  -9   0   -0.21    2.90
   0  -9  -1  427.25   17.57
   0  -9   1  410.12   17.43
   0   9  -1  415.83   13.18
   0   9  -1  424.02   21.99
   0   9   1  412.23   24.08
   0  -9  -1  425.11   20.08
   0   9   1  413.52   19.58
   0  -9   1  428.45   15.52
   0  -9   2 2144.34   92.90
   0   9  -2 2047.81   94.05
   0  -9  -2 2130.06   89.05
   0   9   2 2064.39  111.00
   0   9   2 2117.49   77.30
   0  -9  -2 2027.66   61.00
   0  -9  -2 2234.07   78.05
   0  -9  -3    4.64    6.29
   0   9   3   13.31    5.09
   0  -9   3    9.07    3.41
   0  -9  -3    8.67    4.52
   0  -9  -3   11.24    5.89
   0  -9   3   16.24    2.91
   0   9   3   18.77    4.75
   0  -9   4   44.80    4.49
   0  -9  -4   42.41    6.23
   0  -9  -4   52.75    9.19
   0   9   4   30.50    5.72
   0   9   4   50.42    6.62
   0  -9  -4   40.15    7.86
   0  -9   4   37.70    4.66
   0  -9  -5  177.46   13.32
   0   9   5  163.98   12.04
   0   9   5  172.83   13.66
   0  -9   5  180.48   11.10
   0  -9   5  181.32   11.55
   0  -9   5  155.45   12.80
   0  -9  -5  169.56   14.16
   0  -9   6  144.03   10.05
   0   9   6  143.44   14.20
   0  -9   6  138.16   10.99
   0  -9  -6  150.16   11.64
   0   9  -6  135.03    8.32
   0   9   6  125.03   10.97
   0  -9   6  123.35   10.12
   0  -9   7  137.98   10.14
   0  -9   7  104.69    9.03
   0   9   7  114.85   12.88
   0   9   7  121.14   14.38
   0  -9  -7  122.05   10.91
   0  -9  -8   64.46   14.77
   0   9   8  100.19   16.11
   0   9   8   98.55   16.47
   0   9   9    3.02   11.62
   0  -9  -9  -13.49    9.04
   0   9   9   -0.17   12.77
   1  -9   0  243.35    8.97
  -1  -9   0  211.25   10.35
   1   9   0  211.39    8.93
   1  -9   0  227.27    9.74
  -1  -9   0  216.27    9.05
  -1   9   0  232.21   10.90
   1   9   0  245.06    9.59
  -1   9   0  218.01    8.21
  -1  -9  -1  124.71    7.91
  -1   9   1  100.10    6.10
  -1   9  -1  113.60    7.48
   1  -9  -1  111.16    7.90
  -1  -9   1  115.72    6.59
   1  -9  -1  106.49    6.53
   1  -9   1  120.64    6.99
   1   9   1  119.74    9.33
   1  -9  -1  123.00    7.41
   1  -9   1  113.69    6.80
   1   9  -1  114.86    5.44
  -1  -9   1  113.39    5.36
   1   9   1  121.01    7.31
  -1   9   1  102.63    7.00
  -1  -9  -1  117.16    7.12
   1   9  -1  115.95    8.08
   1  -9  -2   97.09    9.19
  -1   9  -2  108.94    5.86
  -1   9   2   94.27    7.31
   1   9   2   88.93    7.81
   1   9   2   84.60    7.77
   1  -9  -2   98.38    7.12
  -1  -9  -2   84.44    8.74
  -1   9   2  108.59    7.37
  -1  -9   2   83.40    6.86
   1   9  -2   85.16    5.86
  -1  -9  -2   88.47    7.49
   1  -9   2   91.36    4.60
   1  -9  -2   95.41    8.00
   1   9  -2   87.85    4.51
   1  -9  -3  390.72   18.76
   1   9   3  365.08   16.24
  -1   9   3  362.15   15.21
   1  -9  -3  406.41   16.97
  -1  -9  -3  406.72   19.28
   1  -9  -3  395.68   14.50
  -1  -9  -3  386.13   20.12
  -1  -9   3  381.50   15.52
  -1  -9   3  382.05   18.27
   1   9   3  398.84   17.30
   1  -9   3  379.44   18.63
  -1   9   3  379.20   16.86
   1  -9   3  370.05   18.20
  -1  -9  -3  384.61   16.95
  -1   9   4   -1.05    7.34
  -1  -9  -4    5.68    6.61
   1  -9  -4    6.13    6.77
   1  -9  -4   11.07    5.35
  -1  -9   4    6.85    2.36
   1  -9  -4   15.00    7.73
  -1  -9   4    3.64    2.93
   1   9   4    6.81    5.35
   1  -9   4    7.80    2.70
  -1   9   4   12.43    5.05
  -1  -9  -4    5.36    5.52
   1   9   4    8.38    5.79
   1  -9   4   10.88    2.26
  -1  -9  -4    6.99    5.82
   1  -9   4   11.20    3.20
  -1   9   5  184.93   14.17
   1   9   5  191.89   12.52
  -1  -9   5  182.88   10.99
  -1   9   5  204.98   13.79
   1  -9  -5  203.43   14.97
   1   9   5  183.78   12.12
   1  -9   5  200.84    9.61
  -1  -9  -5  190.67   10.98
   1  -9  -5  227.29   17.47
  -1  -9   5  193.24   15.45
   1  -9   5  201.31   10.07
  -1  -9   5  209.48   11.60
  -1  -9  -5  206.24   16.03
   1  -9   5  185.48   15.56
   1   9  -5  198.56    8.74
  -1   9   6  256.29   15.47
  -1  -9   6  243.01   19.24
   1  -9  -6  242.57   15.06
   1  -9   6  264.14   15.35
   1  -9   6  257.46   15.25
   1   9   6  273.10   16.59
  -1  -9   6  290.16   14.12
  -1  -9   6  273.00   16.06
   1  -9   6  256.78   13.36
  -1   9   6  247.47   16.32
   1   9   6  279.75   16.93
  -1  -9  -6  251.34   19.53
  -1   9  -6  262.56   18.04
   1   9  -6  278.16   13.16
  -1  -9  -7  310.00   19.62
   1  -9   7  295.24   19.03
  -1  -9   7  300.75   19.48
   1   9   7  309.73   18.64
   1   9   7  278.58   17.66
  -1   9   7  345.29   22.55
  -1  -9   7  298.55   19.47
  -1   9   7  299.49   16.19
   1  -9   7  296.59   21.01
   1  -9  -7  299.77   18.39
   1   9   8  131.55   13.99
  -1  -9  -8  147.61   13.70
   1   9   8  168.42   19.12
  -1   9   8  144.52   17.23
  -1   9   8  135.58   16.90
   1  -9  -8  127.01   13.94
  -1   9   9  237.41   22.05
   1   9   9  277.22   22.39
  -1  -9  -9  254.49   18.64
   1  -9  -9  269.57   21.37
  -1   9   9  267.68   24.19
   1   9   9  277.07   23.08
  -2   9   0  647.81   26.63
   2  -9   0  686.42   34.00
   2   9   0  695.13   26.77
  -2  -9   0  708.72   27.27
   2  -9   0  675.73   33.72
  -2  -9   0  700.06   25.96
   2  -9   0  675.48   23.33
   2   9   0  684.52   37.69
  -2   9  -1  315.83   15.59
   2  -9  -1  338.66   14.30
   2  -9   1  346.94   15.05
  -2  -9   1  358.77   14.12
  -2   9   1  349.94   14.83
   2   9   1  345.47   14.78
   2   9  -1  366.01   15.93
  -2  -9  -1  364.27   17.60
  -2   9   1  312.65   12.43
   2   9  -1  337.79   17.78
   2   9   1  359.36   15.56
   2  -9  -1  340.89   15.45
   2  -9   1  351.81   14.53
  -2  -9  -1  341.31   15.36
   2  -9  -1  322.09   11.64
   2   9   2  573.30   21.53
  -2  -9  -2  577.67   24.38
  -2  -9  -2  565.13   26.85
   2   9  -2  529.36   21.90
   2  -9   2  531.19   19.31
   2  -9   2  505.93   24.73
  -2   9  -2  513.35   22.10
   2  -9  -2  579.21   21.93
  -2   9   2  533.43   19.49
  -2  -9   2  548.37   21.61
   2   9  -2  551.92   22.24
   2  -9   2  587.82   28.24
  -2  -9   2  557.66   23.95
   2   9   2  558.80   19.14
  -2   9   2  560.35   21.00
   2  -9  -2  578.51   24.18
   2  -9  -2  549.06   18.65
   2   9   3  571.23   29.09
  -2  -9   3  608.49   25.03
  -2  -9  -3  564.82   23.92
   2  -9   3  623.55   26.21
  -2   9   3  629.43   22.04
   2  -9  -3  613.34   26.46
   2   9  -3  601.21   30.58
   2  -9  -3  652.87   29.91
  -2   9   3  619.90   25.24
  -2  -9  -3  580.99   33.62
   2   9  -3  568.72   22.30
   2  -9   3  638.77   27.02
   2  -9  -3  622.41   27.16
  -2  -9   3  598.42   32.93
   2   9   3  533.85   21.93
   2   9  -4   62.09    3.16
  -2  -9  -4   52.43    8.62
  -2  -9   4   54.68    6.47
  -2  -9  -4   53.02    6.45
   2   9  -4   57.38    3.40
   2  -9  -4   38.92    6.61
  -2   9   4   50.93    6.80
  -2   9   4   54.48    7.31
   2  -9   4   55.71    3.92
  -2  -9  -4   63.17    7.15
   2   9   4   50.45    6.77
   2  -9  -4   54.61    8.82
   2  -9  -4   50.82    8.34
  -2  -9   4   59.04    6.12
   2  -9   4   51.76    3.88
   2   9   4   63.71    6.94
   2  -9   4   51.31    4.49
   2   9   5  105.24   11.28
  -2  -9   5   90.36    7.50
   2  -9   5   87.27    6.80
   2  -9  -5   86.59    8.94
  -2  -9   5  107.50    7.53
   2   9   5   91.94    9.52
  -2  -9   5   92.64    8.26
  -2   9   5   85.51   10.25
  -2   9   5   92.85   11.54
  -2  -9  -5   83.22   10.43
   2  -9   5   92.10    5.22
  -2  -9  -5   93.35    9.48
   2  -9   5   99.12    5.81
   2   9  -5   99.42    5.11
   2  -9  -6  102.63   11.05
   2  -9   6  105.38    6.63
   2  -9   6   94.38    8.43
   2  -9   6  100.20   10.25
   2   9  -6  112.88    8.98
  -2   9   6  100.29   12.55
  -2  -9  -6  114.00   13.96
  -2  -9   6   91.49   10.23
  -2  -9   6  107.15    8.18
   2   9   6   93.82   11.34
  -2   9   6   89.46   12.09
   2   9   6   98.05   15.31
   2   9   7  138.72   15.20
  -2  -9   7  123.79   11.39
   2  -9   7  117.68   10.02
   2  -9  -7  156.81   13.55
   2   9   7  121.24   13.34
  -2   9   7  131.49   15.14
  -2  -9   7  138.63   11.31
  -2  -9  -7  115.37   10.83
  -2   9   7  124.04   13.18
   2  -9   7  130.50    9.79
   2  -9   7  117.14    8.75
   2  -9  -8   20.81   10.09
  -2   9   8   16.49    9.30
   2   9   8   23.16    9.12
  -2   9   8    8.98   10.06
  -2  -9  -8    7.99    6.75
   2   9   8    8.39   10.57
   2   9   9  227.03   24.50
  -2   9   9  265.15   25.60
  -2   9   9  254.06   24.84
   2   9   9  262.70   21.18
  -2  -9  -9  264.14   21.62
   2  -9  -9  258.71   25.35
  -3   9   0 1502.55   48.55
   3   9   0 1565.77   80.46
  -3  -9   0 1624.86   78.82
  -3  -9   0 1607.78   51.18
   3   9   0 1640.94   53.19
   3  -9   0 1547.30   45.42
   3  -9   0 1584.55   46.58
   3  -9   0 1516.31   40.97
   3   9  -1  204.30   10.05
   3  -9  -1  216.25   10.04
  -3   9  -1  229.73   10.54
   3  -9   1  215.32    9.05
   3   9   1  198.13    9.69
  -3  -9  -1  197.50   11.36
  -3   9   1  248.51   10.96
  -3  -9   1  203.53   10.27
   3  -9  -1  254.15   14.33
   3  -9  -1  251.80   10.61
   3   9  -1  203.14   11.27
   3   9   1  203.15   10.56
   3  -9   1  239.98    8.95
   3  -9   1  220.57   11.75
  -3  -9  -1  215.00   10.48
  -3   9   2  260.81   14.06
  -3  -9  -2  223.90   15.60
   3  -9  -2  258.90   12.60
   3  -9   2  252.56   11.93
   3   9   2  237.07   10.80
   3  -9   2  254.58    8.57
   3  -9  -2  261.87   15.88
  -3  -9   2  233.74   13.56
   3  -9   2  244.86    8.89
   3  -9  -2  257.67   11.13
  -3   9  -2  260.22   12.53
  -3   9   2  257.16   10.78
   3   9  -2  205.66    9.54
   3   9   2  216.67   11.38
  -3  -9  -2  221.47   12.49
  -3  -9   2  241.53   12.87
   3   9  -2  204.92   10.51
   3  -9   3   52.05    3.10
   3  -9   3   48.09    2.28
  -3  -9   3   38.62    6.17
   3   9  -3   36.96    3.47
   3  -9  -3   47.15    5.81
   3  -9  -3   38.97    8.00
  -3  -9  -3   44.58    6.64
   3   9   3   33.96    5.56
  -3   9   3   40.71    5.70
   3  -9   3   41.29    1.76
  -3   9   3   53.43    5.92
   3  -9   3   42.08    2.45
  -3  -9  -3   40.30    5.54
   3   9   3   42.15    5.07
  -3  -9   3   47.80    6.44
   3  -9  -3   28.46    7.40
   3  -9  -4  104.78   10.04
   3  -9  -4  102.49    9.97
  -3  -9   4   94.79    6.60
  -3  -9  -4   87.57   10.55
   3  -9   4  100.49    4.63
  -3  -9  -4   83.05    6.53
   3   9   4  107.42    8.43
  -3   9   4  106.59   12.22
  -3  -9  -4   86.60    9.18
  -3   9   4   96.89    8.76
   3  -9   4   89.48    4.87
   3  -9   4   93.31    3.60
   3   9  -4   99.26    5.66
  -3  -9   4   94.65    8.51
   3  -9   4  106.39    4.86
   3   9   4   90.78    8.49
   3  -9   4  102.70    4.53
   3  -9  -4  119.97    8.38
  -3  -9   5  197.88   10.80
   3   9   5  148.36   13.86
   3  -9  -5  191.70   11.29
   3  -9   5  194.24    8.69
   3   9  -5  185.24    8.12
   3  -9   5  171.01    8.07
  -3  -9  -5  194.38   15.38
   3  -9   5  179.41   10.21
   3   9   5  173.76   12.44
  -3  -9   5  172.91   11.01
  -3   9   5  159.40   11.12
   3  -9   5  173.98    7.94
   3  -9   5  177.10   10.31
  -3   9   5  185.66   14.26
  -3  -9  -5  168.23   13.61
   3   9   6  289.20   22.27
   3  -9   6  332.78   12.76
  -3   9   6  329.28   16.84
   3  -9  -6  315.57   18.67
  -3  -9   6  284.19   15.27
   3  -9   6  312.67   17.88
   3   9   6  319.78   20.12
   3  -9   6  331.08   25.29
  -3  -9   6  325.09   16.66
   3   9  -6  306.50   16.45
  -3   9   6  311.87   20.55
  -3  -9  -6  306.89   18.77
  -3   9   7  105.95   14.26
   3  -9  -7  100.22   12.45
  -3  -9  -7   88.25    9.07
  -3  -9   7   99.80   11.78
   3   9   7  113.20   15.00
  -3   9   7   78.18   11.27
   3   9   7  101.20   13.87
   3  -9   7   83.97    7.45
  -3  -9   7   82.25   10.14
   3  -9   7  100.52    6.80
  -3  -9  -8   39.30    9.99
   3   9   8   45.71   11.72
  -3  -9   8   39.04    9.05
  -3   9   8   56.64   14.27
  -3   9   8   40.05   14.91
   3   9   8   32.43   10.43
   3  -9  -8   58.70   14.15
   3  -9  -9   12.61   10.40
  -3   9   9   23.00   14.34
  -3   9   9   40.92   12.68
  -3  -9  -9   46.46   15.56
   3   9   9   44.71   13.71
   3   9   9   10.22   12.07
   4  -9   0  929.27   33.39
  -4  -9   0  957.43   45.51
  -4  -9   0  905.60   34.22
   4   9   0  929.55   30.97
   4   9   0  906.61   32.51
   4  -9   0  899.79   24.52
   4  -9   0  965.54   37.93
  -4   9   0  896.48   29.25
   4  -9   1 1099.87   32.82
  -4   9   1 1115.00   37.08
   4   9  -1 1203.95   43.82
   4   9   1 1113.24   53.21
   4   9   1 1122.42   41.84
  -4  -9   1 1100.00   55.47
   4  -9  -1 1156.88   43.49
  -4  -9   1 1112.89   41.72
  -4   9  -1 1073.82   40.63
   4  -9  -1 1182.71   47.43
   4  -9   1 1128.99   39.87
  -4  -9  -1 1220.02   40.61
   4  -9  -1 1138.58   46.81
  -4  -9  -1 1223.94   43.72
   4   9  -1 1132.53   48.89
   4  -9   1 1100.47   32.25
   4  -9   2   84.89    4.41
   4  -9  -2   89.74    7.73
   4  -9   2   94.35    4.39
   4   9  -2   90.29    5.28
   4   9   2   79.90    9.44
  -4   9   2   90.20    7.48
  -4   9  -2   80.22    4.67
   4   9   2   89.87    8.70
   4   9  -2   80.33    6.55
   4  -9   2   81.07    4.74
  -4  -9  -2  108.03    9.52
   4  -9  -2   81.02    7.22
   4  -9  -2   81.56    6.26
  -4  -9   2   91.54    8.08
  -4  -9  -2   75.52    6.49
  -4  -9   2   83.04    7.75
   4   9   3  582.41   20.50
   4   9  -3  587.33   25.63
   4  -9  -3  600.13   36.66
  -4   9   3  613.61   24.05
  -4  -9  -3  603.26   36.85
   4  -9  -3  668.77   29.16
   4  -9  -3  599.23   26.00
  -4  -9  -3  581.44   25.91
   4  -9   3  607.38   23.48
  -4   9   3  665.73   32.96
   4  -9   3  608.09   20.66
  -4  -9   3  606.06   29.11
   4   9   3  593.70   28.96
  -4  -9   3  582.69   31.95
  -4   9   4  445.97   27.22
   4   9   4  459.20   23.84
   4  -9   4  443.70   16.93
   4   9  -4  461.08   18.68
   4  -9   4  463.11   22.71
   4  -9  -4  453.37   28.41
   4   9   4  449.40   25.59
  -4  -9   4  510.45   21.26
   4  -9  -4  454.79   22.98
  -4  -9  -4  482.14   23.95
  -4  -9  -4  468.36   30.06
  -4   9   4  469.26   26.59
   4  -9  -4  478.85   27.82
  -4  -9   4  444.03   26.38
   4  -9   4  480.42   18.31
  -4  -9   5  297.58   21.19
   4   9   5  329.03   17.30
   4   9  -5  304.80   13.61
  -4   9   5  289.69   16.25
   4  -9   5  275.28   14.21
  -4  -9   5  292.69   15.36
  -4   9   5  297.02   17.80
   4   9   5  291.88   16.67
  -4  -9  -5  291.56   20.74
   4  -9  -5  287.08   17.73
  -4  -9  -5  299.08   16.57
   4  -9   6  156.47    8.02
   4  -9   6  124.37    6.59
  -4  -9  -6  135.00   10.82
   4   9  -6  151.63   10.18
   4   9   6  139.85   12.16
  -4  -9   6  138.16   11.03
  -4   9   6  133.21   13.10
  -4  -9   6  131.68   15.05
   4   9   6  154.83   14.16
   4  -9   6  171.65    7.08
   4  -9  -6  127.70   15.15
  -4   9   6  152.81   13.34
   4  -9  -7   50.76   11.99
  -4   9   7   59.58   10.67
  -4  -9   7   40.75    9.27
   4   9   7   53.22   11.09
  -4   9   7   66.71   12.08
   4   9   7   59.44   11.04
   4  -9   7   45.01    5.67
  -4  -9  -7   45.86    8.71
  -4  -9   7   52.50    9.71
   4   9   8   49.60   12.53
   4   9   8   23.59   12.68
  -4   9   8   39.55   10.43
  -4  -9   8   47.14    9.50
   4  -9  -8   34.98   12.32
  -4  -9  -8   37.90    8.33
  -4   9   9  126.75   19.68
   4   9   9  111.16   15.54
  -4  -9  -9   94.01   13.72
   4   9   9  137.79   21.53
   4  -9  -9   96.87   13.94
   5   9   0  190.55   10.66
   5  -9   0  203.58   11.32
  -5   9   0  195.42    8.58
   5  -9   0  202.28    9.85
  -5  -9   0  217.14   11.88
   5  -9   0  205.81    9.81
   5   9   0  215.44   12.78
  -5  -9  -1  353.37   18.83
   5   9   1  344.59   13.91
  -5   9  -1  373.99   14.17
   5  -9  -1  376.78   17.91
   5   9  -1  344.51   15.27
   5  -9   1  373.69   15.59
  -5   9   1  371.36   16.00
   5   9   1  346.15   15.64
   5  -9   1  381.08   12.64
   5  -9   1  354.02   14.31
   5   9  -1  354.66   13.91
  -5   9   1  356.33   13.87
  -5  -9  -1  333.59   20.75
  -5  -9   1  365.39   22.03
   5  -9  -1  353.86   13.58
  -5  -9   1  360.14   17.89
   5  -9  -1  367.00   19.19
   5  -9  -2  475.10   23.52
  -5  -9   2  505.97   25.47
  -5  -9   2  507.63   24.26
  -5   9   2  472.24   22.63
   5  -9   2  463.02   19.40
   5   9  -2  501.71   24.42
  -5   9   2  472.77   19.14
  -5   9  -2  456.36   23.56
  -5  -9  -2  483.83   23.92
   5  -9  -2  461.37   16.57
   5   9   2  507.46   24.05
  -5  -9  -2  515.13   22.09
   5  -9   2  454.43   15.66
   5   9   2  500.47   22.15
   5  -9  -2  460.59   20.89
   5  -9  -3  336.39   17.23
  -5  -9   3  286.86   16.04
  -5  -9   3  278.81   17.01
  -5   9   3  295.45   19.98
   5   9   3  314.06   17.26
   5  -9  -3  322.77   18.85
   5  -9  -3  311.92   16.30
   5   9   3  281.93   12.92
   5   9  -3  292.64   12.31
  -5  -9  -3  306.61   22.13
  -5  -9  -3  309.24   18.17
   5  -9   3  307.23   13.01
   5  -9   3  323.89   13.61
  -5   9   3  305.19   14.93
  -5   9   4   81.40   10.16
   5   9   4   87.30   10.39
  -5  -9  -4   61.74    9.91
  -5  -9   4   77.35    7.61
   5  -9  -4   90.60    8.71
  -5  -9   4   52.73   13.87
   5   9   4   57.12    9.53
  -5   9   4   71.57    9.18
   5  -9   4   78.55    5.07
   5  -9   5  334.55   16.12
   5   9   5  262.10   16.83
  -5  -9   5  286.57   17.31
  -5   9   5  289.13   15.86
   5  -9  -5  320.38   18.96
  -5  -9  -5  307.26   19.42
  -5  -9   5  271.69   19.70
   5   9  -5  272.19   17.38
   5   9   5  282.78   17.82
  -5  -9  -5  303.30   15.53
  -5  -9   6   50.19    7.14
  -5  -9  -6   56.98    7.44
   5   9   6   51.72    9.94
   5   9   6   58.28   11.22
   5  -9  -6   65.76   10.05
  -5   9   6   47.23   11.66
   5   9  -6   50.49    7.81
   5  -9   6   55.27    5.69
  -5  -9   6   39.91    8.80
  -5  -9  -7  203.43   15.98
   5  -9  -7  228.96   16.57
   5  -9   7  205.05   13.07
   5   9   7  200.02   17.24
   5   9  -7  232.76   17.44
  -5  -9   7  218.57   15.01
  -5   9   7  209.28   19.90
   5   9   7  226.50   19.86
   5   9  -8   93.63   10.51
  -5  -9  -8   85.97   11.36
   5  -9  -8   77.58   15.14
   5   9   8   78.43   14.39
  -5   9   8   87.64   13.78
  -5  -9   8   94.38   14.50
   5   9   8  115.32   17.00
  -5  -9  -9    6.59   11.00
   5   9   9    2.99   18.78
  -5   9   9    7.78   10.67
   5   9   9   -8.89   12.52
   5  -9  -9   -6.37   11.77
  -6  -9   0   31.37    5.36
   6  -9   0   42.09    5.23
   6  -9   0   39.32    6.18
  -6   9   0   36.78    3.42
   6  -9   0   48.15    5.21
  -6   9   0   41.35    4.70
  -6  -9  -1   98.42    9.60
   6  -9   1  110.93    6.60
   6   9  -1   95.45    6.74
  -6   9  -1  116.81    6.01
   6  -9  -1  102.48    7.95
   6   9   1   97.22    8.76
   6   9  -1   99.00    8.45
  -6   9   1  103.09    8.40
  -6  -9   1   97.57    8.52
   6  -9  -1  120.86    9.35
  -6  -9  -1   99.39    8.91
   6   9   1   90.08    8.76
   6  -9   1  112.85    7.45
  -6  -9   1   94.68    8.62
   6  -9  -1  118.86    8.88
  -6   9   1  119.76    9.04
   6  -9   2  131.98    6.27
  -6   9   2  130.82    8.52
  -6  -9  -2  181.02   12.96
   6  -9  -2  134.73    9.25
  -6  -9   2  153.19   11.17
  -6   9  -2  135.04    7.75
   6   9   2  144.49    8.07
   6  -9  -2  138.89   10.46
  -6  -9  -2  176.43   12.98
   6   9   2  155.18   11.42
   6   9  -2  159.09    8.45
  -6  -9   2  166.08   13.44
  -6   9   2  156.04   11.76
   6  -9  -2  137.90   11.93
  -6  -9  -3   82.64   10.17
   6   9  -3   63.10    5.99
   6  -9  -3   81.15   11.34
  -6  -9  -3   81.00    8.12
  -6   9   3   85.08    8.55
   6  -9  -3   67.51    9.89
  -6   9   3   99.45   11.68
   6   9   3   71.17    8.40
   6  -9   3   73.46    3.90
  -6  -9   3   74.60    9.41
   6   9   3   63.16    8.18
  -6  -9   3   75.97    7.54
   6  -9   3   73.22    4.54
   6  -9  -3   89.10   10.07
  -6   9   4  240.34   15.40
   6   9   4  225.76   14.18
  -6  -9   4  217.32   15.16
   6  -9   4  217.80   11.83
   6  -9  -4  216.49   15.09
  -6  -9  -4  201.37   15.43
   6   9   4  242.90   16.10
   6   9   5  477.51   24.50
   6   9   5  505.13   23.25
  -6  -9   5  468.56   30.48
   6  -9   5  520.40   25.74
  -6   9   5  478.07   24.14
   6  -9  -5  503.29   24.52
  -6  -9   5  485.36   21.42
  -6  -9  -5  522.97   34.32
   6   9  -5  490.95   33.76
  -6  -9  -6  113.51   10.14
  -6   9   6  109.74   12.40
  -6  -9   6  114.49   10.17
   6   9   6   99.79   13.03
   6  -9  -6   91.70   11.78
   6   9  -6  121.77   10.18
   6   9  -6  101.65   10.28
   6   9   6  112.69   15.09
   6  -9   6  101.91    8.65
  -6   9   7   50.28   12.11
   6   9   7   45.31   10.53
   6  -9  -7   21.58   13.72
  -6  -9   7   40.11   11.70
   6   9   7   59.56   11.59
   6  -9   7   44.41    5.99
   6   9  -7   36.90    9.42
  -6  -9  -7   35.81    9.02
  -6   9   8  122.32   15.39
   6   9   8  136.77   17.75
   6   9  -8  121.22   14.19
   6  -9  -8  118.46   15.78
  -6  -9  -8  111.02   15.20
   6   9   8  111.02   17.80
  -6  -9   8  122.82   16.18
   6   9   9    9.71   15.80
   6  -9  -9  -21.18   36.50
   6   9   9    1.13   13.33
  -6  -9  -9   -0.88    8.96
  -6   9   9   21.62   11.98
  -7   9   0  494.35   24.10
   7  -9   0  504.63   19.46
   7   9   0  531.98   20.01
  -7  -9   0  544.01   30.89
   7  -9   0  475.61   18.50
   7   9   0  558.83   26.44
  -7  -9   0  560.61   31.16
  -7   9   0  499.65   19.35
  -7  -9  -1  636.48   36.10
   7   9   1  555.76   23.97
  -7   9  -1  569.68   22.68
  -7  -9   1  650.91   28.60
  -7  -9  -1  638.19   38.83
   7   9  -1  587.37   27.65
   7  -9  -1  577.46   25.76
  -7   9   1  620.33   30.32
   7  -9  -1  587.97   31.30
   7   9  -1  585.69   27.82
   7  -9  -1  607.66   28.50
  -7   9   1  577.76   23.11
   7  -9   1  596.08   26.23
   7  -9   1  560.77   22.87
  -7  -9   1  627.39   38.53
   7   9   1  585.93   25.63
   7  -9   2 1203.00   51.64
   7   9   2 1280.63   39.81
  -7  -9   2 1250.31   80.66
   7  -9  -2 1227.75   53.93
   7  -9  -2 1310.72   59.92
  -7  -9  -2 1221.95   84.36
   7   9   2 1246.91   41.38
   7   9  -2 1186.48   50.50
  -7   9   2 1273.87   66.55
  -7   9  -2 1167.56   50.45
  -7   9   2 1177.83   47.13
  -7  -9   2 1273.38   64.15
   7  -9  -2 1305.68   65.69
  -7  -9  -2 1271.72   55.91
  -7   9   3  261.80   17.86
  -7  -9   3  269.11   16.55
   7  -9   3  264.07    9.90
   7   9  -3  279.97   17.02
  -7   9   3  264.21   13.69
   7  -9  -3  260.63   15.18
   7   9   3  281.84   17.24
   7  -9   3  260.56   16.62
  -7  -9  -3  300.94   21.19
   7   9   3  301.51   15.53
  -7   9   4   65.82    8.32
   7   9   4   58.87    9.11
   7   9   4   67.04    8.42
  -7  -9  -4   73.00   11.99
  -7  -9   4   58.34    8.01
   7  -9   4   45.73    5.73
   7  -9  -4   58.87    8.12
  -7   9   5  120.17   12.56
  -7  -9  -5  116.58   12.66
   7  -9   5  102.59    8.95
  -7  -9   5  130.74   13.86
   7   9  -5  124.15    9.74
   7   9   5  131.45   13.65
   7  -9  -5  105.85   11.08
   7   9   5  118.70   13.92
  -7  -9   6   12.35    9.78
  -7   9   6    6.29    7.40
   7   9   6    9.95    7.79
   7  -9  -6   -9.94    7.96
   7  -9   6   -1.19    3.65
   7   9  -6    3.27    5.81
   7   9   6    8.25    7.78
  -7  -9  -6   16.29    6.92
   7   9   7   41.10   11.10
  -7   9   7   42.80   12.30
   7  -9   7   22.47    7.80
   7   9  -7   33.58    7.26
  -7  -9  -7   39.87    8.42
  -7  -9   7   22.85    9.69
   7  -9  -7   20.64    9.65
   7   9   7   40.45   13.19
  -7  -9  -8  107.42   14.82
   7   9   8   78.67   20.31
   7   9  -8  110.61   11.24
  -7   9   8   95.93   19.14
  -7  -9   8  125.64   18.83
   7   9   8  103.87   15.47
   7  -9  -8   96.26   15.97
  -8  -9   0   34.11    8.20
   8  -9   0   50.51    6.33
  -8   9   0   46.94    4.98
  -8   9   0   52.84    6.03
   8  -9   0   48.49    5.87
   8   9   0   44.29    5.92
  -8  -9   0   43.80    7.83
   8   9   0   37.23    7.51
   8   9   1    9.54    6.39
   8  -9  -1   17.61    6.57
   8  -9   1   12.08    5.17
  -8  -9  -1    9.99    5.36
   8  -9  -1   12.55    5.54
   8   9  -1   10.63    4.77
   8  -9  -1   13.78    6.61
  -8   9  -1   18.69    5.04
  -8  -9   1   19.07    5.83
  -8   9   1    9.98    4.61
  -8  -9   1    7.96    5.32
   8   9   1   14.94    5.14
   8   9  -1   13.06    4.28
  -8   9   1   11.14    4.10
  -8  -9  -1    3.45    5.97
  -8   9  -1   16.21    2.47
   8   9   2   78.72    7.75
   8  -9  -2   72.35    7.63
  -8  -9   2   86.29   10.75
  -8   9   2   96.27    7.38
   8   9   2   76.41    9.86
   8   9  -2   79.90    6.56
   8  -9  -2   77.87   10.77
   8  -9  -2   82.56    9.51
  -8  -9  -2  106.79   11.86
  -8   9   2   99.35    9.76
  -8   9  -2   75.61    3.56
   8  -9   2   78.42    5.99
  -8   9  -2   86.28    4.75
   8   9   3  259.18   15.00
   8   9   3  218.82   15.11
  -8   9   3  248.46   16.01
   8  -9   3  234.23   10.47
   8  -9   3  256.75   14.07
   8  -9  -3  255.74   15.30
   8   9  -3  228.19   14.66
  -8  -9  -3  235.31   17.83
   8  -9   4    1.40    4.73
   8   9   4    6.98    8.83
   8  -9  -4   -0.96    6.10
   8   9   4    8.13    7.64
  -8   9   4    8.93    5.99
  -8  -9  -4   -8.14   11.22
   8  -9  -5   43.07   12.08
  -8  -9   5   29.98    9.28
   8   9   5   37.24    8.33
  -8  -9  -5   27.44   12.24
   8   9   5   45.36    8.99
  -8   9   5   53.95   11.92
   8  -9   5   44.71    7.05
   8   9  -5   28.95    7.40
   8   9   6   95.17   13.76
  -8  -9   6   64.79   12.39
   8  -9   6   83.85    8.37
   8   9  -6   92.17   11.98
   8  -9  -6  106.56   14.71
   8   9   6   56.42   12.67
  -8   9   6   81.18   12.02
  -8  -9  -7   21.33   11.56
  -8  -9   7   16.71    9.68
   8  -9   7   12.26    8.78
   8  -9  -7   41.99   15.60
   8   9   7   16.65   13.82
   8   9  -7   15.88    8.01
   8   9   7   10.28    8.98
  -8   9   7   11.54   11.65
  -8  -9  -8   81.72   15.25
  -8   9   8   97.86   17.08
   8   9   8   89.31   15.33
   8   9  -8   90.91   11.24
  -8  -9   8   70.62   14.18
   8  -9  -8  121.14   18.13
   8   9   8   63.31   20.49
   9  -9   0   51.71    6.91
  -9  -9   0   75.15   12.68
  -9   9   0   47.66    5.20
   9   9   0   66.34    6.72
  -9  -9   0   64.26    7.14
   9   9   0   66.20    7.33
  -9   9   0   43.45    7.76
   9  -9  -1   19.94   11.50
   9   9  -1   26.54    6.61
   9   9   1   20.41    8.62
   9  -9  -1   19.16    5.67
  -9   9   1   25.13    8.52
   9  -9   1   20.24    3.93
  -9  -9  -1   11.24    6.51
  -9   9   1   20.77    4.51
  -9   9  -1   26.33    4.52
  -9   9  -1   22.46    3.97
   9   9   1   21.27    6.94
  -9  -9  -1   27.25    6.17
   9  -9  -2  127.39   10.00
  -9   9   2  107.52   11.91
  -9   9  -2  127.77    7.24
  -9   9  -2  138.05    6.76
  -9   9   2  121.50    9.18
   9  -9   2  137.78    7.32
   9   9   2  167.15   13.97
   9   9   2  175.73   14.04
  -9  -9  -2  152.56   12.87
   9   9  -2  169.57   11.72
  -9   9   3   54.83    8.07
  -9  -9  -3   93.45   13.76
   9   9  -3   71.73    8.93
   9   9   3   91.12   11.00
   9   9   3   92.36   11.06
   9  -9  -3   63.58   10.76
   9  -9   3   64.39    4.05
   9  -9   3   52.86    6.61
   9  -9  -4  137.45   12.38
   9   9   4  128.86   15.30
   9  -9   4  130.08   10.67
  -9   9   4  129.88   11.63
   9   9   4   93.59   10.56
  -9  -9  -4  118.42   16.24
   9   9  -5  101.15   12.15
  -9   9   5   85.69    9.92
   9  -9   5   93.35    9.38
   9   9   5   92.74   11.84
  -9  -9   5   92.30   11.96
   9   9   5   95.91   13.09
   9  -9  -5   71.58   10.50
   9   9   6   68.94   14.50
  -9   9   6  114.13   17.47
   9  -9   6  105.02   10.77
   9   9   6  100.98   12.26
  -9  -9   6   90.84   14.22
   9   9  -6  101.28   14.80
   9  -9  -6  100.82   13.32
  -9  -9  -7   60.18   12.28
  -9  -9   7   50.56   14.36
   9   9   7   50.21   11.54
  -9   9   7   93.01   16.76
   9  -9  -7   68.13   15.67
   9   9  -7   54.26    9.94
   9   9   7   61.30   12.88
  -9  -9   8   19.70   13.96
  -9  -9  -8   21.64   11.70
  -9   9   8   14.29   17.30
   9   9  -8   32.09    9.54
   9   9   8   14.76   17.29
 -10   9   0   65.34    5.83
  10   9   0   40.59    9.58
  10  -9   0   64.41    8.31
 -10   9   0   58.17    7.03
 -10   9   1  447.06   20.33
  10  -9   1  496.55   22.55
 -10  -9  -1  434.35   33.55
  10   9  -1  475.24   25.59
 -10   9  -1  497.13   29.14
  10   9   1  443.43   27.33
 -10   9   1  485.92   26.46
 -10   9  -1  497.80   28.17
  10  -9  -1  481.12   28.77
  10   9   1  480.09   24.16
  10   9   2   47.22    7.84
 -10   9   2   38.91    8.55
 -10   9  -2   40.84    2.98
  10  -9  -2   26.61    8.05
  10   9  -2   26.97    6.48
  10   9   2   33.46    7.13
 -10  -9  -2   28.30    9.09
 -10   9  -2   41.34    5.51
 -10   9  -2   42.15    3.04
  10  -9  -3    8.42   10.50
  10   9   3   -6.78    5.69
  10   9  -3   -0.27    5.81
 -10   9   3   11.19    7.13
  10  -9   3    2.82    4.36
 -10  -9  -3   -2.53    8.03
  10  -9   3    4.94    2.69
  10   9   3   -3.72    9.17
  10   9   4  289.21   23.16
  10  -9   4  264.85   15.98
 -10   9   4  267.43   16.72
  10   9   4  271.11   19.23
  10  -9  -4  302.07   20.86
  10  -9  -5   11.15    9.88
  10   9   5   20.37    8.72
 -10  -9   5   15.78    8.23
 -10   9   5    1.64    9.80
  10  -9   5    0.46    6.78
  10   9   5   14.23    8.47
  10   9  -5    7.54    7.33
 -10   9   6   68.31   12.67
 -10  -9   6   36.82   11.50
  10  -9   6   65.55   10.09
  10   9   6   66.45   12.05
  10  -9  -6   47.99   13.40
  10   9  -6   85.70   15.62
  10   9   6   49.06   11.60
 -10  -9  -7   92.74   13.42
 -10   9   7   64.75   17.14
  10  -9  -7  118.23   21.57
  10   9   7   73.61   13.49
  10   9  -7   82.69   11.62
 -10  -9   7   74.36   16.15
  10   9   7   79.72   17.38
  11   9   0  205.46   12.57
  11  -9   0  204.05   14.60
 -11   9   0  212.12   13.63
 -11   9   0  204.22   13.18
  11   9   0  215.08   15.55
 -11   9   1   40.58    6.72
 -11   9  -1   46.41    5.06
  11  -9  -1   41.62    7.80
 -11   9   1   47.31    7.74
  11   9   1   47.88    8.83
  11   9   1   30.61    7.63
  11  -9   1   44.02    5.93
  11   9  -1   44.95    7.39
 -11   9  -1   38.02    6.92
  11   9  -2   80.66   21.21
  11   9   2   72.38    8.92
 -11   9  -2   73.75    5.54
  11  -9   2   80.30    7.09
 -11   9   2   87.46    7.91
  11   9   2   57.24    9.49
 -11   9  -2   72.93    5.68
  11  -9  -2   63.95    8.73
 -11   9  -2   70.94    4.38
  11   9   3   43.92    9.74
  11  -9   3   23.82    3.48
  11   9  -3   30.84    7.43
  11  -9   3   33.63    6.25
 -11   9   3   23.25    7.15
  11   9   3   33.58    9.58
  11  -9  -3   31.43   10.97
  11  -9  -4   45.38   12.13
  11   9   4   32.25   12.33
  11   9   4   33.47    9.71
 -11   9   4   56.15   12.95
  11  -9   4   43.56    6.82
  11   9   5  177.12   15.85
  11  -9   5  180.32   13.90
 -11   9   5  183.44   16.52
 -11  -9   5  191.19   17.06
  11  -9  -5  175.64   16.30
  11   9   5  227.45   20.67
 -11   9   6  164.58   18.24
  11   9   6  147.23   19.11
  11  -9  -6  181.63   21.66
 -11  -9   6  165.39   19.51
  11  -9   6  178.19   14.58
  11   9   6  197.62   20.02
  11   9  -6  179.66   22.46
  11   9  -7    8.82   14.91
 -11  -9   7   11.08   16.00
  11   9   7   -9.85   16.62
 -11  -9  -7   11.79    7.70
 -11   9   7    4.03   13.20
 -12   9   0  132.86   10.87
  12   9   0   92.15   10.65
 -12   9   0  128.69    9.36
  12  -9   0  131.06    9.76
 -12   9   1  157.33   13.38
 -12   9  -1  174.54   11.35
  12   9   1  137.85   13.08
  12   9   1  170.57   14.56
  12   9  -1  157.12   13.13
  12  -9   1  174.74   12.62
  12  -9  -1  175.56   16.84
 -12   9  -1  163.76   13.59
  12   9   2   99.74   12.61
  12  -9  -2  115.33   11.83
 -12   9  -2  107.21    6.17
 -12   9   2  112.41   10.31
  12   9   2  107.96   14.33
  12  -9   2  106.23    7.68
  12   9  -2  108.64   11.47
  12   9   3   37.21    9.96
  12   9   3   47.35   10.30
  12  -9   3   34.29    4.64
 -12   9   3   55.91   11.97
  12  -9  -3   49.69   13.90
  12  -9   3   37.88    8.15
  12  -9  -4  115.89   15.70
  12   9   4  101.88   13.78
  12   9   4   99.50   14.12
  12  -9   4  111.26   12.42
 -12   9   4  145.83   13.61
 -12  -9   5    2.37    8.01
 -12   9   5    6.23   10.22
  12  -9   5   -5.93    9.20
  12  -9  -5   -1.86   15.74
  12   9   5  -10.39   12.22
  12   9   5   -1.02    7.55
  12   9  -5    6.24    9.87
  12   9  -6  116.98   16.92
  12  -9  -6  130.79   19.95
  12   9   6  149.35   20.21
 -12  -9   6  139.77   16.00
  12   9   6  119.35   17.15
 -12   9   6  137.48   19.81
  12  -9   6  133.92   13.62
  13   9   0   -1.50    7.08
 -13   9   0    3.73    7.28
  13  -9   0    5.78    8.67
  13  -9   1   39.45    8.76
 -13   9  -1   40.74   10.64
  13   9   1   53.04   11.59
  13   9  -1   35.69    8.33
 -13   9   1   48.99    8.05
  13  -9  -1   44.10   11.90
 -13   9  -1   47.23    6.05
  13   9   2   37.75   10.17
 -13   9  -2   51.60    4.90
 -13   9   2   57.05    9.53
  13   9   2   67.16   13.79
  13   9  -2   64.08   10.92
  13  -9   2   66.11    8.09
  13  -9  -2   48.17    9.05
  13  -9   2   43.35    5.20
  13  -9  -3    8.21   11.03
 -13   9   3   17.46    8.57
  13   9   3   15.46   13.01
  13  -9   3   15.49    8.29
  13   9  -3   17.25    6.06
  13   9   3    4.99    8.73
  13   9   4    2.25   12.65
  13   9   4    7.91    9.17
  13   9  -4    0.55    6.45
 -13   9   4    4.94    8.31
  13  -9   4   12.79   10.42
  13  -9  -4   15.03   10.10
  13  -9   5   54.45   10.71
  13   9   5   72.43   13.40
 -13   9   5   63.28   17.13
 -13  -9   5   46.26   13.09
  13   9   5   39.37   12.01
  13  -9  -5   55.33   13.84
  13   9   6   78.70   19.95
 -13   9   6   76.20   22.15
 -13  -9   6   95.61   16.30
  14   9   0   36.45    9.87
  14  -9   0   24.65    9.63
 -14   9   0   42.52    6.75
  14   9  -1   11.38   11.48
  14  -9  -1   -0.39    9.41
  14   9   1   11.10   12.14
  14  -9   1   -8.62    8.11
 -14   9  -1    1.40    5.49
 -14   9   1    1.03    8.34
  14  -9  -2    9.51    7.88
  14   9   2   19.13    9.41
  14   9  -2   10.56    7.12
  14  -9   2   12.32    5.39
  14  -9   2    2.52    7.33
 -14   9   2   10.11    9.81
 -14   9  -2   10.07    3.88
  14   9   2    7.71   10.32
 -14   9   3  293.31   22.76
  14  -9   3  276.42   21.69
  14   9  -3  273.38   30.36
  14   9   3  299.77   22.20
  14   9   3  283.04   25.64
  14  -9  -3  304.96   19.63
  14   9   4  103.80   17.87
  14  -9  -4  125.77   15.78
  14   9  -4  116.47   15.83
  14  -9   4  115.65   15.99
  14   9   4  132.46   21.31
 -14   9   4  134.65   18.64
  14   9   5  159.56   22.86
 -14  -9   5  179.88   19.82
  14   9   5  149.39   22.16
 -14   9   5  150.56   18.50
  14  -9   5  176.20   16.72
  14  -9  -5  107.35   21.22
  15  -9   0  114.92   12.96
 -15   9   0  100.60    9.67
  15   9   0  108.65   14.16
 -15   9  -1   42.53    8.10
 -15   9   1   66.78   11.15
  15  -9   1   55.04   10.98
  15   9   1   64.88   15.70
  15  -9  -1   39.46    8.45
  15  -9  -2   -1.79    8.84
 -15   9   2   12.53   12.30
  15  -9   2    8.27   10.77
  15   9   2   17.24   10.26
  15   9  -2   10.19    8.74
  15   9   3   69.53   12.72
  15  -9   3   43.04   13.59
  15   9   3   34.39   13.24
 -15   9   3   48.51   13.34
  15   9  -3   43.41   12.47
  15  -9  -3   48.07   13.12
  15   9   4    3.19   11.10
 -15   9   4    3.17   10.49
 -15  -9   4   11.60   11.33
  15   9   4    9.70   10.11
  15  -9  -4    5.38   12.91
  15   9  -4    1.06    8.62
  15  -9   4   -3.33   12.80
 -16   9   0   18.07    6.95
  16   9   0   26.95   12.33
  16  -9   0   10.51    8.51
 -16   9   1  186.35   15.86
 -16   9  -1  144.44   12.01
  16  -9  -1  143.53   17.99
  16   9  -1  141.72   17.49
  16   9   1  123.68   20.01
  16  -9   2  109.07   15.95
  16   9   2  109.26   15.51
 -16   9   2  108.69   16.72
  16  -9  -2   79.87   18.98
  16   9  -2  113.29   15.60
  16   9  -3   24.64   15.41
 -16   9   3   22.91   10.53
  16  -9  -3    7.16   16.81
  16  -9   3   19.68    9.67
  16   9   3   26.57   13.86
  17   9   0  272.74   27.79
 -17   9   0  261.97   18.36
  17  -9   0  219.10   21.11
 -17   9   1  201.85   20.63
  17  -9   1  173.79   22.61
  17  -9  -1  189.18   18.58
  17   9   1  226.55   24.84
  17   9  -1  209.17   28.32
   0 -10   0  223.06   12.12
   0  10   0  214.00   10.38
   0 -10   0  212.43   10.63
   0  10   0  194.07    7.78
   0 -10   1  423.83   20.75
   0 -10   1  398.88   14.76
   0  10  -1  431.86   18.35
   0 -10  -1  417.89   17.83
   0  10  -1  418.10   15.82
   0 -10  -1  429.23   18.92
   0  10   1  423.23   18.31
   0  10   1  409.26   16.95
   0  10   2    2.67    3.42
   0 -10  -2    0.46    3.45
   0 -10   2    4.76    3.07
   0 -10  -2   15.03    6.48
   0 -10  -2    4.87    4.04
   0  10   2    9.90    3.81
   0  10  -2    3.99    2.31
   0 -10   3  341.51   17.52
   0 -10   3  348.78   16.71
   0  10   3  327.04   17.87
   0  10   3  347.08   16.64
   0 -10  -3  367.51   14.60
   0 -10  -3  366.49   16.51
   0 -10  -3  357.80   20.87
   0  10   4   20.67    5.97
   0 -10  -4   34.59    7.99
   0 -10   4   28.46    3.87
   0  10   4   30.67    6.64
   0 -10  -4   29.67    7.52
   0 -10  -4   29.83    5.90
   0 -10   4   35.29    3.99
   0 -10   5  372.95   20.32
   0  10   5  380.05   16.33
   0 -10   5  371.42   16.10
   0  10   5  372.24   18.09
   0 -10  -5  346.98   18.06
   0 -10   5  370.18   19.44
   0  10   6   38.93    8.39
   0 -10   6   32.33    5.05
   0 -10   6   36.01    6.56
   0  10   6   38.47    8.48
   0 -10  -6   23.78    8.82
   0 -10   6   29.59    6.26
   0  10   7   44.95   13.40
   0 -10  -7   41.95    9.84
   0 -10   7   46.55    8.20
   0  10   7   48.08   12.58
   0 -10   7   38.96    6.06
   0 -10  -8  167.64   17.19
   0  10   8  136.18   16.79
   0  10   8  182.07   18.48
   0  10   9  190.30   19.30
   0  10   9  227.37   20.18
   0 -10  -9  192.99   17.84
   1 -10   0    1.83    2.13
  -1 -10   0    5.69    2.29
  -1 -10   0    7.97    5.10
   1 -10   0    0.79    3.07
   1  10   0    4.90    3.30
  -1  10   0    1.50    3.16
   1  10   0    3.00    4.02
  -1  10   0   -1.02    1.94
   1 -10   1  230.12   11.36
  -1 -10  -1  200.46   10.82
   1  10   1  181.37    8.83
   1 -10  -1  228.62   11.53
   1  10   1  199.85   10.91
  -1  10  -1  211.23   10.33
  -1 -10   1  219.35    8.80
  -1 -10  -1  209.87   10.88
   1 -10  -1  220.82   11.83
   1 -10   1  225.92   10.97
   1  10  -1  208.27   10.29
  -1 -10   1  204.79    8.30
  -1  10   1  222.44    9.14
   1 -10  -1  210.39   12.21
  -1  10   1  222.81    9.76
   1  10  -1  202.84   10.70
   1  10  -2  379.63   17.36
  -1  10   2  388.84   13.93
   1 -10  -2  393.87   17.92
   1  10   2  382.45   20.52
   1 -10  -2  421.84   19.61
  -1 -10  -2  379.65   18.53
   1  10  -2  405.85   19.93
  -1  10  -2  395.52   19.52
   1 -10  -2  399.46   15.82
  -1 -10   2  386.71   18.54
   1 -10   2  388.13   14.18
  -1  10   2  437.32   18.65
   1  10   2  424.81   18.98
  -1 -10  -2  402.44   21.71
  -1  10   3   89.71    8.08
  -1 -10  -3   75.12    8.44
   1 -10   3   86.27    6.57
  -1 -10  -3   78.47    6.30
   1 -10  -3   75.74    8.52
   1  10   3   58.61    8.25
   1  10   3   64.72    6.53
  -1 -10   3   67.31    6.43
   1 -10   3   89.87    6.43
  -1 -10  -3   61.60    7.03
   1 -10  -3   83.44    8.84
   1 -10  -3   74.65    7.20
  -1 -10   3   65.35    5.77
  -1  10   3   86.64    7.69
   1 -10   4  149.04    8.12
   1  10   4  144.45    9.02
   1 -10   4  150.71    8.61
  -1 -10  -4  112.74   10.86
  -1 -10   4  147.00    9.76
  -1 -10   4  137.62    9.79
   1 -10  -4  150.63   12.66
   1 -10  -4  118.35   11.79
  -1  10   4  141.20   10.01
  -1 -10  -4  134.80   13.83
   1  10   4  159.63   12.14
   1 -10  -4  143.91   12.57
  -1  10   4  114.38   10.09
  -1 -10  -4  123.51    9.56
   1 -10   5   84.12    7.13
   1  10   5   69.22    9.35
  -1 -10   5   83.63    8.40
  -1 -10   5   82.64    6.76
   1 -10   5   82.78    6.92
   1 -10   5   89.72    6.26
   1 -10  -5   90.62    9.53
  -1  10   5  102.54   11.11
  -1 -10  -5   76.68    8.70
  -1 -10   5   85.41    8.22
  -1  10   5   79.14   10.03
   1  10   5   66.51   11.26
  -1 -10   6   33.39    6.35
   1 -10   6   34.69    4.40
  -1 -10   6   31.43    4.79
   1 -10   6   35.31    6.11
  -1  10   6   40.19    9.91
   1  10   6   40.82    8.72
   1 -10   6   26.38    5.83
  -1 -10  -6   34.23    7.27
   1  10  -6   34.45    2.56
   1  10   6   46.70   11.51
   1 -10  -6   34.21    8.71
  -1  10   6   38.34   10.58
  -1  10   7   26.35   10.40
  -1 -10  -7   23.90    9.64
   1 -10  -7   24.80    8.93
   1  10   7   10.30    8.44
  -1  10   7   18.86   13.65
   1  10   7   37.41   12.87
  -1 -10   7   37.19    6.71
  -1 -10   7   17.16    5.86
  -1 -10  -8   83.52   15.33
  -1  10   8  131.60   19.48
  -1  10   8   95.49   14.48
   1  10   8  126.34   13.01
   1 -10  -8   94.32   12.41
   1  10   8   97.25   15.75
   1  10   9   48.07   16.12
   1 -10  -9    8.73   17.03
  -1  10   9   23.14   13.07
  -1  10   9   22.39   14.29
   1  10   9   14.03   12.90
  -2  10   0  129.09    7.68
   2 -10   0  129.57    6.45
   2  10   0  156.81    8.46
   2 -10   0  136.53    7.95
   2 -10   0  123.11    9.63
   2  10   0  145.98    7.75
  -2 -10   0  161.86    9.30
  -2 -10   0  167.93    8.63
   2  10   1   31.66    4.39
  -2  10   1   27.02    5.02
   2  10   1   20.96    5.56
   2 -10   1   32.71    3.31
   2  10  -1   30.69    4.03
  -2 -10  -1   31.29    4.98
   2 -10  -1   24.65    5.53
  -2 -10   1   30.63    5.07
   2 -10  -1   35.54    4.83
   2  10  -1   26.56    2.60
  -2  10  -1   27.70    3.41
  -2 -10   1   25.85    2.56
  -2 -10  -1   26.89    5.02
   2 -10  -1   25.66    5.09
  -2  10   1   20.52    3.54
   2 -10   1   32.91    3.90
   2  10   2  770.74   28.72
   2 -10  -2  912.08   36.64
  -2 -10  -2  777.17   31.43
   2 -10  -2  815.31   33.27
   2 -10   2  951.37   38.61
   2 -10   2  749.05   30.60
   2  10  -2  785.63   32.41
   2 -10  -2  870.56   46.83
   2 -10   2  861.80   32.97
  -2 -10  -2  796.78   47.92
  -2  10  -2  859.21   37.96
   2  10   2  779.37   25.93
  -2 -10   2  830.29   42.28
   2  10  -2  774.50   44.28
  -2  10   2  880.15   28.38
  -2  10   2  835.45   27.62
  -2 -10   2  803.75   32.40
  -2 -10   3  467.39   21.03
   2 -10  -3  509.29   22.54
   2  10   3  489.40   18.06
  -2 -10  -3  493.96   25.52
  -2 -10  -3  482.02   30.43
   2 -10   3  515.49   23.50
   2 -10   3  508.67   19.08
   2  10  -3  453.61   16.39
   2  10   3  492.59   23.75
  -2  10   3  535.10   16.90
   2 -10  -3  501.51   28.88
  -2  10   3  478.55   20.46
   2 -10  -3  454.56   23.57
  -2 -10   3  463.67   23.69
   2  10  -3  485.50   28.00
  -2  10   4 1033.84   37.78
  -2 -10   4 1043.19   52.09
   2 -10   4 1089.63   53.72
  -2 -10  -4 1019.85   38.23
   2 -10   4 1042.78   54.01
   2 -10  -4 1000.44   40.23
   2 -10  -4 1009.78   67.71
  -2 -10   4 1068.65   63.11
  -2  10   4 1034.40   39.08
   2 -10   4 1083.43   49.16
   2  10   4 1026.41   40.05
  -2 -10  -4 1119.71   63.45
  -2 -10  -4 1061.16   47.61
   2 -10  -4 1041.76   48.51
   2  10   4 1026.57   45.04
   2 -10   5  405.74   23.66
  -2 -10   5  366.69   28.03
   2  10   5  427.75   23.82
  -2  10   5  363.94   20.28
   2  10   5  374.15   17.79
   2 -10  -5  378.09   18.64
   2  10  -5  371.97   15.86
   2  10  -5  393.31   20.47
  -2 -10   5  380.51   18.73
  -2 -10  -5  371.70   19.11
  -2 -10  -5  384.93   38.29
  -2 -10   5  382.37   23.54
   2 -10   5  415.08   17.28
  -2  10   5  398.45   19.44
   2 -10   5  402.82   19.14
   2  10   6  745.89   36.99
  -2 -10  -6  677.84   36.03
   2  10  -6  707.79   35.26
  -2 -10   6  653.30   37.95
  -2 -10   6  715.36   39.46
  -2  10   6  703.32   36.02
   2 -10  -6  701.06   33.39
   2  10   6  641.21   34.05
   2 -10   6  729.31   36.22
   2 -10   6  737.60   36.58
   2 -10   6  714.51   45.39
  -2  10   6  673.25   26.73
  -2 -10  -7  291.60   18.65
   2  10   7  274.01   18.12
  -2  10   7  336.84   26.50
  -2  10   7  308.59   20.65
   2  10   7  296.01   25.89
  -2 -10   7  284.74   20.93
  -2 -10   7  264.26   25.72
   2 -10  -7  317.10   19.75
   2  10   8  157.12   18.95
  -2 -10  -8  139.63   15.46
  -2  10   8  164.02   19.82
   2 -10  -8  130.01   17.69
  -2  10   8  164.07   18.43
   2  10   8  148.19   18.18
   2  10   9  359.20   27.48
  -2  10   9  317.10   24.28
  -2 -10  -9  327.62   29.15
   2 -10  -9  339.13   24.61
   2  10   9  377.66   26.69
  -2  10   9  335.37   29.79
   3 -10   0  570.24   17.89
   3 -10   0  554.03   26.50
   3  10   0  476.18   21.99
  -3 -10   0  497.85   29.84
  -3  10   0  550.03   20.90
   3  10   0  520.30   20.59
   3 -10   0  589.73   26.63
  -3 -10   0  518.84   23.88
  -3  10  -1   98.46    5.76
   3 -10   1   94.51    5.34
  -3  10   1   93.71    7.20
   3 -10  -1   97.22    9.46
  -3 -10  -1  106.24    7.86
   3 -10   1  105.15    6.27
   3  10   1   99.18    7.75
  -3 -10   1   88.95    6.96
  -3 -10  -1  108.47    8.12
   3 -10   1  107.35    6.53
   3  10  -1   97.37    7.85
   3 -10  -1   94.58    8.19
   3  10   1  103.63    7.49
   3  10  -1   98.43    6.99
   3 -10  -1   79.61    6.05
   3 -10   2  182.11    9.61
  -3 -10  -2  177.65   11.72
   3  10  -2  185.39    9.73
   3 -10  -2  191.35   10.34
  -3  10   2  193.87   10.59
  -3 -10  -2  195.48   12.14
   3  10   2  208.56   12.17
   3 -10   2  174.64    6.93
  -3 -10   2  182.94   12.01
   3  10   2  203.96   11.09
   3  10  -2  180.50    8.43
  -3  10  -2  194.33   10.96
   3 -10  -2  206.52   11.78
  -3 -10   2  184.05   13.05
   3 -10   2  183.54    8.16
   3 -10  -2  203.77   11.65
  -3  10   2  189.33   10.72
  -3  10   3  446.85   21.19
  -3 -10  -3  418.66   26.85
   3  10   3  479.40   23.65
   3  10  -3  472.80   29.57
  -3 -10   3  480.25   23.69
  -3  10   3  466.50   17.30
   3 -10  -3  480.77   16.79
   3 -10  -3  485.40   28.48
  -3 -10  -3  433.45   24.87
   3 -10   3  466.53   23.13
   3  10   3  464.10   17.43
  -3 -10   3  485.40   20.06
   3 -10  -3  495.84   27.16
   3 -10   3  472.61   20.10
   3 -10   4   59.80    4.04
   3 -10  -4   67.21    7.96
  -3 -10   4   83.66    8.29
   3 -10   4   70.54    4.49
  -3  10   4   66.98    9.46
   3  10   4   66.32    8.50
   3 -10  -4   64.49    8.88
  -3  10   4   66.13    8.95
   3  10  -4   73.28    4.27
   3  10  -4   77.45    4.85
  -3 -10   4   68.31    5.71
  -3 -10  -4   69.25    7.43
   3  10   4   72.55    9.82
  -3 -10  -4   62.96   10.91
   3 -10   4   66.43    3.96
   3 -10   4   70.48    4.71
   3  10  -5   67.91    4.43
  -3 -10   5   53.99    6.93
  -3  10   5   54.57   10.30
   3 -10  -5   58.59    7.80
  -3 -10   5   73.06    8.18
   3 -10   5   66.41    4.57
   3  10   5   71.62   11.27
   3 -10   5   69.16    3.85
  -3 -10  -5   53.48    7.42
  -3  10   5   81.72    9.97
   3  10   5   66.27   11.93
  -3 -10  -5   36.32   11.57
   3 -10   5   61.61    5.02
   3 -10   5   63.41    4.00
   3  10   6  176.63   15.67
   3 -10  -6  177.80   13.49
   3 -10   6  188.04   15.11
  -3 -10   6  177.31   10.87
   3  10   6  193.33   17.49
   3  10  -6  184.02   10.83
  -3 -10  -6  189.14   14.13
  -3 -10   6  161.36   11.84
  -3  10   6  196.20   15.74
  -3  10   6  179.38   15.56
   3 -10   6  188.50    9.34
   3 -10  -7   37.20   10.40
  -3 -10   7   16.30    9.89
  -3  10   7   33.18   10.80
   3  10   7   15.43   10.28
  -3 -10  -7   22.86    8.93
  -3  10   7   19.40   13.49
   3  10   7   30.84   10.93
  -3 -10   7   18.35    8.03
  -3 -10  -8   15.99    8.35
   3 -10  -8   13.05   10.30
  -3  10   8   26.06   12.25
   3  10   8   31.29   10.72
   3  10   8   13.26   10.47
  -3  10   8   13.46   14.65
  -3  10   9  114.74   18.94
  -3  10   9  148.59   20.98
   3 -10  -9  119.52   16.94
  -3 -10  -9  111.20   16.33
   3  10   9  138.39   21.90
   3  10   9  115.98   17.39
  -4 -10   0    3.33    4.04
  -4 -10   0    3.12    2.58
   4 -10   0    1.58    5.21
  -4  10   0    8.01    3.75
   4  10   0    2.33    3.13
   4  10   0    3.29    2.80
   4 -10   0    2.87    2.81
   4 -10   0   -6.23    4.67
  -4  10   1  378.18   14.09
   4  10   1  385.95   21.01
  -4 -10  -1  394.13   17.59
   4  10  -1  361.23   19.42
   4  10  -1  379.56   20.26
  -4 -10   1  375.98   23.57
   4 -10  -1  414.16   15.07
   4 -10   1  388.76   14.40
  -4 -10  -1  378.61   23.59
   4 -10  -1  381.21   19.15
   4 -10  -1  412.69   18.74
   4 -10   1  407.84   16.06
  -4 -10   1  399.79   19.54
   4  10   1  366.38   18.59
   4 -10   1  379.84   14.49
  -4  10  -1  428.77   18.31
   4 -10  -2  564.07   24.77
   4 -10   2  568.23   22.37
  -4 -10   2  548.25   29.93
   4 -10  -2  601.91   28.82
   4  10   2  531.82   23.77
  -4  10   2  557.60   24.31
  -4 -10  -2  534.94   31.57
   4 -10   2  546.68   18.88
  -4 -10   2  572.62   28.08
   4 -10   2  559.14   17.21
   4 -10  -2  588.51   21.10
  -4 -10  -2  556.79   28.13
   4  10  -2  552.61   26.92
   4  10   2  520.28   27.53
   4  10  -2  535.73   23.84
  -4  10  -2  542.47   31.84
  -4 -10  -3  571.67   33.23
  -4 -10   3  540.98   28.57
   4 -10   3  578.57   21.45
   4 -10   3  589.86   19.81
   4 -10   3  580.80   22.50
   4 -10   3  571.53   26.61
   4 -10  -3  589.85   29.77
   4 -10  -3  635.95   30.22
   4  10   3  545.46   23.32
   4  10  -3  539.78   35.78
   4 -10  -3  564.24   21.82
  -4 -10  -3  589.13   37.61
  -4 -10   3  537.64   27.50
  -4  10   3  586.60   25.10
   4  10   3  550.42   20.10
   4  10   4   43.54    8.53
   4  10   4   47.76    8.09
  -4  10   4   52.29    7.59
   4 -10   4   39.81    2.71
   4  10  -4   46.50    4.19
   4 -10   4   41.33    2.90
  -4 -10  -4   47.41    8.85
   4 -10  -4   52.28    8.17
  -4 -10   4   58.56    8.13
  -4 -10   4   35.30    6.15
   4  10  -4   45.71    4.42
   4 -10   4   41.56    2.75
  -4 -10   5  404.70   23.69
  -4  10   5  368.30   19.60
   4  10  -5  399.13   19.92
  -4 -10  -5  359.58   35.55
  -4  10   5  393.93   19.69
   4 -10  -5  385.02   21.88
  -4 -10  -5  427.05   19.75
   4  10   5  361.07   19.27
  -4 -10   5  425.23   19.59
   4  10   5  367.15   18.21
   4 -10   5  366.61   16.22
   4 -10  -6  182.54   15.00
  -4  10   6  192.89   15.43
  -4 -10   6  236.61   15.24
   4 -10   6  191.15   10.07
  -4 -10   6  206.13   15.35
  -4  10   6  208.18   14.05
   4  10   6  186.18   13.94
   4  10   6  252.22   18.24
  -4 -10  -6  172.24   12.75
  -4 -10   7    9.87    6.12
   4  10   7    0.00    8.62
  -4 -10  -7   10.14    9.07
   4  10   7   22.17    9.15
   4 -10  -7    0.53   13.00
  -4 -10   7   13.26    7.83
  -4  10   7    2.70   10.00
  -4  10   8   81.53   15.72
   4  10   8   94.73   14.06
   4 -10  -8   99.88   14.53
  -4 -10  -8  105.16   15.12
   4  10   8   78.86   13.78
   4  10   9   28.27   16.07
  -4  10   9   34.41   15.13
  -4 -10  -9   41.16   10.85
   4 -10  -9   83.70   17.62
   4  10   9   32.35   14.10
   5  10   0 1055.88   39.13
   5 -10   0 1116.01   48.06
  -5  10   0 1076.83   38.11
   5  10   0 1023.36   42.09
   5 -10   0 1126.07   49.18
  -5 -10   0 1086.89   44.87
   5 -10   0 1082.23   33.92
   5 -10   1  962.78   47.27
   5 -10  -1  918.30   42.09
   5  10  -1  969.64   43.35
  -5 -10   1  983.91   51.16
   5 -10  -1  933.67   43.69
  -5 -10  -1  988.75   40.36
   5 -10   1  920.92   29.33
   5  10  -1  943.36   34.63
  -5  10   1  873.60   35.02
   5 -10  -1  908.76   30.56
   5 -10   1  925.37   31.19
  -5  10  -1  944.26   37.37
   5  10   1  983.73   44.51
  -5 -10  -1  970.02   66.03
   5  10   1 1024.42   32.38
  -5 -10   1 1064.84   49.17
  -5 -10   2   88.23    7.93
  -5  10  -2   96.17    5.68
   5 -10  -2   95.41    9.78
   5 -10  -2   83.75    6.89
   5  10   2  107.32    8.76
   5 -10   2   88.10    5.99
   5  10   2   96.87   10.03
  -5  10   2   96.66    9.78
   5 -10  -2   84.56    7.91
  -5 -10  -2   89.96    8.68
   5 -10   2   90.94    5.19
  -5 -10  -2   93.19   10.01
  -5 -10   2   84.07    7.96
   5 -10   2   85.57    5.03
   5  10  -2   80.96    5.95
  -5  10   3   79.06   10.41
  -5 -10   3   75.90    8.64
   5 -10   3   81.69    4.61
   5 -10  -3   77.88    7.91
  -5  10   3   64.47    8.89
   5 -10  -3   64.77    8.78
  -5 -10  -3   68.37    9.03
   5  10   3   77.35    6.70
  -5 -10  -3   71.33   10.37
   5  10   3   71.43    8.82
   5  10  -3   85.27    5.98
   5 -10   3   76.08    4.96
   5 -10  -3   83.57    8.15
  -5 -10   3   76.94    9.21
   5 -10   4  403.20   17.48
   5  10   4  381.39   17.19
  -5  10   4  399.90   22.07
  -5 -10  -4  389.48   31.31
   5 -10  -4  366.81   19.70
   5  10  -4  371.63   21.46
   5  10   4  389.82   24.90
   5 -10   4  363.92   13.92
  -5 -10   4  398.97   25.76
   5 -10   4  440.29   15.98
   5  10   5  398.90   22.34
   5  10   5  366.43   25.22
  -5 -10  -5  422.56   18.63
   5 -10  -5  390.24   20.56
   5 -10   5  372.36   17.46
   5  10  -5  397.66   25.04
  -5  10   5  391.40   18.90
  -5 -10   5  347.02   28.24
   5  10   6   80.92   13.77
   5  10   6  102.00   12.52
   5 -10  -6   99.69   13.51
  -5  10   6  100.67   11.67
  -5 -10   6   79.01    9.42
  -5 -10  -6   91.35   12.69
  -5 -10   6  105.41    9.50
   5 -10   6   96.51    6.11
   5  10   7  108.12   13.51
  -5  10   7   93.54   15.93
  -5 -10   7  113.13   13.79
   5  10   7   97.12   14.26
   5 -10  -7  104.69   17.71
  -5 -10  -7  124.99   13.15
  -5 -10  -8   82.32   11.22
   5  10   8   63.94   16.69
   5 -10  -8   87.20   15.49
  -5  10   8   77.38   15.18
   5  10   8  100.28   15.69
   5  10   9  128.17   21.98
   5  10   9   80.96   21.90
  -5  10   9   94.27   19.36
  -5 -10  -9   73.13   18.20
   6  10   0  124.99   10.63
   6 -10   0  135.39    8.29
   6  10   0  111.39    8.84
   6 -10   0  114.65    7.15
   6 -10   0  121.47    7.90
  -6 -10   0  104.55   10.88
  -6 -10   0  112.55   10.09
  -6  10   0  125.96    6.09
   6  10  -1   55.86    4.39
  -6  10  -1   52.63    3.72
  -6  10   1   61.34    6.00
  -6 -10  -1   49.79    9.10
  -6  10   1   62.07    7.26
  -6 -10   1   46.00    7.66
   6  10  -1   48.49    5.86
   6 -10   1   54.11    4.70
  -6 -10   1   52.53    8.09
   6 -10   1   54.43    4.97
   6 -10  -1   52.31    6.73
  -6 -10  -1   47.33    7.66
   6 -10  -1   56.05    6.47
   6  10   1   47.82    7.42
   6 -10  -1   56.44    7.76
   6 -10   1   57.66    6.02
   6  10   1   45.30    5.54
   6 -10   2  156.26    8.05
   6 -10  -2  124.46   12.23
  -6 -10  -2  167.94   12.06
   6 -10  -2  156.14   11.37
  -6  10   2  174.54   13.03
   6  10  -2  177.77   10.91
  -6  10  -2  151.41    8.32
   6  10   2  178.09   12.44
  -6 -10   2  185.60   12.98
   6 -10   2  155.53    7.49
   6  10   2  171.33   11.77
   6 -10  -2  158.97    9.02
  -6 -10   2  184.01   14.73
  -6 -10  -2  180.65   15.11
  -6  10   2  157.87   11.99
   6  10   3  225.64   12.25
   6  10  -3  225.63   11.96
  -6  10   3  219.99   14.89
   6 -10   3  232.83   12.38
   6 -10  -3  218.65   11.91
   6 -10   3  215.64   10.56
  -6 -10   3  229.09   15.22
   6  10   3  230.20   15.40
  -6 -10  -3  224.25   17.76
   6 -10  -3  220.13   14.05
  -6  10   3  251.70   14.75
  -6 -10   4   77.81    8.29
   6 -10  -4   71.45    9.64
   6  10   4   74.19   11.14
   6  10   4   72.84    8.88
   6 -10   4   58.68    5.11
  -6  10   4   59.00    9.34
  -6 -10  -4   85.96   11.72
   6  10  -4   65.76    5.46
   6  10   5  149.73   12.84
   6  10  -5  156.22   11.09
   6 -10  -5  187.83   15.91
   6 -10   5  167.24    9.02
   6  10   5  167.17   13.63
  -6  10   5  175.67   14.67
  -6 -10   5  160.93   13.92
  -6 -10  -6  463.27   25.85
   6 -10  -6  431.27   23.16
  -6 -10   6  471.82   23.38
   6  10   6  437.81   30.28
   6 -10   6  433.06   26.77
   6  10   6  441.92   23.42
  -6  10   6  494.52   27.16
  -6  10   7   97.95   16.02
  -6 -10  -7   69.46   13.75
   6 -10  -7   52.38   13.03
  -6 -10   7   70.36   11.17
   6  10   7   55.84   11.18
   6  10   7   65.34   13.62
  -6 -10  -8   44.53   10.40
  -6 -10   8   49.38   16.61
   6 -10  -8   57.31   14.46
  -6  10   8   45.60   13.62
   6  10   8   86.52   17.94
   6  10   8   53.06   12.98
   7  10   0  571.04   30.98
  -7 -10   0  550.22   32.73
   7  10   0  551.97   26.02
   7 -10   0  597.13   26.22
   7 -10   0  528.71   22.88
  -7  10   0  533.38   23.84
  -7 -10   0  544.11   29.77
   7 -10   0  572.25   27.15
  -7 -10   1  526.60   33.06
  -7  10   1  553.67   25.36
   7  10   1  501.49   28.32
   7  10  -1  549.91   27.45
  -7  10   1  526.93   22.08
   7 -10   1  506.81   18.79
   7 -10  -1  508.70   20.06
  -7 -10   1  551.41   31.25
  -7 -10  -1  533.11   25.65
   7 -10   1  526.59   22.60
   7  10  -1  528.95   26.89
   7 -10  -1  488.69   25.36
   7  10   1  538.38   21.66
   7 -10  -1  550.03   25.97
  -7  10  -1  514.65   18.67
  -7 -10  -2  136.75   13.36
   7 -10   2   99.21    8.05
   7 -10  -2  102.89   10.67
   7 -10  -2  131.62   13.73
  -7  10   2  120.46    8.95
   7  10   2  107.87    8.66
   7  10   2  131.12   11.10
  -7  10   2  114.99   11.60
  -7  10  -2   99.28    4.82
   7  10  -2  128.94   10.43
  -7 -10   2  140.65   10.51
   7 -10  -2  116.32   11.34
  -7 -10  -2  123.15   12.11
  -7  10   3  107.40   11.44
   7  10   3   68.46    7.76
   7 -10   3  105.79    6.63
   7  10   3   70.66    8.53
  -7 -10  -3   82.43   10.66
   7 -10  -3   95.30   10.80
  -7  10   3  123.83   10.39
   7 -10   3  100.99    5.69
   7  10  -3   82.36    6.79
  -7 -10   3   95.45    9.13
  -7  10   4  498.48   24.92
   7 -10   4  493.13   32.03
   7  10   4  508.70   32.12
   7 -10  -4  477.25   26.87
  -7 -10  -4  421.04   28.83
   7  10  -4  502.82   27.62
   7  10   4  498.46   24.24
   7  10   5   87.51   12.11
   7  10   5   91.28   12.06
   7  10  -5   88.47    9.68
   7 -10  -5   90.27   11.86
   7 -10   5   71.30    6.79
  -7  10   5   64.60   10.43
   7 -10   6   11.27    5.16
  -7 -10   6   14.30   10.12
  -7  10   6   22.28    8.73
   7  10   6   12.24   12.11
  -7 -10  -6   10.53    6.98
   7 -10  -6    2.41    8.48
   7  10   6    8.44    9.18
  -7  10   7   21.24   16.31
   7  10   7   18.73    9.69
   7 -10  -7   37.80   13.16
  -7 -10  -7   48.80   10.85
   7  10   7   35.85   11.01
  -7 -10   7   42.47   10.25
  -7 -10   8   34.73   11.24
   7  10   8   21.97   13.01
   7  10   8   19.31   13.90
  -7  10   8   44.50   11.70
   7 -10  -8   25.56   16.36
  -7 -10  -8   32.35    9.35
   8 -10   0   10.03    6.19
   8 -10   0    6.80    4.74
   8 -10   0   -0.08    4.13
  -8 -10   0   10.65    6.01
   8  10   0    5.84    4.17
   8  10   0    3.59    5.78
  -8  10   0    8.53    6.32
  -8 -10   0    2.32    5.10
  -8  10   0    7.35    2.63
  -8  10  -1   44.14    4.23
  -8  10   1   41.49    7.03
   8  10  -1   26.41    5.58
   8 -10  -1   34.30    6.16
   8  10   1   35.31    7.34
  -8 -10  -1   27.91    7.63
   8 -10  -1   30.02    7.59
   8  10  -1   38.02    9.21
   8 -10   1   30.04    5.01
  -8  10   1   43.07    6.88
  -8 -10   1   34.06    7.64
  -8 -10  -1   35.63    9.67
   8  10   1   28.70    4.88
   8 -10  -1   44.45    5.99
   8  10  -2  228.80   16.12
  -8  10   2  279.51   17.38
   8  10   2  205.80   17.15
  -8  10   2  250.83   15.24
   8  10   2  241.42   15.81
  -8  10  -2  247.73   13.07
   8 -10  -2  274.41   15.91
  -8 -10  -2  285.55   19.60
   8 -10   2  271.84   12.25
  -8  10  -2  262.08   12.19
   8  10   3   61.33    9.81
   8 -10   3   60.69    4.10
  -8 -10  -3   65.37   11.02
   8  10  -3   61.75    6.45
   8 -10   3   54.05    6.05
   8 -10  -3   63.49    8.49
   8  10   3   73.63    9.85
  -8  10   3   51.45    7.25
   8  10   4  242.55   20.80
  -8  10   4  268.15   17.21
   8  10   4  268.20   19.00
   8  10  -4  264.69   18.39
   8 -10  -4  252.47   16.95
   8 -10   4  262.87   16.32
   8  10   5  139.49   13.10
  -8  10   5  154.79   12.69
   8  10   5  136.66   13.55
   8 -10   5  144.98   11.67
   8 -10  -5  132.38   11.75
   8  10   6  178.97   17.69
  -8 -10   6  152.33   15.80
   8 -10  -6  154.67   15.35
   8  10   6  153.57   14.11
  -8  10   6  160.57   17.04
   8 -10   6  136.91   10.14
   8  10   7   55.88   14.71
   8 -10  -7   48.26   12.87
  -8 -10  -7   41.04    9.72
   8  10   7   31.60   12.39
  -8  10   7   74.56   15.98
  -8 -10   7   59.76   10.52
   8  10   8    2.15   11.88
  -8  10   8   11.24   18.25
   8  10   8   17.73   14.07
  -8 -10   8    7.87   10.60
  -8 -10  -8    5.63    8.90
  -9  10   0 1564.60   81.30
   9  10   0 1623.51   76.27
   9  10   0 1473.62   76.71
  -9  10   0 1451.45   64.33
   9 -10   0 1476.21   78.19
   9 -10  -1  169.41   11.30
   9 -10  -1  158.90   13.86
  -9  10  -1  211.20   14.81
   9  10  -1  190.25   13.09
  -9  10   1  186.56   14.06
  -9  10   1  179.09   12.67
   9  10   1  224.59   14.67
   9  10   1  209.61   13.30
   9 -10   1  197.74   11.27
   9 -10  -1  173.60   11.55
  -9  10  -1  186.15   10.27
   9  10  -1  218.68   15.11
   9  10   2  305.25   16.85
  -9  10  -2  289.95   15.88
  -9  10   2  272.18   15.44
   9 -10   2  294.29   14.91
   9  10  -2  277.20   17.76
  -9  10   2  302.62   21.71
   9 -10  -2  309.12   18.03
  -9  10  -2  307.29   17.25
   9  10   2  262.64   21.66
   9  10   3  173.42   12.95
  -9  10   3  211.94   13.89
   9 -10   3  187.97   12.71
   9  10   3  152.79   17.58
   9  10  -3  174.02   13.08
   9 -10   3  181.83   11.13
   9 -10  -3  198.10   15.80
   9  10   4   65.45   10.24
   9 -10  -4   65.47   11.53
   9 -10   4   66.91    8.54
   9  10  -4   64.36    8.28
  -9  10   4   75.80   10.67
   9  10   4   64.95   11.86
   9  10   5  161.02   16.20
   9 -10   5  159.15   15.84
  -9  10   5  130.67   13.32
   9 -10  -5  152.30   16.96
   9  10   5  163.33   16.35
   9 -10   6   24.08    8.17
   9  10   6   23.38    9.94
  -9 -10   6   35.10   12.42
   9  10   6   -6.00   11.62
  -9  10   6   25.81   10.23
   9 -10  -6   19.62   10.22
  -9 -10  -7   17.04   11.62
   9  10   7   33.22   12.53
  -9  10   7   10.00   11.77
   9 -10  -7   33.13   11.29
   9  10   7   28.86   12.73
  -9 -10   7   23.65   10.87
  -9 -10  -8   65.18   12.42
  -9  10   8   69.09   17.45
  -9 -10   8   71.56   15.39
   9  10   8   62.24   15.51
   9  10   8   53.51   17.36
  10 -10   0  346.09   18.68
 -10  10   0  354.17   23.77
  10  10   0  396.89   28.34
  10  10   0  384.64   21.35
 -10  10   0  342.54   18.84
 -10  10   1  166.11   13.09
 -10  10  -1  152.82   10.73
  10  10   1  174.79   13.85
  10 -10  -1  167.08   14.41
  10 -10   1  136.88   10.41
 -10  10  -1  153.13    8.32
  10  10   1  164.44   13.07
 -10  10   1  139.02   10.66
  10  10  -1  163.53   13.64
  10  10   2   91.81   11.92
 -10  10   2  107.23    9.53
  10 -10   2   98.55    8.08
  10  10  -2  112.99   12.69
  10 -10  -2  103.69   10.68
  10  10   2  144.77   14.28
 -10  10  -2  117.29    7.02
 -10  10  -2  123.82    7.08
  10 -10  -3   17.06    8.27
  10  10  -3   22.87    6.38
 -10  10   3   35.26    8.89
  10 -10   3   14.72    3.11
  10 -10   3   21.87    5.19
  10  10   3   28.01    8.34
  10  10   3   28.92    8.56
 -10  10   4   62.50   11.67
  10  10   4   61.43   12.05
  10  10   4   65.88   10.17
  10  10  -4   48.89    7.73
  10 -10  -4   65.22    8.75
  10 -10   4   77.26   10.04
  10 -10  -5   58.82   12.84
 -10 -10   5   48.34   12.72
  10 -10   5   60.74    9.36
  10  10   5   50.74   10.07
  10  10   5   49.62   11.27
 -10  10   5   62.84   13.24
 -10  10   6   59.30   13.43
 -10 -10   6   44.95   14.74
  10  10   6   71.68   17.47
  10 -10  -6   69.32   13.23
  10  10   6   44.35   10.46
  10 -10   6   46.39    7.65
  10 -10  -7  -32.89   16.75
  10  10   7   12.42   12.92
 -10 -10  -7    3.63   12.59
  10  10   7    4.95   13.28
 -10  10   7   18.52   14.85
 -10 -10   7    5.65   10.46
  11 -10   0  134.31   12.89
  11  10   0  116.08   11.63
 -11  10   0  136.78    9.53
  11  10   0  110.55   13.88
 -11  10   0  118.15   12.19
  11 -10   1  107.14    8.44
  11  10   1   80.59   11.72
 -11  10   1   91.73    9.10
  11  10  -1  101.91   11.42
 -11  10  -1   74.57    8.01
  11 -10  -1   97.77   12.20
  11  10   1  116.24   12.72
 -11  10  -1  110.73    8.19
  11  10   2   21.46    7.76
 -11  10   2   39.21    8.12
  11  10   2   24.01    7.53
 -11  10  -2   27.91    2.99
  11  10  -2   28.25    6.44
  11 -10  -2   25.02    9.09
  11 -10   2   18.82    5.22
 -11  10  -2   24.81    2.72
  11 -10  -3   46.41    8.73
  11  10   3   57.43   13.66
 -11  10   3   43.48    9.42
  11  10   3   38.23    9.82
  11 -10   3   39.59    6.78
  11  10  -3   47.97    6.91
  11 -10   3   42.94    4.77
  11 -10   4   10.87    5.58
  11 -10  -4    4.22    7.90
  11  10   4    7.74   12.42
 -11  10   4   -7.53   11.02
  11  10  -4   -2.54    6.59
  11  10   4   -2.52   11.74
 -11  10   5   40.00   12.14
  11 -10   5   38.99    9.37
  11  10   5   32.47   10.00
 -11 -10   5   16.49   11.33
  11  10   5   22.59    9.46
  11 -10  -5   44.29   14.64
  11  10   6   39.58   12.33
  11  10   6   56.39   17.01
 -11 -10   6   39.53   12.36
  11 -10  -6   40.23   18.34
 -11  10   6   39.86   14.42
  11  10   7   13.41   15.90
  11  10   7   46.33   14.47
 -11 -10   7   28.45   12.30
 -11 -10  -7   35.87   10.68
  12  10   0   45.03   11.20
  12 -10   0   35.23    6.44
 -12  10   0   36.41    6.42
 -12  10   0   29.47    7.49
  12  10   1  165.26   17.28
  12  10  -1  153.88   12.97
 -12  10  -1  144.53   11.91
  12 -10  -1  176.73   13.27
 -12  10   1  156.18   13.85
  12 -10   1  143.36   13.38
  12  10   1  179.65   16.94
 -12  10  -1  143.63    9.95
  12 -10  -2  230.25   18.63
  12 -10   2  244.77   15.46
 -12  10  -2  241.30   12.95
  12  10  -2  281.94   19.77
 -12  10   2  284.50   17.38
  12  10   2  240.24   20.80
  12  10   2  208.43   22.80
  12  10   3  133.76   13.86
  12  10   3  134.47   16.13
 -12  10   3  127.38   15.48
  12 -10   3  141.07    9.79
  12  10  -3  138.12   13.64
  12 -10  -3  141.61   19.09
  12  10  -4  219.50   21.10
  12  10   4  227.09   24.50
  12 -10  -4  191.88   20.16
 -12  10   4  238.82   19.78
  12 -10   4  186.48   17.76
  12  10   4  207.43   22.39
  12  10   5  134.54   19.98
  12 -10   5  112.12   13.58
  12 -10  -5  128.69   21.04
  12  10   5  127.06   17.07
 -12 -10   5  147.24   17.84
 -12  10   5  139.42   21.95
 -12  10   6   92.08   14.90
  12  10   6   65.95   17.65
  12  10   6   68.33   13.29
 -12 -10   6   69.06   15.00
  12 -10  -6   69.83   30.32
 -13  10   0  258.57   17.71
  13 -10   0  263.72   16.83
  13  10   0  256.86   18.89
 -13  10  -1  100.27    8.32
  13  10  -1  104.64   12.68
  13  10   1  110.22   11.92
  13 -10  -1  101.30   14.58
 -13  10   1  109.72   11.73
  13 -10   1   91.23   12.31
  13 -10   2  366.70   25.21
 -13  10   2  343.35   18.86
  13  10   2  321.99   24.14
  13  10  -2  355.45   27.80
  13 -10  -2  343.03   23.65
 -13  10  -2  310.73   21.58
  13 -10   2  317.22   21.88
  13  10   2  362.78   28.22
 -13  10   3  218.50   17.07
  13 -10   3  221.93   15.98
  13  10   3  222.17   21.77
  13  10  -3  199.05   18.33
  13 -10  -3  209.32   18.94
  13  10   3  201.52   19.46
  13  10  -4   25.94   10.57
  13 -10   4    8.82    9.18
 -13  10   4   31.12   14.30
  13 -10  -4   19.13    9.99
  13  10   4   11.34   10.68
  13  10   4    2.93    9.18
  13  10   5  194.50   20.84
  13  10   5  158.02   19.44
  13 -10  -5  173.58   18.09
  13  10  -5  206.62   18.58
  13 -10   5  186.45   17.51
 -13  10   5  193.87   18.80
 -13 -10   5  206.11   21.68
  13  10   6   18.63   14.59
  14 -10   0   51.45    9.99
 -14  10   0   50.61    7.59
  14  10   0   27.90    9.94
 -14  10   1  116.18   12.97
  14 -10  -1  126.15   13.75
  14 -10   1  108.06   12.55
 -14  10  -1  118.96   10.08
  14  10   1  114.53   12.80
  14  10  -1   97.28   12.60
  14  10  -2   11.63    7.26
  14  10   2   14.64    9.48
 -14  10   2   19.51    8.76
  14 -10  -2   27.71    8.33
  14  10   2   13.03    9.05
  14 -10   2   32.66   11.95
  14  10  -3    4.63    6.48
  14 -10  -3    8.96   10.15
 -14  10   3    2.65    8.07
  14  10   3   10.51   12.59
  14 -10   3    6.34    7.62
  14  10   3   -3.52    9.72
  14 -10  -4   26.80   14.80
  14  10   4   53.69   14.83
  14  10  -4   41.53   15.11
 -14  10   4   46.11   10.96
  14  10   4   38.08   13.13
  14 -10   4   46.12   13.08
  14  10  -5   47.00   16.92
  14  10   5   27.35   13.84
  14  10   5   36.60   23.24
  14 -10   5   56.07   13.80
 -14 -10   5   47.97   13.51
  15  10   0   18.37   11.85
  15 -10   0    8.85   11.55
 -15  10   0   11.99    5.95
  15 -10  -1   23.19   10.38
  15  10   1   47.59   15.57
 -15  10   1   60.70    9.54
  15  10  -1   50.67    9.95
 -15  10  -1   48.99    6.27
  15 -10   1   47.69    9.68
  15  10   2   20.40   10.71
  15 -10   2   15.71    8.83
 -15  10   2   29.50   12.45
  15 -10  -2   -1.48    9.68
  15  10  -2   25.43   11.42
 -15  10   3   24.02    9.21
  15  10   3    6.16    9.76
  15 -10   3   15.88   10.02
  15  10  -3   26.50   10.16
  15 -10  -3   23.89   10.86
  15  10   3    0.43   15.52
  15  10   4   25.15   12.71
 -15  10   4   31.24   10.79
  15 -10   4   19.36   13.83
  15  10   4   28.08   14.54
  15 -10  -4  -57.89   24.47
  15  10  -4    5.30   13.16
  16 -10   0   92.26   15.02
  16  10   0   70.63   17.71
 -16  10   0  104.10   13.13
  16  10   1   95.79   19.41
 -16  10   1   82.35   10.52
  16  10  -1  109.68   17.59
  16 -10  -1   80.71   12.84
 -16  10   2   72.49   18.86
  16 -10   2   53.21   11.61
  16 -10  -2   53.52   11.64
  16  10   2   60.98   15.11
  16  10  -2   59.57   15.74
   0  11   0    4.03    2.68
   0 -11   0    2.38    3.32
   0  11   0    5.90    2.41
   0 -11   0    2.02    3.96
   0 -11  -1  110.88    9.25
   0 -11   1  112.86    5.20
   0 -11  -1  116.08    7.62
   0  11  -1  109.17    6.13
   0 -11   1  112.48    6.94
   0  11  -1  117.44    8.48
   0  11   1  115.63    7.13
   0  11   1  111.68    8.66
   0  11   2  370.98   15.88
   0  11   2  352.37   14.93
   0 -11  -2  386.36   22.02
   0 -11  -2  369.59   20.57
   0 -11  -2  371.74   18.29
   0 -11   2  380.52   15.74
   0  11  -2  394.31   20.61
   0 -11  -3  155.95   10.08
   0 -11  -3  165.35   13.01
   0  11   3  176.48   12.27
   0 -11   3  176.19   11.03
   0  11   3  162.41    9.72
   0 -11  -3  157.56   14.24
   0 -11   3  167.97   10.99
   0 -11  -4 1544.45   53.55
   0 -11   4 1536.03   78.34
   0  11   4 1481.83   45.91
   0 -11   4 1572.88   82.73
   0  11   4 1533.70   68.05
   0 -11   5  462.30   23.00
   0 -11   5  469.59   21.41
   0 -11   5  470.78   28.42
   0  11   5  419.78   18.01
   0 -11  -5  436.17   21.59
   0  11   5  452.78   24.13
   0 -11   6  315.82   25.88
   0 -11  -6  356.93   21.68
   0  11   6  335.71   21.25
   0 -11   6  350.62   17.75
   0  11   6  303.54   16.69
   0 -11   6  346.34   21.56
   0  11   7  278.99   22.77
   0  11   7  292.63   19.08
   0 -11  -7  311.83   21.71
   0 -11  -8  120.03   16.69
   0  11   8  119.09   15.66
   0  11   8  127.30   15.97
   0  11   9  181.42   20.50
   0  11   9  197.32   23.23
   0 -11  -9  168.33   16.98
  -1 -11   0  224.28   12.92
   1 -11   0  210.17   10.36
   1  11   0  217.84   10.43
   1  11   0  199.38    9.86
  -1  11   0  209.04   10.39
   1 -11   0  210.75   10.25
  -1 -11   0  235.02   13.93
  -1  11   0  199.82    8.76
   1  11  -1   44.17    5.29
   1  11  -1   46.49    3.70
  -1 -11  -1   41.09    4.91
   1 -11  -1   40.64    6.54
   1 -11   1   44.41    3.67
   1 -11  -1   39.00    5.83
  -1 -11   1   37.91    3.41
   1 -11  -1   29.66    7.21
  -1 -11   1   33.29    5.02
   1  11   1   29.55    4.75
   1  11   1   39.59    5.05
  -1  11   1   29.85    5.61
  -1 -11  -1   42.18    6.89
  -1  11   1   44.35    4.28
  -1  11  -1   40.71    3.79
   1 -11   1   39.41    5.07
   1  11  -2  837.25   37.41
  -1  11   2  780.82   30.26
   1  11   2  816.13   33.08
   1 -11  -2  735.68   26.43
   1  11  -2  761.72   38.59
  -1 -11  -2  850.80   50.80
   1  11   2  753.11   31.13
  -1  11   2  740.18   26.13
   1 -11  -2  772.20   31.47
  -1 -11   2  786.29   36.21
  -1  11  -2  795.47   38.36
   1 -11   2  794.71   28.12
   1 -11  -2  787.57   45.79
  -1 -11  -2  839.22   44.74
   1 -11   3  361.70   19.84
  -1 -11  -3  337.07   23.55
   1  11   3  338.52   13.16
   1 -11   3  342.31   16.29
   1 -11  -3  333.61   19.40
  -1 -11   3  365.82   19.45
  -1  11   3  321.73   14.17
  -1 -11  -3  367.73   16.98
   1  11   3  335.77   14.60
   1 -11  -3  326.55   16.90
   1 -11  -3  326.53   17.88
  -1 -11  -3  352.71   18.79
  -1  11   3  325.39   20.63
  -1 -11   3  358.79   17.33
  -1 -11   4  118.36   10.79
  -1 -11   4  139.18   10.05
   1 -11   4  111.82    9.77
   1  11   4  120.50   10.87
  -1  11   4   97.94   10.33
  -1  11   4  130.56   12.38
  -1 -11  -4  117.35   11.46
   1 -11   4  125.66    8.07
   1 -11  -4  112.93    8.85
   1  11   4  121.75    9.87
  -1 -11  -4  104.49   14.88
   1 -11   5   31.07    4.67
  -1 -11   5   31.79    5.57
  -1  11   5   22.87    9.51
  -1 -11   5   27.91    5.15
   1 -11   5   23.98    5.32
  -1  11   5   36.28    8.98
   1 -11   5   19.15    4.01
   1  11   5   33.94    7.93
   1 -11  -5   17.89    9.27
  -1 -11  -5   26.35    7.80
   1  11   5   25.42    6.91
  -1 -11   5   32.27    5.01
   1 -11   6   21.95    4.60
  -1 -11   6   29.92    6.17
  -1 -11   6   29.54    8.01
  -1  11   6   29.71    9.38
   1 -11  -6   25.83    8.35
   1 -11   6   24.63    4.40
  -1 -11  -6   43.23    9.90
   1  11   6   30.95   11.76
  -1  11   6   34.97    7.96
   1 -11   6   26.89    4.56
   1  11   6   31.73   11.84
   1  11   7   11.35    8.42
   1 -11  -7   14.51    9.46
  -1  11   7    9.80    9.52
  -1  11   7    8.77    7.71
   1  11   7   14.49    9.29
  -1 -11  -7   17.38    9.27
   1  11   8   25.57    9.65
  -1  11   8   26.01   12.10
   1 -11  -8    9.05   14.47
   1  11   8   20.98    9.79
  -1  11   8   19.96   11.83
  -1 -11  -8    8.74   10.64
   1 -11  -9   51.71   15.17
   1  11   9   50.32   15.18
  -1  11   9   72.26   15.34
   1  11   9   52.50   15.90
  -1 -11  -9   74.14   18.48
  -1  11   9   59.26   15.61
   2  11   0  178.00    9.36
   2 -11   0  158.61    9.50
   2 -11   0  166.05    9.56
  -2 -11   0  177.89    8.87
   2  11   0  179.35    8.47
   2 -11   0  149.69    8.93
  -2  11   0  177.89    8.91
  -2 -11   0  172.68   11.25
   2 -11   1  545.79   20.73
   2  11  -1  517.31   20.15
  -2  11  -1  519.00   26.26
   2 -11  -1  495.29   20.20
   2 -11   1  514.47   19.95
   2 -11  -1  551.84   27.60
  -2 -11  -1  540.13   29.94
  -2  11   1  515.93   21.82
  -2 -11   1  548.25   23.74
   2 -11   1  551.32   19.15
  -2 -11   1  524.32   23.01
   2  11   1  526.41   25.82
   2  11   1  505.80   17.70
   2  11  -1  518.58   23.91
   2 -11  -1  507.34   19.11
  -2 -11  -1  538.74   23.29
  -2  11   1  523.03   18.72
   2  11   2   78.85    7.15
   2  11  -2   73.87    6.39
   2  11   2   78.76    6.58
  -2 -11   2   75.67    9.03
   2  11  -2   76.30    4.91
  -2  11   2   81.40    7.40
   2 -11  -2   83.45    8.14
   2 -11   2   91.91    6.59
  -2  11  -2   86.70    6.17
   2 -11  -2   72.50    8.53
  -2 -11  -2   89.13    7.60
  -2  11   2   84.17    9.05
   2 -11  -2   70.13    9.45
  -2 -11   2   80.19    7.38
  -2 -11  -2   72.67    8.54
  -2 -11   3  374.82   21.05
  -2 -11   3  368.74   18.30
   2 -11   3  361.09   13.78
  -2  11   3  345.02   16.89
  -2 -11  -3  327.49   19.06
   2 -11  -3  383.40   21.06
  -2  11   3  358.06   18.85
  -2 -11  -3  366.45   22.63
   2 -11  -3  353.30   16.64
   2  11   3  344.13   17.35
   2 -11  -3  351.33   23.97
   2  11   3  383.32   18.04
   2 -11   4  125.02    9.68
  -2  11   4  128.55   12.51
   2 -11  -4  131.17   12.91
   2  11   4  109.45   10.91
   2  11   4  130.84    9.93
  -2  11   4  155.41   10.83
  -2 -11   4  119.13    9.97
   2 -11   4  123.52    7.55
  -2 -11   4  112.34    9.54
  -2 -11  -4  138.86   10.01
  -2  11   5  290.70   14.43
   2  11   5  279.68   17.98
  -2 -11  -5  238.99   14.35
   2 -11  -5  294.88   19.48
  -2  11   5  245.87   17.08
   2 -11   5  263.49   14.49
   2  11   5  242.67   15.07
   2 -11   5  284.77   17.53
  -2 -11   5  284.81   16.64
   2 -11   5  259.62   17.40
   2 -11   6   -2.64    4.04
   2 -11   6    4.24    2.84
   2  11   6   -8.35    6.86
   2 -11   6    8.72    4.65
  -2  11   6   -6.33    7.58
   2 -11  -6    6.55   10.46
  -2  11   6    3.97   11.61
  -2 -11  -6   -8.21    7.87
  -2 -11   6    3.19    4.62
   2  11   6   -7.80   11.16
  -2 -11   6    6.06    4.10
  -2 -11   7   21.27    6.80
  -2  11   7    4.41   13.22
  -2 -11   7   19.03   10.35
  -2  11   7    1.41   13.41
  -2 -11  -7   16.63    9.49
   2  11   7   28.80   10.18
   2  11   7    6.02    9.30
   2 -11  -7   18.25    8.60
   2  11   8   41.41   12.94
   2  11   8   45.10   12.86
  -2  11   8   36.54   13.76
  -2 -11  -8   56.88   14.34
  -2  11   8   64.92   16.28
   2 -11  -8   42.45   12.10
   2  11   9   65.64   15.32
   2 -11  -9   40.41   14.98
   2  11   9   55.75   16.69
  -2 -11  -9   47.03   13.94
  -2  11   9   35.18   20.33
   3 -11   0   31.74    5.13
  -3 -11   0   31.48    5.57
   3 -11   0   32.52    5.50
  -3  11   0   29.88    4.33
   3 -11   0   27.87    3.54
  -3 -11   0   21.59    3.69
   3  11   0   29.15    5.61
  -3  11  -1  625.36   27.82
   3 -11   1  663.23   21.30
  -3 -11   1  694.12   26.00
   3  11  -1  612.56   27.52
  -3 -11  -1  618.29   26.27
   3  11  -1  629.40   32.17
   3  11   1  661.30   29.18
   3 -11  -1  654.12   26.65
   3 -11  -1  692.03   28.20
  -3 -11  -1  652.67   37.66
   3 -11   1  670.74   32.69
  -3  11   1  623.93   24.94
   3  11   1  608.51   24.87
   3 -11   1  625.56   25.86
   3 -11  -1  670.42   30.65
  -3  11   2  669.57   22.41
   3 -11  -2  617.76   23.50
  -3  11   2  627.27   30.08
   3 -11   2  693.25   36.90
   3 -11  -2  637.86   38.90
   3  11  -2  648.95   28.90
   3  11   2  642.67   25.59
  -3  11  -2  601.56   30.90
   3  11   2  652.82   22.07
   3 -11   2  659.09   27.15
  -3 -11   2  664.88   34.08
   3  11  -2  666.74   43.23
  -3 -11   2  633.07   30.51
  -3 -11  -2  716.31   45.54
   3 -11  -2  672.59   31.86
  -3 -11  -2  645.16   31.81
   3 -11   2  680.18   30.72
   3 -11  -3  225.52   14.48
  -3 -11   3  231.14   14.58
  -3 -11   3  211.78   14.13
  -3 -11  -3  208.87   14.30
   3  11  -3  235.83   12.97
  -3  11   3  244.77   19.03
   3 -11   3  212.50   10.72
  -3  11   3  223.54   12.67
  -3 -11  -3  213.30   16.78
   3  11   3  203.09   13.71
   3 -11  -3  234.29   14.86
   3 -11   3  226.42   11.16
   3 -11  -3  216.59   16.30
   3  11   3  226.46   12.38
   3 -11   4  133.85    8.66
   3 -11   4  141.41    9.10
   3 -11   4  149.98    7.90
  -3 -11   4  147.95   12.16
   3  11  -4  149.03    9.03
   3 -11  -4  137.59   13.25
   3  11  -4  145.99    7.16
  -3  11   4  140.84   12.50
   3  11   4  139.14   13.81
  -3  11   4  163.81   12.21
   3 -11   4  141.52    8.10
  -3 -11   4  121.55   11.02
  -3 -11  -4  142.31   12.62
  -3 -11  -4  132.28   15.74
   3  11   4  176.42   13.48
   3 -11   5  304.26   15.76
  -3  11   5  265.15   15.92
  -3 -11   5  261.56   16.01
   3 -11   5  266.40   14.01
   3  11   5  264.49   16.74
   3 -11   5  269.68   15.92
  -3  11   5  245.81   15.10
   3  11  -5  271.24   12.83
   3  11  -5  284.94   16.44
   3 -11   5  285.23   15.27
  -3 -11  -5  271.27   16.46
   3 -11  -5  286.78   19.13
   3  11   5  265.18   17.32
  -3  11   6    6.13    9.22
   3 -11   6    4.72    3.28
   3  11   6   -1.61    7.88
  -3 -11   6    1.66    4.97
   3 -11  -6   12.93    8.40
  -3 -11   6    6.17    6.67
   3  11   6   -0.21    8.55
  -3  11   6    3.81    9.21
   3 -11   6    7.49    2.68
  -3 -11  -6   -1.49    6.21
  -3 -11   7   26.33    9.24
  -3  11   7   12.78   12.74
  -3  11   7   26.26   10.84
   3  11   7   22.35   11.32
   3 -11  -7   36.35   11.05
  -3 -11  -7   32.99   10.96
  -3 -11   7    7.73    9.48
   3  11   7   32.42   14.77
  -3 -11  -8   75.23   12.71
  -3  11   8   69.59   15.28
   3  11   8   50.06   13.53
  -3  11   8   68.49   14.56
   3 -11  -8   50.02   13.36
   3  11   8   94.09   18.44
   3  11   9   24.19   16.48
   3 -11  -9   -7.36   13.77
  -3  11   9   30.77   16.67
  -3  11   9   29.99   14.71
   3  11   9   47.45   16.22
  -3 -11  -9   12.29   11.64
  -4 -11   0    5.34    3.95
   4 -11   0   -0.29    4.40
  -4 -11   0    1.75    2.74
   4 -11   0   -2.04    4.19
  -4  11   0   -0.15    2.26
   4 -11   0   -3.05    4.95
   4  11   0    4.94    4.23
   4  11   0   -5.43    4.54
   4 -11  -1   22.63    5.31
   4 -11  -1   25.11    5.21
   4 -11  -1   31.46    6.54
  -4  11   1   36.76    5.10
   4 -11   1   30.62    5.49
   4 -11   1   33.31    4.18
  -4 -11  -1   23.71    4.26
   4  11   1   23.43    3.92
   4  11  -1   26.12    6.32
   4  11   1   22.14    4.90
  -4 -11   1   20.38    5.97
  -4 -11  -1   26.68    6.45
   4  11  -1   24.96    4.37
  -4 -11  -2  682.80   32.88
   4  11  -2  666.38   23.26
  -4 -11  -2  685.59   39.44
  -4 -11   2  654.32   29.17
   4  11  -2  673.40   41.36
  -4 -11   2  706.54   40.48
   4 -11   2  637.02   27.84
   4 -11  -2  615.39   35.13
   4 -11  -2  631.18   28.25
   4 -11   2  590.63   25.09
   4  11   2  663.37   27.04
   4 -11  -2  618.92   36.76
  -4  11  -2  605.70   33.56
   4  11   2  671.08   37.38
  -4  11   2  599.19   27.29
   4 -11   2  620.31   20.95
  -4 -11   3  162.27   14.34
   4  11  -3  165.17    8.34
   4 -11   3  172.26    7.94
   4 -11  -3  158.92   11.44
   4 -11   3  181.54    7.31
  -4 -11  -3  155.92   12.77
   4 -11   3  177.31    8.05
  -4 -11  -3  156.63   15.31
  -4 -11   3  160.76   10.64
   4 -11  -3  154.39   16.31
   4 -11  -3  199.20   14.98
   4  11   3  152.53   10.35
   4 -11   3  170.53    8.21
  -4  11   3  161.78   10.92
   4  11   3  155.21   11.28
  -4  11   4  813.64   39.67
   4  11  -4  865.83   43.73
   4  11   4  898.24   34.59
   4 -11   4  800.67   57.40
   4 -11   4  792.16   36.84
   4 -11  -4  800.17   38.55
   4  11  -4  841.86   60.01
   4  11   4  845.41   45.95
  -4 -11   4  908.72   55.35
  -4  11   5  337.95   19.38
   4 -11  -5  311.10   17.24
   4  11   5  303.64   18.23
   4  11  -5  312.48   17.93
  -4  11   5  324.38   19.57
  -4 -11  -5  294.86   19.44
   4  11  -5  316.95   23.55
  -4 -11   5  330.61   17.16
   4  11   5  325.01   19.08
  -4  11   6  108.59   13.09
  -4 -11   6   91.29   10.35
  -4 -11   6   78.82    7.92
  -4  11   6  103.34   11.03
   4 -11  -6  107.63   14.99
  -4 -11  -6   85.32   10.82
   4  11   6   89.18   11.46
   4  11   6   92.27   12.48
  -4 -11  -7  158.96   14.69
  -4 -11   7  150.13   13.93
   4  11   7  171.04   16.18
   4  11   7  123.79   17.70
   4 -11  -7  155.58   16.60
  -4  11   7  154.23   16.75
  -4 -11  -8   39.15   11.25
  -4  11   8   25.18   16.42
   4 -11  -8   37.38   12.81
   4  11   8   34.36   12.14
   4  11   8   41.45   18.12
  -4  11   9   38.54   16.56
   4  11   9   37.78   20.17
  -4 -11  -9   32.78   13.02
   4  11   9   -3.90   21.57
   5 -11   0  112.96    8.93
   5  11   0  129.87    8.77
  -5 -11   0  122.33    8.73
  -5  11   0  127.90    7.58
   5 -11   0  121.54    7.69
   5 -11   0  119.31    8.67
   5  11   0  116.03    9.87
  -5 -11   0  125.80   10.30
   5 -11  -1  221.33   13.39
   5  11  -1  185.73   10.71
   5 -11  -1  230.34   11.41
  -5 -11  -1  199.62   13.50
  -5 -11  -1  189.43   16.11
   5 -11   1  230.92   10.46
   5 -11  -1  230.07   13.17
   5  11   1  223.06   13.47
  -5  11   1  210.19   11.60
   5 -11   1  221.34    9.59
  -5 -11   1  198.04   12.92
  -5  11  -1  228.35    9.68
   5  11   1  184.75   11.44
   5  11  -1  200.59   14.30
  -5 -11   1  201.25   14.65
   5 -11   1  234.40   12.16
  -5 -11   2  854.85   37.94
  -5  11   2  790.18   31.41
  -5 -11   2  784.66   36.45
  -5 -11  -2  795.18   40.36
   5  11  -2  805.22   32.70
   5 -11  -2  771.71   41.12
   5 -11  -2  728.04   30.17
  -5  11  -2  784.52   42.60
   5 -11  -2  781.41   37.31
   5 -11   2  804.36   32.64
   5  11  -2  774.02   48.65
   5 -11   2  793.94   33.72
   5  11   2  787.86   37.09
  -5 -11  -2  848.78   33.78
   5  11   2  743.82   25.11
   5 -11   2  781.66   25.86
  -5 -11   3  244.81   17.45
   5 -11   3  245.89   11.66
  -5 -11  -3  229.89   17.51
   5  11   3  235.84   16.11
   5  11   3  241.92   15.59
   5 -11   3  231.66   10.35
   5 -11   3  247.31   14.17
   5 -11  -3  238.76   17.73
  -5  11   3  237.18   15.39
   5 -11  -3  237.17   16.56
   5  11  -3  232.45   13.82
   5  11  -4  138.85    7.46
   5 -11   4  166.97    8.83
   5 -11  -4  166.47   13.32
   5 -11   4  163.19    7.54
   5  11   4  117.14    9.39
  -5 -11   4  132.77   11.30
   5 -11   4  150.82    7.82
   5  11   4  110.90   10.91
  -5  11   4  128.06   11.97
   5  11   5   11.27    7.45
  -5 -11   5    9.08    7.60
   5  11  -5   16.38    4.27
   5 -11   5   14.81    1.90
  -5  11   5   12.93    7.44
   5 -11  -5   24.39    7.00
   5  11  -5   20.04    3.24
  -5 -11  -5    4.65    6.09
   5  11   5   16.68    7.53
   5  11   6    3.38    8.07
  -5 -11  -6   -1.68    6.82
  -5 -11   6    6.25    8.82
   5  11   6   -1.49    8.02
   5 -11  -6   12.33    9.49
  -5  11   6   -5.53    7.32
   5 -11  -7   43.64   13.43
   5  11   7   10.27   14.39
  -5  11   7   34.23   10.09
  -5 -11  -7   40.97    8.93
  -5 -11   7   30.42   10.81
   5  11   7   34.86   12.49
   5 -11  -8   34.70   12.20
  -5  11   8   19.62   16.17
   5  11   8   33.60   11.90
  -5 -11  -8   18.77   10.25
   5  11   8   13.36   12.85
   6  11   0   88.28    9.99
   6 -11   0   86.51    7.53
   6 -11   0   83.75    6.97
   6  11   0   89.21    7.20
  -6 -11   0   86.04   10.03
  -6  11   0   85.47    8.10
   6 -11   0   84.04    7.01
  -6 -11   0   81.81   10.99
   6 -11  -1  270.15   15.48
   6  11   1  267.92   14.75
   6 -11   1  261.56   11.44
   6 -11  -1  255.54   14.92
   6 -11   1  256.85   12.54
  -6 -11  -1  251.45   16.18
  -6  11   1  267.56   13.82
  -6  11  -1  244.38   10.61
  -6 -11   1  257.32   20.23
   6  11  -1  259.63   15.24
   6 -11   1  268.97   12.08
   6  11   1  273.77   15.99
  -6 -11  -1  264.47   16.51
   6 -11  -1  285.06   14.11
  -6 -11   1  264.66   17.83
   6  11  -1  278.52   15.25
   6 -11   2  547.53   28.09
   6 -11  -2  588.52   25.89
  -6  11   2  544.13   30.67
   6  11   2  574.13   24.44
   6  11  -2  578.61   28.81
  -6 -11  -2  574.84   49.45
   6 -11  -2  594.21   26.61
  -6 -11   2  594.63   32.06
  -6 -11  -2  584.99   31.51
  -6  11  -2  554.99   28.43
   6 -11  -2  556.87   30.24
   6 -11   2  568.01   25.42
   6 -11   2  563.19   25.39
   6  11   2  580.07   30.37
  -6 -11   3  227.45   18.45
   6 -11  -3  251.14   14.73
  -6  11   3  226.48   15.25
  -6 -11  -3  227.86   24.03
   6  11   3  226.69   14.90
   6  11   3  242.41   16.64
   6  11  -3  208.14   15.13
   6 -11   3  205.03   12.17
   6 -11   3  214.06   14.81
   6 -11   4   85.43    6.02
   6  11   4   97.80    9.95
   6  11  -4  107.00    8.76
   6 -11   4   78.32    3.15
  -6 -11   4  111.14   13.11
   6 -11   4   93.81    3.87
  -6  11   4   73.24   10.09
   6 -11  -4   79.63   11.12
   6  11   4  117.11   11.97
   6 -11   5   75.60    6.20
   6 -11  -5   63.73   10.69
   6  11  -5   83.05    7.09
   6  11   5   75.12   11.05
  -6  11   5   68.01   10.74
   6  11   5   73.38    9.98
   6  11  -5   76.63    8.05
   6 -11  -6   91.51   13.91
  -6  11   6   78.88   11.13
  -6 -11   6   80.42    9.62
   6  11   6   69.28   12.10
   6  11   6   69.02   10.99
  -6 -11  -6   68.78   10.58
   6 -11  -7   16.75   10.76
  -6 -11  -7   28.41   13.35
   6  11   7   14.56   11.86
  -6  11   7   15.14    9.13
   6  11   7   28.40   11.73
  -6 -11   7   36.67   10.79
  -6 -11  -8   69.03   12.72
   6  11   8   80.29   15.76
  -6  11   8  106.51   20.07
   6  11   8   80.12   16.55
   6 -11  -8   84.20   19.65
   7 -11   0 1289.12   64.08
   7  11   0 1157.84   57.27
  -7  11   0 1231.51   45.83
   7 -11   0 1334.09   55.34
   7  11   0 1148.98   51.24
   7 -11   0 1236.53   56.65
  -7 -11   0 1262.70   84.04
   7 -11   1  131.15    8.98
   7  11   1  105.56   12.16
  -7 -11   1  150.42   14.37
   7 -11   1  142.84    8.57
   7 -11  -1  139.73   11.06
   7 -11  -1  144.47    9.85
  -7  11  -1  142.25    6.76
   7  11  -1  115.65    8.78
   7 -11  -1  131.21   10.19
   7  11   1  134.52   10.87
  -7  11   1  143.50    8.47
   7  11  -1  131.09   10.33
   7 -11   1  135.67    8.40
  -7  11   1  147.05   11.20
  -7 -11  -1  109.75   14.07
  -7 -11  -1  126.14   12.17
  -7  11   2  774.03   39.12
   7 -11  -2  679.57   30.88
   7 -11   2  687.48   34.01
   7 -11  -2  677.09   34.66
   7  11   2  652.69   28.59
  -7 -11   2  659.44   35.26
  -7  11  -2  636.85   33.80
   7  11  -2  650.43   38.33
  -7  11   2  671.08   30.71
   7  11   2  620.91   30.21
   7  11  -3  470.04   24.98
   7 -11   3  481.82   19.25
  -7  11   3  450.52   21.94
   7 -11   3  466.39   27.80
   7  11   3  426.21   23.99
   7 -11  -3  479.65   27.64
   7  11   3  478.90   21.21
   7  11  -4   70.97    6.99
   7 -11   4   78.17    7.19
   7  11   4   57.09    8.48
   7 -11  -4   81.67   10.23
   7  11   4   61.21    9.89
  -7  11   4   81.79   10.19
   7 -11   5  107.58    8.90
   7  11  -5   91.11    8.75
  -7  11   5  112.83   12.92
   7 -11  -5  125.89   13.47
   7  11   5   98.99   13.33
   7  11   5  110.09   14.24
  -7 -11  -6   67.71   10.75
  -7  11   6   74.46   12.30
   7 -11  -6   74.53   13.14
  -7 -11   6   75.01   10.10
   7  11   6   81.10   12.80
   7  11   6   55.49   12.79
   7  11   7  139.05   17.75
   7 -11  -7  135.04   18.04
   7  11   7  157.39   23.28
  -7  11   7  138.29   17.22
  -7 -11  -7  113.93   14.84
  -7 -11   7  112.74   15.74
   7  11   8  154.23   17.59
   7  11   8  183.60   20.90
  -7 -11  -8  160.01   19.03
  -7  11   8  222.58   27.01
   8  11   0   88.09   11.20
   8  11   0   96.37    8.97
   8 -11   0  105.30    8.41
   8 -11   0  113.07    9.30
  -8  11   0  127.55    9.21
   8 -11   0  116.50    9.99
  -8  11   1  458.71   27.30
   8  11   1  412.18   26.26
  -8  11   1  430.82   22.73
  -8  11  -1  403.12   20.10
   8  11   1  418.13   20.57
   8 -11  -1  409.62   27.53
   8 -11  -1  452.04   23.13
   8  11  -1  440.39   25.93
   8  11  -1  450.02   21.73
   8 -11   1  412.96   21.30
   8 -11  -1  422.93   21.78
  -8  11  -2   70.33    5.49
   8 -11   2   64.10    5.47
  -8  11   2   66.28   10.02
   8  11  -2   73.95    9.57
  -8  11   2   56.70    6.29
   8 -11  -2   84.36    9.58
   8  11   2   56.13    7.49
   8  11   2   96.82   10.75
   8 -11   3  330.08   20.24
   8 -11  -3  310.75   19.85
   8  11   3  304.49   18.47
   8  11   3  322.69   22.07
  -8  11   3  300.07   17.98
   8 -11   3  321.52   15.87
   8  11  -3  296.36   18.24
   8 -11  -4  139.02   13.94
   8  11   4  132.04   13.96
   8 -11   4  118.09   10.16
  -8  11   4  134.46   11.48
   8  11   4   99.65   11.24
   8  11  -4  126.56   10.74
   8  11   5  106.19   10.90
   8  11  -5  122.02   12.41
   8  11   5  116.60   15.67
   8 -11  -5  128.07   14.88
   8 -11   5  136.50   11.88
  -8 -11   6   87.16   10.43
  -8 -11  -6   64.44   10.87
   8 -11  -6   65.56   16.12
  -8  11   6   82.61   14.73
   8  11   6   90.91   14.02
   8  11   6   70.22   13.40
   8 -11  -7   32.82   15.75
   8  11   7   37.11   12.30
   8  11   7   39.59   18.20
  -8 -11  -7   31.02   11.56
  -8  11   7   12.46   13.24
  -8 -11   7   30.93   11.05
   8  11   8   84.94   18.98
   8  11   8  141.92   25.12
  -8  11   8  100.91   16.11
  -8 -11  -8   93.10   14.55
  -9  11   0   69.83    6.66
   9 -11   0   64.03    7.26
   9  11   0   82.41    8.67
  -9  11   0   84.01   10.01
   9 -11   0   76.02    7.02
   9  11   0   72.51    8.71
   9 -11   0   55.68    7.66
   9  11  -1   97.07   11.03
   9 -11  -1  102.58   10.65
   9 -11   1   98.82    8.25
  -9  11   1  102.28    9.00
   9  11  -1   90.81   10.02
   9  11   1   85.71   10.35
  -9  11   1   98.18   10.50
  -9  11  -1  107.10    7.04
   9  11   1   79.78    9.47
   9  11   2   62.42    9.30
  -9  11  -2   52.19    3.88
   9 -11   2   54.90    5.58
   9 -11  -2   44.41    9.75
  -9  11  -2   62.64    4.11
   9  11   2   41.03    8.74
   9  11  -2   53.70    6.08
  -9  11   2   62.71    9.79
   9 -11   3   10.13    2.17
   9 -11  -3   17.77    8.29
   9  11  -3    9.44    4.51
   9 -11   3   13.78    4.20
   9  11   3    8.91    7.57
  -9  11   3    3.38    6.07
   9  11   3   17.05    8.74
   9  11  -4   10.04    5.16
   9 -11  -4  -15.12    9.36
   9  11   4   -5.21    9.78
   9 -11   4   -1.70    4.99
  -9  11   4   -1.15    7.58
   9  11   4   -2.54    6.37
  -9  11   5   44.01   12.20
   9  11  -5   41.22    7.01
   9 -11   5   37.05    6.04
   9  11   5   35.22    9.97
   9 -11  -5   25.00   10.04
   9  11   5   30.71    9.20
   9  11   6   45.13   11.86
   9 -11  -6   48.57   15.27
  -9  11   6   41.34   17.08
  -9 -11   6   32.50   11.12
   9  11   6   75.10   12.47
   9  11   7   56.56   13.31
  -9 -11  -7   44.90   12.30
   9 -11  -7   41.52   17.76
  -9  11   7   33.92   13.27
  -9 -11   7   18.04   11.00
   9  11   7   50.77   19.33
 -10  11   0    6.33    3.80
  10 -11   0    1.47    5.33
 -10  11   0    2.39    4.89
  10  11   0   11.52    6.25
  10  11   0    3.05    5.54
  10  11  -1   69.13    7.68
  10  11   1   60.56    8.38
 -10  11   1   58.41    8.24
  10 -11   1   65.61    8.71
  10 -11  -1   56.00   10.27
 -10  11  -1   74.15    5.42
  10  11   1   65.87   11.89
 -10  11   1   73.81   10.41
  10  11   2  499.69   34.28
  10  11   2  445.12   24.15
  10  11  -2  465.07   23.13
  10 -11   2  445.95   23.32
  10 -11  -2  427.48   26.26
 -10  11   2  464.10   22.88
 -10  11  -2  469.87   29.67
 -10  11  -2  411.80   26.46
 -10  11   3   12.06    7.03
  10 -11  -3    3.58    7.80
  10  11  -3   11.40    5.02
  10 -11   3   15.35    3.56
  10  11   3    7.40    6.81
  10 -11   3    8.53    5.17
  10  11   3   12.03    9.81
  10  11  -4  199.31   13.71
  10  11   4  228.15   86.09
 -10  11   4  211.74   16.65
  10  11   4  193.04   22.75
  10 -11  -4  183.34   16.01
  10 -11   4  201.70   14.42
  10  11  -5   82.89   10.25
  10 -11  -5   66.03   15.76
  10 -11   5   68.94    9.14
  10  11   5   69.00   12.06
  10  11   5   96.17   12.63
  10  11   6  197.39   20.63
  10  11   6  179.95   18.34
 -10 -11   6  125.82   15.97
  10 -11  -6  173.36   20.63
 -10  11   6  186.35   21.12
 -10  11   7  115.42   19.84
  10  11   7  117.14   22.05
 -10 -11  -7   94.79   17.16
  10  11   7  122.58   16.53
 -10 -11   7  107.75   17.24
 -11  11   0  196.43   12.31
 -11  11   0  185.95   13.03
  11  11   0  183.18   14.70
  11 -11   0  188.14   15.35
  11  11   0  190.43   14.17
  11  11  -1  133.34   14.24
  11  11   1  139.44   12.34
 -11  11   1  138.09   12.56
 -11  11  -1  158.13   12.53
  11  11   1  135.39   11.23
  11 -11   1  134.99   10.72
 -11  11  -1  138.12    9.94
  11 -11  -1  142.22   11.15
  11  11   2  313.18   19.77
 -11  11   2  303.42   18.76
  11  11  -2  304.92   22.96
  11 -11   2  273.34   18.47
 -11  11  -2  262.24   19.72
  11  11   2  265.34   24.79
  11 -11  -2  296.68   17.48
  11  11  -3   82.99   10.17
  11 -11   3   90.31    7.74
  11 -11   3  103.22   11.41
  11  11   3   91.71   11.82
 -11  11   3  115.62   12.07
  11 -11  -3   94.86   13.05
  11  11   3   85.32   15.38
 -11  11   4  104.90   14.25
  11 -11   4  116.20   14.92
  11  11   4  114.45   16.38
  11  11  -4  103.15   12.24
  11 -11  -4  110.89   14.35
  11  11   4   91.43   15.66
 -11  11   5   81.78   12.19
  11 -11  -5  116.54   14.19
  11 -11   5   78.42    9.67
  11  11   5   82.83   14.50
  11  11  -5   83.83   10.94
  11  11   5   89.33   15.68
  11  11   6    6.88   13.31
 -11  11   6   13.47   11.11
  11  11   6    1.77   11.11
  11 -11  -6   22.09   14.65
 -11 -11   6   -8.30   10.40
 -12  11   0   25.91    6.81
  12  11   0   20.05    7.20
  12 -11   0   20.00    7.50
  12  11   1   74.33   12.48
  12 -11   1   81.49   10.86
  12  11   1   85.32   15.75
  12  11  -1  106.78   11.36
 -12  11   1   72.60    7.66
 -12  11  -1   82.20    6.17
  12 -11  -1   73.96   11.82
  12  11  -2    3.34    6.04
  12 -11  -2   10.36    8.21
  12 -11   2    4.48    5.37
  12  11   2    6.29    7.81
 -12  11  -2    4.26    1.41
 -12  11   2   15.09    7.34
  12  11   2    1.08    6.78
  12  11   3   39.86   13.05
  12 -11  -3   59.29   11.66
 -12  11   3   48.37   11.83
  12  11  -3   39.84    8.19
  12  11   3   27.63    9.68
  12 -11   3   63.23    8.08
  12  11   4   52.25   12.68
 -12  11   4   78.22   11.63
  12 -11  -4   86.62   13.31
  12 -11   4   65.85   12.33
  12  11   4   63.07   12.96
  12  11  -4   77.09    9.68
 -12  11   5   96.50   15.21
  12 -11  -5   88.51   15.36
  12  11   5   70.94   16.09
  12  11  -5   84.21   12.47
  12  11   5   79.15   16.46
  12  11   6   10.57   13.16
 -12 -11   6   24.91   17.19
  12  11   6   11.52   19.77
 -13  11   0   63.35    9.10
  13 -11   0   70.81   10.32
  13  11  -1  112.82   14.70
  13 -11  -1  120.37   15.54
 -13  11   1  119.25   11.03
  13  11   1  112.21   14.76
 -13  11  -1  111.89    9.28
  13  11   1   98.41   11.86
  13 -11   1  116.30   11.40
  13  11   2   60.47   11.98
  13  11  -2   32.97    9.43
  13 -11  -2   40.12   10.29
  13  11   2   49.10   13.40
 -13  11   2   51.77    9.62
  13 -11   2   38.06    9.23
 -13  11   3   53.61   10.53
  13 -11  -3   43.64   10.98
  13  11   3   55.21   10.76
  13  11   3   56.72   13.46
  13 -11   3   50.82   10.81
  13  11  -3   52.10    9.28
  13 -11  -4   43.71   19.45
 -13  11   4   27.26   11.49
  13  11   4   31.10   11.34
  13  11  -4   38.63    9.45
  13  11   4   53.56   12.80
  13 -11   4   46.45   12.09
  13  11   5   53.05   14.80
 -13 -11   5   57.04   14.67
  13  11   5   62.21   13.63
 -13  11   5   24.12   13.66
  13  11  -5   49.65   11.36
  14  11   0   54.66   15.56
  14 -11   0   29.20   11.57
 -14  11   0   59.22    8.17
 -14  11  -1   64.77    9.04
  14  11  -1   78.25   14.65
  14 -11   1   53.99    8.25
  14 -11  -1   39.54   12.55
  14  11   1   74.78   15.08
 -14  11   1   70.71   12.46
  14 -11  -2   16.99    9.59
  14 -11   2   38.58   11.92
  14  11   2   12.09   10.46
  14  11   2   25.98   10.90
  14  11  -2   11.93    7.56
 -14  11   2   28.77    8.36
 -14  11   3  235.10   21.54
  14 -11   3  255.79   17.57
  14 -11  -3  226.57   20.87
  14  11   3  222.39   27.18
  14  11   3  232.97   25.62
  14  11  -3  269.15   32.86
  14 -11  -4   70.34   15.95
  14  11  -4   77.71   12.44
  14 -11   4   74.09   13.54
 -14  11   4   81.64   13.23
  14  11   4   56.93   14.63
  14  11   4   79.34   16.62
 -15  11   0   -2.79    5.08
  15  11   0   -5.02    8.36
  15 -11   0    1.58   10.93
 -15  11   1   47.01   13.24
  15  11  -1   51.83   15.23
  15 -11  -1   73.01   15.35
  15  11   1   59.26   13.67
  15 -11  -2   37.04   13.49
  15  11   2   60.02   12.36
 -15  11   2   66.60   11.78
  15 -11   2   51.25   10.17
  15  11  -2   75.21   15.44
  15  11  -3  170.31   23.21
  15 -11   3  221.94   16.87
 -15  11   3  219.53   21.46
  15  11   3  185.58   20.53
  15  11   3  217.89   18.74
  15 -11  -3  179.79   19.90
  16  11   0   16.95   12.89
  16 -11   0   15.48   13.61
 -16  11   0   23.17    8.89
  16 -11  -1   19.60   15.24
  16  11   1   27.58   12.33
  16  11  -1    6.41   10.12
 -16  11   1   15.63    7.93
   0 -12   0    7.14    3.62
   0 -12   0   10.64    4.76
   0  12   0    2.45    2.54
   0  12   0   11.14    5.16
   0  12  -1    0.74    2.14
   0  12   1    1.20    3.70
   0  12   1   -3.93    4.21
   0  12  -1    1.17    3.26
   0 -12   1    3.16    1.75
   0 -12  -1    5.19    3.28
   0 -12   1   -3.29    5.06
   0 -12  -1   -2.81    6.12
   0 -12  -2  125.12    8.74
   0 -12  -2  127.64   10.20
   0  12   2  124.30   10.34
   0  12  -2  109.08    8.28
   0 -12   2  104.76    8.81
   0  12   2  112.69    8.54
   0 -12  -2  112.73    9.36
   0 -12  -3  818.18   51.16
   0  12   3  828.14   37.92
   0 -12  -3  821.06   34.32
   0 -12   3  899.95   51.80
   0 -12   3  876.54   47.43
   0  12   3  874.37   29.35
   0 -12  -3  851.54   43.65
   0  12   4   59.93   11.76
   0  12   4   75.74    9.65
   0 -12   4   70.11    6.18
   0 -12  -4   66.91    8.27
   0 -12   4   67.21    6.78
   0  12   5  249.63   18.90
   0  12   5  277.62   14.61
   0 -12  -5  281.35   16.63
   0 -12   5  280.13   16.75
   0 -12   5  273.89   15.37
   0 -12   5  283.30   22.59
   0  12   6    5.62    8.03
   0 -12   6   -6.20    5.88
   0 -12  -6   -0.74    7.66
   0 -12   6    2.40    3.53
   0  12   6   -2.55    7.85
   0  12   7   -5.55   10.44
   0 -12  -7    5.07    8.55
   0  12   7    2.58    9.63
   0  12   8  135.60   16.37
   0  12   8  157.30   20.09
   0 -12  -8  163.31   16.07
   0  12   9  -29.78   21.43
   0  12   9   10.20   14.67
   0 -12  -9   11.97   11.75
  -1  12   0   44.49    5.64
   1 -12   0   45.56    5.61
  -1  12   0   48.42    5.76
  -1 -12   0   55.65    7.52
   1 -12   0   40.34    4.82
   1  12   0   42.77    6.82
  -1 -12   0   53.46    4.67
   1  12   0   46.46    4.44
  -1  12  -1  192.65   11.24
   1  12   1  204.84   11.46
   1 -12   1  200.01    9.55
  -1 -12  -1  230.53   12.72
  -1  12   1  193.33    9.87
   1  12   1  209.18   12.57
   1  12  -1  216.06   13.96
  -1 -12   1  231.35   13.33
   1 -12  -1  194.66   11.89
   1  12  -1  204.94    9.59
   1 -12  -1  222.11   12.23
  -1  12   1  175.47   11.40
   1 -12   1  193.38    9.59
  -1 -12   1  240.60   13.98
  -1 -12  -1  222.12   15.26
   1 -12  -1  200.66   10.94
   1 -12   2  272.22   13.24
   1  12   2  280.29   15.11
  -1 -12   2  284.59   13.71
  -1  12   2  292.93   14.76
   1 -12  -2  255.66   15.71
  -1 -12  -2  286.16   16.42
   1  12  -2  274.09   18.96
   1 -12  -2  271.21   17.85
  -1  12  -2  270.93   19.59
   1  12  -2  293.92   13.48
   1  12   2  276.16   15.30
  -1 -12  -2  273.49   16.21
   1 -12  -2  290.45   13.95
  -1  12   2  256.26   14.75
   1 -12  -3  256.21   20.07
  -1  12   3  283.37   16.47
  -1 -12  -3  283.09   19.71
  -1 -12  -3  260.43   20.37
   1 -12   3  310.54   19.60
   1  12   3  276.60   13.40
   1 -12  -3  287.56   17.04
   1 -12   3  297.53   11.50
  -1 -12   3  292.16   14.91
  -1 -12   3  280.09   18.63
   1  12   3  297.65   14.74
  -1 -12  -3  274.69   16.37
  -1  12   3  274.99   13.43
  -1 -12  -4  385.10   17.67
  -1  12   4  416.17   22.84
   1  12   4  393.73   20.20
  -1 -12   4  421.36   23.60
   1 -12  -4  393.80   19.56
   1  12   4  409.01   18.60
   1 -12   4  399.83   24.48
   1 -12   4  424.27   21.24
  -1 -12   4  429.27   32.62
  -1  12   4  421.29   18.96
   1 -12   5   46.34    7.29
   1 -12   5   72.97    7.36
  -1  12   5   54.01    8.74
  -1 -12   5   35.63    6.77
  -1  12   5   67.09   11.49
   1  12   5   58.87   10.00
   1 -12   5   59.52    5.64
  -1 -12  -5   38.73    9.84
   1  12   5   52.63    9.24
   1 -12  -5   42.51    9.57
  -1 -12   6   86.11   11.13
  -1  12   6   84.40   12.89
   1 -12  -6   86.51   13.52
   1 -12   6   77.14    8.26
   1 -12   6   79.90    9.02
   1  12   6   79.77   14.13
  -1  12   6   70.46   12.16
  -1 -12  -6   76.24   10.59
   1  12   6   74.68   12.70
  -1 -12   6   71.74    7.27
   1 -12   6   80.62    7.48
  -1 -12  -7   48.71   10.74
   1  12   7   18.07   10.85
   1  12   7   30.73   11.19
  -1  12   7   41.52   12.38
   1 -12  -7   19.10    8.97
  -1  12   7   37.48   10.79
   1  12   8   55.48   15.70
  -1  12   8   50.13   12.70
   1 -12  -8   62.33   11.49
  -1  12   8   83.91   14.74
  -1 -12  -8   43.97   16.42
   1  12   8   84.39   18.02
   2  12   0  283.50   11.76
   2 -12   0  331.94   16.73
  -2 -12   0  302.58   14.00
  -2 -12   0  311.96   16.14
  -2  12   0  314.69   17.31
   2 -12   0  324.27   14.92
   2  12   0  299.99   15.54
   2 -12   0  341.19   13.02
  -2 -12  -1   18.30    7.75
   2 -12  -1   14.84    7.20
   2 -12  -1   28.68    5.62
  -2 -12   1   32.70    6.21
  -2 -12  -1   30.29    6.79
  -2 -12   1   30.59    3.51
   2  12   1   33.82    5.58
  -2  12  -1   19.19    4.46
  -2  12   1   21.92    7.05
   2 -12   1   23.63    4.26
   2 -12  -1   13.69    4.89
   2 -12   1   20.93    2.84
  -2  12   1   17.39    4.11
  -2 -12  -2   22.71    7.16
   2  12  -2   26.76    2.68
   2 -12   2   22.38    4.74
  -2  12   2   26.43    5.86
   2  12   2   28.73    5.56
   2  12   2   22.52    6.21
  -2 -12   2   21.05    7.15
   2 -12  -2   29.04    5.89
   2 -12  -2   25.76    6.03
   2 -12  -2   23.95    7.45
  -2 -12  -2   27.69    5.68
   2  12  -2   24.75    4.43
  -2  12   2   37.42    7.95
  -2  12  -2   28.29    3.51
  -2 -12   2   16.74    4.20
   2  12   3  228.50   11.66
   2 -12  -3  263.55   14.42
   2  12   3  245.58   17.69
   2 -12  -3  244.48   17.94
  -2 -12  -3  214.58   16.92
  -2  12   3  270.61   15.56
  -2 -12   3  267.79   15.28
  -2 -12   3  217.47   12.35
   2 -12   3  253.50   11.82
  -2  12   3  258.60   12.02
  -2 -12   4   91.98    9.91
  -2  12   4   89.50   10.91
   2  12   4   84.25   10.77
   2  12   4   92.55   10.77
  -2 -12  -4   86.22    9.31
   2 -12   4   75.26    6.16
   2 -12  -4   75.15    9.19
  -2 -12   4   65.10    8.49
  -2  12   4   83.58   10.30
   2 -12   4   84.76    5.61
  -2 -12   5    4.04    6.00
   2  12   5    1.33    7.28
   2 -12   5   12.80    3.11
  -2  12   5   16.36    7.27
  -2 -12  -5    1.37    7.23
   2 -12   5    9.58    3.65
  -2  12   5   19.98    7.98
   2 -12   5    9.61    3.69
   2  12   5    8.57    7.03
   2 -12  -5   13.49    7.36
  -2  12   6  103.42   11.41
   2 -12  -6  118.33   13.09
   2 -12   6   92.16    8.02
  -2  12   6  106.39   13.24
   2  12   6   95.89   13.19
  -2 -12   6   97.95   10.25
  -2 -12  -6  103.48   11.68
   2  12   6   98.07   10.22
  -2 -12   6  106.11   11.60
  -2  12   7   10.01   10.68
  -2 -12  -7   27.49   12.13
   2  12   7   11.31    8.36
   2  12   7   22.88   13.64
  -2  12   7   16.38   11.96
   2 -12  -7   13.27    9.15
  -2 -12  -8   39.73   10.99
   2  12   8   59.84   13.37
  -2  12   8   46.10   12.94
  -2  12   8   62.89   14.83
   2  12   8   44.82   12.18
   2 -12  -8   41.49   17.41
  -3 -12   0  279.17   20.14
   3  12   0  265.21   16.30
  -3  12   0  317.50   13.67
   3 -12   0  299.78   15.01
   3 -12   0  316.72   18.15
   3 -12   0  304.46   16.11
   3  12   0  267.45   14.76
  -3 -12   0  276.42   16.13
  -3 -12  -1  101.30    8.25
  -3 -12  -1   97.87    9.79
  -3  12   1  119.71    9.07
   3  12  -1   96.91    8.37
   3 -12   1  115.49    5.47
   3 -12   1  117.62    8.27
   3 -12  -1  100.69    7.06
   3 -12   1  115.66    8.18
  -3 -12   1   99.06    8.13
   3  12  -1   93.57    6.13
   3 -12  -1  124.24    9.56
   3  12   1   93.18    7.97
  -3  12  -1  120.66    7.08
   3  12   1  103.66    7.02
   3 -12  -1  135.72   11.31
  -3  12  -2  468.72   27.63
   3 -12   2  454.65   17.82
   3 -12   2  487.69   28.07
   3 -12  -2  495.54   25.48
   3 -12   2  518.56   17.74
  -3 -12   2  465.38   24.08
   3  12  -2  463.61   27.89
   3  12   2  456.09   16.92
  -3 -12  -2  476.78   32.66
   3 -12  -2  488.35   26.85
   3 -12  -2  458.52   21.78
  -3 -12   2  442.37   32.24
  -3 -12  -2  449.52   28.51
  -3  12   2  466.12   21.97
   3  12   2  451.51   19.06
  -3  12   2  464.32   20.69
   3  12  -2  507.26   29.73
   3 -12  -3  260.56   14.31
   3 -12   3  256.01   12.80
  -3  12   3  232.79   15.71
  -3 -12  -3  234.98   19.02
  -3 -12   3  248.44   16.36
   3  12   3  279.32   15.49
   3  12  -3  263.49   14.50
  -3 -12   3  306.12   15.71
   3 -12  -3  255.01   16.57
  -3  12   3  260.46   13.28
   3  12   3  263.67   15.41
   3 -12   3  250.39   12.01
  -3  12   4   95.93   10.32
   3  12   4  104.85    9.37
   3 -12  -4   93.73   10.61
  -3 -12   4   99.66    9.68
   3 -12   4  106.39    8.29
   3 -12   4  107.37    7.20
  -3 -12  -4   98.70    9.21
   3  12   4   75.19   10.67
   3 -12   4  121.77    7.69
   3 -12   4  106.45    6.39
  -3  12   4  102.80   10.27
   3 -12   5  653.37   33.50
  -3  12   5  606.71   31.26
   3 -12   5  634.44   33.93
   3 -12  -5  612.85   32.99
  -3  12   5  622.86   27.30
  -3 -12   5  614.43   32.98
   3 -12   5  607.88   48.94
   3 -12   5  632.56   30.20
   3  12   5  604.76   29.33
   3  12   5  636.12   41.36
  -3 -12  -5  607.92   30.79
  -3 -12   6  193.84   17.72
   3  12   6  245.17   16.70
   3 -12   6  206.15   12.23
  -3 -12  -6  277.07   19.51
  -3  12   6  226.64   17.81
  -3  12   6  218.05   19.44
   3 -12  -6  223.71   19.84
   3  12   6  225.82   17.73
  -3 -12   6  226.31   15.42
   3  12   7   42.45   14.09
  -3  12   7   29.77   14.82
   3 -12  -7   36.25   11.02
  -3 -12  -7   29.60   10.40
   3  12   7   40.77   11.28
  -3  12   7   50.99   13.78
  -3 -12  -8   78.99   13.15
   3 -12  -8   80.03   14.40
   3  12   8   77.52   15.21
  -3  12   8   81.74   19.49
   3  12   8   82.37   17.36
  -3  12   8   84.01   17.48
   4 -12   0  195.33   11.86
   4  12   0  172.90   12.82
  -4  12   0  196.88   10.91
   4 -12   0  202.54   12.55
  -4 -12   0  194.98   13.15
  -4 -12   0  172.63   10.63
   4 -12   0  204.85   11.17
   4  12   0  185.92   11.68
   4  12  -1  431.55   25.29
   4 -12   1  411.27   17.34
   4 -12  -1  400.83   26.70
   4 -12   1  402.16   18.04
   4  12   1  439.55   20.36
  -4 -12  -1  443.04   26.77
   4 -12   1  403.27   18.18
   4  12  -1  414.84   20.59
  -4 -12  -1  395.38   21.84
   4 -12  -1  401.33   17.83
  -4  12  -1  419.36   19.79
  -4  12   1  389.23   17.55
  -4 -12   1  408.20   20.87
   4 -12  -1  418.12   20.78
  -4 -12   1  466.92   33.01
   4  12   1  454.36   20.04
   4 -12   2  357.96   15.72
   4  12  -2  328.84   20.07
  -4 -12  -2  277.53   21.15
   4 -12   2  320.78   13.62
   4  12   2  283.90   20.31
  -4 -12   2  338.87   19.84
   4  12  -2  322.90   17.84
   4 -12  -2  299.94   17.86
   4  12   2  325.11   18.96
  -4  12  -2  331.15   19.10
  -4 -12   2  292.36   17.21
  -4 -12  -2  327.51   23.25
   4 -12  -2  328.03   14.87
   4 -12   2  338.46   16.68
   4 -12  -2  303.38   16.02
  -4  12   2  344.63   17.76
   4  12   3  392.47   20.58
  -4 -12   3  390.41   27.27
   4 -12   3  349.60   17.09
   4 -12  -3  350.90   23.67
  -4  12   3  342.68   16.52
   4 -12  -3  364.90   18.64
   4  12   3  366.71   17.68
   4 -12   3  323.50   14.69
   4  12  -3  365.83   16.80
   4 -12   4  486.91   21.53
   4  12  -4  470.69   32.21
   4 -12   4  533.88   20.58
   4 -12   4  492.76   24.95
   4  12  -4  485.55   25.99
   4  12   4  443.72   26.36
   4 -12  -4  483.38   23.51
   4 -12   4  433.19   19.90
  -4  12   4  457.02   27.08
   4  12   4  471.86   20.67
  -4  12   4  483.31   25.21
  -4 -12   4  465.07   25.29
   4  12  -5  199.83   12.92
   4 -12   5  195.70   11.06
  -4  12   5  206.40   16.56
  -4  12   5  191.08   16.83
   4  12   5  232.78   18.79
   4  12   5  243.11   17.18
   4 -12   5  177.25    9.66
  -4 -12  -5  196.66   15.03
  -4 -12   5  195.46   12.26
   4 -12  -5  194.56   14.17
  -4 -12   6   28.62    7.30
   4  12   6   24.09   12.78
  -4  12   6   25.81    9.11
  -4  12   6   21.01    9.35
  -4 -12  -6   22.74    9.06
  -4 -12   6   23.84    8.15
   4  12   6   33.32    9.87
   4 -12  -6   35.72   13.12
  -4  12   7   78.23   12.57
  -4 -12   7   82.70    9.11
   4  12   7   83.77   13.65
  -4  12   7  110.03   17.10
   4 -12  -7  104.80   13.33
   4  12   7  106.91   15.74
  -4 -12  -7   95.24   11.14
   4  12   8   45.00   15.64
  -4  12   8   55.72   18.04
   4  12   8   62.13   17.87
  -4 -12  -8   46.22   10.16
   4 -12  -8   51.53   15.44
   5  12   0   40.38    8.06
   5 -12   0   48.17    6.51
   5 -12   0   40.90    4.99
  -5  12   0   52.82    5.80
   5 -12   0   31.81    6.76
   5  12   0   41.83    6.68
   5 -12  -1  338.16   17.94
   5 -12   1  369.20   16.34
  -5  12   1  318.34   17.43
  -5 -12   1  340.92   54.23
   5 -12  -1  335.73   22.43
  -5 -12  -1  362.59   28.31
  -5 -12   1  351.70   21.67
  -5 -12  -1  314.44   18.82
   5  12  -1  351.29   18.65
  -5  12  -1  335.09   15.50
   5  12   1  350.65   16.66
   5  12   1  347.51   18.51
   5 -12   1  357.02   16.02
   5 -12   1  352.20   17.44
   5  12  -1  352.42   21.76
   5 -12  -1  340.29   15.61
  -5 -12  -2  320.03   19.79
   5 -12   2  358.97   15.47
   5 -12  -2  347.39   20.05
   5  12   2  363.32   23.47
   5  12  -2  288.37   17.60
   5  12  -2  313.36   17.03
   5 -12   2  336.51   15.48
  -5  12   2  338.52   16.60
   5 -12  -2  357.70   20.34
   5  12   2  324.17   16.16
   5 -12   2  370.87   16.39
  -5 -12   2  316.57   20.19
  -5  12  -2  367.18   19.16
   5  12   3  469.70   26.68
  -5 -12   3  506.39   34.49
   5  12   3  519.87   32.74
   5 -12   3  479.52   18.34
   5 -12   3  500.30   19.72
  -5  12   3  534.23   25.78
   5 -12   3  515.55   30.48
   5 -12   3  515.65   22.84
   5  12  -3  530.62   28.77
   5 -12  -3  527.90   26.64
  -5  12   4   24.53    7.12
   5  12   4   30.21    9.10
   5  12  -4   31.83    4.09
   5 -12  -4   29.52    8.20
   5  12   4   26.76    7.69
   5 -12   4   37.95    3.20
  -5 -12   4   36.39    6.34
   5 -12   4   33.62    3.41
   5  12   5   36.59    9.51
  -5 -12  -5   28.40    7.61
   5  12   5   40.14    9.63
  -5  12   5   49.21   10.92
   5  12  -5   35.29    3.82
   5 -12  -5   41.26   10.76
   5 -12  -6   28.96   11.46
  -5 -12  -6   40.73    8.98
  -5 -12   6   24.17    7.80
   5  12   6   36.63   11.50
   5  12   6   39.13   10.72
  -5  12   6   51.87   11.19
   5  12   7  165.17   16.78
  -5 -12  -7  166.19   19.35
  -5  12   7  164.46   16.83
  -5 -12   7  168.76   16.71
   5  12   7  178.33   21.24
   5 -12  -7  171.34   18.63
   5 -12  -8   97.95   19.33
   5  12   8   96.53   17.59
   5  12   8   75.04   15.69
  -5  12   8   80.10   22.68
  -5 -12  -8   70.68   17.60
   6 -12   0  346.09   17.50
   6  12   0  393.96   18.27
  -6 -12   0  342.58   25.38
  -6  12   0  352.16   16.40
   6 -12   0  346.33   18.92
   6  12   0  358.14   19.95
   6 -12   0  357.73   17.12
   6 -12  -1 1485.47   77.63
   6  12   1 1402.85   61.23
  -6 -12  -1 1617.29   81.71
   6  12  -1 1527.67   57.86
   6 -12  -1 1569.19   54.92
  -6 -12   1 1578.57  106.81
   6 -12   1 1537.46   57.41
   6 -12  -1 1494.53   65.04
   6  12  -1 1525.63   66.73
   6 -12   1 1580.25   78.25
   6  12   1 1510.01   97.85
   6 -12   1 1508.22   70.84
  -6  12  -1 1505.69   68.33
  -6  12   1 1530.04   55.22
   6 -12   2  607.96   24.57
  -6  12  -2  598.65   29.46
  -6 -12  -2  642.17   55.70
   6  12   2  658.22   31.62
   6 -12   2  582.87   24.07
   6  12  -2  662.91   28.20
  -6  12   2  625.15   28.25
   6 -12   2  609.15   23.23
   6 -12  -2  622.82   34.87
   6  12  -2  670.82   32.68
   6  12   2  662.94   28.39
   6 -12  -2  618.59   30.50
  -6 -12   2  648.43   34.48
   6  12   3  185.64   13.41
   6  12  -3  191.70   11.27
   6 -12   3  214.03   10.57
  -6  12   3  231.72   15.81
   6 -12   3  196.84   10.79
   6 -12  -3  205.88   14.49
   6 -12   3  210.95   11.69
   6  12   3  184.30   15.16
   6 -12   4  443.27   25.56
   6 -12   4  445.44   25.76
   6 -12   4  441.46   23.32
  -6  12   4  436.18   24.84
   6  12   4  440.17   24.26
   6  12   4  443.15   28.59
   6  12  -4  423.79   30.25
   6 -12  -4  463.39   23.75
   6 -12   4  410.05   21.07
   6 -12   5  242.21   14.29
   6  12  -5  257.54   17.23
   6  12   5  295.72   19.59
  -6  12   5  230.26   20.21
   6  12   5  257.32   18.24
   6 -12  -5  277.45   19.17
  -6 -12   6  173.21   17.93
   6 -12  -6  182.80   17.97
  -6 -12  -6  174.23   15.73
  -6  12   6  193.45   19.90
   6  12   6  196.87   19.94
   6  12   6  180.48   20.00
  -6 -12   7   51.90   13.89
  -6 -12  -7   53.36   11.26
   6  12   7   51.65   13.81
   6  12   7   53.78   16.68
   6 -12  -7   41.66   17.08
  -6  12   7   41.55   11.64
   6  12   8  107.42   23.22
   6  12   8   55.49   21.86
  -6 -12  -8   89.93   18.61
  -6  12   8   77.88   15.37
   7 -12   0  366.83   21.02
  -7  12   0  367.87   18.00
   7 -12   0  379.46   19.89
   7  12   0  312.89   17.68
   7  12   0  321.78   19.41
   7 -12   0  355.37   17.88
   7  12   1  249.07   21.06
   7  12   1  212.95   13.89
  -7 -12  -1  261.19   16.89
   7  12  -1  260.40   14.18
   7 -12  -1  291.58   18.03
  -7  12   1  288.98   14.45
   7 -12  -1  265.60   15.22
   7  12  -1  252.27   15.74
   7 -12  -1  248.49   19.00
   7 -12   1  250.44   14.98
   7 -12   1  277.75   15.10
   7 -12   1  273.15   13.78
  -7  12  -1  268.47   11.52
   7 -12  -2   67.06    7.78
   7  12   2   81.18    9.46
   7  12  -2   65.68    7.33
  -7  12  -2   56.83    4.19
   7 -12   2   66.86    6.18
   7  12   2   61.14   11.71
  -7  12   2   64.80    7.75
   7 -12   2   61.86    4.96
   7 -12   3   21.24    3.26
   7 -12   3   23.99    3.55
   7 -12  -3   25.92    9.06
  -7  12   3   23.44    7.73
   7 -12  -4   22.37    9.13
   7  12   4   25.14    8.73
  -7  12   4   28.74   11.15
   7  12  -4   33.97    5.47
   7 -12   4   28.85    3.91
   7 -12   4   22.22    1.54
   7  12   4   35.52    9.82
   7 -12   4   29.73    2.03
   7 -12   5   39.34    4.56
   7  12   5   47.16   12.72
   7  12  -5   37.39    5.81
  -7  12   5   38.35   11.79
   7 -12  -5   25.33   13.12
   7  12   5   22.00    9.12
   7  12   6   43.96   11.95
   7  12   6   66.26   14.31
  -7 -12  -6   46.01    9.34
   7 -12  -6   41.86   12.69
  -7  12   6   41.26   12.05
  -7 -12   6   49.29   10.83
  -7 -12  -7   16.21    9.71
  -7  12   7   29.88   12.07
   7  12   7   10.01   11.32
   7 -12  -7    6.01   12.50
  -7 -12   7    5.54    9.51
   7  12   7    9.07   11.34
   7  12   8   66.87   19.45
   7  12   8   82.09   15.29
  -7 -12  -8   68.62   16.72
  -7  12   8   82.02   18.69
   8  12   0   14.10    5.59
   8 -12   0    2.87    6.74
   8  12   0   12.83    4.76
  -8  12   0    4.52    3.23
   8 -12   0    4.27    7.75
   8 -12   0    3.92    5.21
   8  12   1  209.17   13.41
   8 -12  -1  187.54   13.10
   8  12   1  189.02   15.98
   8  12  -1  202.30   14.58
  -8  12   1  183.23   13.40
   8 -12   1  153.07   10.83
   8  12  -1  203.70   15.26
  -8  12  -1  182.08   10.33
   8 -12   1  169.59   10.73
   8 -12  -1  191.83   12.69
   8 -12   1  186.90   10.97
   8 -12   2  427.64   25.02
  -8  12   2  435.14   23.00
   8 -12  -2  394.35   22.14
   8  12  -2  391.44   21.24
   8  12   2  415.16   21.98
   8  12   2  386.39   29.27
   8 -12   2  407.26   16.79
  -8  12  -2  402.29   27.02
   8 -12  -3  112.82   11.72
   8  12   3  142.61   12.93
  -8  12   3  135.04   12.09
   8 -12   3  132.14    7.66
   8  12  -3  123.02    9.40
   8 -12   3  131.29   10.86
   8  12   3  106.00   10.37
   8  12   4   63.15   11.97
   8  12  -4   44.04    6.99
   8 -12   4   40.91    5.16
   8  12   4   49.01    9.41
  -8  12   4   48.41   12.03
   8 -12  -4   43.54   12.23
   8  12   5  195.88   16.68
   8  12   5  184.67   19.21
   8  12  -5  192.49   14.28
  -8  12   5  158.86   18.81
   8 -12  -5  172.07   16.43
   8 -12   5  171.40   12.38
  -8  12   6  130.36   16.03
   8  12   6  107.89   15.28
   8 -12  -6  134.26   16.83
  -8 -12   6   96.08   12.77
  -8 -12  -6   84.06   10.99
   8  12   6   98.54   15.37
  -8 -12   7  352.98   29.68
   8 -12  -7  407.40   29.06
  -8  12   7  389.49   30.82
   8  12   7  377.82   36.01
   8  12   7  408.76   29.58
  -8 -12  -7  403.72   30.01
  -9  12   0  162.25   10.32
   9  12   0  102.14   10.47
   9 -12   0  138.47   12.31
   9 -12   0  128.85   11.04
   9  12   0  118.79   10.64
   9 -12   0  144.09   11.87
  -9  12  -1  150.21   10.97
   9  12  -1  146.40   14.41
   9  12  -1  155.42   11.67
   9 -12  -1  159.50   12.13
  -9  12   1  172.78   12.44
   9 -12   1  160.79   13.73
  -9  12   1  160.69   11.73
   9  12   1  122.65   13.76
   9  12   1  135.90   12.30
   9 -12   1  165.25   11.49
   9 -12   2   -0.24    4.49
  -9  12   2   19.84    5.81
  -9  12  -2   11.05    1.68
   9  12  -2    8.31    4.19
   9  12   2   12.32    7.98
  -9  12  -2   10.17    1.61
   9 -12  -2   14.45    6.47
   9  12   2    4.71    5.62
   9  12   3   18.20    7.36
   9  12  -3   16.52    6.34
  -9  12   3    9.79    6.67
   9  12   3   14.81    8.11
   9 -12   3    8.40    3.27
   9 -12  -3   10.26    8.26
   9 -12   3   13.24    3.79
   9 -12   4   20.10    4.46
   9  12  -4   22.20    4.79
   9  12   4   20.04    9.87
  -9  12   4   30.15   11.62
   9  12   4   16.80   12.88
   9 -12  -4   20.36   10.85
   9  12   5   -2.53    7.60
   9  12  -5   11.41    6.14
   9  12   5   13.38   10.44
  -9  12   5   25.93    8.00
   9 -12  -5   19.20   10.83
   9 -12  -6   19.29   11.11
   9  12   6   27.20   13.12
  -9 -12   6   13.51    9.37
  -9  12   6   40.99   11.52
   9  12   6   26.60   13.04
  -9 -12   7   -2.70   15.96
  -9 -12  -7   -0.54   13.99
   9  12   7    5.82   12.84
  -9  12   7    8.01   18.07
   9  12   7   -5.73   11.31
 -10  12   0  114.57   10.72
  10  12   0  143.63   11.19
  10  12   0  130.60   11.07
  10 -12   0  101.64   12.01
  10  12   1  134.83   14.67
  10 -12   1  128.95   10.73
  10  12  -1  126.23   10.65
 -10  12  -1  116.60    8.19
  10 -12  -1  152.59   13.32
 -10  12   1  124.49   12.07
  10  12   1  139.29   11.48
 -10  12  -2  263.78   19.29
 -10  12   2  251.73   15.71
  10  12   2  266.09   18.43
  10 -12  -2  267.23   16.31
  10  12   2  263.51   18.67
  10  12  -2  286.13   19.60
 -10  12  -2  230.29   15.46
  10 -12   2  261.20   17.71
  10  12   3   54.14   10.16
  10 -12  -3   50.46   10.20
  10  12  -3   57.53    8.56
  10 -12   3   58.18    7.82
 -10  12   3   53.35   11.07
  10 -12   3   48.65    4.55
  10  12   3   43.87   13.65
  10  12  -4   25.77    6.10
  10  12   4   21.28   13.19
  10  12   4   18.33    9.87
  10 -12   4   25.37    5.39
 -10  12   4   22.12    9.30
  10 -12  -4   14.88    8.85
 -10  12   5   43.74   10.32
  10  12   5   42.45   11.82
  10  12   5   36.68   12.39
  10  12  -5   31.40    6.52
  10 -12  -5   35.78   11.31
  10  12   6   60.67   11.99
 -10 -12   6   40.38   13.26
  10  12   6   63.51   12.51
 -10  12   6   65.99   14.82
  10 -12  -6   81.61   19.57
  11  12   0   38.32    8.29
  11 -12   0   37.03    6.23
  11  12   0   59.48   12.53
 -11  12   0   44.11    6.83
 -11  12   0   49.72    9.98
  11 -12  -1  157.18   13.87
  11  12  -1  150.68   17.14
  11  12   1  132.60   15.27
  11 -12   1  163.37   13.06
 -11  12  -1  160.27    8.81
  11  12   1  137.80   13.68
 -11  12   1  160.19   12.81
 -11  12   2   33.97    7.98
  11  12   2   29.50    8.71
  11  12   2   37.14   11.85
  11 -12  -2   51.90   10.11
  11 -12   2   38.05    5.64
 -11  12  -2   28.72    4.37
  11  12  -2   34.17    7.31
  11  12  -3   28.56    7.10
  11  12   3    9.53    8.69
  11  12   3   35.83   10.07
  11 -12   3   19.88    6.46
  11 -12  -3    4.85   10.34
 -11  12   3    8.58    8.19
  11  12  -4   65.81    8.20
  11  12   4   56.75   15.75
  11 -12   4   53.46    9.07
  11  12   4   49.55   16.51
 -11  12   4   62.46   11.58
  11 -12  -4   59.12   12.03
  11 -12  -5  116.27   20.72
 -11  12   5   94.68   15.98
  11  12   5  131.31   17.04
  11  12   5  124.44   16.89
  11  12  -5  147.46   15.98
  11  12   6   53.25   15.59
  11  12   6   41.57   13.70
 -11 -12   6   21.25   16.33
 -11  12   6   40.74   12.17
  12  12   0   96.95   13.79
  12  12   0  100.66   13.89
 -12  12   0   91.19    9.19
  12 -12   0   65.49   10.20
  12  12  -1   11.18    6.22
  12 -12   1    5.07    5.40
 -12  12  -1    4.89    3.76
  12  12   1    6.21    6.44
  12 -12  -1   13.98    7.45
 -12  12   1   13.22    7.75
  12  12   1    0.88    7.36
  12  12   2   77.04   12.20
  12 -12  -2  108.59   14.66
  12  12   2  104.55   15.98
  12 -12   2   90.24    8.53
 -12  12   2   92.64   12.02
  12  12  -2   95.36   11.03
  12  12   3   27.02   12.99
 -12  12   3   38.29   13.04
  12  12   3   35.21   11.36
  12  12  -3   34.45    8.41
  12 -12  -3   10.96    9.57
  12 -12   3   28.57    6.86
  12  12   4   57.80   13.21
  12 -12  -4   64.12   15.75
  12  12  -4   41.47    9.46
  12 -12   4   46.78    8.98
 -12  12   4   55.91   13.63
  12  12   4   32.55   12.27
  12 -12  -5  210.86   20.04
 -12  12   5  165.92   20.89
  12  12   5  158.57   21.80
  12  12   5  145.86   18.45
  13 -12   0   21.19    8.04
 -13  12   0   19.09    5.50
  13  12   0   10.91    7.90
  13 -12  -1   50.28   12.71
 -13  12  -1   37.20    5.57
  13  12   1   31.46   11.27
  13  12   1   36.60   14.23
  13  12  -1   53.05    8.92
  13 -12   1   44.90    9.00
 -13  12   1   55.52   10.25
  13 -12   2    7.30    7.34
  13 -12  -2   12.83   13.70
  13  12  -2   -3.59    6.84
  13  12   2   18.60   14.81
  13  12   2    6.75    8.72
 -13  12   2   -5.02    9.90
 -13  12   3   12.83    8.28
  13  12   3   19.82   11.12
  13 -12   3   15.95    9.86
  13  12  -3   13.54    8.46
  13  12   3   20.67   11.04
  13 -12  -3   19.18   11.44
  13  12   4   73.99   15.41
 -13  12   4   66.06   14.60
  13 -12  -4   58.70   18.69
  13  12  -4   66.71   10.48
  13  12   4   77.15   13.26
  13  12   5  158.98   22.91
  13  12   5  123.98   16.68
  14 -12   0  305.61   23.93
  14  12   0  313.11   26.68
 -14  12   0  347.15   29.97
 -14  12  -1   86.46   10.23
  14 -12   1   81.18    9.01
 -14  12   1   66.22   10.31
  14  12   1   99.18   15.00
  14  12  -1  111.82   15.68
  14 -12  -1   68.50   16.25
  14 -12  -2   28.44   15.89
 -14  12   2   29.34    8.45
  14  12  -2   29.38   10.18
  14 -12   2   24.46   12.06
  14  12   2   33.11   15.58
  14  12   2   36.74   10.47
  14  12   3   43.91   12.06
  14 -12   3   55.04   10.99
  14  12   3   50.14   16.18
  14 -12  -3   37.19   13.49
  14  12  -3   53.02   10.02
 -14  12   3   64.45   13.23
  14  12  -4   87.82   15.47
 -14  12   4   76.31   15.09
  14  12   4   65.51   15.43
  14  12   4   73.02   15.05
  15  12   0   39.34   12.29
 -15  12   0   48.73    7.24
  15 -12   0   40.47   15.03
  15 -12  -1  331.09   26.04
  15  12   1  364.96   32.79
  15  12  -1  328.67   28.30
 -15  12   1  324.11   28.46
  15  12  -2   59.43   12.61
  15 -12   2   61.75   13.20
  15 -12  -2   65.86   18.10
  15  12   2   53.99   14.60
 -15  12   2   61.07    9.86
   0  13   0    0.15    3.18
   0 -13   0   -1.83    4.45
   0 -13   0    1.57    4.24
   0  13   0   -2.44    3.83
   0 -13   1   34.24    2.79
   0  13  -1   35.01    3.96
   0 -13  -1   37.94    7.56
   0  13   1   30.23    6.04
   0  13  -1   28.34    4.83
   0  13   1   38.89    6.03
   0 -13  -1   38.14    5.58
   0 -13   1   41.66    7.36
   0 -13  -2  144.01   10.61
   0 -13   2  127.63    8.52
   0 -13  -2  132.49   11.97
   0  13   2  141.07    9.56
   0  13  -2  137.21   11.50
   0  13   2  148.80    9.66
   0  13   3  215.37   12.09
   0  13   3  236.80   14.89
   0 -13   3  229.16   15.45
   0 -13   3  224.79   13.50
   0 -13  -3  240.86   15.06
   0 -13  -3  234.10   17.08
   0 -13  -4  147.35   14.02
   0  13   4  149.71   12.32
   0 -13   4  139.65    9.50
   0  13   4  138.46   11.84
   0 -13   4  168.49   11.92
   0  13   5   26.27    7.38
   0 -13   5   20.01    4.85
   0 -13  -5   25.00    7.96
   0 -13   5   21.66    5.20
   0  13   5   16.95   11.43
   0  13   6   31.82   13.61
   0 -13  -6   21.56   12.48
   0  13   6   18.92    9.23
   0 -13  -7   35.37   10.56
   0  13   7    3.10   14.13
   0  13   7    7.13   12.75
   0  13   8   -0.31   11.78
   0 -13  -8   13.11   13.08
   0  13   8    9.56   16.93
   1  13   0   70.07    7.97
  -1  13   0   90.50    8.29
  -1  13   0   86.57    6.33
  -1 -13   0   75.85    5.93
   1  13   0   80.59    7.23
   1 -13   0   83.23    6.00
   1 -13   0   79.10    8.19
  -1 -13   0   56.97    7.71
   1  13  -1  198.02   11.33
   1 -13   1  175.78   11.68
  -1  13   1  178.14   11.13
  -1 -13  -1  225.64   16.13
   1  13   1  206.16   13.32
   1 -13  -1  178.81   10.84
  -1 -13   1  207.80   11.44
  -1  13  -1  166.91   11.00
   1 -13  -1  151.03   10.02
  -1 -13  -1  181.85   14.09
   1  13  -1  213.45   14.54
  -1  13   1  185.78   12.24
  -1 -13   1  205.26   11.67
   1  13   1  191.28   10.70
   1 -13   1  180.39    9.19
   1 -13  -1  175.32   10.84
   1  13   2  380.13   24.24
  -1  13   2  390.29   19.16
   1  13   2  410.84   22.58
  -1  13  -2  407.70   24.52
   1 -13  -2  396.07   16.34
  -1 -13  -2  439.70   25.42
   1 -13   2  397.83   20.77
  -1  13   2  431.20   18.72
   1 -13  -2  381.80   25.77
  -1 -13   2  422.16   18.84
   1  13  -2  401.03   25.47
  -1  13   3  113.69   11.87
   1 -13  -3  121.62   11.96
   1  13   3   95.02    9.74
  -1  13   3  107.85   12.25
  -1 -13   3   95.14    8.58
   1 -13   3  115.38    8.77
   1  13   3  106.59   10.52
  -1 -13  -3   82.60   10.62
  -1 -13   3   97.69   10.49
   1 -13   3  108.92    8.93
   1 -13  -3  109.45    9.99
  -1 -13  -3   82.46   10.43
   1  13   4  193.19   14.45
  -1 -13   4  166.37   14.88
   1 -13  -4  192.56   14.59
  -1  13   4  167.09   14.89
  -1  13   4  160.58   14.50
  -1 -13  -4  202.06   13.41
   1 -13   4  196.74    9.94
   1  13   4  169.79   12.32
   1 -13   4  184.15   12.01
  -1 -13   4  188.62   16.46
  -1  13   5  365.81   23.76
   1 -13  -5  374.03   21.00
  -1 -13  -5  352.54   21.90
   1 -13   5  367.40   23.33
   1  13   5  373.27   24.93
  -1 -13   5  363.06   21.27
  -1  13   5  364.42   24.66
   1  13   5  414.62   25.17
   1 -13   5  349.71   25.24
   1 -13   5  390.50   17.63
  -1 -13   6  182.45   22.13
   1 -13  -6  147.32   15.86
  -1  13   6  204.90   19.68
  -1 -13  -6  176.05   15.14
   1  13   6  180.91   78.76
  -1 -13   6  148.75   15.34
  -1  13   6  156.34   18.53
   1  13   6  156.71   16.96
   1  13   7  279.56   24.71
  -1  13   7  244.10   22.79
  -1  13   7  229.03   19.37
   1 -13  -7  264.49   19.32
  -1 -13  -7  283.50   20.63
   1  13   7  245.16   22.69
  -1 -13  -8  202.13   19.58
   1  13   8  209.65   26.51
   1  13   8  270.35   22.85
   1 -13  -8  210.56   22.70
  -1  13   8  239.95   19.70
  -1  13   8  195.24   21.60
  -2 -13   0  569.99   32.49
   2 -13   0  510.16   22.39
  -2  13   0  499.81   21.97
   2 -13   0  484.23   20.42
   2 -13   0  502.04   24.18
  -2 -13   0  559.06   28.57
   2  13   0  587.25   28.11
   2  13   0  558.92   27.41
  -2 -13  -1  261.61   19.09
   2  13   1  302.12   14.75
   2 -13  -1  330.03   19.20
   2 -13   1  305.60   14.59
  -2 -13   1  300.27   14.61
   2  13  -1  324.33   14.76
  -2 -13   1  322.67   16.96
  -2 -13  -1  290.21   19.46
  -2  13   1  297.56   16.09
   2  13   1  289.00   17.88
  -2  13  -1  313.41   17.26
   2 -13   1  302.50   17.09
   2 -13   1  315.07   18.14
   2  13  -1  324.36   20.65
   2 -13  -1  327.40   18.06
   2 -13  -1  268.67   16.27
  -2  13   1  321.42   16.47
   2 -13  -2  224.65   13.14
  -2 -13   2  239.46   17.64
   2 -13   2  267.02   16.97
   2 -13  -2  242.10   20.43
  -2 -13   2  257.28   15.80
   2  13  -2  246.41   15.88
  -2  13  -2  245.96   16.64
   2  13   2  253.89   12.65
   2  13  -2  247.24   18.15
  -2 -13  -2  250.12   17.26
   2  13   2  235.15   15.26
  -2  13   2  244.76   13.19
  -2  13   2  269.76   15.91
   2  13   3  129.66   11.97
   2 -13  -3  130.78   15.04
  -2  13   3  132.59   11.33
   2  13   3  133.57   10.36
   2 -13  -3  125.80    9.88
  -2  13   3  134.57   11.59
   2 -13   3  126.33    8.27
  -2 -13   3  127.84   21.85
  -2 -13  -3  103.58   12.68
  -2 -13  -3  131.99    8.91
  -2 -13   3  135.33   10.65
   2  13   4   63.92    9.31
  -2 -13  -4   63.61    8.22
   2 -13   4   65.70    6.50
   2 -13  -4   72.48   10.24
  -2 -13   4   64.35    7.78
   2  13   4   62.46    9.84
  -2  13   4   67.70   10.33
  -2  13   4   72.76    9.64
   2 -13   4   60.41    6.76
  -2 -13  -5   12.74    8.04
  -2  13   5   28.75   11.89
  -2  13   5   20.72    8.01
   2 -13   5   15.20    4.38
  -2 -13   5   11.89    6.89
   2 -13   5    9.85    2.75
   2 -13  -5   12.29    7.32
   2 -13   5   13.09    5.63
   2  13   5    2.90    8.18
   2  13   5   17.94   11.49
  -2 -13  -6   19.25   11.61
   2  13   6   11.10   10.56
   2  13   6   49.71   54.60
  -2  13   6    1.06    8.27
  -2  13   6   13.88   11.79
   2 -13  -6    1.26    8.76
  -2 -13   6    6.01    6.32
  -2 -13   6    8.81    6.55
   2  13   7   -1.78    9.56
  -2  13   7    1.78    8.76
   2 -13  -7   14.09   10.03
  -2 -13  -7    6.41    8.42
   2  13   7   -6.46   10.10
  -2  13   7    1.52   10.49
  -2 -13  -8  100.91   15.23
   2 -13  -8  117.74   15.37
   2  13   8  116.95   20.48
  -2  13   8  109.67   18.94
   2  13   8   79.11   13.87
  -2  13   8  132.06   18.73
   3  13   0  314.56   14.33
  -3 -13   0  315.73   23.07
   3 -13   0  299.07   13.22
  -3 -13   0  264.54   17.05
   3  13   0  298.93   24.18
  -3  13   0  305.51   15.87
   3 -13   0  297.28   16.24
   3 -13   0  282.49   15.51
   3 -13  -1  135.22   12.23
  -3  13   1  135.06    9.67
   3  13  -1  131.86    8.64
   3  13   1  135.16    9.71
   3 -13  -1  138.75   11.03
   3  13   1  144.50   10.64
  -3  13  -1  153.94   10.11
   3 -13   1  127.32    8.63
   3  13  -1  119.73   10.84
   3 -13   1  153.15    7.66
   3 -13   1  119.51    9.06
  -3 -13  -1  147.89   11.30
  -3 -13   1  106.45   10.18
   3 -13  -1  120.00   11.26
   3  13   2   16.92    7.41
  -3 -13   2   10.43    6.04
  -3  13  -2   22.21    3.51
   3 -13   2   27.10    5.20
  -3  13   2   23.82    6.37
   3 -13   2   20.66    1.98
   3 -13  -2   15.83    6.15
   3  13   2   16.08    7.36
   3  13  -2   23.22    2.97
   3  13  -2   16.85    4.63
   3 -13   2    8.05    4.80
   3 -13  -2   15.64    5.50
  -3 -13  -2   15.72    7.67
   3 -13   3  128.07    9.36
  -3 -13   3  146.99   11.12
   3 -13  -3  140.50   13.89
  -3  13   3  152.56   11.86
  -3  13   3  152.77   11.86
   3  13   3  116.60   10.82
   3 -13   3  135.86   10.09
   3  13  -3  145.49    9.46
   3  13   3  114.03   12.46
   3 -13  -3  130.82   11.14
  -3 -13  -4  196.21   15.27
  -3 -13   4  201.78   16.68
   3 -13   4  243.84   12.42
   3 -13  -4  222.60   14.74
   3  13   4  216.35   16.88
   3 -13   4  241.89   11.88
   3  13   4  210.76   16.29
  -3  13   4  227.20   16.05
  -3  13   4  267.39   17.75
   3 -13   4  262.09   13.71
  -3 -13  -5   39.86    9.20
   3  13   5   32.82   11.18
  -3 -13   5   21.81    5.93
   3 -13   5   29.97    4.07
   3 -13   5   41.03    4.99
  -3  13   5   20.72    8.59
   3 -13   5   32.67    3.86
   3 -13   5   37.86    4.32
   3  13   5   20.29    8.87
   3 -13  -5   21.63   13.04
  -3  13   5   50.81   12.46
   3 -13  -6   47.37   13.76
  -3 -13  -6   22.92   10.24
  -3  13   6   38.99   13.09
   3  13   6   29.93   11.91
   3  13   6   47.43   59.78
  -3 -13   6   18.69    6.87
  -3 -13   6   18.88    6.94
  -3  13   6   36.20   11.49
  -3  13   7   -7.41   11.57
   3  13   7   10.32   14.05
   3  13   7   -2.90    9.49
  -3 -13  -7   -1.11    9.22
  -3  13   7   -2.27   10.15
   3 -13  -7   -1.33   10.40
  -3  13   8   82.45   16.58
  -3 -13  -8   84.13   14.26
  -3  13   8   86.67   16.70
   3 -13  -8   86.23   19.95
   3  13   8   84.62   16.89
   3  13   8   92.34   15.46
   4 -13   0   13.58    6.18
   4  13   0   24.41    5.71
   4  13   0   18.10    4.13
  -4  13   0   17.06    5.09
   4 -13   0   18.34    6.05
   4 -13   0   12.71    5.75
  -4 -13   0    8.88    3.56
  -4 -13  -1   32.91    6.58
   4  13  -1   35.34    8.15
   4  13   1   41.39    7.60
  -4  13   1   25.64    4.83
   4 -13  -1   28.90    5.91
   4 -13  -1   32.87    7.05
   4 -13   1   24.62    4.39
   4 -13   1   39.19    7.24
   4  13  -1   33.27    4.53
   4 -13   1   24.69    4.60
   4 -13  -1   28.43    6.16
   4  13   1   23.46    6.22
   4 -13   2   63.96    6.24
  -4  13   2   63.66    7.39
   4  13   2   62.21    7.41
   4  13  -2   54.10    6.44
  -4 -13  -2   74.06    8.48
   4  13  -2   67.81    5.31
   4 -13   2   70.96    4.94
   4 -13   2   68.30    6.77
  -4  13  -2   70.33    5.50
   4 -13  -2   73.43   10.16
  -4 -13   2   69.44    7.78
   4 -13  -2   56.65    7.49
   4  13   2   69.46    9.59
  -4  13   3  149.30   11.27
   4 -13   3  176.90    9.89
   4 -13   3  159.18    8.97
   4  13   3  149.70   11.52
   4  13   3  121.12   11.83
   4  13  -3  135.28    8.07
   4 -13  -3  168.66   15.18
   4 -13   4   10.47    3.31
   4  13   4   14.44    7.80
   4  13  -4   10.69    2.21
  -4 -13   4    9.62    5.32
   4 -13   4   10.49    2.18
   4 -13  -4    8.86    6.04
   4 -13   4    6.98    3.97
  -4  13   4   16.28    7.29
   4 -13   4    9.54    2.06
   4  13  -4   11.97    2.50
   4  13   4    0.20    7.30
  -4 -13   5   67.13    9.67
   4  13   5   83.90   10.32
   4 -13   5   76.84    5.40
  -4  13   5   85.70   15.03
   4 -13   5   81.81    5.90
  -4 -13  -5   80.61   10.21
   4 -13  -5   84.67   10.77
   4  13   5   78.33   14.20
   4  13   6   51.13   13.11
   4 -13  -6   56.10   12.13
  -4 -13   6   57.35   10.37
   4  13   6   34.83   10.54
  -4  13   6   49.17   11.49
  -4 -13  -6   64.48   11.32
  -4 -13  -7  103.77   17.05
  -4  13   7  103.30   17.99
   4  13   7   55.31   15.02
   4  13   7   71.00   14.41
   4 -13  -7   81.97   14.05
   4  13   8   -6.76   17.61
   4  13   8    0.75   14.05
   4 -13  -8  -16.66   17.41
  -4  13   8   24.16   13.32
  -4 -13  -8  -12.52   14.85
   5 -13   0   -2.42    5.08
   5  13   0   -1.31    3.75
   5 -13   0    1.00    6.32
   5  13   0   -0.60    5.29
   5 -13   0    7.62    3.60
  -5  13   0    3.58    4.94
  -5 -13   0   -1.28    3.94
   5 -13  -1  200.15   16.17
   5 -13   1  238.75   11.61
  -5  13  -1  240.42   14.37
   5  13  -1  212.07   13.28
  -5  13   1  222.05   11.58
   5  13   1  217.57   11.40
   5  13  -1  201.65   14.88
   5  13   1  192.69   11.99
  -5 -13   1  187.67   16.54
   5 -13  -1  235.18   17.47
   5 -13  -1  242.75   14.48
  -5 -13  -1  210.29   14.65
   5 -13   1  219.80   13.16
   5 -13   1  239.32   11.76
   5 -13   2   80.43    6.53
   5 -13   2   81.78    5.23
   5  13   2   83.65    9.92
   5  13  -2   86.76    8.44
  -5 -13   2   61.24   11.26
   5  13   2   77.98    9.37
   5 -13  -2   75.62    9.18
  -5  13  -2   69.94    6.18
  -5  13   2   84.92    8.81
  -5 -13  -2   81.74    9.52
   5 -13   2   81.58    5.91
   5  13  -2   88.42    6.57
   5 -13  -2   74.89    9.77
   5 -13   3   46.71    3.20
   5  13   3   31.06    7.29
   5 -13   3   45.16    5.11
  -5 -13   3   43.99    9.40
  -5  13   3   63.09   10.63
   5 -13   3   43.11    3.52
   5  13   3   53.39    8.98
   5 -13  -3   38.86   10.88
   5  13  -3   57.60    4.89
   5 -13   3   45.01    3.52
   5  13   4  211.12   14.37
   5  13  -4  201.90   14.75
   5 -13   4  195.93   12.74
   5  13   4  200.57   13.74
   5 -13   4  191.86    9.70
   5 -13  -4  218.21   16.00
  -5  13   4  185.15   16.31
  -5 -13  -5  435.35   26.11
   5  13   5  415.98   27.40
  -5  13   5  461.17   29.15
   5  13   5  372.40   21.52
   5 -13  -5  421.15   22.48
   5 -13  -6   84.57   12.05
  -5 -13   6   77.75   10.17
  -5 -13  -6   79.05   14.89
   5  13   6   81.80   14.16
   5  13   6  101.70   13.06
  -5  13   6   65.95   12.26
   5  13   7   45.08   13.52
   5 -13  -7   53.24   15.44
   5  13   7   67.55   18.19
  -5 -13  -7   72.74   16.08
  -5  13   7   51.39   12.34
   5  13   8  148.22   18.02
   5  13   8  148.43   18.75
  -5 -13  -8  122.45   22.07
  -5  13   8  110.85   17.59
   6 -13   0   76.93    8.19
   6 -13   0   89.09    7.84
   6 -13   0  103.27   11.16
  -6  13   0  107.97    7.97
   6  13   0  122.67    9.74
   6  13   0  124.65    9.64
   6 -13   1  315.34   15.78
   6  13  -1  337.66   16.61
   6 -13  -1  347.16   17.59
   6  13  -1  392.70   23.89
  -6 -13  -1  372.18   26.27
   6  13   1  342.92   18.60
  -6  13  -1  319.66   19.40
   6 -13   1  306.02   14.24
   6 -13   1  327.40   19.77
  -6  13   1  332.05   17.14
   6 -13  -1  343.61   20.99
   6  13   1  351.52   24.71
   6 -13   2  453.29   22.27
   6 -13  -2  426.78   26.47
  -6  13   2  445.33   24.75
   6  13  -2  460.64   19.30
   6 -13  -2  465.04   28.46
  -6  13  -2  438.71   29.62
   6 -13   2  451.39   21.01
   6  13  -2  455.96   25.76
   6 -13   2  473.72   22.50
   6  13   2  470.48   21.74
   6  13   2  441.48   23.23
   6  13   3  626.11   29.52
   6  13   3  697.64   34.47
   6 -13   3  636.12   30.36
   6 -13   3  650.80   33.20
   6 -13   3  631.01   37.58
   6  13  -3  660.71   45.27
  -6  13   3  619.68   31.53
   6 -13  -3  595.01   32.30
   6 -13   4  126.13    7.40
   6  13  -4  100.79    7.96
   6  13   4   86.22   12.30
  -6  13   4  130.02   12.98
   6 -13   4  122.09    6.57
   6 -13   4  112.93    7.30
   6 -13   4  131.76    6.49
   6 -13  -4  112.46   12.30
   6  13   4  100.68   12.44
   6  13   5   38.77   12.17
   6  13   5   15.19    9.35
  -6  13   5   14.66    9.34
   6 -13  -5   20.75   10.02
  -6  13   6   91.65   13.42
   6 -13  -6   62.79   17.77
   6  13   6   60.01   14.15
  -6 -13   6   52.10   11.36
   6  13   6   67.21   11.67
  -6 -13  -6   58.98   14.23
   6  13   7   43.91   13.37
  -6 -13  -7   61.00   11.09
   6  13   7   63.61   17.38
   6 -13  -7   53.83   13.42
  -6  13   7   69.31   16.22
   6  13   8   27.32   14.45
   7 -13   0  269.75   14.94
   7 -13   0  267.44   15.83
  -7  13   0  252.20   14.28
   7  13   0  252.87   16.81
   7 -13   0  258.97   17.90
   7  13   0  245.67   17.13
  -7 -13  -1   57.80    8.39
   7  13  -1   67.86    7.37
  -7  13  -1   76.96    6.25
  -7  13   1   76.31    7.60
   7 -13   1   74.47    7.63
   7  13  -1   43.87    8.20
   7 -13  -1   59.45    7.42
   7  13   1   62.15    9.12
   7  13   1   55.15   10.70
   7 -13   1   56.76    7.35
   7 -13   1   73.34    8.16
   7 -13  -1   77.15    8.55
   7 -13   2  107.18    8.43
   7 -13   2  132.88    9.24
  -7  13   2  107.98   10.92
  -7  13  -2  123.61    7.24
   7  13   2  152.34   15.54
   7  13  -2  148.63   11.32
   7  13   2  133.88   10.77
   7 -13  -2  133.84   12.24
   7 -13   2  118.52    7.63
   7 -13   3   63.93    5.94
   7  13   3   74.66   12.20
   7 -13   3   58.18    6.71
   7  13  -3   64.44    7.30
   7 -13   3   71.30    6.79
   7 -13  -3   59.45   11.35
  -7  13   3   89.64    9.99
   7  13   3   65.50   10.81
   7 -13  -4   -1.83    7.56
   7 -13   4    6.94    3.80
  -7  13   4    3.27    6.89
   7  13   4  -15.44   10.42
   7  13  -4    0.56    2.91
   7 -13   4    0.38    2.81
   7  13   4   -1.10    6.95
   7 -13  -5   34.17   11.11
   7  13   5   19.27   10.24
  -7  13   5   38.36    9.87
   7  13   5   12.78    9.63
   7 -13  -6   25.65   13.97
   7  13   6   24.14   11.14
  -7  13   6   25.01   12.57
  -7 -13  -6   18.30    9.38
   7  13   6   18.33   11.11
  -7 -13   6   18.16    9.31
  -7 -13  -7   10.62   10.94
  -7  13   7    3.03   18.67
   7  13   7    2.71   12.93
   7  13   7   -7.17   13.49
   8  13   0  529.38   27.26
   8 -13   0  465.41   22.39
  -8  13   0  448.83   27.43
   8 -13   0  458.71   26.26
   8 -13   0  416.66   25.45
   8  13   0  493.93   28.18
   8  13  -1  503.07   27.86
   8 -13  -1  513.91   29.12
   8 -13   1  485.20   27.54
   8 -13  -1  492.10   26.09
   8 -13   1  504.99   30.21
   8  13  -1  507.82   26.96
   8 -13   1  505.57   28.75
  -8  13  -1  497.54   33.24
  -8  13   1  479.22   28.85
   8  13   1  524.89   36.86
   8  13   1  493.64   33.27
   8 -13   2  570.02   31.96
   8 -13  -2  618.75   40.36
   8  13   2  606.41   37.68
   8 -13   2  609.63   34.35
  -8  13   2  619.99   31.21
   8  13   2  576.64   32.36
   8  13  -2  644.52   42.37
  -8  13  -2  577.30   42.84
   8 -13  -3   60.47    9.11
   8 -13   3   66.38    6.76
   8  13   3   81.81   14.42
   8 -13   3   71.61    6.03
   8 -13   3   58.67    7.32
  -8  13   3   89.22    9.19
   8  13   3   75.08   11.01
   8  13  -3   79.05    7.26
   8  13  -4   46.43    6.38
   8 -13   4   44.76    6.54
  -8  13   4   32.19    9.00
   8  13   4   49.06   10.64
   8 -13  -4   46.42    9.78
   8  13   4   24.68    8.51
   8  13   5  149.06   16.52
   8  13   5  159.67   16.29
  -8  13   5  162.49   18.53
   8 -13  -5  135.77   15.03
   8 -13  -6   31.96   13.55
   8  13   6    8.36   10.49
  -8 -13  -6   12.92   11.24
   8  13   6   29.37   10.41
  -8 -13   6   23.47   10.06
  -8  13   6   25.61   11.10
  -8 -13  -7   54.95   13.33
   8  13   7   51.72   16.20
   8  13   7   77.05   17.51
  -8  13   7   67.46   15.84
  -8 -13   7   45.83   13.92
   9 -13   0  108.09    9.64
   9 -13   0   88.36   10.75
  -9  13   0   92.97    8.99
   9  13   0   95.44   10.38
   9  13   0   94.70   14.40
   9  13  -1   50.19    8.81
   9  13   1   66.29   10.32
   9  13   1   74.28   10.68
   9 -13   1   57.81    6.37
   9  13  -1   80.26    8.84
   9 -13  -1   49.36    7.99
  -9  13   1   63.86    9.32
  -9  13  -1   60.59    5.81
   9 -13   1   61.21    8.71
   9  13  -2    9.59    6.43
   9  13   2   19.11    8.29
   9  13   2   13.83    7.03
  -9  13   2   16.07    6.62
   9 -13  -2   16.64    8.38
   9 -13   2    7.94    5.31
   9 -13   2   10.65    4.25
  -9  13  -2   17.70    1.94
   9 -13  -3   78.98   11.69
   9 -13   3   66.88    8.25
   9  13   3   86.61   12.16
   9 -13   3   62.14    5.91
  -9  13   3   75.00    9.02
   9  13   3   51.07    8.84
   9  13  -3   86.42    9.83
   9  13   4  175.02   16.79
   9 -13   4  162.82   11.70
  -9  13   4  175.43   15.79
   9  13  -4  174.29   16.11
   9 -13  -4  155.43   16.13
   9  13   4  194.64   17.71
   9  13   5  217.87   24.44
   9  13   5  220.56   18.80
   9 -13  -5  208.40   24.31
  -9  13   5  231.18   19.36
  -9 -13   6  189.86   17.14
  -9  13   6  165.34   21.32
   9  13   6  188.56   22.59
   9  13   6  226.61   20.01
   9 -13  -6  210.52   16.04
   9  13   7   -3.55   10.84
   9  13   7    2.12   12.82
  -9 -13   7   13.59   11.15
  -9 -13  -7    3.57   14.81
  10 -13   0   14.39    6.14
  10  13   0   28.34   10.22
 -10  13   0   18.65    5.01
  10  13   0   16.78    8.27
  10 -13   1   -1.15    6.92
  10  13  -1   13.05    5.11
  10  13   1   10.07    7.85
  10  13   1    5.85    5.31
 -10  13  -1    4.57    3.44
 -10  13   1    9.52    5.25
  10 -13   1   -1.89    7.52
  10 -13  -1    4.31    6.94
  10  13   2   79.05   13.13
  10  13  -2  102.66   11.08
  10 -13   2   81.20   13.28
  10  13   2  122.15   12.41
  10 -13   2  124.75   10.77
 -10  13   2  122.32   11.18
  10 -13  -2  102.57   10.89
  10 -13  -3   39.31   10.26
  10  13   3   34.48    9.71
  10  13  -3   23.84    7.48
 -10  13   3   21.87    7.68
  10  13   3   39.48   11.57
  10 -13   3   25.11    7.06
  10  13  -4  100.53   10.94
  10  13   4   99.07   15.43
  10 -13   4  105.20   10.97
  10  13   4  123.22   18.27
 -10  13   4   84.44   14.61
  10 -13  -4  117.99   13.64
  10 -13  -5   50.28   12.27
  10  13   5   54.11   16.95
 -10  13   5   58.74   15.18
  10  13   5   61.32   15.68
 -10  13   6   24.32   13.94
 -10 -13   6   16.91   10.24
  10  13   6   11.15   11.67
  10  13   6   16.19   12.72
 -11  13   0   30.48    6.98
  11  13   0   32.27    8.88
  11  13   0   21.70    7.77
  11 -13   0   27.80    8.09
 -11  13  -1    7.99    3.15
  11 -13  -1    7.24    7.09
  11  13   1    2.71    6.42
  11  13  -1   -0.04    8.24
  11 -13   1   15.86    8.35
  11  13   1    6.59    6.25
 -11  13   1   14.07    5.29
 -11  13   2    6.75    7.30
  11 -13   2    0.90    4.34
  11  13   2    7.55    8.93
  11 -13  -2   11.65   12.68
  11  13  -2    2.18    5.91
  11  13   2   16.30    9.85
  11  13   3    7.89    9.46
  11  13  -3   10.29    5.77
  11  13   3   16.97   11.77
 -11  13   3   16.13    8.66
  11 -13  -3   10.40   13.65
  11 -13   3   10.42    7.39
  11  13   4  115.56   19.79
 -11  13   4  124.74   15.68
  11  13   4  124.44   18.53
  11 -13  -4  130.36   17.87
  11  13  -4  120.96   12.00
  11 -13  -5   58.37   17.32
 -11  13   5   36.48   13.98
  11  13   5   16.56   12.40
  11  13   5   37.45   15.11
 -11 -13   6   29.91   13.79
  11  13   6   44.48   15.77
 -12  13   0  270.74   18.18
  12  13   0  273.09   26.39
  12 -13   0  261.53   19.56
 -12  13  -1   95.94   12.64
  12 -13   1  111.56   10.59
 -12  13   1   99.22   11.51
  12  13  -1  103.79   12.13
  12  13   1   86.36   12.86
  12 -13  -1  101.18   14.96
  12  13   1  103.56   13.17
  12  13  -2  202.73   20.41
  12  13   2  187.01   20.64
 -12  13   2  250.26   19.27
  12 -13  -2  206.90   18.28
  12  13   2  201.20   25.11
  12  13  -3   86.61    9.31
  12  13   3   92.82   14.51
  12 -13   3   79.73   11.49
 -12  13   3  106.15   14.45
  12 -13  -3   88.15   14.56
  12  13   3   92.76   12.02
  12  13  -4   61.62   10.51
  12  13   4   66.20   13.46
  12  13   4   72.98   13.20
  12 -13  -4   74.28   13.49
 -12  13   4   77.97   11.32
  12  13   5   27.96   14.91
 -12  13   5   31.23   17.16
  12  13   5   14.17   13.49
 -13  13   0   16.94    4.95
  13 -13   0    8.61    7.78
  13  13   0    8.90    7.91
  13 -13  -1   77.56   10.53
 -13  13   1  100.33   11.06
  13 -13   1   77.06   10.00
  13  13  -1   61.07   14.22
  13  13   1   73.39   17.00
  13  13   1   91.00   15.84
 -13  13  -1   84.46    8.75
 -13  13   2    7.68    7.67
  13  13   2   15.55   10.03
  13  13   2    4.92   13.60
  13  13  -2    2.68    6.80
  13 -13  -2   13.75   10.20
  13 -13   2    5.04    8.00
  13 -13   3   78.30   12.12
  13  13   3   95.56   20.23
  13 -13  -3   77.50   15.47
 -13  13   3   80.01   14.01
  13  13   3   85.87   13.48
  13  13  -3   82.58   11.86
  13 -13  -4  107.22   17.66
  13  13  -4   72.41   11.37
  13  13   4   76.79   12.79
  13  13   4   65.37   17.28
 -13  13   4   71.87   14.26
  14 -13   0   14.37   12.58
 -14  13   0    9.11    5.00
  14  13   0    9.24   11.75
  14  13  -1   33.14   13.76
  14 -13  -1   14.11    9.53
  14  13   1   17.44   13.74
 -14  13   1   20.01    8.51
 -14  13   2   80.69   14.34
  14  13   2   65.08   18.76
  14  13   2   73.96   16.10
  14  13  -2   47.33   15.29
  14 -13  -2   60.69   14.64
  14 -13   2   67.25   14.91
  14  13  -3    1.70    9.02
  14  13   3   -2.79   10.78
  14 -13  -3    1.12   10.89
  14  13   3   -1.60   12.14
 -14  13   3   25.97   10.56
 -15  13   0    1.36    5.22
  15  13   0   -0.88    9.18
  15  13  -1   29.23   16.31
  15 -13  -1   42.04   11.92
  15  13   1   42.56   13.30
 -15  13   1   56.05   12.65
   0 -14   0  986.13   47.50
   0 -14   0 1077.53   63.41
   0  14   0 1079.98   53.26
   0  14   0 1046.69   62.57
   0  14   1   89.83    8.35
   0  14  -1  104.18    6.59
   0 -14  -1   83.21    8.24
   0  14   1   98.13    8.79
   0 -14   1   93.36    5.52
   0 -14   1   90.83    8.23
   0  14  -1   94.65    8.98
   0 -14  -2  312.81   17.31
   0  14   2  337.32   17.32
   0 -14  -2  324.02   17.90
   0  14   2  305.39   19.44
   0  14  -2  339.03   22.23
   0 -14   2  299.72   18.49
   0  14   3  857.52   43.30
   0 -14  -3  853.11   36.15
   0  14   3  835.73   41.48
   0 -14   3  813.47   44.21
   0 -14   3  903.99   55.56
   0 -14  -4  540.15   27.36
   0  14   4  521.15   24.55
   0 -14   4  541.44   24.94
   0  14   4  549.54   30.99
   0  14   5  278.21   18.70
   0 -14  -5  316.07   17.27
   0 -14   5  272.20   17.47
   0  14   5  306.29   18.87
   0  14   6   64.86   12.59
   0  14   6   52.12   10.33
   0 -14  -6   71.00   18.47
   0 -14  -7   81.56   15.08
   0  14   7  101.86   15.97
   0  14   7   86.46   12.98
   0  14   8   34.42   16.38
   0  14   8   73.41   14.00
   0 -14  -8   33.55   13.17
  -1  14   0  618.50   24.01
   1  14   0  664.49   35.27
  -1 -14   0  679.02   40.95
  -1  14   0  623.39   32.28
   1 -14   0  654.79   31.05
   1  14   0  615.13   29.85
   1 -14   0  683.67   41.43
   1 -14   0  598.98   21.76
  -1  14  -1  419.49   25.26
   1  14  -1  432.23   22.91
   1 -14   1  473.82   23.99
  -1 -14   1  369.58   24.06
   1 -14  -1  419.48   17.99
   1  14  -1  458.45   24.36
  -1  14   1  422.26   23.38
   1 -14   1  456.50   26.46
   1  14   1  438.75   24.89
   1  14   1  385.83   17.82
  -1  14   1  436.29   20.75
  -1 -14  -1  421.93   30.73
  -1 -14   1  431.68   28.23
   1 -14  -1  417.13   29.13
  -1 -14   2   33.41    7.38
   1  14   2   40.79    8.46
   1 -14  -2   54.75    9.38
  -1  14   2   56.95    5.74
  -1  14   2   56.90    6.98
   1 -14  -2   55.34   10.27
   1  14   2   53.72    7.64
  -1 -14  -2   49.21    7.94
  -1  14  -2   53.40    6.72
   1  14  -2   44.70    7.14
  -1 -14   3  238.73   20.16
  -1  14   3  222.09   15.50
   1 -14   3  204.14   19.77
   1 -14   3  197.85   13.56
   1  14   3  192.37   13.33
   1  14   3  209.76   16.78
   1 -14  -3  213.45   14.81
  -1 -14  -3  211.41   16.21
  -1  14   3  248.12   16.51
  -1  14   4   62.40    8.00
  -1 -14  -4   49.37    9.50
   1  14   4   71.47   14.61
   1 -14   4   66.38    7.20
   1 -14  -4   55.28    8.44
   1  14   4   58.82   11.32
  -1 -14   4   64.55    8.46
  -1  14   4   59.60   10.31
   1 -14   4   62.89    6.18
  -1 -14   5   57.22    8.42
  -1  14   5   64.22   10.45
   1 -14   5   68.67    6.71
   1  14   5   64.77   11.02
   1 -14   5   57.91    9.67
  -1  14   5   65.89   12.42
   1  14   5   70.26   10.62
   1 -14  -5   49.80   10.99
  -1 -14  -5   47.36   13.58
   1 -14   5   68.52    7.19
  -1  14   6   34.72   12.22
   1 -14  -6   18.44    9.64
   1  14   6   15.33   16.93
   1  14   6   -1.78    8.63
  -1  14   6   21.92    9.33
  -1 -14  -6    9.18   10.35
  -1 -14  -7   59.15   13.76
  -1  14   7   69.83   12.68
  -1  14   7   62.64   14.16
   1 -14  -7   51.93   12.55
   1  14   7   45.29   13.28
   1  14   7   52.06   14.28
   1  14   8  111.80   20.70
   1  14   8  100.37   18.68
  -1  14   8   80.30   18.61
   1 -14  -8   57.99   15.53
  -1  14   8  105.98   21.34
  -1 -14  -8  130.75   19.02
   2  14   0   61.17    6.94
   2 -14   0   54.12    5.74
   2 -14   0   53.43    9.20
   2  14   0   66.76    6.62
  -2 -14   0   73.99    6.55
  -2  14   0   39.87    7.24
   2 -14   0   51.45    6.61
   2 -14   1  303.70   16.62
   2 -14   1  282.70   16.23
   2  14  -1  311.04   17.51
  -2 -14   1  305.67   14.21
  -2 -14  -1  308.65   18.18
   2  14   1  300.53   13.33
   2 -14  -1  268.21   13.30
   2  14   1  316.30   20.75
  -2  14  -1  291.79   16.06
   2  14  -1  297.70   18.62
  -2  14   1  289.50   16.44
   2 -14   1  276.53   16.49
   2 -14  -1  300.33   19.41
  -2  14   1  273.98   15.71
  -2  14  -2   18.07    5.06
   2 -14  -2    4.02    6.38
   2 -14  -2   19.06    8.57
  -2  14   2   24.92    7.06
   2 -14   2   11.69    4.63
  -2  14   2   22.40    5.21
   2  14   2   37.66    8.73
   2  14   2   33.52    7.95
  -2 -14  -2   32.16    5.65
  -2 -14   3  116.85   12.05
   2  14   3  119.81    9.62
   2  14   3  108.29   10.67
  -2  14   3  116.22   10.61
   2 -14   3  112.29    7.21
  -2  14   3  117.07   11.91
   2 -14  -3   87.37   10.61
  -2 -14  -3  131.71   11.09
   2 -14   4  140.12   12.60
  -2 -14  -4  168.47   13.64
   2  14   4  202.67   13.63
   2  14   4  214.10   15.33
   2 -14  -4  186.98   16.93
  -2  14   4  154.72   17.15
   2 -14   4  166.97   11.37
  -2  14   4  163.26   14.45
  -2 -14   4  176.89   14.03
   2  14   5   31.62    9.13
  -2 -14   5   42.68    9.01
  -2 -14  -5   30.65    9.07
  -2  14   5   46.25   11.70
   2 -14  -5   42.94   11.71
   2  14   5   24.56    9.20
   2 -14   5   39.75    5.68
  -2  14   5   48.44   10.19
   2 -14   5   37.93    6.12
   2  14   6   -0.04    9.76
  -2  14   6   -8.25    8.08
  -2  14   6    8.90    9.45
  -2 -14  -6   -5.32   12.17
   2  14   6   -7.55    9.01
   2 -14  -6   14.42   11.63
   2 -14  -7   39.73   17.02
  -2 -14  -7   28.47   10.14
   2  14   7   38.24   14.42
  -2  14   7   41.34   16.58
   2  14   7   27.56   15.86
  -2  14   7   12.51   11.75
   2  14   8   42.61   16.52
   2  14   8   23.29   18.47
  -2  14   8   24.58   13.12
  -2  14   8   25.07   12.47
  -2 -14  -8   32.72   17.30
   3 -14   0   81.90    5.77
   3  14   0   47.98    6.37
   3  14   0   63.62    6.83
  -3 -14   0   58.80    6.47
   3 -14   0   67.24    7.62
   3 -14   0   74.08   13.08
  -3  14   0   77.39    6.99
   3 -14  -1   23.23    5.55
  -3 -14  -1   21.86    5.93
   3 -14   1   11.63    6.11
   3  14  -1   17.41    5.62
   3 -14  -1   24.68    8.51
   3  14   1   19.92    6.29
   3 -14   1   25.37    4.14
   3  14  -1   20.27    4.25
   3 -14   1   21.68    4.91
  -3  14   1   22.52    7.52
   3  14   1   11.94    4.85
  -3  14  -1   24.59    5.38
   3  14   2 1099.26   72.25
   3 -14   2 1209.93   61.44
   3 -14   2 1139.39   48.26
  -3 -14  -2 1148.28   76.64
  -3  14  -2 1145.01   61.42
   3 -14  -2 1128.58   65.88
   3  14  -2 1153.34   61.73
   3  14   2 1112.56   43.90
   3  14  -2 1141.74   58.67
  -3 -14   2 1228.79   97.27
  -3  14   2 1109.38   51.21
   3 -14  -2 1165.83   42.64
   3 -14   2 1121.07   47.63
  -3  14   3  572.12   29.90
   3 -14   3  641.43   29.46
   3 -14  -3  616.44   26.88
  -3 -14   3  679.58   32.39
  -3  14   3  618.77   34.18
   3  14   3  650.15   27.44
   3  14  -3  674.38   32.32
   3 -14   3  630.70   32.33
   3  14   3  610.13   32.53
   3 -14   4  200.33   13.37
   3 -14   4  221.71   14.38
   3  14   4  234.98   17.35
  -3 -14  -4  230.68   15.04
   3 -14  -4  191.19   18.56
   3  14   4  243.90   19.66
  -3  14   4  208.86   16.10
  -3  14   4  200.58   16.67
   3 -14   4  217.72   12.82
  -3 -14   4  199.36   18.71
   3 -14  -5  174.28   15.45
   3  14   5  176.67   14.98
   3  14   5  148.53   16.18
   3 -14   5  154.62    9.45
  -3  14   5  173.71   16.07
  -3 -14  -5  172.69   16.11
  -3  14   5  176.17   16.06
  -3 -14   5  179.13   16.86
   3 -14   5  171.34   13.45
  -3  14   6    4.81    8.32
   3  14   6   16.59   10.15
  -3  14   6    6.70    8.67
   3 -14  -6    9.56   10.60
   3  14   6   22.98    9.13
  -3 -14  -6    2.37    9.66
   3 -14  -7  214.11   22.10
  -3 -14  -7  221.20   22.15
   3  14   7  215.53   22.93
   3  14   7  247.51   26.68
  -3  14   7  230.97   23.38
  -3  14   7  249.62   18.99
  -3  14   8   38.74   17.81
  -3  14   8   19.14   12.81
   3  14   8   56.25   17.58
  -3 -14  -8   35.48   16.23
   3  14   8   25.32   13.79
   4 -14   0   94.49   11.73
   4 -14   0   51.11    7.70
  -4 -14   0   91.31    9.09
   4  14   0   92.31    7.27
   4  14   0   83.98   10.87
   4 -14   0   58.03    6.48
  -4  14   0   67.90    6.90
   4  14  -1  525.41   28.28
   4 -14   1  597.46   29.94
   4 -14   1  579.81   24.19
   4  14   1  539.01   19.35
  -4  14   1  565.52   28.52
   4 -14   1  566.83   29.58
  -4 -14  -1  560.13   33.77
  -4  14  -1  554.46   34.07
   4 -14  -1  534.48   26.13
   4 -14  -1  537.84   33.42
   4  14   1  549.19   26.76
   4  14  -1  564.62   31.26
   4  14  -2  379.02   21.47
   4  14  -2  389.80   18.59
   4 -14  -2  374.65   22.56
   4  14   2  360.15   23.38
   4 -14   2  411.96   18.78
   4 -14   2  390.67   20.66
  -4 -14   2  375.37   28.42
  -4 -14  -2  366.14   27.52
   4 -14   2  360.11   19.44
   4 -14  -2  343.98   23.97
  -4  14   2  395.49   21.41
  -4  14  -2  372.42   21.36
   4  14   2  353.59   19.57
   4 -14   3   90.00    6.88
   4  14   3   63.36    9.68
  -4  14   3   92.17   11.34
   4  14   3  121.24   11.82
  -4 -14   3   92.59    9.25
   4 -14   3   72.38    7.94
   4  14  -3   93.26    7.25
   4 -14  -3   90.41   10.56
   4 -14  -4   67.68   12.70
  -4  14   4   47.90   10.17
   4 -14   4   65.63    4.45
   4 -14   4   53.15    5.71
   4 -14   4   50.14    5.65
   4  14   4   60.20    9.73
   4 -14   4   53.26    5.13
   4  14   4   56.33    8.72
   4 -14   5    4.57    3.43
  -4  14   5   -4.47    8.83
   4  14   5   12.54   12.84
  -4 -14  -5   12.61    8.40
   4 -14  -5   13.64    8.62
   4  14   5   15.37   10.08
   4  14   6    9.97    9.81
   4  14   6    4.91   11.57
  -4 -14   6   11.75    6.72
  -4  14   6   13.41   12.15
  -4 -14  -6   23.23    9.19
   4 -14  -6    5.76    9.30
   4 -14  -7  134.91   21.13
   4  14   7  120.65   17.54
   4  14   7  142.94   20.88
  -4 -14  -7  150.44   21.95
  -4  14   7  130.76   17.71
   4  14   8  144.11   24.22
  -4 -14  -8  173.86   21.49
   4  14   8  136.77   17.18
  -4  14   8  159.74   22.38
   5  14   0   17.23    4.35
   5  14   0   11.50    6.65
  -5  14   0    7.88    3.66
   5 -14   0    6.45    7.01
   5 -14   0   21.57    8.44
   5 -14   0    9.90    4.88
   5 -14   1   29.70    5.31
  -5 -14  -1   26.44    7.47
  -5  14   1   31.19    5.10
   5 -14  -1   37.57    9.23
   5  14   1   19.96    9.84
   5 -14  -1   43.01    6.88
   5  14  -1   33.39    6.89
  -5  14  -1   21.92    5.15
   5 -14   1   19.55    5.21
   5 -14   1   42.02    6.27
   5  14  -1   31.68    6.36
   5  14   1   39.33    8.07
   5  14  -2  323.21   24.20
   5  14   2  319.32   15.53
   5 -14  -2  293.12   17.62
   5 -14  -2  286.96   16.17
   5 -14   2  285.36   15.89
   5  14  -2  310.98   21.33
   5  14   2  309.15   16.80
  -5  14  -2  303.78   20.87
   5 -14   2  304.37   15.90
  -5  14   2  277.83   19.29
   5 -14   2  331.63   18.09
  -5  14   3  220.93   15.56
   5 -14   3  228.02   13.56
   5  14   3  232.53   18.68
   5  14  -3  251.37   13.99
   5 -14  -3  243.29   16.89
   5  14   3  265.29   16.48
   5 -14   3  217.60   11.34
   5  14   4  245.86   17.37
  -5  14   4  209.39   18.09
   5 -14   4  222.51   16.96
   5  14   4  232.38   18.32
   5 -14  -4  213.98   19.65
   5 -14   4  209.23   14.42
  -5 -14  -5   30.83    8.89
   5 -14  -5   36.56    9.71
  -5  14   5   47.02    9.98
   5  14   5   36.52    9.45
   5  14   5   32.77   10.38
   5  14   6   18.97   14.90
   5  14   6    5.10   10.40
  -5  14   6   -0.04   13.83
  -5 -14   6    5.20   12.00
   5 -14  -6   27.53   11.43
   5 -14  -7   38.99   15.76
   5  14   7   19.50   14.31
  -5  14   7   15.53   12.49
   5  14   7   39.81   15.68
  -5 -14  -7    1.05   14.51
   6  14   0   18.02    6.22
   6 -14   0   -5.20    6.93
   6 -14   0   -5.63    8.07
   6  14   0   11.59    7.31
   6 -14   0    9.23    5.68
  -6  14   0    6.17    5.25
   6  14   1   20.57    7.64
   6 -14   1   43.17    7.59
  -6 -14  -1   32.26    7.07
   6 -14  -1   33.04   10.43
   6  14  -1   37.87    7.10
   6  14   1   30.22    6.34
   6 -14   1   46.59    6.22
   6  14  -1   35.56    8.17
  -6  14  -1   48.49    4.91
  -6  14   1   51.61    8.50
   6 -14  -1   43.31    7.32
   6 -14   1   36.44    5.54
   6  14   2  115.77   17.15
   6  14   2  123.98   13.80
   6 -14   2  111.03    7.40
   6 -14   2  121.34   55.54
  -6  14  -2  113.24    9.61
   6 -14   2   98.69    7.68
  -6  14   2  119.53   10.20
   6  14  -2  116.18    8.31
   6  14  -2   93.31   10.53
   6 -14  -2  108.45   10.73
   6  14   3   80.16   10.42
   6  14   3   90.36   11.43
  -6  14   3   85.22   11.76
   6 -14   3   93.61    8.35
   6 -14  -3   89.67   12.16
   6  14  -3   85.70    7.82
   6 -14   3   85.20    7.46
   6 -14   3   91.06    7.07
   6 -14   4   12.62    3.75
   6  14   4   12.30    8.62
   6  14  -4    6.87    3.68
  -6  14   4    7.59    8.33
   6  14   4   16.78   11.36
   6 -14  -4   -4.67   11.99
  -6  14   5   26.64   10.82
   6  14   5   42.27   10.68
   6 -14  -5   48.15   11.16
   6  14   5   53.56   10.77
  -6 -14  -6   69.68   15.71
   6  14   6   51.47   12.79
  -6  14   6   41.97   14.83
  -6 -14   6   38.58   10.56
   6 -14  -6   41.52   15.84
   6  14   6   50.88   12.65
   6  14   7  112.53   17.39
  -6  14   7   88.54   16.99
   6  14   7  118.01   16.57
  -6 -14  -7  113.51   13.23
   7  14   0  221.65   16.97
  -7  14   0  233.77   15.09
   7 -14   0  228.79   14.93
   7  14   0  219.29   14.50
   7 -14   0  204.26   14.52
   7 -14  -1   67.45   10.15
   7 -14  -1  103.19    9.43
   7  14  -1   72.45    8.40
   7 -14   1   82.50    7.59
  -7  14   1   87.51    9.01
   7  14   1   93.35    9.50
  -7  14  -1   86.72    8.04
   7 -14   1   86.64    9.11
   7  14   1  114.64   13.73
   7 -14   1   81.77    8.61
   7  14  -1  103.93   12.20
   7  14  -2   21.42    8.79
   7 -14  -2   16.48    8.03
   7  14   2   32.58    6.60
   7 -14   2   19.85    3.85
   7  14   2   31.80    8.40
   7 -14   2    9.23    5.71
  -7  14  -2   22.78    3.21
  -7  14   2   28.84    9.03
   7 -14   2   16.15    4.45
   7  14  -2   27.03    4.23
   7  14   3   74.77   11.52
   7  14   3   66.24   11.66
   7  14  -3   60.74    5.75
   7 -14  -3   63.35   12.49
  -7  14   3   64.03   10.73
   7 -14   3   62.96    7.13
   7 -14   3   54.99    6.06
   7  14   4  492.94   34.44
   7  14  -4  468.58   43.65
   7 -14  -4  472.97   27.59
  -7  14   4  465.80   30.43
   7  14   4  494.16   25.86
   7  14   5  359.87   25.07
   7  14   5  331.66   27.78
  -7  14   5  356.70   28.88
   7 -14  -5  333.22   26.62
   7 -14  -6  215.16   20.42
   7  14   6  216.04   26.44
   7  14   6  243.26   22.51
  -7 -14  -6  240.25   20.06
  -7 -14   6  230.79   19.05
  -7  14   6  208.47   24.98
   7  14   7   -3.44   17.10
   7  14   7   -0.08   12.98
  -7 -14  -7   -2.49   13.69
  -7  14   7   16.85   12.95
   8 -14   0   86.56   11.83
  -8  14   0  119.69    8.29
   8 -14   0  123.87   10.42
   8  14   0  114.35   12.74
   8  14   0   83.73   10.76
   8  14   1  125.90   15.83
   8 -14   1  179.54   12.02
   8  14  -1  155.09   11.65
  -8  14   1  180.75   14.30
  -8  14  -1  175.27   11.04
   8 -14  -1  171.65   11.80
   8 -14   1  172.28   12.83
   8  14   1  156.89   12.57
   8 -14   1  166.12   12.42
   8  14  -1  158.24   14.69
   8  14   2  161.78   15.03
   8 -14  -2  135.84   14.56
   8  14   2  122.86   15.73
   8 -14   2  130.70   11.64
   8 -14   2  148.47   13.50
  -8  14  -2  146.60   13.44
  -8  14   2  138.11   11.85
   8  14  -2  130.81   10.81
   8 -14   3   84.19    7.22
  -8  14   3  111.95   12.82
   8 -14   3   98.33    9.57
   8 -14  -3   92.34   13.42
   8  14   3   89.82   11.03
   8  14  -3  117.87   12.06
   8  14   3   88.71   14.48
   8  14   4   35.86    9.07
   8 -14  -4   47.21   11.77
   8  14   4   38.24   10.41
  -8  14   4   41.59   11.08
   8  14   5    6.73   10.84
  -8  14   5   17.91   10.48
   8  14   5   14.46   12.26
   8 -14  -5   18.34   11.16
  -8 -14  -6   46.44   15.21
  -8 -14   6   45.21   11.02
  -8  14   6   47.20   14.39
   8  14   6   23.75   12.74
   8 -14  -6   60.66   12.98
   8  14   6   58.55   19.49
   9  14   0    3.25    9.41
  -9  14   0    4.25    3.89
   9  14   0    5.97    5.49
   9 -14   0    7.45    7.53
   9 -14   0    2.75    6.25
   9 -14   1   49.12    8.85
  -9  14  -1   45.93    4.90
   9 -14   1   44.00    9.45
  -9  14   1   66.46    8.41
   9  14   1   70.16   11.56
   9  14   1   67.27   11.36
   9 -14  -1   44.44   11.16
   9  14  -1   69.78    8.21
   9  14  -1   75.36   13.58
   9 -14  -2   49.73   11.99
  -9  14  -2   46.67    4.51
   9 -14   2   47.42    6.77
   9  14  -2   53.21    7.81
   9  14   2   44.69   10.06
   9  14   2   54.50   11.57
  -9  14   2   43.97    7.20
   9  14   3    8.65   11.14
   9  14  -3   19.37    6.14
   9  14   3   19.47   10.91
   9 -14  -3   31.55   12.30
   9 -14   3   22.68    4.94
  -9  14   3   32.47    7.44
   9  14   4    3.30   12.64
   9 -14  -4    3.25   11.04
  -9  14   4    2.98    7.31
   9  14   4    7.35   10.56
   9  14   5   27.49   12.90
  -9  14   5   50.51   11.54
   9  14   5   38.25   15.89
   9 -14  -5   15.93   12.31
   9  14   6   31.19   19.82
  -9 -14   6   21.67   11.71
   9  14   6   22.20   13.27
  -9  14   6   22.15   12.39
  10  14   0   24.80    8.82
  10 -14   0   31.58    7.90
 -10  14   0   27.21    7.40
  10  14   0   36.02    7.55
 -10  14   1  126.06   12.20
 -10  14  -1  109.61    9.27
  10  14   1  115.50   16.06
  10  14   1  110.50   11.39
  10 -14   1  127.21   12.78
  10 -14  -1  121.43   13.15
  10  14  -1  111.07   11.04
  10 -14  -2   48.12   11.39
  10  14  -2   67.73   10.75
  10  14   2   75.16   14.82
  10  14   2   74.93   13.53
 -10  14   2   92.91   11.12
  10 -14   2   58.96    6.64
  10  14   3   56.75   14.16
 -10  14   3   34.02    9.37
  10  14  -3   34.36    6.93
  10 -14  -3   15.77    9.87
  10 -14   3   28.85    7.80
  10  14   3   11.69    9.97
  10  14   4   86.56   14.00
  10  14   4   86.58   16.83
 -10  14   4   94.40   12.56
  10 -14  -4   92.16   16.85
  10 -14  -5   -5.55   10.08
 -10  14   5   11.21    9.30
  10  14   5   14.30   16.04
  10  14   5    9.29   11.58
 -10 -14   6   48.25   15.52
  10  14   6   60.19   18.26
  10  14   6   42.11   19.26
  11 -14   0   -0.28    9.90
  11  14   0   10.67    9.02
 -11  14   0    1.00    5.89
  11  14   0   -4.62    5.44
  11  14   1   -0.49   10.60
 -11  14   1    9.66    5.90
 -11  14  -1   18.32    4.09
  11  14   1    4.23   12.11
  11 -14  -1    9.03   11.62
  11 -14   1    6.40    9.01
  11  14  -1    2.88    7.06
  11 -14  -2   79.01   11.57
  11  14   2   65.73   12.52
 -11  14   2   53.25    8.85
  11  14   2   53.74   13.69
  11  14  -2   67.04   10.22
  11 -14  -3   90.90   14.47
  11 -14   3   98.66   11.02
  11  14   3  111.18   16.58
  11  14  -3  108.01   11.05
  11  14   3   96.35   16.20
 -11  14   3  103.41   13.41
  11 -14  -4   96.76   16.32
  11  14   4   79.12   16.84
 -11  14   4   94.45   11.42
  11  14   4   97.74   17.18
  11  14   5  128.74   19.75
 -11  14   5  170.45   21.38
  11  14   5  134.95   17.43
  12  14   0  179.14   17.79
  12 -14   0  147.81   14.26
  12  14   0  185.20   21.49
 -12  14   0  167.84   13.88
  12  14   1   25.85    9.86
  12 -14   1    7.20    7.38
 -12  14   1   28.16    8.63
  12 -14  -1   15.72    9.00
 -12  14  -1   21.55    4.55
  12  14  -1   20.01    7.67
  12  14   1   33.05   10.85
  12  14  -2   18.11    7.67
 -12  14   2   13.88   10.03
  12  14   2    9.62    9.35
  12 -14  -2   11.53    9.68
  12  14   2   -2.46   10.44
 -12  14   3   51.26   12.73
  12  14   3   32.30   14.27
  12  14   3   21.46   13.35
  12  14  -3   37.84    8.46
  12 -14  -3   30.04   11.88
  12  14   4    0.08   10.89
 -12  14   4   11.24   10.57
  12 -14  -4   19.45   13.33
  12  14   4   10.21   11.77
  13  14   0   12.84    9.33
 -13  14   0   12.25    7.87
  13 -14   0   -5.29   12.52
  13 -14  -1  101.78   13.11
  13  14  -1  104.91   13.58
  13  14   1  130.17   17.66
 -13  14   1  124.50   12.68
  13  14   1  126.56   15.58
  13  14   2   12.90   10.18
 -13  14   2   10.40    7.44
  13  14   2   11.77   11.11
  13  14  -2   21.82   11.60
  13 -14  -2    1.26   10.96
  13 -14   2   11.74    8.40
  13  14   3  324.17   32.60
  13  14   3  265.88   32.11
  13  14  -3  261.76   22.26
  13 -14  -3  236.98   22.41
 -13  14   3  278.80   22.43
  14 -14   0  267.58   21.46
 -14  14   0  280.39   18.61
  14  14   0  318.91   30.55
  14  14   1   36.80   12.35
  14 -14  -1   32.20   11.06
  14  14   1   39.39   13.94
 -14  14   1   42.22    8.64
  14  14  -1   44.64   12.60
 -14  14   2   39.40   12.55
  14  14  -2   16.70   12.53
  14 -14   2   19.18   10.41
  14  14   2    6.65   13.22
  14  14   2    7.92   13.06
  14 -14  -2   31.10   13.84
   0  15   0    3.78    2.98
   0  15   0    3.92    4.30
   0 -15   0   -1.22    3.20
   0 -15   1    9.51    2.94
   0  15   1   11.79    6.23
   0 -15  -1    6.77    7.14
   0  15  -1    5.29    6.44
   0  15   1    9.91    6.25
   0  15   2    0.29    7.24
   0  15   2    9.75    6.59
   0 -15  -2   -2.03    9.43
   0  15  -2    8.79    4.60
   0 -15  -2    7.73    8.32
   0  15   3  182.39   23.77
   0 -15   3  174.11   13.44
   0 -15  -3  186.90   13.75
   0  15   3  186.31   14.80
   0 -15  -4  456.76   24.61
   0  15   4  475.51   26.27
   0 -15   4  435.65   23.36
   0  15   4  432.21   27.33
   0 -15  -5  278.29   19.22
   0  15   5  287.85   20.06
   0 -15   5  255.84   19.96
   0  15   5  286.77   20.48
   0 -15  -6   43.98   12.25
   0  15   6   46.86   13.77
   0  15   6   41.45   10.97
   0  15   7   74.81   17.83
   0  15   7   48.21   14.96
   0 -15  -7   44.84   18.55
   1  15   0   94.94    7.56
  -1 -15   0   82.98    7.26
  -1  15   0  100.06    7.24
   1 -15   0   87.99    9.88
   1  15   0   63.61    9.64
  -1  15   0   94.67    8.53
   1 -15   0   80.02    7.22
  -1  15  -1   86.29    8.35
   1 -15  -1   97.12    8.00
  -1  15   1   83.21    9.84
   1  15   1   57.21    9.55
   1  15  -1   64.56    7.64
  -1 -15  -1   71.13    9.16
   1  15   1   77.23    8.65
  -1  15   1   80.31    7.26
   1 -15  -1   84.82    8.74
  -1 -15   1   65.22    6.39
   1 -15   1   84.76    6.67
   1  15  -1   66.45    5.91
  -1  15   2   11.18    6.17
   1  15   2   24.82    8.01
   1 -15   2   11.60   11.23
   1 -15  -2   14.80    8.53
   1 -15  -2   12.34    6.84
  -1 -15  -2    6.44    5.73
  -1  15  -2   18.83    5.52
  -1  15   2    6.11    7.34
   1  15  -2   13.47    4.84
  -1 -15  -3  406.37   20.21
   1  15   3  425.22   22.59
  -1  15   3  423.78   25.98
   1 -15   3  435.54   29.71
  -1 -15   3  413.58   27.84
   1 -15  -3  408.42   21.45
  -1  15   3  413.03   35.68
   1 -15   3  380.78   26.14
   1  15   3  418.76   26.77
  -1 -15   4  150.25   12.29
   1  15   4  132.24   13.07
   1 -15   4  145.46   12.63
   1  15   4  162.49   15.82
  -1  15   4  157.28   11.05
  -1 -15  -4  145.87   14.53
  -1  15   4  151.14   15.72
   1 -15  -4  154.08   13.62
  -1  15   5  218.72   18.31
  -1  15   5  231.00   19.63
  -1 -15   5  228.73   23.49
   1 -15  -5  225.48   20.44
   1  15   5  302.70   19.14
   1  15   5  265.33   20.37
  -1 -15  -5  255.62   20.43
   1  15   6  200.59   18.35
  -1  15   6  200.76   20.51
  -1 -15  -6  233.95   21.04
  -1  15   6  208.14   20.94
   1  15   6  218.62   19.15
   1 -15  -6  200.66   19.66
   1 -15  -7   40.32   14.86
  -1 -15  -7   35.92   13.02
   1  15   7   40.73   12.97
  -1  15   7   27.75   11.89
  -1  15   7   12.64   17.66
   1  15   7   42.44   12.45
   2  15   0  407.28   20.81
   2 -15   0  476.04   32.99
  -2  15   0  482.62   29.68
   2 -15   0  491.09   21.38
   2  15   0  448.09   26.32
  -2 -15   0  438.19   24.27
   2 -15   1  421.79   23.20
   2 -15   1  359.47   28.74
   2  15   1  376.99   20.37
   2 -15  -1  416.51   18.21
   2  15  -1  366.61   27.61
   2  15  -1  351.28   18.33
  -2  15   1  398.16   23.80
   2  15   1  393.51   18.28
   2 -15  -1  427.22   29.49
  -2  15  -1  406.46   31.07
   2 -15   1  410.28   18.45
  -2 -15  -1  382.99   22.44
  -2 -15  -2  385.83   30.36
   2 -15   2  384.47   21.36
   2  15   2  392.35   18.92
   2 -15  -2  365.92   20.93
   2 -15  -2  360.83   25.19
   2  15   2  405.06   24.92
  -2  15   2  368.33   26.90
   2  15  -2  390.76   29.14
   2  15  -2  395.24   28.53
   2 -15   2  403.38   22.22
  -2  15  -2  392.58   21.26
  -2  15   2  391.11   19.43
   2  15   3  225.89   16.93
  -2  15   3  236.48   17.90
  -2 -15  -3  189.52   14.86
  -2  15   3  231.73   33.82
   2 -15   3  232.24   15.75
  -2 -15   3  210.21   15.67
   2  15   3  211.03   15.82
   2 -15  -3  202.45   13.91
   2 -15   4    3.69    6.23
   2 -15   4   18.89    5.68
   2  15   4   16.25    7.91
   2  15   4    5.65    7.64
   2 -15  -4    8.12   10.85
  -2 -15  -4   18.25   12.25
  -2  15   4    0.74    6.05
  -2  15   4   13.61    8.03
  -2 -15   4    8.82    5.88
  -2  15   5   50.70   11.67
  -2 -15  -5   40.18    9.92
  -2  15   5   37.93   10.95
   2  15   5   54.64   10.54
   2  15   5   38.62   11.68
   2 -15  -5   46.79    9.39
  -2 -15   5   39.02    8.25
   2  15   6   22.19   10.47
   2  15   6   37.63   10.19
   2 -15  -6   20.92    8.35
  -2  15   6   32.75   10.93
  -2  15   6   21.62   12.51
  -2 -15  -6    3.23   14.88
   2  15   7   73.81   14.03
  -2  15   7   76.74   14.96
   2  15   7  111.62   20.28
   2 -15  -7   65.63   13.13
  -2 -15  -7   84.08   14.28
  -2  15   7   86.00   16.61
  -3  15   0   -0.47    3.82
   3  15   0    1.09    4.90
  -3 -15   0    1.22    5.78
   3  15   0   -4.19    4.00
   3 -15   0    0.73    5.12
   3 -15   0    1.77    3.91
   3 -15   1  182.31   11.47
   3 -15   1  196.26   12.11
   3 -15   1  155.26   13.92
   3  15   1  218.80   15.55
   3 -15  -1  184.46   15.83
  -3  15   1  160.00   11.07
   3 -15  -1  185.93   12.72
  -3  15  -1  195.15   12.58
   3  15  -1  205.16   17.62
   3  15   1  229.09   13.67
  -3 -15  -1  212.51   14.71
   3  15  -1  203.75   10.32
  -3  15  -2  126.03   10.15
   3 -15   2  104.05    8.96
   3 -15  -2  110.35   12.76
  -3 -15   2  116.28   11.96
   3 -15  -2  106.34   12.16
   3  15  -2  136.45   11.84
   3 -15   2  116.45    8.03
   3  15   2  122.30   12.83
   3 -15   2  128.44    6.18
   3  15  -2  123.82    7.76
  -3 -15  -2  127.12   12.86
   3  15   2  119.04    8.64
  -3  15   2  120.46   10.98
   3  15   3  120.53   11.81
   3 -15   3  135.31   10.51
  -3 -15   3  116.21   11.60
  -3  15   3  135.81   10.72
   3  15   3  138.10   14.36
  -3  15   3  131.42   11.88
   3 -15   3  131.84   10.84
   3 -15  -3  129.15   11.43
  -3  15   4   89.46   14.17
  -3  15   4   91.32   14.71
   3 -15   4   81.36    9.26
  -3 -15  -4   91.70   13.42
   3  15   4   94.07   10.07
   3 -15   4   96.63    8.42
  -3 -15   4   91.28   11.04
   3 -15  -4   81.00   13.43
   3 -15   4   82.54    8.19
   3  15   4  113.07   13.11
   3 -15  -5   18.14   11.08
   3  15   5   17.89   10.02
  -3  15   5   14.15    9.22
  -3 -15  -5   23.66   10.33
   3  15   5   13.40   12.19
   3 -15   5    3.20    5.23
  -3  15   5   20.37    8.30
   3 -15  -6   88.06   14.24
  -3  15   6   67.51   12.81
   3  15   6   59.25   13.30
  -3  15   6   79.40   13.15
   3  15   6   73.22   16.94
  -3 -15  -6   41.21   10.99
   3  15   7    8.94   12.08
  -3  15   7    2.23   12.50
  -3  15   7   19.08   14.74
   3 -15  -7   33.08   14.41
  -3 -15  -7   38.97   14.38
   3  15   7   17.12   12.40
  -4 -15   0  571.49   36.36
   4  15   0  580.50   27.48
   4  15   0  578.79   51.48
   4 -15   0  629.57   32.93
   4 -15   0  595.33   31.75
  -4  15   0  595.04   32.88
  -4  15  -1  109.96    9.76
   4 -15   1  111.37    9.84
   4 -15  -1  103.23    9.84
  -4  15   1  101.34   10.48
   4 -15   1  110.82   12.44
   4 -15  -1  108.87   10.45
   4  15   1  127.64   11.63
   4  15  -1  129.58    8.79
   4  15   1  121.49   12.05
   4 -15   1  121.80    7.62
   4  15  -1  126.79   13.50
  -4 -15  -1  110.27   10.48
   4  15   2  154.77   14.36
   4 -15  -2  167.89   14.61
  -4  15   2  130.18   13.11
   4 -15  -2  140.93   13.93
  -4  15  -2  153.56   12.38
   4  15  -2  112.96    8.07
   4 -15   2  147.84   11.03
   4  15   2  127.55   11.85
   4  15  -2  129.84   10.60
   4 -15   2  145.69    8.94
   4 -15   2  137.50   11.51
  -4  15   3   28.01    9.83
   4 -15  -3   33.78    9.32
   4 -15   3   29.03    6.06
   4 -15   3   34.58    5.02
   4  15   3   19.11    8.59
   4  15   3   30.28    8.49
   4  15  -3   31.04    3.86
   4 -15   4   26.26    6.30
   4 -15   4   14.98    3.98
   4  15   4    2.12    6.99
  -4 -15  -4   14.94    7.29
   4  15   4    7.39   11.50
   4 -15   4   10.58    3.99
  -4  15   4   16.05    9.92
   4 -15  -4   33.04   10.63
  -4  15   5   79.05   12.00
  -4 -15  -5  105.22   14.01
   4  15   5  105.63   14.48
   4 -15  -5   86.80   13.00
   4  15   5  120.58   16.59
   4 -15  -6   50.72   16.21
  -4 -15  -6   73.92   13.09
  -4  15   6   52.45   12.89
   4  15   6   70.63   16.79
   4  15   6   47.53   12.23
  -4  15   7   78.22   15.33
  -4 -15  -7   80.23   18.65
   4 -15  -7   28.03   18.87
   4  15   7   65.54   20.45
   4  15   7   61.47   14.92
   5  15   0    7.33    3.75
   5 -15   0   -4.91    5.34
  -5  15   0    1.13    4.02
   5 -15   0   -1.44    4.36
   5  15   0    0.56    7.06
  -5 -15  -1    1.10    5.09
   5 -15  -1    4.45    6.39
   5  15  -1    3.08    5.60
   5  15   1    1.58    4.99
   5  15   1    1.73    4.95
   5 -15   1    7.61    7.49
   5 -15  -1   13.90    6.78
  -5  15  -1    2.15    3.43
   5 -15   1    6.04    5.24
  -5  15   1    9.63    5.06
   5 -15   1   10.92    5.34
   5  15  -1    4.44    3.19
   5  15  -2   36.78    4.99
   5 -15  -2   48.62    8.93
  -5  15   2   54.39   13.07
   5 -15   2   38.92    7.81
   5 -15   2   37.39    7.77
   5  15   2   37.48    8.02
  -5  15  -2   51.69    5.32
   5  15  -2   41.14    7.27
   5  15   2   27.10    7.62
   5 -15   2   45.78    4.62
   5 -15   3  169.06   11.94
   5 -15   3  147.64    8.82
   5 -15  -3  170.92   16.70
   5  15   3  132.84   15.20
   5  15  -3  143.73   12.12
  -5  15   3  165.32   18.08
   5  15   3  154.84   12.59
   5 -15   4   31.40    4.89
   5  15   4   36.44   11.26
  -5  15   4   43.56    7.73
   5 -15  -4   36.86    9.99
   5  15   4   37.61   10.48
   5 -15  -5  107.18   18.02
   5  15   5  108.49   15.21
   5  15   5  111.04   13.24
  -5 -15  -5  108.92   12.93
  -5  15   5  116.96   14.76
  -5 -15  -6  263.03   21.14
   5  15   6  266.42   27.88
  -5  15   6  291.35   22.78
   5  15   6  303.57   25.16
   5 -15  -6  288.48   25.40
  -5  15   7  352.00   27.67
   5  15   7  350.62   28.66
  -5 -15  -7  379.63   30.05
   5  15   7  337.72   21.83
   6 -15   0  284.03   15.93
   6 -15   0  280.55   18.33
  -6  15   0  276.44   19.29
   6  15   0  243.42   21.50
   6  15   0  243.87   15.24
   6 -15  -1  134.15   12.29
  -6  15  -1  170.48   11.45
   6  15   1  165.84   15.58
   6 -15  -1  174.48   15.12
  -6  15   1  167.42   13.58
   6 -15   1  158.56   11.42
   6  15   1  144.62   12.22
   6 -15   1  164.44   10.03
   6 -15   1  192.17   12.17
   6  15  -1  181.76   14.73
   6  15  -1  181.38   13.92
   6 -15  -2   43.34    8.42
   6 -15   2   72.01    9.15
   6  15   2   61.19   11.13
  -6  15  -2   57.13    6.10
   6  15  -2   59.95    9.31
  -6  15   2   64.29   10.12
   6  15  -2   64.63    7.47
   6  15   2   45.03   10.13
   6 -15   2   59.72    6.17
   6 -15   2   45.43    6.46
  -6  15   3  167.92   13.71
   6  15  -3  171.21   13.15
   6 -15  -3  164.00   13.51
   6  15   3  168.58   16.66
   6  15   3  182.98   14.72
   6 -15   3  160.58   13.50
   6 -15   3  170.45   12.04
   6  15   4   36.13   13.07
  -6  15   4    7.79   10.10
   6  15   4   24.37   10.69
   6 -15  -4   12.95    9.39
   6  15   5   32.05   10.69
  -6 -15  -5   34.17   10.42
  -6  15   5   18.66    9.45
   6  15   5   42.82    9.69
   6 -15  -5   31.04   17.21
  -6 -15  -6   92.63   15.05
  -6  15   6  134.36   17.71
   6 -15  -6  105.48   18.41
   6  15   6  142.34   15.41
   6  15   6  120.15   16.14
   6  15   7  207.46   23.50
   6  15   7  235.97   26.15
  -6 -15  -7  235.70   21.44
   7  15   0  331.14   24.44
   7 -15   0  279.38   15.85
   7 -15   0  244.70   21.82
  -7  15   0  283.53   16.91
   7  15   0  315.25   18.43
   7 -15   1  118.20    9.97
   7 -15  -1   88.75   13.82
   7 -15   1  111.38    9.33
   7  15   1  112.00   11.07
   7  15   1  110.90   13.01
   7 -15  -1  108.99   12.02
   7  15  -1  126.17   13.58
   7 -15   1   99.28   11.13
   7  15  -1  115.06   11.23
  -7  15  -1  114.44    9.49
  -7  15   1   98.56    8.63
   7 -15   2   20.65    5.12
   7  15  -2   27.10    5.28
   7  15   2   29.83    6.58
   7 -15  -2   15.96   11.47
   7  15   2   37.69    9.38
  -7  15   2   28.00    6.61
  -7  15  -2   33.87    4.42
   7 -15   2   18.92    5.98
  -7  15   3   16.38    8.05
   7  15  -3    2.18    5.16
   7 -15   3    9.31    5.80
   7  15   3   23.16   11.21
   7 -15  -3   12.16    8.91
   7  15   3   20.09   10.51
   7 -15  -4   27.60   10.23
   7  15   4   39.86   10.98
   7  15   4   39.42   13.03
  -7  15   4   29.30    9.01
  -7  15   5    6.17   10.87
   7  15   5    5.04    8.82
   7  15   5    2.29   10.65
   7 -15  -5   11.20   11.22
  -7 -15  -6    0.08    8.84
   7  15   6   18.33   15.41
   7  15   6    8.56   12.27
   7 -15  -6   -7.91   13.00
  -7  15   6   18.21   14.27
   8  15   0   28.00    8.55
   8 -15   0   21.83    7.01
   8  15   0   37.69    8.98
  -8  15   0   21.97    7.07
   8 -15   0   28.88    6.69
   8 -15  -1  302.25   22.44
  -8  15  -1  276.06   25.56
   8  15   1  315.64   24.39
   8  15  -1  290.09   24.27
  -8  15   1  296.98   20.84
   8  15   1  287.23   19.98
   8  15  -1  327.65   22.81
   8 -15   1  226.33   31.33
   8 -15   1  300.60   19.01
   8 -15  -2   34.22    8.98
   8  15   2   34.78    9.32
  -8  15  -2   29.15    3.67
   8 -15   2   30.28    6.42
  -8  15   2   27.39    9.21
   8  15   2   32.86    7.69
   8  15  -2   19.79    5.60
   8 -15  -3   26.20   10.57
  -8  15   3   27.46   11.47
   8 -15   3   20.28    6.94
   8  15   3   23.72    8.60
   8  15  -3   32.95    6.00
  -8  15   4  235.60   19.35
   8  15   4  251.61   19.28
   8  15   4  247.51   23.31
   8 -15  -4  206.70   20.18
  -8  15   5   45.77   11.12
   8 -15  -5   45.87   15.06
   8  15   5   46.00   13.34
   8  15   5   35.33   12.66
  -8  15   6  183.35   16.98
   8  15   6  177.86   22.11
   8  15   6  180.59   24.34
  -8 -15  -6  160.12   19.37
  -8 -15   6  140.46   19.81
  -9  15   0   95.99    8.84
   9 -15   0  128.72   13.72
   9  15   0  107.45   14.52
   9  15   0  116.01   10.65
  -9  15  -1  108.71    8.99
   9 -15   1  101.83   12.25
  -9  15   1  105.84   11.80
   9  15  -1  103.24   10.19
   9 -15  -1  116.96   11.45
   9  15  -1   94.46   14.63
   9  15   1  115.69   12.83
   9  15   1  103.31   14.91
   9 -15   2  139.82   11.77
   9  15   2  158.03   20.20
   9  15   2  115.24   12.76
  -9  15   2  137.92   12.10
   9  15  -2  148.16   13.02
   9 -15  -2  146.17   16.01
   9  15  -3   32.47    7.10
   9  15   3   24.28    9.71
  -9  15   3   24.02    8.71
   9  15   3   42.69   10.04
   9 -15  -3   25.19   10.70
  -9  15   4   33.61    9.52
   9 -15  -4   38.23   13.30
   9  15   4   35.39   13.63
   9  15   4   34.49   10.58
   9  15   5  154.40   18.19
   9 -15  -5  138.83   20.36
   9  15   5  171.92   23.34
  -9  15   5  181.94   22.61
  -9 -15  -6  118.68   17.17
   9  15   6  131.36   25.12
   9  15   6  145.31   27.46
  -9 -15   6  101.14   18.97
  10  15   0   49.29   12.40
  10  15   0   44.92    8.77
 -10  15   0   47.95    7.38
  10 -15   0   44.11    9.49
  10  15   1   -0.20    8.55
 -10  15  -1   -2.21    3.62
  10 -15  -1   -2.47   11.68
 -10  15   1    3.82    8.46
  10  15   1   -6.82    6.74
  10  15  -1    1.56    6.19
  10 -15   1   -1.87    6.33
  10  15  -2    8.57    5.11
  10  15   2   16.41   10.63
  10 -15  -2    6.62    8.93
  10 -15   2    3.04    5.24
  10  15   2   15.74    9.97
 -10  15   2    2.30    7.49
  10  15  -3   28.96    8.01
  10 -15  -3   30.69   10.57
  10  15   3   31.92   11.28
  10  15   3   16.26    8.83
 -10  15   3   21.68    8.38
  10  15   4   27.91   10.97
 -10  15   4   36.13    9.92
  10 -15  -4   22.13   12.59
  10  15   4    8.08   10.74
  10  15   5   19.01   13.98
  10 -15  -5   -4.32   24.35
 -10  15   5    2.56   10.22
  10  15   5    2.70   15.86
  11  15   0   23.36    9.89
  11  15   0   18.31    7.79
  11 -15   0   21.07    8.64
  11  15  -1  107.55   12.64
  11 -15  -1   92.52   13.10
  11  15   1  107.04   16.93
 -11  15  -1   89.61    8.54
  11 -15   1   76.40   11.99
  11  15   1  109.97   13.15
 -11  15   1   88.67   12.21
  11  15   2   93.38   19.47
  11  15   2   63.69   12.11
  11  15  -2   67.74   12.01
 -11  15   2   82.92   13.16
  11 -15  -2   93.85   15.80
 -11  15   3    8.63    9.37
  11 -15  -3    0.04   10.87
  11  15   3   18.07    8.26
  11  15   3   14.29   15.21
  11  15   4   38.62   12.80
  11 -15  -4   21.86   16.39
 -11  15   4   48.57   15.49
  12  15   0  137.49   18.51
  12 -15   0  168.66   15.22
 -12  15   0  162.70   15.25
  12  15   0  134.36   14.72
  12 -15  -1  189.25   16.67
 -12  15   1  175.58   16.29
  12  15   1  200.95   18.17
  12  15  -1  197.15   17.99
  12  15   1  205.71   23.00
  12  15  -2   57.07   10.91
  12  15   2   57.15   16.00
  12  15   2   55.06   13.33
  12 -15  -2   54.93   16.93
 -12  15   2   59.11   11.67
  12  15   3  103.57   17.37
  12 -15  -3   99.25   15.26
 -12  15   3   97.06   16.51
  12  15   3  103.71   17.40
 -12  15   4   12.01   10.95
  12  15   4   -5.24   11.02
  13 -15   0   41.88   13.30
 -13  15   0   51.30    9.71
  13  15  -1    2.61    7.46
  13  15   1    2.49   10.86
  13  15   1    7.53   13.88
  13 -15  -1   -8.18   14.54
 -13  15   1   10.67    7.26
  13 -15  -2   55.57   18.61
  13  15   2   73.69   15.12
  13  15   2   44.16   17.40
  13  15  -2   59.31   11.81
 -13  15   2   44.49    9.50
   0  16   0  102.29    7.74
   0  16   0   86.80   10.69
   0 -16   0   96.59    9.79
   0  16   1   80.72    7.93
   0  16  -1   79.70    8.86
   0 -16   1   83.45    7.22
   0  16   1   88.92    8.62
   0 -16  -1   91.26    9.89
   0 -16  -1   77.89    9.47
   0  16  -2  244.90   17.04
   0  16   2  215.17   13.50
   0 -16  -2  189.62   16.42
   0 -16  -2  219.25   16.42
   0  16   2  208.81   15.47
   0  16   3    5.76    5.98
   0 -16  -3    5.55    7.61
   0  16   3    4.74    7.42
   0 -16   3    3.02    7.89
   0  16   4  101.64   11.18
   0  16   4  108.48   13.38
   0 -16  -4  104.46   12.73
   0 -16   4   85.17   10.78
   0  16   5   17.75    8.53
   0 -16  -5    5.10    9.43
   0  16   5    0.16   11.95
   0  16   6    1.89   10.27
   0 -16  -6   14.85   12.69
   0  16   6   19.35   12.30
   0  16   7   35.37   13.39
   0  16   7   39.16   14.46
   0 -16  -7   10.85   26.43
   1 -16   0  592.87   28.01
   1  16   0  647.45   31.36
  -1  16   0  606.23   39.93
   1  16   0  637.42   32.16
   1 -16   0  585.35   47.90
  -1 -16   0  594.77   39.50
  -1  16   1  424.20   25.86
   1  16  -1  390.45   30.12
  -1 -16   1  443.78   25.64
  -1  16  -1  390.19   35.26
   1  16   1  437.82   25.48
  -1  16   1  422.46   23.44
  -1 -16  -1  404.91   29.26
   1  16   1  410.25   20.66
   1 -16  -1  405.02   23.74
   1 -16  -1  385.63   20.22
   1  16  -1  433.35   26.44
   1 -16   1  431.89   22.86
   1  16   2  159.45   11.92
  -1  16  -2  184.62   14.83
   1  16  -2  182.62   16.50
  -1 -16  -2  171.04   14.26
  -1  16   2  153.19   14.52
  -1 -16  -2  162.09   12.43
   1  16   2  191.90   16.85
   1 -16  -2  185.70   12.84
  -1  16   2  173.05   13.27
   1 -16  -2  148.88   14.79
  -1 -16  -3  150.04   12.13
   1  16   3  152.24   14.17
  -1  16   3  162.29   16.42
   1 -16   3  137.45   12.06
   1  16   3  153.47   11.55
  -1  16   3  170.64   12.98
  -1 -16   3  161.45   13.79
   1 -16  -3  159.88   13.07
   1  16   4  162.82   18.32
   1 -16  -4  133.95   14.34
  -1 -16   4  150.44   17.07
  -1 -16  -4  139.56   16.41
   1 -16   4  111.68   13.82
  -1  16   4  141.53   15.54
  -1  16   4  137.30   14.05
   1  16   4  142.31   13.23
   1  16   5   24.90   11.50
  -1  16   5   32.12   14.72
  -1  16   5   48.42   14.61
   1  16   5   29.15   12.23
  -1 -16  -5   44.34   14.17
   1 -16  -5   42.46   11.68
   1 -16  -6   53.22   14.43
  -1 -16  -6   17.01   13.29
   1  16   6    8.40   16.05
  -1  16   6   41.46   12.08
   1  16   6   45.35   17.11
  -1  16   6   58.51   11.59
  -1  16   7  105.78   22.62
   1  16   7   89.70   17.13
   1  16   7   74.26   16.00
  -1  16   7   54.08   15.14
  -1 -16  -7   59.99   16.86
  -2  16   0  157.81   11.14
   2  16   0  180.37   14.21
   2 -16   0  154.15   12.33
   2  16   0  191.95   10.78
   2 -16   0  149.16   11.26
  -2 -16   0  160.00   12.34
   2 -16   1  141.51   11.90
  -2  16  -1  160.35   12.25
  -2 -16  -1  140.89   13.47
   2  16  -1  155.00    8.97
   2  16   1  157.01   16.85
   2 -16  -1  160.24   13.01
   2  16   1  117.13   10.96
   2 -16   1  153.14    9.33
  -2  16   1  163.82   13.09
   2  16  -1  133.33   11.44
   2 -16  -1  162.69   14.17
   2  16  -2   43.54    7.57
   2 -16  -2   50.30    8.50
   2  16  -2   53.79    3.76
   2 -16   2   44.63    9.01
  -2  16   2   47.53    8.83
  -2  16  -2   71.99    8.08
  -2 -16  -2   52.44    8.89
   2  16   2   53.64    7.74
   2  16   2   57.96   10.08
  -2  16   2   54.85    8.57
   2 -16  -2   64.75    9.22
   2 -16  -3   12.57    8.37
   2  16   3   28.56    9.52
  -2 -16  -3   31.61   12.22
  -2  16   3   31.72    9.41
   2  16   3   31.77   10.86
  -2  16   3   34.07    7.96
   2  16   4  288.01   16.37
   2 -16   4  258.05   21.48
  -2  16   4  284.48   19.86
  -2  16   4  253.57   16.29
   2  16   4  270.97   24.28
  -2 -16  -4  253.52   18.80
   2 -16  -4  278.12   20.89
  -2 -16   4  245.87   24.93
   2 -16  -5  235.89   18.93
  -2  16   5  239.30   22.56
  -2 -16  -5  217.23   19.09
  -2  16   5  225.27   15.98
   2  16   5  231.63   18.77
   2  16   5  230.96   21.17
  -2  16   6   48.45   13.71
   2  16   6   45.52   12.85
  -2  16   6   59.69   18.03
   2 -16  -6   49.94   13.62
   2  16   6   58.23   14.70
  -2 -16  -6   70.23   15.18
   2  16   7  153.10   19.05
  -2  16   7  178.08   22.32
  -2 -16  -7  146.46   21.26
   2  16   7  172.98   23.64
  -2  16   7  191.73   21.77
  -3 -16   0    9.80    4.47
  -3  16   0    6.56    4.25
   3 -16   0    5.99    4.88
   3  16   0   15.13    6.75
   3 -16   0    1.03    7.96
   3  16   0   15.80    4.50
  -3  16   1   79.88   10.31
   3  16   1   67.63   11.03
   3 -16   1   79.52    9.98
   3  16  -1   71.14    7.10
   3 -16   1   87.04    7.01
   3  16  -1   72.78    8.59
   3 -16  -1   73.38    8.78
  -3 -16  -1   73.90   10.08
   3 -16  -1   67.88   10.40
  -3  16  -1   65.93    7.79
   3  16   1   67.39    8.64
   3  16   2   16.64    8.13
   3  16   2   18.46    7.63
   3 -16  -2   20.50    9.56
  -3  16  -2   28.81    6.28
   3  16  -2   20.00    3.50
   3 -16  -2   30.37    9.04
   3 -16   2   28.05    7.60
   3  16  -2   22.83    6.11
  -3  16   2   14.21    9.19
   3 -16  -3   24.14    9.27
   3 -16   3   10.03    4.92
   3  16   3   10.90    6.74
   3 -16   3   21.29    7.38
  -3  16   3   -1.65    6.32
   3  16   3    4.16   11.92
  -3  16   3    9.11    6.93
  -3 -16  -4  203.63   18.08
   3 -16  -4  204.57   16.77
   3 -16   4  206.18   14.57
   3  16   4  202.47   14.68
  -3  16   4  198.97   16.03
  -3  16   4  216.83   16.96
   3  16   4  212.89   18.82
   3  16   5  173.24   18.87
  -3  16   5  132.25   13.17
  -3 -16  -5  180.00   15.83
   3  16   5  166.12   19.21
  -3  16   5  174.53   17.38
   3 -16  -5  184.61   16.85
  -3  16   6   25.73   12.27
  -3  16   6   14.07   11.91
   3  16   6   20.82    9.36
   3  16   6   27.90   19.08
   3 -16  -6   23.85   11.63
  -3 -16  -6   18.20   11.42
  -3  16   7  146.81   19.73
  -3 -16  -7  150.87   35.96
   3  16   7  158.60   20.47
  -3  16   7  177.21   21.71
   3  16   7  150.21   18.16
  -4  16   0   -1.67    4.28
   4  16   0    0.12    6.60
   4 -16   0    6.51    7.49
  -4 -16   0    7.19    6.70
   4 -16   0    5.98    6.88
   4  16   0   11.60    4.10
  -4 -16  -1  392.97   32.34
   4  16   1  434.40   23.47
  -4  16  -1  452.10   30.18
   4  16   1  433.37   28.19
   4 -16  -1  413.58   24.69
   4  16  -1  388.95   21.43
   4  16  -1  436.17   31.90
   4 -16   1  425.77   23.70
   4 -16   1  428.87   23.87
  -4  16   1  457.54   28.51
   4 -16  -1  428.64   20.88
  -4  16  -2  126.96   11.55
   4  16  -2  157.83    9.91
  -4  16   2  133.24   10.99
   4  16   2  128.59   11.67
   4 -16   2  118.83   10.57
   4 -16  -2  115.52   12.48
   4 -16   2  132.99   11.24
   4  16   2  140.78   15.12
   4 -16   2  141.24    9.12
   4  16  -2  147.42   14.43
   4  16   3  309.85   24.40
   4  16   3  312.96   18.33
   4 -16  -3  308.26   19.76
  -4  16   3  293.45   18.76
   4 -16   3  296.08   17.19
   4 -16   3  250.91   17.28
  -4 -16  -4  221.65   16.61
   4  16   4  230.95   18.76
   4 -16  -4  229.85   17.20
  -4  16   4  249.53   23.45
   4  16   4  256.98   17.14
   4 -16   4  233.33   18.56
   4  16   5  164.81   20.05
   4 -16  -5  183.84   17.15
  -4  16   5  163.62   16.24
  -4 -16  -5  186.17   20.63
   4  16   5  179.74   16.28
   4  16   6   56.84   14.12
   4  16   6  112.62   18.55
   4 -16  -6   86.90   16.61
  -4  16   6   64.40   14.02
  -4 -16  -6   81.69   14.27
   4  16   7   66.62   16.11
   4  16   7  100.51   19.21
   5 -16   0  141.80   11.99
   5  16   0  195.82   20.34
   5 -16   0  147.16   13.02
   5  16   0  186.57   12.81
  -5  16   0  150.44   12.47
  -5  16  -1  273.24   19.45
   5 -16  -1  236.50   20.01
   5 -16   1  274.12   17.52
  -5 -16  -1  232.06   17.69
   5  16  -1  279.82   22.31
   5  16   1  263.43   28.28
   5 -16   1  278.82   16.21
   5  16  -1  265.86   14.97
   5 -16  -1  250.34   17.81
   5  16   1  246.49   16.00
  -5  16   1  300.76   18.15
   5  16   2  182.82   12.58
  -5  16  -2  153.75   13.10
   5  16   2  183.42   15.09
   5 -16   2  184.17   14.50
   5  16  -2  201.09   13.08
   5 -16   2  154.96   12.04
   5  16  -2  181.24   18.87
   5 -16  -2  164.03   12.73
  -5  16   2  172.47   13.44
   5 -16  -3   14.76   11.25
   5  16   3   25.92    7.73
   5 -16   3   19.81    5.32
  -5  16   3   26.06    8.79
   5  16   3   20.40   11.77
   5  16   4   57.14    9.43
  -5  16   4   53.28   13.85
   5 -16  -4   71.48   14.59
   5  16   4   55.05    9.93
  -5 -16  -5    3.62    9.86
  -5  16   5    9.05    9.59
   5  16   5   28.74   10.19
   5  16   5   23.80   15.55
   5 -16  -5   20.18   10.91
   5  16   6   75.29   15.74
   5 -16  -6  101.30   15.49
  -5 -16  -6   71.53   14.31
  -5  16   6   65.21   14.60
   5  16   6   95.15   19.50
   6 -16   0   15.58    6.13
   6 -16   0   16.42    6.79
   6  16   0   28.46    7.00
  -6  16   0   18.31    4.88
   6  16   0   26.99    7.92
  -6  16  -1   35.09    5.71
   6 -16  -1   34.55    8.58
  -6  16   1   28.45    6.66
   6  16  -1   36.13    7.62
   6 -16  -1   28.81    9.61
   6  16   1   42.80    8.87
   6  16   1   49.96    9.28
   6  16  -1   44.55    9.24
   6 -16   1   30.32    5.47
   6 -16   1   31.29    7.62
   6 -16  -2  145.54   11.72
  -6  16   2  145.49   14.54
   6  16   2  139.14   14.34
  -6  16  -2  134.56   14.48
   6  16  -2  131.69    9.78
   6 -16   2  151.99   12.16
   6  16   2  131.50   11.92
   6  16  -2  127.49   14.43
   6 -16  -3  134.46   15.84
   6 -16   3  129.49   10.08
   6  16   3  145.73   15.01
   6  16   3  142.03   14.76
  -6  16   3  139.96   15.83
   6  16   4   79.46   12.29
   6 -16  -4   75.39   12.52
   6  16   4   55.25   15.56
  -6  16   4   56.95   11.55
  -6  16   5   59.26   17.31
   6  16   5   78.98   15.93
   6 -16  -5  105.92   28.51
  -6 -16  -5   92.15   13.98
   6  16   5   55.15   12.94
  -6 -16  -6   79.60   15.27
   6  16   6   79.14   14.45
   6  16   6   70.41   14.59
   7  16   0   56.92   11.38
   7 -16   0   48.33   12.89
   7 -16   0   64.49   12.40
  -7  16   0   56.20    7.22
   7  16   0   56.67    6.52
   7  16  -1  119.10   16.29
  -7  16  -1  135.10   13.17
   7  16   1  126.50   11.53
  -7  16   1  143.92   12.65
   7 -16   1  124.25   11.12
   7  16   1  136.13   15.46
   7  16  -1  104.55   10.87
   7 -16  -1  148.91   14.44
  -7  16  -2   51.57    6.59
   7  16  -2   67.53   24.32
  -7  16   2   68.35    9.47
   7 -16  -2   60.90   10.17
   7  16   2   61.13   12.84
   7  16   2   64.80    9.52
   7 -16   2   51.21    7.08
   7 -16   3   78.66    7.71
   7  16   3   54.86   11.18
  -7  16   3   94.98   11.27
   7 -16  -3   81.01   13.11
   7  16   3   91.92   14.20
   7  16   4   31.94   11.57
  -7  16   4   71.84   11.27
   7 -16  -4   55.97   13.66
   7  16   4   48.80    9.91
  -7 -16  -5  113.61   14.90
   7  16   5   91.97   20.91
   7  16   5   95.74   16.10
   7 -16  -5   86.90   14.10
  -7  16   5  112.43   17.41
  -7 -16  -6  110.59   15.92
  -7  16   6  155.50   20.11
   7  16   6  190.43   25.92
   7  16   6  175.38   25.92
   8  16   0   31.50    9.18
  -8  16   0   18.11    6.39
   8  16   0   19.32    8.83
   8 -16   0   17.47    7.41
   8 -16   1   39.37    8.20
   8  16   1   23.78   12.93
  -8  16  -1   42.87    5.18
   8  16  -1   35.49    7.87
   8  16   1   29.08    8.19
  -8  16   1   45.23    6.49
   8  16  -1   23.72    8.58
   8 -16  -1   51.96    9.50
   8  16   2   50.04   11.34
   8  16  -2   58.17    9.75
   8  16   2   46.88   10.95
  -8  16   2   45.59    9.08
  -8  16  -2   39.11    5.48
   8 -16   2   30.18    8.90
   8 -16  -2   67.39   14.50
   8 -16  -3    5.34    9.57
  -8  16   3    7.61   11.27
   8  16   3    5.04   11.15
   8  16   3    9.97    8.03
  -8  16   4   74.09   12.58
   8  16   4   69.86   17.13
   8  16   4   48.96   10.89
   8 -16  -4   71.14   16.01
  -8  16   5  205.44   19.29
   8  16   5  187.50   20.40
   8  16   5  191.95   22.89
   8 -16  -5  226.97   28.75
   9  16   0   86.00   14.91
   9 -16   0   86.80   11.31
   9  16   0   93.51   11.19
  -9  16   0   90.57    9.40
   9 -16  -1  229.84   21.02
   9  16  -1  249.96   16.65
   9 -16   1  224.03   18.62
   9  16   1  245.56   22.84
  -9  16  -1  242.22   26.32
   9  16   1  246.22   23.31
   9  16  -1  221.22   22.48
  -9  16   1  258.90   20.45
   9  16  -2   51.28    7.96
   9  16   2   53.13   10.78
   9  16   2   45.46    9.94
   9 -16  -2   35.11   13.54
  -9  16   2   46.74    9.87
  -9  16   3  -11.21   10.98
   9 -16  -3    9.77    9.93
   9  16   3    1.13   10.03
   9  16   3    1.04    8.52
   9  16   4   15.16   12.48
  -9  16   4   26.08   14.16
   9 -16  -4   -5.08   16.89
   9  16   4   15.34   10.58
   9  16   5   36.41   17.18
   9  16   5   38.42   14.14
  -9  16   5   20.84   13.44
 -10  16   0  235.35   16.00
  10  16   0  192.80   21.96
  10  16   0  231.24   18.58
  10 -16   0  212.30   19.33
  10  16   1   53.32   13.24
 -10  16  -1   65.27    6.47
  10  16   1   47.10   12.42
  10 -16   1   46.33    8.52
  10 -16  -1   42.50   11.80
  10  16  -1   61.74    8.87
 -10  16   1   64.80   10.42
  10  16  -2    6.03    8.39
 -10  16   2    0.16    7.92
  10  16   2   14.44    8.00
  10 -16  -2   13.84    9.91
  10  16   2   18.33   10.05
 -10  16   3  130.33   15.44
  10  16   3  142.11   17.82
  10 -16  -3  116.21   16.73
  10  16   3  117.09   13.91
  10  16   4   32.05   13.37
  10 -16  -4   -0.84   11.79
 -10  16   4    1.99   10.05
  10  16   4   14.89   17.59
  11 -16   0  139.65   13.79
 -11  16   0  159.89   13.97
  11  16   0  156.32   20.65
  11  16   0  168.35   15.39
  11 -16  -1   74.28   14.73
  11  16   1   85.16   14.54
 -11  16   1   79.64   10.55
  11 -16   1   78.15   10.85
  11  16   1   91.86   17.28
  11  16  -1   67.44   10.05
 -11  16   2   30.55   10.41
  11 -16  -2   21.49   10.12
  11  16   2   36.93   11.16
  11  16   2    2.17   16.26
  11  16   3  124.92   19.78
  11 -16  -3  131.33   17.18
  11  16   3  144.02   18.37
 -11  16   3  146.22   18.13
  11  16   4  117.79   18.57
 -11  16   4  132.70   16.85
  11  16   4  141.42   20.34
  12 -16   0  131.54   15.56
 -12  16   0  111.66    9.66
  12  16   0  120.18   16.36
  12  16   0  115.37   13.58
  12 -16  -1   31.74   11.45
  12  16   1   64.60   16.62
  12  16  -1   56.62   11.51
 -12  16   1   46.05    8.31
  12  16   1   51.28   11.74
  12  16   2   27.13   15.69
 -12  16   2   -0.08    7.87
  12  16   2   13.00   11.89
  12 -16  -2   11.24   11.85
 -12  16   3  121.47   17.52
  12  16   3  109.08   15.24
  12  16   3  104.52   18.24
  13  16   0   36.21   13.52
  13  16   1   94.80   17.63
  13  16   1  110.88   21.08
  13  16  -1  101.17   13.89
   0 -17   0    2.09    4.29
   0  17   0    2.40   10.33
   0  17   0   -2.80    5.18
   0  17   1  366.21   21.83
   0  17  -1  339.36   27.41
   0 -17   1  373.00   20.70
   0 -17  -1  384.58   27.38
   0 -17  -1  386.31   25.24
   0  17   1  369.96   26.28
   0  17   2   72.68   10.25
   0  17   2   46.94   10.11
   0  17  -2   74.04    9.65
   0 -17  -2   70.97   11.24
   0 -17   3  268.71   21.24
   0  17   3  279.06   16.42
   0 -17  -3  298.03   18.61
   0  17   3  302.29   21.06
   0 -17   4  187.61   34.84
   0 -17  -4  239.18   16.80
   0  17   4  229.38   19.28
   0  17   4  281.28   18.96
   0  17   5   51.53   12.48
   0  17   5   60.20   13.21
   0 -17  -5   48.03   13.09
   0 -17  -6   55.65   13.91
   0  17   6   41.40   12.26
   0  17   6   37.91   14.56
   1 -17   0   19.07    7.11
   1 -17   0   13.60    6.27
  -1  17   0   25.70    5.83
  -1 -17   0   22.69    4.19
   1  17   0   26.25    5.56
   1  17  -1   13.64    5.89
  -1 -17  -1   10.08    5.35
   1  17   1   14.99    7.00
   1 -17   1   28.39    7.65
   1 -17   1   23.21    3.90
   1  17   1   10.68    7.21
   1 -17  -1   19.99    6.76
   1 -17  -1   15.81    8.34
  -1  17  -1   17.90    6.61
   1  17  -1   24.36    4.64
  -1  17   1   23.65    8.80
  -1  17   1   28.30    5.31
  -1 -17  -2   83.20    9.95
  -1  17  -2   92.04    9.12
   1  17  -2   96.31   11.34
   1  17   2   97.77   12.30
  -1  17   2  109.70   10.44
  -1  17   2   80.81   13.99
   1 -17  -2   85.74   11.59
   1  17   2   86.82    9.70
   1 -17   3  169.77   17.17
  -1  17   3  167.13   14.79
  -1  17   3  205.98   17.21
   1  17   3  207.78   16.18
   1 -17  -3  168.79   14.61
   1  17   3  193.71   17.49
  -1 -17  -3  186.31   16.97
  -1  17   4   93.90   13.52
  -1  17   4   68.73   12.37
  -1 -17  -4   58.16   12.49
   1  17   4   63.14   14.51
   1  17   4   70.51   12.22
   1 -17  -4   87.89   12.48
  -1 -17  -5   20.03   13.29
   1 -17  -5   34.90   10.93
  -1  17   5   29.14    9.43
  -1  17   5   27.28   10.42
   1  17   5   27.47   11.19
   1  17   5   23.39   15.17
  -1  17   6   36.30   11.15
   1 -17  -6   39.98   15.71
  -1  17   6   36.52   17.34
   1  17   6   34.83   17.33
   1  17   6   43.62   10.88
  -1 -17  -6   39.05   12.76
   2  17   0   47.95    9.27
   2  17   0   46.67    8.98
  -2 -17   0   40.40    6.22
   2 -17   0   24.54    4.54
  -2  17   0   25.46    6.37
   2 -17   0   15.21   10.51
   2 -17   1   56.47    6.14
  -2 -17  -1   42.66    9.87
   2 -17  -1   46.69    7.67
   2 -17  -1   52.02    8.78
  -2  17   1   66.25    8.69
  -2  17  -1   67.30    8.76
   2  17  -1   47.39    9.38
   2  17  -1   57.94    6.27
   2  17   1   46.12    9.22
   2  17   1   53.83    7.98
   2 -17   1   52.54    6.96
   2 -17   2  158.23   12.53
  -2  17   2  156.39   13.89
  -2  17   2  154.04   12.82
   2  17   2  175.84   12.80
  -2  17  -2  184.82   13.17
   2  17   2  159.98   17.44
   2  17  -2  188.94   19.83
   2 -17  -2  194.53   15.11
   2 -17  -3   52.15   11.37
  -2 -17  -3   45.82    8.99
   2 -17   3   48.89    9.60
   2  17   3   38.70   11.24
  -2  17   3   53.15   10.62
  -2  17   3   44.11    9.29
   2  17   3   51.15   10.56
  -2  17   4    7.04   10.08
   2  17   4   17.62    9.82
   2 -17   4    4.56    6.04
  -2  17   4   11.00   12.10
   2  17   4   13.48    8.52
  -2 -17  -4   18.38    9.86
   2 -17  -4  -15.68   11.90
   2 -17  -5   43.94   12.15
   2  17   5   70.90   14.13
  -2  17   5   43.94   15.60
  -2  17   5   37.81   11.83
  -2 -17  -5   44.26   15.67
   2  17   5   64.83   13.30
  -2  17   6    8.03   11.78
   2  17   6   18.33   12.72
   2 -17  -6   -5.39   12.11
  -2 -17  -6   12.96   13.48
   2  17   6   10.88   13.66
  -2  17   6   16.73   16.10
  -3 -17   0  109.64   12.17
   3 -17   0  114.32   10.96
   3 -17   0  108.51    9.42
   3  17   0  120.96   11.97
   3  17   0  129.55   13.26
  -3  17   0  109.73   11.88
  -3  17  -1  197.68   14.20
  -3 -17  -1  169.30   16.24
   3  17   1  196.96   14.81
   3  17  -1  209.15   19.73
   3  17   1  172.44   15.05
   3 -17  -1  169.12   15.40
   3 -17  -1  170.47   14.75
   3 -17   1  187.42   10.77
   3  17  -1  204.44   14.31
  -3  17   1  187.55   13.99
  -3  17   2   92.99   11.20
   3 -17   2   98.96   11.00
   3  17   2   91.59   13.14
   3 -17  -2  100.49   13.46
   3  17   2   99.34   10.92
  -3  17  -2  110.89   11.90
   3  17  -2  100.83   11.90
   3  17   3    9.65    7.99
   3 -17   3   12.33    6.45
   3 -17  -3   39.44   10.21
   3  17   3   31.14    8.87
  -3  17   3   15.97    9.37
   3  17   4  111.77   18.80
   3  17   4  115.19   13.91
  -3  17   4  131.95   14.30
   3 -17   4  107.84   10.08
   3 -17  -4  119.27   12.92
  -3 -17  -4  107.36   13.05
  -3  17   5   17.58    9.51
   3  17   5   20.76   10.34
  -3 -17  -5   35.67   12.21
   3  17   5   40.06   11.15
  -3  17   5   29.50   12.87
   3 -17  -5   44.48   13.38
  -3 -17  -6   61.96   17.55
   3 -17  -6   13.59   12.98
   3  17   6   44.60   13.61
   3  17   6   40.85   15.02
  -3  17   6   38.32   12.10
  -3  17   6   43.58   19.65
  -4 -17   0  120.16   14.16
   4 -17   0  130.44   13.22
   4 -17   0  136.85   13.21
  -4  17   0  142.71   12.30
   4  17   0  139.49   15.09
   4  17   0  132.87   10.46
   4 -17   1   -4.47    6.96
   4 -17  -1   10.69    6.20
  -4  17  -1    2.53    5.52
   4  17  -1    7.54    5.75
   4  17  -1    2.08    6.84
  -4  17   1    9.77    7.68
  -4 -17  -1   -3.44    9.50
   4 -17  -1  -10.57    7.28
   4  17   1   -0.16   10.42
   4  17   1    2.26    5.42
  -4  17  -2   34.41    6.22
   4 -17  -2   25.01   12.33
   4  17  -2   36.06    7.51
   4 -17   2   38.21    7.45
  -4  17   2   40.20   10.21
   4  17   2   40.75   10.35
   4  17   2   29.34    8.55
  -4  17   3  138.44   13.27
   4  17   3  135.31   15.56
   4  17   3  136.97   13.19
   4 -17   3  134.19   11.59
   4 -17  -3  117.75   14.12
   4 -17  -4  281.89   17.07
   4  17   4  261.22   22.13
   4  17   4  230.55   19.92
  -4 -17  -4  229.67   21.02
  -4  17   4  259.49   22.80
   4  17   5  143.15   17.79
   4  17   5  171.39   21.03
  -4  17   5  180.26   17.76
  -4 -17  -5  165.91   19.28
   4 -17  -5  184.99   22.07
  -4 -17  -6    1.77   12.70
   4  17   6    3.28   14.51
  -4  17   6   -2.88   17.25
   4  17   6   19.18   12.22
   5  17   0  422.98   41.67
  -5  17   0  430.74   26.87
   5 -17   0  418.73   23.29
   5  17   0  418.86   25.29
  -5  17   1   80.35    8.08
   5  17  -1   78.03    7.62
  -5  17  -1  104.99   10.24
   5 -17  -1   53.22   12.19
   5  17   1   97.98   11.36
   5  17  -1   95.72   13.41
   5 -17   1   92.00   12.62
   5 -17  -1   80.66   10.05
   5  17   1   78.91   11.26
   5  17   2   10.28    7.38
   5 -17   2    1.41    8.63
   5  17   2    6.49    6.78
   5  17  -2   10.04    7.34
  -5  17  -2    5.05    3.53
  -5  17   2    3.51    7.32
   5 -17  -2   20.71   12.57
   5  17   3  117.24   16.37
  -5  17   3  137.85   12.98
   5 -17  -3  138.44   14.36
   5  17   3  142.68   15.32
   5 -17   3  138.18   11.83
  -5  17   4   27.59    9.10
  -5 -17  -4   21.35    9.74
   5 -17  -4   54.95   15.36
   5  17   4   32.79   13.37
   5  17   4   17.06   14.95
   5  17   5   33.83   14.28
   5  17   5   19.29   11.99
   5 -17  -5   40.90   14.18
  -5  17   5   20.50   12.65
  -5 -17  -5   26.10   12.63
  -5  17   6   32.32   18.69
   5  17   6   23.74   13.69
   5  17   6   -5.56   13.61
  -6  17   0   57.04    8.59
   6  17   0   50.45    9.91
   6 -17   0   46.35    9.16
   6  17   0   40.87   10.39
   6 -17   1  199.47   15.72
  -6  17  -1  201.39   15.14
   6  17  -1  151.65   14.35
   6 -17  -1  205.00   14.45
   6  17   1  164.05   12.57
  -6  17   1  187.17   15.67
   6  17  -1  193.13   17.90
   6  17   1  166.01   19.01
   6  17   2   65.45   12.99
   6 -17   2   58.50    9.55
  -6  17  -2   57.27    7.34
   6 -17  -2   57.19   10.71
   6  17  -2   64.52    9.86
  -6  17   2   63.68    8.43
   6  17   2   65.91   12.63
   6 -17  -3  204.28   16.28
  -6  17   3  214.87   16.32
   6  17   3  187.96   18.24
   6 -17   3  194.41   14.83
   6  17   3  208.98   18.04
   6  17   4   83.75   14.76
  -6  17   4   67.60   13.40
   6 -17  -4   93.07   15.15
   6  17   4   85.46   15.25
  -6 -17  -5   90.04   15.10
  -6  17   5   81.71   13.81
   6  17   5  109.23   20.51
   6 -17  -5   93.02   16.05
   6  17   5   92.22   15.77
   6  17   6  -18.93   17.25
   6  17   6   28.88   21.01
   7 -17   0  184.70   12.63
   7  17   0  208.54   17.07
   7  17   0  178.26   16.28
  -7  17   0  179.98   18.91
   7  17  -1  301.53   31.14
  -7  17   1  278.87   19.36
   7  17  -1  312.57   25.38
   7 -17  -1  297.97   21.99
   7  17   1  278.88   26.09
   7 -17   1  285.35   18.16
  -7  17  -1  267.43   24.73
   7  17   1  313.28   24.00
   7 -17  -2  151.63   16.91
  -7  17   2  149.88   12.17
   7  17   2  138.62   19.28
   7  17   2  148.67   14.71
   7 -17   2  165.07   13.66
  -7  17  -2  139.15   16.74
   7  17   3   38.39   10.96
   7 -17  -3   29.14   10.49
  -7  17   3   35.28   10.41
   7  17   3   26.40    8.96
  -7  17   4   41.68   10.78
   7 -17  -4   55.76   19.63
   7  17   4   63.49   14.99
   7  17   4   39.06   16.50
   7  17   5   66.86   14.84
   7 -17  -5   44.18   17.82
  -7 -17  -5   83.56   13.82
  -7  17   5   83.04   15.48
   7  17   5   82.13   18.59
   8  17   0   20.95   12.92
   8 -17   0    4.29    7.84
  -8  17   0    2.89    5.83
   8  17   0    9.25    8.45
   8  17   1   10.15   11.18
   8 -17   1    6.27    9.98
   8  17   1   10.96    9.88
   8  17  -1   -1.92    7.25
  -8  17  -1    6.89    4.89
   8 -17  -1    4.34    9.60
   8  17  -1   -2.53    5.43
  -8  17   1    4.57    7.69
  -8  17   2   63.65    9.57
   8 -17   2   52.14    8.92
   8  17   2   60.37   10.85
   8  17   2   57.50   15.32
   8 -17  -2   46.68   11.21
   8  17   3   32.29   16.41
   8 -17  -3   15.72   11.60
   8  17   3   21.82   12.71
  -8  17   3   37.05   10.23
  -8  17   4    7.88   10.20
   8  17   4    8.19   11.51
   8  17   4   21.60   11.56
   8 -17  -4   13.63   18.30
   8  17   5  125.27   23.70
   8  17   5   94.92   20.11
  -8  17   5  128.89   17.79
   9 -17   0   -0.79    9.01
  -9  17   0   -6.23    5.84
   9  17   0   -1.01   10.81
   9  17   0    1.24    6.75
   9 -17   1   93.89   13.43
  -9  17  -1   70.51    9.64
   9 -17  -1  101.43   11.38
   9  17  -1   98.48   13.82
   9  17   1   95.55   16.02
  -9  17   1   83.51   11.78
   9  17   1  109.15   11.68
   9  17  -1  104.00   12.81
   9  17   2   39.40    9.72
   9 -17  -2   14.62   12.53
  -9  17   2   43.57    8.70
   9  17   2   38.82   11.79
   9 -17  -3    0.94   11.08
   9  17   3    6.10   11.27
   9  17   3    7.54    8.68
  -9  17   3   12.60    8.62
   9 -17  -4  222.64   23.11
  -9  17   4  206.27   19.68
   9  17   4  205.93   26.78
   9  17   4  218.46   20.89
  10  17   0    9.35   10.34
 -10  17   0    2.60    4.14
  10 -17   0   -0.37    7.63
  10  17   0   17.92   10.46
  10  17   1   14.14    8.57
  10  17   1    7.20   15.29
  10 -17   1    8.99   11.85
  10 -17  -1   17.47    9.49
  10  17  -1   24.48    8.33
 -10  17   1   20.32    7.58
  10  17   2   52.16   13.14
 -10  17   2   85.79   13.57
  10  17   2   82.98   15.53
  10 -17  -2  122.81   16.51
  10  17   3    8.47   10.31
 -10  17   3   19.54   11.93
  10 -17  -3   27.35   27.66
  10  17   3   14.93   19.03
 -10  17   4   96.30   17.99
  10  17   4  101.52   16.39
  11 -17   0    7.70    9.43
  11  17   0   -5.29   11.57
  11  17   0   14.85   10.64
 -11  17   0   25.24    6.35
  11  17   1   43.32    8.92
 -11  17   1   38.73    8.17
  11 -17  -1   22.23   10.95
  11  17   1   32.80   12.97
  11  17  -1   44.97    8.82
  11  17   2   18.61   14.44
  11  17   2   29.08   12.91
  11 -17  -2   27.68   18.21
 -11  17   2   26.48   11.37
  11  17   3   11.26   14.62
 -11  17   3   21.66   12.65
  11  17   3    4.01   11.54
  12  17   0   26.63   14.32
  12  17   0   54.90   15.12
  12 -17  -1   38.07   13.88
  12  17   1   29.03   10.08
  12  17   1   32.34   14.35
 -12  17   1   33.64   10.09
   0  18   0    9.85    3.45
   0  18   0   15.36    7.18
   0  18  -1   42.70    8.79
   0  18   1   40.06   10.10
   0  18   1   44.60    7.50
   0 -18  -1   38.02    8.95
   0 -18  -1   30.12    7.60
   0  18   2   42.43    9.98
   0  18   2   46.74    8.74
   0 -18  -2   42.97    9.89
   0  18  -2   63.39    8.97
   0 -18  -3  101.90   12.19
   0  18   3   79.08   12.69
   0  18   3   67.45    8.23
   0 -18  -4   47.36   16.34
   0  18   4   54.74   13.30
   0  18   4   74.65   13.93
   0 -18  -5    5.25   17.37
   0  18   5   29.46   11.40
   0  18   5   15.35   11.21
   0  18   6   -2.36   15.80
   0  18   6   -4.35   12.93
   1  18   0   -0.66    8.70
   1 -18   0    8.91    7.74
  -1  18   0   12.61    7.36
   1  18   0   13.21    4.39
   1 -18  -1   24.02    9.28
   1  18  -1   32.63    6.89
  -1  18   1   29.15   11.32
   1  18   1   49.17    9.21
  -1 -18  -1   37.18    8.05
  -1 -18  -1   27.74    8.75
   1 -18   1   28.87   10.68
   1  18   1   40.47    6.99
  -1  18   1   33.57    6.28
  -1  18  -1   26.40    7.40
   1 -18  -1   42.01    8.42
   1  18  -2   37.41    7.58
   1  18   2   40.29    9.14
   1 -18   2   44.62    7.53
  -1 -18  -2   27.01    9.77
  -1  18   2   36.82   10.27
  -1  18   2   41.37    8.64
   1  18   2   42.55   10.38
   1 -18  -2   45.90    9.82
  -1  18  -2   59.58    8.89
   1 -18  -3  161.12   16.80
   1  18   3  139.72   12.89
  -1 -18  -3  167.29   14.36
  -1  18   3  140.90   19.82
   1  18   3  149.38   14.84
  -1  18   3  130.88   14.30
   1  18   4   41.75   10.29
   1 -18  -4   32.82   12.05
  -1  18   4   29.02    9.86
   1  18   4   36.67   16.69
  -1  18   4   35.00   12.41
  -1 -18  -4   20.37   10.46
   1 -18  -5   34.94   13.20
  -1 -18  -5    1.09   11.95
  -1  18   5   -3.65   10.13
  -1  18   5   11.88   10.84
   1  18   5   19.24   10.74
   1  18   5    1.28    8.93
   1  18   6   33.31   11.31
  -1  18   6   28.69   11.52
   1  18   6   15.25   19.24
  -1  18   6   28.51   13.64
   2  18   0    0.12    8.41
   2 -18   0   26.91    7.53
   2  18   0   13.48    5.92
  -2  18   0   27.74    6.68
  -2  18   1   72.87    9.87
   2  18   1   50.21   12.84
  -2 -18  -1   43.99   10.56
   2  18  -1   63.11   10.35
   2 -18   1   52.73    8.66
   2 -18  -1   55.63    9.28
   2 -18  -1   52.31   11.02
  -2  18  -1   68.93    9.33
   2  18   1   59.83    7.97
   2  18   2   31.76    9.88
  -2  18  -2   42.51    7.10
  -2  18   2   41.93   11.58
   2  18  -2   49.24    9.58
   2  18   2   39.69   11.20
   2 -18  -2   55.60   17.41
   2 -18   2   49.54    9.79
  -2  18   3  125.19   14.68
   2 -18  -3  107.38   17.21
   2  18   3  104.17   15.83
  -2  18   3   97.89   11.21
   2  18   3  112.40   13.63
  -2 -18  -3   90.86   16.44
   2 -18   3   93.25   12.19
   2  18   4  103.59   13.75
  -2  18   4   98.62   13.39
   2 -18  -4   68.04   11.65
  -2  18   4  100.14   14.05
  -2 -18  -4  108.44   15.87
   2 -18   4   83.89   12.19
   2  18   4   98.84   13.05
  -2  18   5   58.58   13.16
   2  18   5   81.77   15.15
  -2 -18  -5   77.60   14.22
   2  18   5   54.74   16.49
  -2  18   5   73.30   16.99
   2 -18  -5   57.32   15.62
   2  18   6   78.95   16.24
   2  18   6  107.20   18.04
  -2  18   6  102.29   20.23
  -2  18   6  116.77   19.29
   3  18   0  597.58   51.15
   3 -18   0  568.91   30.68
  -3  18   0  507.38   37.51
   3  18   0  585.21   44.11
   3 -18  -1  205.95   16.89
   3 -18   1  203.81   17.07
  -3  18  -1  228.54   17.08
   3  18   1  193.25   18.69
   3  18   1  178.03   14.18
  -3  18   1  216.22   16.71
   3  18  -1  198.67   20.76
   3 -18   2  135.67   13.69
  -3  18  -2  129.64   11.71
   3  18   2  145.70   17.14
   3 -18  -2   95.30   14.30
   3  18   2  146.20   15.12
  -3  18   2  140.68   15.36
   3  18  -2  104.93   12.08
   3 -18   3  174.72   15.00
  -3  18   3  237.64   19.11
   3 -18  -3  189.81   14.56
  -3 -18  -3  205.97   18.81
   3  18   3  187.87   19.08
   3  18   3  226.38   19.63
   3  18   4   10.18    9.54
  -3  18   4   26.16   15.20
   3  18   4   13.34   10.11
   3 -18  -4   17.41   16.86
  -3 -18  -4   19.66   11.38
   3 -18  -5  -10.35   13.17
   3  18   5    1.83   13.12
  -3 -18  -5   56.76   16.36
  -3  18   5  -11.12   14.37
   3  18   5   17.64   10.83
   3  18   6   19.96   13.72
   3  18   6    0.82   12.08
   4  18   0   -7.00    6.96
  -4  18   0    5.19    7.76
   4  18   0    4.98    5.77
   4 -18   0   -8.64    9.81
   4  18   1   18.75    8.59
  -4  18   1   12.48    7.21
   4  18   1   19.56    8.43
   4 -18   1    7.57    7.09
  -4  18  -1   18.92    6.84
   4  18  -1   10.38    6.88
   4 -18  -1   15.91   11.73
   4 -18  -2  330.78   24.87
  -4  18  -2  331.25   32.39
   4  18  -2  328.36   28.81
   4 -18   2  323.35   25.07
  -4  18   2  355.96   23.49
   4  18   2  289.66   19.84
   4  18   2  320.56   23.88
   4  18   3   35.91   10.33
   4 -18   3   31.78    7.30
  -4  18   3   38.05   10.45
   4  18   3   42.60   13.57
   4 -18  -3   28.10   11.13
  -4 -18  -4   26.14   11.89
   4 -18  -4   44.54   11.17
   4  18   4   30.00   11.37
   4  18   4   26.00   12.52
  -4  18   4   23.11   10.05
   4  18   5   73.29   18.90
   4  18   5   67.27   14.04
  -4 -18  -5   84.04   16.11
  -4  18   5   55.60   12.88
   4 -18  -5   77.51   21.74
   5 -18   0  111.44   11.91
   5  18   0  138.10   12.55
   5  18   0  157.60   14.44
  -5  18   0  123.28   13.07
   5 -18   1  397.90   18.91
  -5  18   1  396.99   22.95
   5 -18  -1  388.77   24.30
  -5  18  -1  390.57   38.25
   5  18   1  428.63   29.91
   5  18  -1  409.51   35.13
   5  18   1  458.09   38.92
   5  18   2  175.28   14.54
  -5  18   2  204.69   19.79
   5 -18   2  206.44   16.84
   5 -18  -2  189.88   17.48
   5  18  -2  202.78   18.62
  -5  18  -2  194.34   18.73
   5  18   2  201.33   18.52
   5  18   3   71.58   11.44
   5 -18  -3   78.91   10.59
   5 -18   3   65.03   11.49
  -5  18   3   87.50   12.35
   5  18   3   94.23   15.38
   5  18   4    3.03   10.38
  -5 -18  -4   -8.83   10.10
  -5  18   4   -9.26    9.15
   5  18   4   -2.52   13.44
   5 -18  -4   -6.28   10.24
   5 -18  -5    1.53   23.86
  -5  18   5   32.93   10.87
   5  18   5   13.72   12.83
   5  18   5   20.21   16.54
   6  18   0   13.91    8.16
   6 -18   0   13.11    8.84
   6  18   0    6.13    7.40
  -6  18   0   17.35    7.74
  -6  18   1   21.55    8.99
   6  18  -1   21.59   12.38
   6  18   1   43.05   15.54
   6 -18   1    5.52   10.57
   6 -18  -1   39.87   10.90
  -6  18  -1   21.57    5.08
   6  18   1   14.81    7.23
   6  18   2   50.36   12.24
   6  18  -2   30.16   10.05
  -6  18   2   30.96    8.47
  -6  18  -2   33.99    6.26
   6  18   2   45.47   10.24
   6 -18  -2   47.34   10.15
   6 -18   2   20.66    7.72
  -6  18   3   39.60   10.55
   6  18   3   32.71   10.97
   6 -18  -3   24.71   11.73
   6  18   3   22.72    9.63
   6  18   4   53.79   17.76
   6 -18  -4   50.52   15.08
  -6  18   4   59.83   13.53
   6  18   4   39.37   12.98
   6  18   5  213.65   21.99
  -6  18   5  219.62   23.29
   6  18   5  255.94   26.88
   7  18   0   32.12   12.82
   7  18   0   26.84    7.72
   7 -18   0   15.36    9.13
  -7  18   0   35.00    8.60
   7  18   1  213.37   20.11
   7 -18  -1  211.84   18.65
   7  18   1  227.69   20.32
  -7  18  -1  172.62   18.43
   7  18  -1  223.90   24.64
   7 -18   1  181.33   15.97
  -7  18   1  188.10   18.81
   7 -18   2   41.74    9.63
   7  18   2   55.70   16.59
   7  18   2   32.04   10.91
  -7  18   2   40.83   13.14
   7 -18  -2   38.60   14.17
  -7  18  -2   45.34    6.19
   7 -18  -3   -2.37   16.46
   7  18   3   20.74   15.29
   7  18   3    5.07    8.92
  -7  18   3    5.29    8.26
   7 -18  -4   26.20   17.34
   7  18   4    1.58   14.67
   7  18   4    7.56   12.68
  -7  18   4   -1.72   11.00
   8  18   0   87.84   12.34
   8 -18   0  106.57   14.83
  -8  18   0  100.16   13.04
   8  18   0   90.96   14.24
   8 -18   1   11.10   11.31
   8  18   1   21.33    9.55
  -8  18  -1   14.56    5.32
  -8  18   1   19.89    9.14
   8 -18  -1    4.98    9.46
   8  18  -1   16.36   12.08
   8  18   1    6.05   10.35
   8  18   2   36.11   13.92
   8 -18  -2   10.53   11.53
  -8  18   2   35.36    8.80
   8  18   2   24.01   12.61
  -8  18   3    2.50    8.91
   8  18   3   14.75   10.42
   8 -18  -3    3.60   18.40
   8  18   3   -0.72   10.03
   8 -18  -4   37.47   15.10
  -8  18   4   66.77   16.26
   8  18   4   52.20   14.09
   8  18   4   40.96   18.63
   9 -18   0    3.44   13.59
   9  18   0    5.94   10.42
   9  18   0    1.59    9.27
  -9  18   0    6.84    7.58
   9  18   1   79.29   11.92
  -9  18  -1  106.94   14.00
  -9  18   1  109.57   14.47
   9  18  -1  100.73   17.18
   9 -18  -1   96.01   13.61
   9  18   1  102.49   16.47
   9 -18   1  104.56   12.11
  -9  18   2   60.34   11.73
   9  18   2   80.28   15.26
   9 -18  -2   69.57   13.88
   9  18   2   76.79   10.80
   9  18   3   41.61   16.49
   9  18   3   53.05   17.57
   9 -18  -3   50.21   42.73
  -9  18   3   55.78   13.73
  10 -18   0    2.18    9.60
 -10  18   0    1.18    4.95
  10  18   0  -11.97   10.97
  10  18   0    8.54   10.67
 -10  18   1   51.25    8.18
  10  18   1   48.71   14.30
  10  18   1   48.54   15.14
  10 -18  -1   60.49   18.52
  10 -18  -2   54.57   13.63
  10  18   2   50.56   20.25
 -10  18   2   47.75   10.74
  10  18   2   48.06   12.21
  11  18   0   20.04    9.74
  11  18   0   22.89   12.21
  11 -18   0   -2.34   15.94
  11 -18  -1   98.12   16.58
  11  18   1   96.56   19.71
 -11  18   1   84.33   10.08
  11  18   1   95.32   17.30
   0  19   0    1.01    5.62
   0 -19   0   -1.40    8.38
   0 -19  -1   15.25    8.59
   0  19  -1   33.39    7.22
   0  19   1   34.60    8.68
   0  19   1   28.12    7.93
   0  19  -2   56.71   10.38
   0 -19  -2   24.88   13.66
   0  19   2   58.76    9.64
   0  19   2   42.16    8.53
   0  19   3   79.59   10.14
   0  19   3   98.72   13.75
   0 -19  -3  113.70   13.15
   0 -19  -4  130.16   16.71
   0  19   4  172.32   17.10
   0  19   4  194.63   20.68
   0  19   5   48.54   13.67
   0  19   5   45.23   14.19
   1  19   0   29.06    9.10
  -1  19   0   33.02    7.55
   1 -19   0   22.85    9.21
   1 -19   1  104.46   12.78
   1 -19  -1  103.97   12.39
  -1  19  -1  120.54   13.11
   1  19  -1  112.39   14.24
   1  19   1  120.63   14.61
   1  19   1  119.04   10.98
  -1 -19  -1   98.07   13.27
  -1  19   1  132.89   15.68
   1  19  -2   18.58    6.84
  -1  19  -2   34.59    8.14
   1  19   2   30.61    9.52
   1  19   2   26.63    6.64
  -1  19   2   15.87    7.34
   1 -19   2   22.18    7.76
   1 -19  -2   17.29   11.28
  -1  19   2   29.85   10.33
  -1 -19  -2   24.50    9.98
  -1 -19  -3   55.72   16.77
  -1  19   3   66.05   11.56
   1  19   3   67.81   10.93
   1 -19  -3   74.57   12.82
   1  19   3   75.13   12.81
  -1  19   3   85.97   13.88
   1  19   4  227.84   22.18
  -1  19   4  265.69   26.39
   1  19   4  227.94   23.18
   1 -19  -4  188.09   19.93
  -1  19   4  213.71   20.56
  -1 -19  -4  244.17   23.07
   1  19   5  130.11   16.70
  -1  19   5  163.16   18.52
   1  19   5  105.83   19.18
  -1  19   5  127.55   16.52
  -2  19   0   22.69    7.46
   2 -19   0   17.92   12.31
   2  19   0   21.89    9.85
   2 -19  -1  188.05   19.02
   2  19   1  224.60   18.53
  -2  19   1  193.71   16.93
   2  19   1  229.48   17.16
   2  19  -1  219.17   18.40
  -2  19  -1  202.70   19.11
   2 -19   1  195.30   17.34
  -2 -19  -2  100.29   13.45
  -2  19  -2  106.52   12.41
   2 -19  -2  104.36   14.37
   2  19   2  114.15   14.68
   2  19  -2  120.06   12.09
   2 -19   2  115.01   14.50
  -2  19   2  107.49   14.70
   2  19   2   97.84   11.24
   2 -19   3  143.87   16.31
  -2 -19  -3  167.71   17.56
   2  19   3  189.43   14.73
   2  19   3  159.43   19.82
  -2  19   3  164.86   19.07
   2 -19  -3  136.25   17.54
   2  19   4  149.91   16.08
  -2 -19  -4  167.51   16.86
  -2  19   4  164.79   18.40
   2 -19  -4  136.79   17.99
   2  19   4  163.05   18.76
  -2  19   4  129.21   15.10
   2  19   5   52.06   17.91
  -2  19   5   90.10   18.34
  -2  19   5   44.30   12.01
   2  19   5   48.73   12.94
   3 -19   0   63.36   11.04
  -3  19   0   72.37    8.54
   3  19   0  102.80   14.62
  -3  19  -1  295.05   24.56
   3  19  -1  332.28   27.38
   3 -19  -1  295.33   21.31
   3  19   1  317.38   24.38
   3 -19   1  282.56   21.32
  -3  19   1  279.10   20.32
   3  19   1  299.80   17.19
   3  19   2   13.75    8.91
   3 -19   2   37.45    8.46
   3  19   2   16.40   11.27
   3  19  -2   18.38    9.23
  -3  19   2   34.30   12.43
   3 -19  -2   20.53   11.53
   3 -19  -3  155.11   17.27
  -3 -19  -3  177.09   17.24
   3 -19   3  141.30   14.26
   3  19   3  178.03   16.97
   3  19   3  181.55   18.55
  -3  19   3  150.77   18.20
  -3 -19  -4   38.78   13.52
   3  19   4   45.50   14.38
   3  19   4   40.02   12.23
   3 -19  -4   15.54   18.75
  -3  19   4   22.59   10.83
  -3  19   5    6.56   11.31
   3  19   5    8.83   15.78
   3  19   5   20.27   13.14
  -4  19   0    7.95    5.22
   4 -19   0    7.41    8.34
   4  19   0    9.09   11.14
   4  19  -1   31.50    9.29
   4  19   1   37.15   13.69
   4 -19   1   13.36    9.13
  -4  19  -1   24.49    7.83
   4 -19  -1   16.16    9.37
   4  19   1   29.29    8.30
   4  19   2  106.38   17.27
  -4  19  -2   90.31   11.05
   4  19  -2   93.89   13.85
   4  19   2   89.81   10.85
   4 -19  -2   77.95   12.26
  -4  19   2  115.03   14.90
   4 -19   2   84.14   11.30
   4 -19  -3  -10.28   12.90
  -4  19   3    1.12    9.28
   4  19   3    7.96    9.94
   4  19   3   -5.28   13.00
   4 -19   3   -4.48    8.53
   4  19   4   -3.71   10.53
   4  19   4   15.74   16.65
  -4 -19  -4    8.12   15.42
   4 -19  -4   20.25   14.56
  -4  19   4   20.00    9.73
   4  19   5   50.51   11.89
   4  19   5   48.69   15.19
   5 -19   0   32.54    9.73
   5  19   0   38.50   13.00
  -5  19   0   33.15    7.94
   5 -19  -1   42.04   10.74
  -5  19  -1   45.04    6.71
   5  19   1   32.30    7.91
   5 -19   1   37.96    9.88
   5  19  -1   21.37    8.25
  -5  19   1   36.63    9.56
   5  19   1   27.55   12.70
  -5  19   2   15.87    9.66
   5 -19  -2   34.38   11.90
   5 -19   2   18.11    7.50
   5  19   2   11.08    8.45
   5  19   2   13.89   14.91
   5  19  -2    8.08    7.39
  -5  19  -2   16.56    5.78
  -5  19   3  183.73   18.56
   5 -19  -3  181.16   17.49
   5  19   3  206.09   16.59
   5  19   3  183.19   21.41
   5 -19  -4   73.64   14.58
  -5  19   4   62.44   13.94
   5  19   4   60.79   16.92
   5  19   4   76.34   16.60
   6  19   0  300.64   24.36
   6 -19   0  264.15   18.06
  -6  19   0  304.01   30.83
   6 -19  -1  146.01   16.20
  -6  19   1  157.05   14.56
   6  19   1  143.93   18.82
   6 -19   1  154.40   18.03
   6  19   1  120.23   14.09
  -6  19  -1  147.92   15.09
   6  19  -1  175.03   18.65
   6 -19  -2   18.75   12.70
   6 -19   2   24.58    8.71
   6  19  -2   16.31    8.27
  -6  19  -2   14.93    4.67
   6  19   2    8.41    7.64
   6  19   2    4.75   10.50
  -6  19   2   23.27    8.36
  -6  19   3  209.12   21.81
   6  19   3  241.04   23.48
   6  19   3  246.55   19.78
   6 -19  -3  208.32   19.66
  -6  19   4   36.58   12.52
   6  19   4   42.32   15.27
   6  19   4   32.41   12.18
   7  19   0    2.93    9.70
  -7  19   0    2.84    5.27
   7 -19   0    4.57   10.21
  -7  19  -1   22.71    5.22
   7  19  -1    8.35    8.43
   7  19   1   15.46    8.76
   7 -19  -1   31.94   15.68
   7  19   1   37.01   12.35
   7 -19   1   23.07   12.41
  -7  19   1   17.45    6.62
   7  19   2   75.00   15.96
   7 -19  -2   66.52   14.89
  -7  19   2   75.65   12.57
   7  19   2   86.09   14.19
   7  19   3   16.52   12.75
  -7  19   3   33.40    9.18
   7  19   3   26.57   13.63
   7 -19  -3   -3.31   16.57
   7  19   4   12.91   17.74
   7  19   4   12.45   11.31
   8 -19   0  165.10   16.30
   8  19   0  153.22   21.30
  -8  19   0  182.58   32.54
   8  19   1   39.43   16.91
   8  19  -1   32.75   11.10
  -8  19   1   22.19    8.33
   8  19   1   18.82    9.42
  -8  19  -1   34.41    7.03
   8 -19  -1   25.23   13.46
   8 -19   1   27.54    9.82
  -8  19   2    6.21   11.34
   8 -19  -2   15.18   12.07
   8  19   2   13.40   10.66
   8  19   2   18.72   12.29
   8  19   3  148.09   24.76
  -8  19   3  161.30   20.11
   8  19   3  127.06   16.96
   8 -19  -3  172.21   21.64
  -9  19   0   16.57    7.88
   9  19   0   -3.18   11.03
   9 -19   0    6.85   10.83
   9 -19  -1   -4.54   10.99
  -9  19   1    5.08    8.65
   9  19  -1   20.08   15.26
   9  19   1   15.87   11.18
   9  19   1    4.31   10.79
   9  19   2   -2.57   12.29
  -9  19   2   -5.33   10.28
   9  19   2   15.27   18.90
   9 -19  -2    8.24   13.85
   0  20   0   89.21   12.66
   0 -20   0   99.71   13.71
   0 -20  -1   44.32   14.58
   0  20   1   49.69   10.94
   0  20  -1   54.00    9.61
   0 -20   1   48.34   11.67
   0  20   2  193.20   20.36
   0 -20  -2  162.78   18.02
   0  20  -2  163.96   18.14
   0  20   2  180.79   16.62
   0  20   3  164.36   16.57
   0 -20  -3  128.11   19.00
   0  20   3  172.82   21.27
   0  20   4   11.86    9.51
   0  20   4   -6.28   11.68
  -1  20   0   29.88    8.04
   1 -20   0   50.26   11.43
   1  20   0   25.69    7.86
  -1 -20   0   33.93   10.89
   1 -20  -1   39.49   11.76
   1  20  -1   21.57   11.22
  -1  20   1   52.66   12.53
  -1  20  -1   38.66    7.96
   1 -20   1   30.16    9.71
   1  20   1   31.83   12.08
  -1 -20  -1   36.45   10.45
  -1  20   2   38.58    9.80
  -1 -20  -2   24.91   11.06
   1  20   2   29.88   10.63
   1  20   2   33.68   11.32
  -1  20  -2   48.98    9.32
   1 -20  -2   44.90   17.73
   1 -20   2   30.24    9.36
   1  20  -2   18.86    7.45
  -1  20   3   87.72   14.01
  -1 -20  -3   56.27   13.62
   1 -20  -3   63.55   14.25
   1  20   3   54.72   11.96
  -1  20   3   68.47   10.65
   1 -20   3   68.36   13.18
   1  20   3   63.87   11.36
  -1  20   4   69.56   16.46
   1  20   4   47.76   12.49
   1  20   4   34.31   18.04
  -1  20   4   45.23   15.82
   1 -20  -4   30.87   29.47
  -2  20   0    6.30    7.38
   2 -20   0   15.55   11.99
   2  20   0   11.83    7.92
   2  20  -1   40.28   12.29
   2 -20   1   22.03    9.10
   2 -20  -1   12.12   10.28
  -2  20  -1   19.32    6.70
   2  20   1   21.33    9.52
  -2  20   1   25.00   11.21
   2 -20   2   11.10   11.94
   2  20   2   10.72    7.44
  -2  20  -2   -0.38    4.54
  -2  20   2   11.20    9.25
   2 -20  -2   -1.47   10.74
  -2 -20  -2    4.12   12.17
   2  20   2   14.02   13.41
   2  20  -2    3.83    7.41
   2  20   3   13.74    9.49
   2 -20   3   22.89    9.22
  -2  20   3    8.37   11.00
   2  20   3   25.76    9.50
   2 -20  -3   28.28   12.79
  -2 -20  -3   24.93   13.53
   2  20   4  150.77   20.18
   2  20   4  190.11   19.00
  -2  20   4  158.23   19.21
   3 -20   0    7.85    9.82
  -3  20   0    5.87    6.76
   3  20   0   -3.17    8.24
   3 -20   1   28.87   12.94
   3  20   1   45.28    9.50
   3  20  -1   41.69    9.36
  -3  20   1   32.03   11.61
  -3  20  -1   35.90    8.87
   3 -20  -1   40.04   12.75
   3  20   2   69.70   11.78
   3  20   2   66.88   13.09
   3 -20  -2   58.53   14.33
   3 -20   2   69.15   11.25
   3  20  -2   77.95   11.92
  -3  20   2   75.73   11.59
  -3  20  -2   54.44    9.33
   3  20   3  149.57   15.66
   3  20   3  156.13   23.83
   3 -20   3  172.85   15.38
  -3 -20  -3  166.63   14.84
   3 -20  -3  124.97   17.42
  -3  20   3  163.66   18.93
   3  20   4  173.74   22.25
   3  20   4  154.08   18.81
  -3  20   4  189.31   19.63
   4 -20   0  161.89   16.35
  -4  20   0  155.14   15.77
   4  20   0  166.53   21.48
   4  20   1  106.97   16.49
   4 -20   1  100.94   12.97
   4 -20  -1  137.11   15.69
  -4  20   1  145.94   17.26
  -4  20  -1  131.59   14.65
   4  20  -1  103.06   15.51
   4  20   2   10.90   11.32
   4 -20  -2   19.45   12.14
  -4  20  -2   17.08    6.86
   4  20  -2   12.43    8.12
   4 -20   2    1.98   13.01
  -4  20   2   22.80   10.79
   4  20   2   25.56   11.48
  -4 -20  -3  232.57   22.17
  -4  20   3  250.08   25.24
   4 -20  -3  275.64   31.85
   4  20   3  277.71   25.91
   4  20   3  286.93   26.89
   4  20   4   72.58   18.24
  -4  20   4  106.50   15.83
   4  20   4   72.99   17.44
  -5  20   0    0.11    5.45
   5 -20   0    1.34   13.45
   5  20   0  -10.72    8.51
   5  20   1  193.76   23.59
   5 -20   1  143.81   17.49
  -5  20  -1  174.97   22.47
   5  20  -1  165.49   19.77
   5 -20  -1  167.76   18.15
  -5  20   1  220.56   18.08
   5  20  -2   33.21   13.14
  -5  20   2    6.86    8.97
   5 -20  -2    9.06   13.35
   5  20   2    4.10   12.05
   5  20   2   19.92   13.54
   5 -20   2   14.86   13.26
  -5  20  -2    8.63    5.27
   5  20   3    7.20    9.33
  -5  20   3   28.01   15.26
   5 -20  -3   14.80   13.38
   5  20   3   19.46   14.84
   6 -20   0    9.64   11.25
   6  20   0   24.35   13.84
  -6  20   0   23.07    9.24
  -6  20   1  123.72   15.02
  -6  20  -1  117.60   14.50
   6  20  -1  113.11   16.91
   6 -20   1  127.80   13.66
   6 -20  -1  117.61   16.95
   6  20   1  132.63   21.53
   6  20   2   28.04   10.97
   6  20  -2   34.58   11.07
   6 -20  -2   17.59   15.31
   6  20   2   44.97   15.43
  -6  20   2   36.79   10.34
   6 -20  -3   38.01   18.77
  -6  20   3   35.94   12.45
   6  20   3   47.30   18.81
   6  20   3   22.55   13.17
   7  20   0   23.31   12.46
   7 -20   0   20.90   11.45
  -7  20   0   18.67    8.62
   7 -20  -1   53.89   20.06
   7  20   1   33.42   12.69
  -7  20  -1   35.01    8.25
   7  20  -1   42.07   12.94
   7 -20   1   35.84   15.34
  -7  20   1   36.41    8.63
   7 -20  -2  145.00   17.08
  -7  20   2  146.87   16.56
   7  20   2  131.07   17.37
  -8  20   0   -0.26    5.45
   8 -20   0   -1.55   11.34
   8 -20  -1   14.07   12.31
  -8  20   1    8.89    8.32
   0  21   0   14.84    8.73
   0 -21   0    3.05    8.36
   0  21  -1   18.20   11.30
   0 -21  -1    3.13   11.11
   0  21   1    6.36   11.03
   0 -21   1   -4.37    8.90
   0  21  -2   25.27    8.23
   0  21   2   22.97   14.13
   0 -21   2   35.50    9.52
   0 -21  -2   18.30   16.11
   0  21   3   17.24    9.68
   0  21   3   17.46   10.58
   1 -21   0   17.58   11.56
   1  21   0   21.78   11.68
  -1  21   0   -1.68    7.04
  -1 -21   0    9.51    9.89
   1 -21   1   17.68   11.23
   1  21  -1   38.80    8.93
   1 -21  -1   36.53   13.13
   1  21   1   29.97   11.07
  -1  21  -1   26.55    9.00
  -1 -21  -1   18.82   15.83
  -1  21   1   29.37   13.49
   1  21   2   50.76   12.03
   1 -21  -2   22.46   14.08
   1  21  -2   69.61   11.70
  -1  21   2   38.44   11.30
  -1 -21  -2   69.89   12.82
   1 -21   2   51.37   10.23
  -1  21  -2   47.98    9.43
  -1  21   3   19.07    9.25
  -1  21   3   21.99   10.79
   1  21   3   37.82    9.73
   1 -21   3   21.59   16.21
   1  21   3   33.33   14.54
  -2  21   0   59.95    8.79
   2  21   0   82.13   14.93
   2 -21   0   69.46   16.45
   2 -21  -1  192.56   22.18
  -2  21  -1  208.62   19.95
   2  21  -1  191.93   19.40
  -2  21   1  209.47   20.91
   2 -21   1  172.78   16.93
   2  21   1  158.30   21.23
  -2 -21  -1  204.75   20.55
   2  21  -2  150.68   15.04
   2 -21   2  151.79   18.17
  -2 -21  -2  170.82   21.80
   2  21   2  134.91   13.96
   2 -21  -2  156.26   18.54
  -2  21   2  161.24   18.96
  -2  21  -2  130.68   16.21
   2  21   3  139.04   20.91
  -2  21   3  133.98   15.17
   2 -21  -3  103.06   35.66
   2  21   3  101.78   12.43
   3 -21   0   38.59   15.98
  -3  21   0   45.78    9.39
   3  21   0   43.88   16.14
   3  21   1    9.85   10.61
   3 -21   1    0.39    9.19
  -3  21  -1    3.62    9.08
  -3  21   1    2.88   10.45
   3 -21  -1   -7.71   16.07
   3  21  -1   13.34    8.11
   3 -21   2   21.32   13.91
  -3 -21  -2  -13.33   12.19
  -3  21   2   11.15   11.20
   3  21   2   21.83   14.92
  -3  21  -2    3.58    6.85
   3 -21  -2   10.87   17.60
   3  21  -2   -7.89   11.21
   3  21   3   37.59   11.67
  -3  21   3   22.69   10.91
   4 -21   0   -0.08   11.25
  -4  21   0    2.95    5.79
   4  21   0   28.65   15.62
   4  21  -1   86.97   16.71
   4  21   1   99.71   13.73
  -4  21  -1   76.81    9.60
   4 -21  -1   85.73   18.71
   4 -21   1   66.06   11.16
  -4  21   1   64.51   12.14
   4  21  -2    4.09    8.77
   4 -21  -2   18.67   12.51
   4  21   2   -3.95   14.96
  -4  21   2    8.26    9.26
   4 -21   2    4.09   11.92
  -4  21  -2   10.95    6.90
  -4  21   3   21.90   12.49
   4  21   3   21.62   10.15
  -5  21   0    2.06    8.44
   5 -21   0   -4.93    9.82
   5  21   0    3.26   15.44
   5 -21  -1   46.66   17.38
  -5  21   1   55.76    9.72
   5  21   1   58.66   16.65
   5 -21   1   51.18   15.49
  -5  21  -1   44.23   10.97
   5  21  -1   22.70   13.96
   5 -21  -2    8.12   13.82
   5  21  -2   11.63   10.29
  -5  21   2    3.67    9.66
  -6  21   0   47.44    8.75
   6 -21   0   39.91   10.53
   6 -21  -1  236.66   25.40
  -6  21  -1  256.82   23.37
   6 -21   1  275.20   20.64
  -6  21   1  270.70   22.67
   0 -22   0   45.55   17.16
   0  22   0   65.39   16.72
   0 -22  -1   15.80   14.89
   0  22  -1   13.86    9.27
   0  22   1    5.69   12.90
   0 -22   1  -14.04   17.22
   0 -22   2   90.18   15.81
   0  22  -2   70.56   11.31
   1  22   0    4.24   12.78
  -1  22   0   -6.74    6.96
   1 -22   0    6.28   11.01
  -1 -22   0   21.95   28.80
  -1  22   1   77.84   15.97
   1  22   1   91.51   19.94
  -1 -22  -1   68.91   15.95
   1 -22   1   16.72   17.81
  -1 -22   1   41.21   12.26
   1 -22  -1   94.41   20.72
  -1  22  -1   48.64   15.17
   1  22  -1   54.89   10.63
  -1  22  -2   37.74    8.84
   1  22  -2   31.25    9.98
   1 -22   2   20.82   13.51
  -2  22   0   78.99   13.86
   2 -22   0   67.09   16.02
   2  22   0   93.57   17.97
  -2  22  -1  112.67   14.07
   2  22   1  102.19   21.07
   2 -22  -1   69.63   13.24
  -2  22   1   99.89   14.30
  -2 -22  -1   67.96   23.81
   2  22  -1  101.84   19.95
   2 -22   1   86.83   20.27
   3 -22   0    0.92   13.88
  -3  22   0    2.64    7.48
   3  22   0   -0.32    8.35
  -3  22  -1  146.30   16.95
   3 -22  -1   91.72   18.48
  -3  22   1  138.39   16.42
   3 -22   1  115.50   19.71
   3  22  -1  127.76   20.48
   0   0   0    0.00    0.00
;
_shelx_hkl_checksum              20318
#END Tags that were not found in dictionaries
loop_
_space_group_symop_operation_xyz
'x, y, z'
'-x, -y, z'
'-x+1/2, y+1/2, -z'
'x+1/2, -y+1/2, -z'
loop_
_atom_site_label
_atom_site_type_symbol
_atom_site_fract_x
_atom_site_fract_y
_atom_site_fract_z
_atom_site_U_iso_or_equiv
_atom_site_adp_type
_atom_site_occupancy
_atom_site_site_symmetry_order
_atom_site_calc_flag
_atom_site_refinement_flags_posn
_atom_site_refinement_flags_adp
C1 C 0.6510(2) 1.14862(17) 0.3889(4) 0.0221(6) Uani 1 1 d . .
H1A H 0.6825 1.1798 0.4721 0.033 Uiso 1 1 calc R U
H1B H 0.5875 1.1367 0.4253 0.033 Uiso 1 1 calc R U
H1C H 0.6484 1.1776 0.2862 0.033 Uiso 1 1 calc R U
C2 C 0.6611(2) 1.02672(18) 0.2270(4) 0.0283(7) Uani 1 1 d . .
H2A H 0.6632 1.0562 0.1249 0.042 Uiso 1 1 calc R U
H2B H 0.5962 1.0150 0.2545 0.042 Uiso 1 1 calc R U
H2C H 0.6959 0.9784 0.2138 0.042 Uiso 1 1 calc R U
C3 C 0.7044(2) 1.07399(16) 0.3628(3) 0.0181(6) Uani 1 1 d . .
C4 C 0.7082(2) 1.02677(15) 0.5210(3) 0.0183(6) Uani 1 1 d . .
H4 H 0.6434 1.0133 0.5555 0.022 Uiso 1 1 calc R U
C5 C 0.7598(2) 1.06314(18) 0.6649(4) 0.0255(7) Uani 1 1 d . .
H5A H 0.7721 1.1186 0.6447 0.031 Uiso 1 1 calc R U
H5B H 0.7234 1.0579 0.7669 0.031 Uiso 1 1 calc R U
C6 C 0.8506(2) 1.01764(16) 0.6750(4) 0.0224(6) Uani 1 1 d . .
H6A H 0.8732 1.0142 0.7890 0.027 Uiso 1 1 calc R U
H6B H 0.8997 1.0414 0.6064 0.027 Uiso 1 1 calc R U
C7 C 0.82254(19) 0.93850(16) 0.6100(3) 0.0167(6) Uani 1 1 d . .
C8 C 0.9025(2) 0.89073(17) 0.5363(4) 0.0222(6) Uani 1 1 d . .
H8A H 0.9457 0.8754 0.6248 0.027 Uiso 1 1 calc R U
H8B H 0.8764 0.8429 0.4881 0.027 Uiso 1 1 calc R U
C9 C 0.78050(19) 0.88830(16) 0.7460(3) 0.0170(6) Uani 1 1 d . .
C10 C 0.66730(19) 0.79987(16) 0.8653(3) 0.0166(6) Uani 1 1 d . .
H10A H 0.7154 0.7592 0.8855 0.020 Uiso 1 1 calc R U
C11 C 0.57399(19) 0.76188(16) 0.8189(3) 0.0154(6) Uani 1 1 d . .
C12 C 0.5760(2) 0.74695(16) 0.6368(3) 0.0180(6) Uani 1 1 d . .
H12A H 0.5120 0.7476 0.5919 0.022 Uiso 1 1 calc R U
H12B H 0.6041 0.6958 0.6141 0.022 Uiso 1 1 calc R U
C13 C 0.6451(2) 0.84295(17) 1.0261(3) 0.0213(6) Uani 1 1 d . .
H13A H 0.6892 0.8284 1.1138 0.026 Uiso 1 1 calc R U
H13B H 0.6468 0.8997 1.0105 0.026 Uiso 1 1 calc R U
C14 C 0.5454(2) 0.81461(17) 1.0644(3) 0.0217(6) Uani 1 1 d . .
H14 H 0.5123 0.8458 1.1494 0.026 Uiso 1 1 calc R U
C15 C 0.5506(2) 0.72759(18) 1.1026(4) 0.0237(6) Uani 1 1 d . .
H15A H 0.4917 0.7089 1.1517 0.028 Uiso 1 1 calc R U
H15B H 0.6028 0.7160 1.1777 0.028 Uiso 1 1 calc R U
C16 C 0.5671(2) 0.69047(16) 0.9313(3) 0.0204(6) Uani 1 1 d . .
H16A H 0.6255 0.6600 0.9293 0.024 Uiso 1 1 calc R U
H16B H 0.5144 0.6568 0.8995 0.024 Uiso 1 1 calc R U
C17 C 0.4987(2) 0.81661(16) 0.8943(3) 0.0188(6) Uani 1 1 d . .
C18 C 0.4910(2) 0.89842(16) 0.8242(4) 0.0230(6) Uani 1 1 d . .
H18A H 0.4634 0.8961 0.7149 0.034 Uiso 1 1 calc R U
H18B H 0.5533 0.9215 0.8174 0.034 Uiso 1 1 calc R U
H18C H 0.4515 0.9300 0.8955 0.034 Uiso 1 1 calc R U
C19 C 0.4001(2) 0.78196(18) 0.8895(4) 0.0260(7) Uani 1 1 d . .
H19A H 0.3564 0.8173 0.9430 0.039 Uiso 1 1 calc R U
H19B H 0.3999 0.7322 0.9467 0.039 Uiso 1 1 calc R U
H19C H 0.3812 0.7742 0.7757 0.039 Uiso 1 1 calc R U
N1 N 0.69659(16) 0.84992(13) 0.7257(3) 0.0148(5) Uani 1 1 d . .
O1 O 0.79769(15) 1.09635(12) 0.3193(3) 0.0255(5) Uani 1 1 d . .
H1 H 0.8249 1.0590 0.2746 0.038 Uiso 1 1 calc R U
O2 O 0.75869(13) 0.95689(10) 0.4843(2) 0.0170(4) Uani 1 1 d . .
O3 O 0.95303(15) 0.93044(14) 0.4156(3) 0.0305(5) Uani 1 1 d . .
H3 H 0.9208 0.9672 0.3797 0.046 Uiso 1 1 calc R U
O4 O 0.82213(14) 0.88166(13) 0.8756(2) 0.0235(5) Uani 1 1 d . .
O5 O 0.58381(14) 0.88094(11) 0.4845(2) 0.0197(4) Uani 1 1 d . .
O6 O 0.71364(14) 0.79028(12) 0.4384(2) 0.0207(4) Uani 1 1 d . .
S1 S 0.64424(5) 0.82160(4) 0.54565(8) 0.01503(15) Uani 1 1 d . .
O1S O 0.90409(17) 0.97988(13) 0.1155(3) 0.0296(5) Uani 1 1 d D .
H1S H 0.876(2) 0.9498(19) 0.040(4) 0.044 Uiso 1 1 d D U
H2S H 0.9530(12) 0.9535(8) 0.131(3) 0.044 Uiso 1 1 d D U
loop_
_atom_site_aniso_label
_atom_site_aniso_U_11
_atom_site_aniso_U_22
_atom_site_aniso_U_33
_atom_site_aniso_U_23
_atom_site_aniso_U_13
_atom_site_aniso_U_12
C1 0.0230(14) 0.0178(13) 0.0257(15) 0.0033(12) -0.0022(13) 0.0012(12)
C2 0.0383(19) 0.0235(15) 0.0230(15) 0.0010(13) -0.0096(14) 0.0010(14)
C3 0.0182(14) 0.0173(13) 0.0189(14) 0.0017(11) -0.0018(11) -0.0009(11)
C4 0.0191(13) 0.0183(13) 0.0175(13) 0.0001(11) -0.0004(12) 0.0026(11)
C5 0.0283(16) 0.0254(16) 0.0227(15) -0.0036(13) -0.0057(13) 0.0050(13)
C6 0.0219(15) 0.0207(14) 0.0244(14) 0.0011(12) -0.0034(13) -0.0044(12)
C7 0.0147(13) 0.0190(13) 0.0163(13) 0.0029(11) -0.0022(11) -0.0012(10)
C8 0.0172(14) 0.0270(15) 0.0226(14) 0.0081(13) 0.0033(12) 0.0012(11)
C9 0.0139(13) 0.0178(13) 0.0193(14) 0.0004(12) 0.0013(11) 0.0007(11)
C10 0.0193(14) 0.0193(14) 0.0112(12) 0.0034(10) 0.0012(10) -0.0014(10)
C11 0.0175(14) 0.0139(13) 0.0146(13) -0.0009(11) 0.0012(11) -0.0007(10)
C12 0.0221(14) 0.0155(13) 0.0164(14) 0.0000(11) 0.0021(11) -0.0030(11)
C13 0.0258(14) 0.0237(14) 0.0144(13) -0.0025(11) 0.0007(13) -0.0048(12)
C14 0.0267(15) 0.0222(14) 0.0163(13) -0.0018(13) 0.0073(12) -0.0007(12)
C15 0.0276(15) 0.0253(15) 0.0183(14) 0.0045(12) 0.0045(13) 0.0001(13)
C16 0.0257(15) 0.0171(14) 0.0182(13) 0.0039(12) 0.0024(11) -0.0017(11)
C17 0.0206(14) 0.0152(12) 0.0206(13) 0.0003(12) 0.0053(12) 0.0001(11)
C18 0.0242(15) 0.0162(14) 0.0286(15) 0.0017(13) 0.0078(13) 0.0056(12)
C19 0.0232(15) 0.0270(16) 0.0280(16) 0.0030(14) 0.0049(14) 0.0000(13)
N1 0.0155(11) 0.0175(11) 0.0113(10) 0.0008(9) -0.0001(9) -0.0001(9)
O1 0.0227(11) 0.0212(11) 0.0327(12) 0.0029(9) 0.0098(10) -0.0016(9)
O2 0.0164(9) 0.0186(9) 0.0161(10) 0.0017(8) -0.0020(8) 0.0032(7)
O3 0.0202(11) 0.0399(13) 0.0313(13) 0.0132(11) 0.0075(10) 0.0035(10)
O4 0.0219(11) 0.0309(11) 0.0176(10) 0.0054(9) -0.0058(9) -0.0050(9)
O5 0.0173(9) 0.0204(9) 0.0215(10) 0.0056(8) -0.0049(8) -0.0010(8)
O6 0.0232(10) 0.0251(10) 0.0140(9) -0.0006(8) 0.0037(9) 0.0007(8)
S1 0.0169(3) 0.0156(3) 0.0125(3) 0.0004(3) -0.0012(3) -0.0005(3)
O1S 0.0291(12) 0.0307(12) 0.0290(12) -0.0032(10) -0.0099(10) 0.0000(10)
loop_
_atom_type_symbol
_atom_type_description
_atom_type_scat_dispersion_real
_atom_type_scat_dispersion_imag
_atom_type_scat_source
C C 0.0033 0.0016 'International Tables Vol C Tables 4.2.6.8 and 6.1.1.4'
H H 0.0000 0.0000 'International Tables Vol C Tables 4.2.6.8 and 6.1.1.4'
N N 0.0061 0.0033 'International Tables Vol C Tables 4.2.6.8 and 6.1.1.4'
O O 0.0106 0.0060 'International Tables Vol C Tables 4.2.6.8 and 6.1.1.4'
S S 0.1246 0.1234 'International Tables Vol C Tables 4.2.6.8 and 6.1.1.4'
loop_
_geom_angle_atom_site_label_1
_geom_angle_atom_site_label_2
_geom_angle_atom_site_label_3
_geom_angle
C3 C1 H1A 109.5
C3 C1 H1B 109.5
H1A C1 H1B 109.5
C3 C1 H1C 109.5
H1A C1 H1C 109.5
H1B C1 H1C 109.5
C3 C2 H2A 109.5
C3 C2 H2B 109.5
H2A C2 H2B 109.5
C3 C2 H2C 109.5
H2A C2 H2C 109.5
H2B C2 H2C 109.5
O1 C3 C2 110.2(2)
O1 C3 C1 106.0(2)
C2 C3 C1 110.9(2)
O1 C3 C4 108.7(2)
C2 C3 C4 110.3(2)
C1 C3 C4 110.7(2)
O2 C4 C5 105.3(2)
O2 C4 C3 106.8(2)
C5 C4 C3 116.7(2)
O2 C4 H4 109.3
C5 C4 H4 109.3
C3 C4 H4 109.3
C6 C5 C4 104.1(2)
C6 C5 H5A 110.9
C4 C5 H5A 110.9
C6 C5 H5B 110.9
C4 C5 H5B 110.9
H5A C5 H5B 109.0
C5 C6 C7 102.7(2)
C5 C6 H6A 111.2
C7 C6 H6A 111.2
C5 C6 H6B 111.2
C7 C6 H6B 111.2
H6A C6 H6B 109.1
O2 C7 C6 102.9(2)
O2 C7 C9 113.6(2)
C6 C7 C9 111.0(2)
O2 C7 C8 108.6(2)
C6 C7 C8 115.0(2)
C9 C7 C8 105.9(2)
O3 C8 C7 113.4(2)
O3 C8 H8A 108.9
C7 C8 H8A 108.9
O3 C8 H8B 108.9
C7 C8 H8B 108.9
H8A C8 H8B 107.7
O4 C9 N1 118.9(3)
O4 C9 C7 119.4(2)
N1 C9 C7 121.7(2)
N1 C10 C11 107.6(2)
N1 C10 C13 115.4(2)
C11 C10 C13 103.7(2)
N1 C10 H10A 109.9
C11 C10 H10A 109.9
C13 C10 H10A 109.9
C12 C11 C10 107.4(2)
C12 C11 C16 116.9(2)
C10 C11 C16 104.5(2)
C12 C11 C17 120.4(2)
C10 C11 C17 104.2(2)
C16 C11 C17 101.8(2)
C11 C12 S1 107.40(19)
C11 C12 H12A 110.2
S1 C12 H12A 110.2
C11 C12 H12B 110.2
S1 C12 H12B 110.2
H12A C12 H12B 108.5
C14 C13 C10 102.2(2)
C14 C13 H13A 111.3
C10 C13 H13A 111.3
C14 C13 H13B 111.3
C10 C13 H13B 111.3
H13A C13 H13B 109.2
C15 C14 C13 107.9(2)
C15 C14 C17 103.1(2)
C13 C14 C17 102.2(2)
C15 C14 H14 114.2
C13 C14 H14 114.2
C17 C14 H14 114.2
C14 C15 C16 103.2(2)
C14 C15 H15A 111.1
C16 C15 H15A 111.1
C14 C15 H15B 111.1
C16 C15 H15B 111.1
H15A C15 H15B 109.1
C11 C16 C15 102.5(2)
C11 C16 H16A 111.3
C15 C16 H16A 111.3
C11 C16 H16B 111.3
C15 C16 H16B 111.3
H16A C16 H16B 109.2
C18 C17 C19 106.6(2)
C18 C17 C14 112.9(2)
C19 C17 C14 114.4(2)
C18 C17 C11 117.5(2)
C19 C17 C11 112.9(2)
C14 C17 C11 92.5(2)
C17 C18 H18A 109.5
C17 C18 H18B 109.5
H18A C18 H18B 109.5
C17 C18 H18C 109.5
H18A C18 H18C 109.5
H18B C18 H18C 109.5
C17 C19 H19A 109.5
C17 C19 H19B 109.5
H19A C19 H19B 109.5
C17 C19 H19C 109.5
H19A C19 H19C 109.5
H19B C19 H19C 109.5
C9 N1 C10 115.5(2)
C9 N1 S1 128.1(2)
C10 N1 S1 111.51(17)
C3 O1 H1 109.5
C7 O2 C4 111.3(2)
C8 O3 H3 109.5
O6 S1 O5 118.45(12)
O6 S1 N1 109.17(12)
O5 S1 N1 110.99(12)
O6 S1 C12 111.29(13)
O5 S1 C12 109.47(13)
N1 S1 C12 94.99(12)
H1S O1S H2S 99(2)
loop_
_geom_bond_atom_site_label_1
_geom_bond_atom_site_label_2
_geom_bond_distance
C1 C3 1.517(4)
C1 H1A 0.9800
C1 H1B 0.9800
C1 H1C 0.9800
C2 C3 1.514(4)
C2 H2A 0.9800
C2 H2B 0.9800
C2 H2C 0.9800
C3 O1 1.438(4)
C3 C4 1.533(4)
C4 O2 1.442(3)
C4 C5 1.527(4)
C4 H4 1.0000
C5 C6 1.525(4)
C5 H5A 0.9900
C5 H5B 0.9900
C6 C7 1.524(4)
C6 H6A 0.9900
C6 H6B 0.9900
C7 O2 1.414(3)
C7 C9 1.537(4)
C7 C8 1.538(4)
C8 O3 1.405(4)
C8 H8A 0.9900
C8 H8B 0.9900
C9 O4 1.223(3)
C9 N1 1.385(4)
C10 N1 1.495(3)
C10 C11 1.539(4)
C10 C13 1.546(4)
C10 H10A 1.0000
C11 C12 1.514(4)
C11 C16 1.545(4)
C11 C17 1.564(4)
C12 S1 1.785(3)
C12 H12A 0.9900
C12 H12B 0.9900
C13 C14 1.545(4)
C13 H13A 0.9900
C13 H13B 0.9900
C14 C15 1.540(4)
C14 C17 1.547(4)
C14 H14 1.0000
C15 C16 1.561(4)
C15 H15A 0.9900
C15 H15B 0.9900
C16 H16A 0.9900
C16 H16B 0.9900
C17 C18 1.532(4)
C17 C19 1.536(4)
C18 H18A 0.9800
C18 H18B 0.9800
C18 H18C 0.9800
C19 H19A 0.9800
C19 H19B 0.9800
C19 H19C 0.9800
N1 S1 1.726(2)
O1 H1 0.8400
O3 H3 0.8400
O5 S1 1.435(2)
O6 S1 1.434(2)
O1S H1S 0.90(2)
O1S H2S 0.85(2)
