#------------------------------------------------------------------------------
#$Date: 2016-02-18 17:37:37 +0200 (Thu, 18 Feb 2016) $
#$Revision: 176729 $
#$URL: svn://www.crystallography.net/cod/cif/1/51/73/1517392.cif $
#------------------------------------------------------------------------------
#
# This file is available in the Crystallography Open Database (COD),
# http://www.crystallography.net/
#
# All data on this site have been placed in the public domain by the
# contributors.
#
data_1517392
loop_
_publ_author_name
'Evans, P. Andrew'
'Burnie, Andrew J.'
'Negru, Daniela E.'
_publ_section_title
;
 Rhodium-Catalyzed [(3+2)+1] Carbocyclization Reactions of
 Alkynylidenecyclopropanes with Carbon Monoxide: Regiospecific
 Construction of Polysubstituted Phenols.
;
_journal_issue                   17
_journal_name_full               'Organic letters'
_journal_page_first              4356
_journal_paper_doi               10.1021/ol501724s
_journal_volume                  16
_journal_year                    2014
_chemical_formula_moiety         'C17 H18 Br N O3 S'
_chemical_formula_sum            'C17 H18 Br N O3 S'
_chemical_formula_weight         396.29
_chemical_name_systematic
;
 ?
;
_space_group_crystal_system      monoclinic
_space_group_IT_number           15
_space_group_name_Hall           '-C 2yc'
_space_group_name_H-M_alt        'C 1 2/c 1'
_symmetry_space_group_name_Hall  '-C 2yc'
_symmetry_space_group_name_H-M   'C 1 2/c 1'
_atom_sites_solution_hydrogens   geom
_atom_sites_solution_primary     direct
_atom_sites_solution_secondary   dual
_audit_creation_method           'manual editing of SHELXL-2013 template'
_cell_angle_alpha                90
_cell_angle_beta                 106.958(6)
_cell_angle_gamma                90
_cell_formula_units_Z            16
_cell_length_a                   26.156(2)
_cell_length_b                   16.7699(16)
_cell_length_c                   15.5605(14)
_cell_measurement_reflns_used    4868
_cell_measurement_temperature    180(2)
_cell_measurement_theta_max      24.055
_cell_measurement_theta_min      2.714
_cell_volume                     6528.6(10)
_computing_cell_refinement
' Saint V8.30A and SADABS V2012/1 (Apex2, v2013.10-0; Bruker AXS)'
_computing_data_collection
' APEX2 software package v2013.10-0 (Bruker AXS)'
_computing_data_reduction
' Saint V8.30A and SADABS V2012/1 (Apex2, v2013.10-0; Bruker AXS'
_computing_molecular_graphics    ' XP (SHELXTL-NT v6.14, Bruker AXS)'
_computing_publication_material
;
;
_computing_structure_refinement  'SHELXL-2014 (Sheldrick, 2014)'
_computing_structure_solution    ' SHELXT-2014 (Sheldrick, 2014)'
_diffrn_ambient_temperature      180(2)
_diffrn_measured_fraction_theta_full 0.998
_diffrn_measured_fraction_theta_max 0.996
_diffrn_measurement_device_type  'Bruker Smart Apex2 CCD (Bruker AXS)'
_diffrn_measurement_method       'CCD rotation images, \f and \w scans'
_diffrn_radiation_monochromator  'horizontal mounted graphite crystal'
_diffrn_radiation_type           MoK\a
_diffrn_radiation_wavelength     0.71073
_diffrn_reflns_av_R_equivalents  0.0557
_diffrn_reflns_av_unetI/netI     0.0585
_diffrn_reflns_Laue_measured_fraction_full 0.998
_diffrn_reflns_Laue_measured_fraction_max 0.996
_diffrn_reflns_limit_h_max       32
_diffrn_reflns_limit_h_min       -25
_diffrn_reflns_limit_k_max       20
_diffrn_reflns_limit_k_min       -20
_diffrn_reflns_limit_l_max       19
_diffrn_reflns_limit_l_min       -19
_diffrn_reflns_number            26091
_diffrn_reflns_point_group_measured_fraction_full 0.998
_diffrn_reflns_point_group_measured_fraction_max 0.996
_diffrn_reflns_theta_full        25.242
_diffrn_reflns_theta_max         26.389
_diffrn_reflns_theta_min         1.628
_diffrn_source                   'Bruker AXS K780, fine-focus sealed tube'
_exptl_absorpt_coefficient_mu    2.660
_exptl_absorpt_correction_type   multi-scan
_exptl_absorpt_process_details   'SADABS v2012/1 (Apex2, Bruker AXS)'
_exptl_crystal_colour            colorless
_exptl_crystal_density_diffrn    1.613
_exptl_crystal_density_meas      ?
_exptl_crystal_description       plate
_exptl_crystal_F_000             3232
_exptl_crystal_size_max          0.224
_exptl_crystal_size_mid          0.115
_exptl_crystal_size_min          0.064
_exptl_transmission_factor_max   0.7454
_exptl_transmission_factor_min   0.5449
_refine_diff_density_max         1.246
_refine_diff_density_min         -0.696
_refine_diff_density_rms         0.086
_refine_ls_extinction_method     none
_refine_ls_goodness_of_fit_ref   1.026
_refine_ls_hydrogen_treatment    mixed
_refine_ls_matrix_type           full
_refine_ls_number_parameters     430
_refine_ls_number_reflns         6657
_refine_ls_number_restraints     2
_refine_ls_restrained_S_all      1.030
_refine_ls_R_factor_all          0.0908
_refine_ls_R_factor_gt           0.0532
_refine_ls_shift/su_max          0.001
_refine_ls_shift/su_mean         0.000
_refine_ls_structure_factor_coef Fsqd
_refine_ls_weighting_details
;
 w=1/[\s^2^(Fo^2^)+(0.0518P)^2^+24.9829P]
 where P=(Fo^2^+2Fc^2^)/3
;
_refine_ls_weighting_scheme      calc
_refine_ls_wR_factor_gt          0.1219
_refine_ls_wR_factor_ref         0.1371
_reflns_Friedel_coverage         0.000
_reflns_number_gt                4398
_reflns_number_total             6657
_reflns_threshold_expression     'I > 2\s(I)'
_cod_data_source_file            ol501724s_si_002.cif
_cod_data_source_block           6
_cod_depositor_comments
;Adding full bibliography for 1517392.cif.

The following automatic conversions were performed:

'_exptl_crystal_density_meas' value 'not measured' was changed to '?'
- the value is perceived as not measured.

Automatic conversion script
Id: cif_fix_values 3008 2015-01-20 13:52:24Z robertas 
;
_cod_original_cell_volume        6528.6(11)
_cod_database_code               1517392
#BEGIN Tags that were not found in dictionaries:
_shelx_space_group_comment
;
The symmetry employed for this shelxl refinement is uniquely defined
by the following loop, which should always be used as a source of
symmetry information in preference to the above space-group names.
They are only intended as comments.
;
_shelx_estimated_absorpt_t_min   0.587
_shelx_estimated_absorpt_t_max   0.848
_shelxl_version_number           2012-9
_shelx_res_file
;
REM Solution 1  R1  0.186  Rweak  0.008,  Alpha = 0.0319  in C2/c
REM Formula:  C34 N2 O6 S2 Br2
TITL pe_205_0m in C2/c
CELL   0.71073  26.1562  16.7699  15.5605   90.000  106.958   90.000
ZERR  16.00      0.0024   0.0016   0.0014    0.000    0.006    0.000
LATT  7
SYMM -X, Y, 1/2-Z
SFAC C   H   BR N  O  S
UNIT 272 288 16 16 48 16
TEMP -93.170
SIZE 0.064 0.115 0.224
OMIT  4  8  0
OMIT -5  1  1
OMIT -7  1  2
OMIT  6  0  0
OMIT  2  4  3
SADI Br21 C25 Br2b C26
SADI O21A C26 O21B C25
EADP Br21 Br2B
EADp o21a o21b
L.S. 10
CONF
ACTA
BOND $H
LIST 4
FMAP 2
PLAN 20
WGHT    0.051800   24.982904
FVAR       0.06703   0.93817
BR1   3    0.376543    0.279958    0.639484    11.00000    0.03036    0.05552 =
         0.04830   -0.00234    0.01755   -0.00118
PART 1
BR21  3    0.378767    0.209988    0.392133    21.00000    0.03515    0.04092 =
         0.04589    0.00230    0.01392   -0.00589
O21A  5    0.463413    0.086517    0.380584    21.00000    0.03364    0.02100 =
         0.03960   -0.00321    0.01442   -0.00583
AFIX  83
H21A  2    0.432356    0.085805    0.385851    21.00000   -1.20000
AFIX   0
PART 2
BR2B  3    0.445232    0.078701    0.389797   -21.00000    0.03515    0.04092 =
         0.04589    0.00230    0.01392   -0.00589
O21B  5    0.401668    0.236068    0.404460   -21.00000    0.03364    0.02100 =
         0.03960   -0.00321    0.01442   -0.00583
AFIX  83
H21B  2    0.391704    0.190251    0.414383   -21.00000   -1.20000
AFIX   0
PART 0
S1    6    0.647427    0.082742    0.605152    11.00000    0.03524    0.05397 =
         0.02817   -0.00333    0.01186    0.01124
S21   6    0.647143    0.422058    0.362738    11.00000    0.03109    0.04305 =
         0.02722    0.00348    0.01151   -0.00095
O1    5    0.458669    0.408753    0.638959    11.00000    0.04898    0.02029 =
         0.04638   -0.00105    0.01208    0.00147
AFIX 148
H1    2    0.430591    0.406174    0.649651    11.00000   -1.20000
AFIX   0
O2    5    0.628111    0.002925    0.579351    11.00000    0.05389    0.04470 =
         0.04372   -0.01990    0.00949    0.00917
O3    5    0.681637    0.121310    0.561789    11.00000    0.04384    0.07572 =
         0.03595    0.00683    0.01623    0.00994
O22   5    0.628805    0.502272    0.339877    11.00000    0.03860    0.04219 =
         0.04121    0.01257    0.01413   -0.00061
O23   5    0.681470    0.384446    0.318135    11.00000    0.03798    0.06564 =
         0.03096   -0.00194    0.01728    0.00315
N1    4    0.595050    0.139247    0.588943    11.00000    0.03237    0.04489 =
         0.02494   -0.00163    0.00791    0.00589
N21   4    0.593938    0.366917    0.343435    11.00000    0.03239    0.03437 =
         0.02838    0.00164    0.01220    0.00144
C2    1    0.546922    0.107256    0.608281    11.00000    0.03735    0.03543 =
         0.03407   -0.00259    0.00733    0.00087
AFIX  23
H2A   2    0.556454    0.076051    0.664742    11.00000   -1.20000
H2B   2    0.525798    0.073296    0.558494    11.00000   -1.20000
AFIX   0
C3    1    0.517035    0.181979    0.616973    11.00000    0.03026    0.02956 =
         0.02293    0.00293    0.00222    0.00242
C4    1    0.465940    0.187362    0.625999    11.00000    0.02535    0.03547 =
         0.02890    0.00233    0.00856   -0.00372
C5    1    0.447027    0.264470    0.632764    11.00000    0.02029    0.04051 =
         0.02850    0.00150    0.01027    0.00012
C6    1    0.477618    0.332135    0.632435    11.00000    0.02836    0.02925 =
         0.02842    0.00277    0.01002    0.00347
C7    1    0.529223    0.325308    0.625214    11.00000    0.03288    0.03158 =
         0.02469    0.00480    0.00805   -0.00590
C8    1    0.547992    0.249866    0.616574    11.00000    0.02489    0.03419 =
         0.01665    0.00212    0.00546   -0.00230
C9    1    0.601422    0.225772    0.606606    11.00000    0.02577    0.04007 =
         0.03186    0.00922    0.00843    0.00081
AFIX  23
H9A   2    0.608992    0.254109    0.555847    11.00000   -1.20000
H9B   2    0.630565    0.236704    0.662288    11.00000   -1.20000
AFIX   0
C10   1    0.433645    0.113746    0.627196    11.00000    0.04066    0.03806 =
         0.05850    0.00557    0.01945   -0.00665
AFIX 137
H10A  2    0.400751    0.115409    0.576920    11.00000   -1.50000
H10B  2    0.424557    0.111156    0.683939    11.00000   -1.50000
H10C  2    0.454512    0.066547    0.621512    11.00000   -1.50000
AFIX   0
C11   1    0.563537    0.399214    0.627376    11.00000    0.04129    0.03417 =
         0.05361    0.00629    0.01614   -0.01214
AFIX 137
H11A  2    0.598269    0.383273    0.620892    11.00000   -1.50000
H11B  2    0.568876    0.427010    0.684724    11.00000   -1.50000
H11C  2    0.545520    0.434858    0.577903    11.00000   -1.50000
AFIX   0
C12   1    0.679968    0.083987    0.722211    11.00000    0.02897    0.04438 =
         0.03019   -0.00270    0.00932    0.01373
C13   1    0.716758    0.141271    0.758757    11.00000    0.03203    0.04624 =
         0.03822    0.00321    0.01550    0.00777
AFIX  43
H13   2    0.728559    0.176534    0.720690    11.00000   -1.20000
AFIX   0
C14   1    0.737057    0.148398    0.851080    11.00000    0.02929    0.05145 =
         0.04016   -0.00683    0.00588    0.00454
AFIX  43
H14   2    0.762518    0.188810    0.875999    11.00000   -1.20000
AFIX   0
C15   1    0.720462    0.096855    0.907622    11.00000    0.02800    0.05190 =
         0.03103    0.00138    0.00901    0.01349
C16   1    0.684711    0.035689    0.868654    11.00000    0.03285    0.04434 =
         0.03637    0.00694    0.01308    0.01579
AFIX  43
H16   2    0.674504   -0.002136    0.906032    11.00000   -1.20000
AFIX   0
C17   1    0.664304    0.029891    0.777067    11.00000    0.02789    0.04238 =
         0.03448    0.00123    0.00704    0.00730
AFIX  43
H17   2    0.639497   -0.011089    0.751271    11.00000   -1.20000
AFIX   0
C18   1    0.739597    0.106740    1.008086    11.00000    0.05328    0.06954 =
         0.03064   -0.00256    0.01116    0.01279
AFIX 137
H18A  2    0.777319    0.122479    1.026405    11.00000   -1.50000
H18B  2    0.735578    0.056149    1.036970    11.00000   -1.50000
H18C  2    0.718351    0.148029    1.026298    11.00000   -1.50000
AFIX   0
C22   1    0.547127    0.395045    0.369927    11.00000    0.02364    0.03567 =
         0.03283   -0.00008    0.00785    0.00009
AFIX  23
H22A  2    0.525164    0.432618    0.325084    11.00000   -1.20000
H22B  2    0.558153    0.421186    0.429554    11.00000   -1.20000
AFIX   0
C23   1    0.517341    0.318072    0.372518    11.00000    0.02614    0.03198 =
         0.01982   -0.00199    0.00236    0.00109
C24   1    0.466454    0.309351    0.382731    11.00000    0.03229    0.02606 =
         0.02259    0.00256    0.00429    0.00282
C25   1    0.448311    0.230769    0.383866    11.00000    0.02853    0.03529 =
         0.02568    0.00436    0.00586   -0.00271
C26   1    0.479949    0.165263    0.378001    11.00000    0.04645    0.02929 =
         0.02114    0.00112    0.00318   -0.00236
C27   1    0.530777    0.175166    0.366518    11.00000    0.02983    0.03104 =
         0.02331   -0.00054    0.00153    0.00306
C28   1    0.548114    0.252687    0.364082    11.00000    0.03399    0.03278 =
         0.01608   -0.00246    0.00320   -0.00129
C29   1    0.600397    0.278011    0.353412    11.00000    0.03505    0.03780 =
         0.02772   -0.00512    0.01021   -0.00214
AFIX  23
H29A  2    0.606690    0.253662    0.299428    11.00000   -1.20000
H29B  2    0.630248    0.263797    0.406901    11.00000   -1.20000
AFIX   0
C30   1    0.433760    0.380401    0.392922    11.00000    0.03604    0.03310 =
         0.04234    0.00158    0.01373    0.00302
AFIX 137
H30A  2    0.449756    0.428924    0.376882    11.00000   -1.50000
H30B  2    0.432953    0.384161    0.455363    11.00000   -1.50000
H30C  2    0.397236    0.374485    0.353172    11.00000   -1.50000
AFIX   0
C31   1    0.564254    0.104010    0.358349    11.00000    0.04424    0.03048 =
         0.03891   -0.00608    0.01075    0.00538
AFIX 137
H31A  2    0.547959    0.077015    0.301028    11.00000   -1.50000
H31B  2    0.566225    0.067003    0.407955    11.00000   -1.50000
H31C  2    0.600345    0.121746    0.360754    11.00000   -1.50000
AFIX   0
C32   1    0.678363    0.418415    0.479463    11.00000    0.02590    0.03575 =
         0.02885   -0.00110    0.00931   -0.00825
C33   1    0.713631    0.357370    0.515379    11.00000    0.03264    0.03782 =
         0.03187   -0.00331    0.00929    0.00028
AFIX  43
H33   2    0.724148    0.320802    0.477081    11.00000   -1.20000
AFIX   0
C34   1    0.733543    0.350090    0.608202    11.00000    0.03151    0.04235 =
         0.03648    0.00654    0.00496   -0.00194
AFIX  43
H34   2    0.757559    0.307928    0.633073    11.00000   -1.20000
AFIX   0
C35   1    0.718970    0.403245    0.665030    11.00000    0.02683    0.05042 =
         0.02728   -0.00201    0.00610   -0.01693
C36   1    0.685563    0.466384    0.627590    11.00000    0.03284    0.04299 =
         0.03243   -0.01112    0.01533   -0.01492
AFIX  43
H36   2    0.676835    0.505015    0.665703    11.00000   -1.20000
AFIX   0
C37   1    0.664873    0.473647    0.535503    11.00000    0.02661    0.03698 =
         0.03279   -0.00070    0.00904   -0.00519
AFIX  43
H37   2    0.641428    0.516438    0.510606    11.00000   -1.20000
AFIX   0
C38   1    0.739126    0.393387    0.765368    11.00000    0.05185    0.06626 =
         0.02893    0.00072    0.00745   -0.01288
AFIX 137
H38A  2    0.774651    0.368790    0.781644    11.00000   -1.50000
H38B  2    0.714502    0.359221    0.785592    11.00000   -1.50000
H38C  2    0.741358    0.445730    0.794238    11.00000   -1.50000
AFIX   0
HKLF 4

REM  pe_205_0m in C2/c
REM R1 =  0.0532 for    4398 Fo > 4sig(Fo)  and  0.0908 for all    6657 data
REM    430 parameters refined using      2 restraints

END

WGHT      0.0518     24.9807

REM Highest difference peak  1.246,  deepest hole -0.696,  1-sigma level  0.086
Q1    1   0.6633  0.1302  0.5986  11.00000  0.05    1.25
Q2    1   0.6688  0.3803  0.3599  11.00000  0.05    0.63
Q3    1   0.4107  0.1841  0.4023  11.00000  0.05    0.60
Q4    1   0.6972  0.1700  0.5772  11.00000  0.05    0.58
Q5    1   0.3982  0.2351  0.6482  11.00000  0.05    0.48
Q6    1   0.6492  0.0438  0.5661  11.00000  0.05    0.46
Q7    1   0.5721  0.1323  0.6005  11.00000  0.05    0.41
Q8    1   0.4515  0.4123  0.5986  11.00000  0.05    0.40
Q9    1   0.6207  0.3951  0.3524  11.00000  0.05    0.39
Q10   1   0.6049  0.1821  0.5868  11.00000  0.05    0.39
Q11   1   0.3488  0.1807  0.3805  11.00000  0.05    0.39
Q12   1   0.3421  0.3107  0.5799  11.00000  0.05    0.38
Q13   1   0.4237  0.0845  0.3985  11.00000  0.05    0.38
Q14   1   0.6168  0.1064  0.5962  11.00000  0.05    0.36
Q15   1   0.4707  0.3894  0.6586  11.00000  0.05    0.35
Q16   1   0.4096  0.3263  0.6449  11.00000  0.05    0.34
Q17   1   0.3437  0.2362  0.3202  11.00000  0.05    0.33
Q18   1   0.4128  0.2461  0.3942  11.00000  0.05    0.33
Q19   1   0.3505  0.1359  0.3770  11.00000  0.05    0.33
Q20   1   0.4189  0.2726  0.6540  11.00000  0.05    0.33
;
_shelx_res_checksum              8304
_shelx_hkl_file
;
   2   0   0  249.38   10.50
  -2   0   0  249.78   10.50
   4   0   0  475.35   19.90
   4   0   0  507.55   21.30
   4   0   0  431.26   20.40
  -4   0   0  474.05   19.90
   6   0   0    5.70    0.70
  -6   0   0    4.50    0.70
   6   0   0    7.00    1.10
   6   0   0    4.90    0.90
   8   0   0  175.18    7.90
   8   0   0  177.28    8.30
   8   0   0  190.28    7.90
   8   0   0  184.98    8.80
  10   0   0  377.46   16.30
  10   0   0  378.26   17.00
  10   0   0  373.16   16.10
  10   0   0  399.26   17.80
  12   0   0  948.41   39.80
  12   0   0  934.01   40.30
  12   0   0  936.81   41.50
  12   0   0 1003.80   43.50
  14   0   0  177.58    8.80
  14   0   0  181.78    8.20
  14   0   0  186.58    8.20
  14   0   0  186.88    9.30
  16   0   0  105.99    5.20
  16   0   0  109.49    5.20
  16   0   0  108.79    6.20
  16   0   0  109.69    5.90
  18   0   0   16.50    1.80
  18   0   0   21.20    2.70
  18   0   0   17.50    2.30
  18   0   0   20.70    1.80
  20   0   0  125.29    6.40
  20   0   0  144.59    7.50
  20   0   0  130.39    7.80
  20   0   0  146.39    6.70
  22   0   0    2.50    2.00
  22   0   0    3.60    1.90
  24   0   0    8.30    2.50
  24   0   0   16.40    3.10
  26   0   0    3.10    2.40
  26   0   0    1.60    2.50
  28   0   0   25.10    3.70
  28   0   0   18.80    3.60
  30   0   0   41.40    5.10
  30   0   0   34.30    4.70
   3  -1   0    0.30    0.30
   3  -1   0    0.40    0.30
  -3  -1   0    0.00    0.20
   3   1   0    0.20    0.30
   3   1   0    0.30    0.40
   5  -1   0    1.60    0.60
  -5  -1   0    1.00    0.50
   5  -1   0    0.50    0.50
   5  -1   0    1.30    0.40
   5   1   0    0.80    0.50
   5   1   0    2.00    0.70
   5   1   0    0.80    0.40
  -5   1   0    0.60    0.40
   7  -1   0    1.60    0.50
   7  -1   0    1.00    0.60
   7  -1   0    1.50    0.70
  -7  -1   0    1.20    0.50
   7   1   0    1.10    0.70
  -7   1   0    0.70    0.50
   7   1   0    0.50    0.80
   7   1   0    0.60    0.50
   9  -1   0    1.70    0.90
   9  -1   0    1.30    0.60
   9  -1   0    1.60    0.80
   9  -1   0    1.40    0.60
   9   1   0    2.30    0.90
   9   1   0    1.00    0.60
   9   1   0    1.70    0.60
   9   1   0    0.80    0.70
  11  -1   0    0.40    0.70
  11  -1   0    0.30    0.90
  11  -1   0   -0.70    0.80
  11  -1   0    0.50    0.70
  11   1   0    0.70    0.90
  11   1   0    0.50    0.60
  11   1   0    0.30    0.70
  11   1   0    0.10    1.00
  13  -1   0    1.50    1.10
  13  -1   0    0.40    1.00
  13  -1   0    2.00    0.80
  13  -1   0    0.50    0.70
  13   1   0    1.60    0.80
  13   1   0    0.90    1.10
  13   1   0    1.70    1.00
  13   1   0    0.20    0.70
  15  -1   0    0.80    0.80
  15  -1   0    0.80    1.20
  15  -1   0    2.00    1.10
  15  -1   0    1.00    0.80
  15   1   0   -0.60    1.00
  15   1   0    0.90    1.30
  15   1   0    1.60    0.80
  15   1   0    1.10    0.80
  17  -1   0    0.70    1.00
  17  -1   0    0.20    1.20
  17  -1   0   -0.40    1.40
  17  -1   0    0.60    0.80
  17   1   0   -0.70    1.20
  17   1   0    1.40    0.60
  17   1   0    0.70    1.00
  17   1   0    2.00    1.50
  19  -1   0    0.20    1.50
  19  -1   0   -0.50    1.00
  19  -1   0    0.20    1.40
  19  -1   0    1.20    1.00
  19   1   0    2.10    1.70
  19   1   0    1.30    1.50
  19   1   0    0.10    1.10
  19   1   0    1.10    0.90
  21  -1   0    4.30    2.00
  21  -1   0   -0.40    1.20
  21  -1   0   -0.10    1.50
  21  -1   0    0.40    1.10
  21   1   0    0.90    1.20
  21   1   0   -2.10    1.60
  21   1   0    1.70    1.70
  23  -1   0   -2.60    1.60
  23  -1   0   -1.10    2.00
  23   1   0   -0.20    1.80
  23   1   0   -1.50    1.90
  25  -1   0    1.40    2.00
  25  -1   0    2.20    2.30
  25   1   0    0.60    2.20
  25   1   0   -0.60    1.90
  27  -1   0   -0.80    2.20
  27  -1   0    0.20    2.40
  27   1   0    1.80    2.30
  27   1   0   -1.10    2.40
  29  -1   0    1.90    2.80
  29  -1   0    1.00    2.60
  29   1   0   -0.90    2.30
  29   1   0   -0.60    2.50
  31  -1   0   -5.10    2.50
  31  -1   0   -0.70    2.90
  31   1   0   -1.20    2.60
  31   1   0    3.20    3.00
   0  -2   0  508.05   21.30
   2  -2   0  740.23   32.20
  -2  -2   0  740.33   31.40
   2   2   0  744.43   32.20
   2   2   0  773.82   31.40
   4  -2   0   34.00    1.90
   4  -2   0   39.20    1.90
   4   2   0   35.10    2.10
   4   2   0   31.60    1.90
  -6  -2   0  343.57   15.00
   6  -2   0  354.56   15.00
   6  -2   0  382.66   16.10
   6   2   0  272.17   14.90
   6   2   0  366.96   15.40
   6   2   0  396.66   16.30
   8  -2   0  687.23   30.10
   8  -2   0  702.63   30.90
   8  -2   0  725.83   32.20
   8   2   0  746.63   32.50
   8   2   0  708.53   30.90
   8   2   0  708.53   29.70
  10  -2   0  119.09    6.00
  10  -2   0  127.09    6.20
  10  -2   0  120.79    5.60
  10   2   0  112.49    5.50
  10   2   0  134.49    6.50
  10   2   0  122.19    6.00
  12  -2   0  546.85   25.30
  12  -2   0  545.75   23.50
  12  -2   0  543.85   24.30
  12   2   0  562.74   23.20
  12   2   0  544.85   24.30
  12   2   0  560.84   25.60
  14  -2   0  124.49    6.00
  14  -2   0  128.49    6.60
  14  -2   0  132.69    6.80
  14   2   0  122.49    5.90
  14   2   0  127.49    6.90
  14   2   0  129.89    6.50
  16  -2   0  103.09    5.70
  16  -2   0  109.79    5.10
  16  -2   0  103.79    5.90
  16   2   0  100.49    5.70
  16   2   0  105.09    5.10
  16   2   0   95.69    4.90
  16   2   0  105.89    6.10
  18  -2   0   31.70    2.40
  18  -2   0   30.10    3.00
  18  -2   0   33.00    3.10
  18   2   0   27.30    2.80
  18   2   0   23.40    3.00
  18   2   0   31.30    2.10
  18   2   0   30.40    2.40
  20  -2   0   94.69    6.10
  20  -2   0   97.19    5.00
  20  -2   0   93.39    5.80
  20   2   0   87.29    6.10
  20   2   0   99.59    5.10
  20   2   0  103.99    5.90
  22  -2   0   29.60    3.30
  22  -2   0   25.80    2.30
  22  -2   0   27.80    3.40
  22   2   0   22.10    3.30
  22   2   0   19.30    2.80
  24  -2   0   78.79    5.70
  24  -2   0   78.39    5.80
  24   2   0   79.09    6.00
  24   2   0   83.09    5.70
  26  -2   0    1.60    2.40
  26  -2   0    2.00    2.30
  26   2   0    1.50    2.30
  26   2   0    3.70    2.20
  28  -2   0   74.29    6.30
  28  -2   0   74.19    6.10
  28   2   0   70.69    6.20
  28   2   0   76.19    6.00
  30  -2   0    6.30    3.30
  30  -2   0    3.20    2.80
  30   2   0    5.10    2.70
  30   2   0    5.40    3.10
  -1  -3   0    4.40    0.40
   1  -3   0    4.40    0.40
  -1   3   0    3.50    0.50
   1   3   0    3.20    0.50
  -3  -3   0    4.30    0.50
   3  -3   0    6.00    0.70
   3   3   0    7.80    0.80
   3   3   0    5.40    0.50
   3   3   0    5.00    0.70
  -5  -3   0    2.80    0.50
   5  -3   0    3.30    0.60
   5  -3   0    2.60    0.60
   5   3   0    3.90    0.70
   5   3   0    2.10    0.60
   5   3   0    2.90    0.90
   5   3   0    3.40    0.40
   7  -3   0    3.30    0.70
  -7  -3   0    1.50    0.50
   7  -3   0    2.40    0.60
   7  -3   0    2.50    0.70
   7   3   0    2.90    0.50
   7   3   0    2.00    0.70
   7   3   0    2.60    0.70
   7   3   0    2.60    1.00
   9  -3   0    3.30    0.90
   9  -3   0    2.70    0.70
   9  -3   0    2.00    0.80
   9   3   0    3.20    0.60
   9   3   0    3.40    0.90
   9   3   0    2.20    0.70
   9   3   0    2.90    1.10
  11  -3   0    0.10    0.90
  11  -3   0    1.00    0.80
  11  -3   0    1.10    0.70
  11   3   0    0.60    0.80
  11   3   0    2.40    0.80
  11   3   0    1.00    0.60
  11   3   0   -1.50    0.90
  13  -3   0    1.80    0.80
  13  -3   0    3.30    1.20
  13  -3   0    1.80    1.10
  13   3   0    2.70    1.10
  13   3   0    1.90    1.20
  13   3   0    2.40    0.70
  13   3   0    1.70    0.90
  15  -3   0    1.10    1.20
  15  -3   0    1.00    0.80
  15  -3   0    0.80    1.20
  15   3   0   -0.70    1.20
  15   3   0   -0.10    0.70
  15   3   0    2.00    1.20
  15   3   0    1.50    0.90
  17  -3   0    1.90    1.10
  17  -3   0    3.80    1.60
  17  -3   0    2.10    1.40
  17   3   0    1.70    1.10
  17   3   0    2.50    1.40
  17   3   0    3.20    0.90
  17   3   0    3.90    1.70
  19  -3   0    2.20    1.50
  19  -3   0    2.10    1.20
  19  -3   0    0.60    1.60
  19   3   0    0.50    1.20
  19   3   0    2.60    1.60
  19   3   0   -0.40    1.60
  21  -3   0   -0.60    1.70
  21  -3   0   -1.40    1.70
  21  -3   0    1.40    1.20
  21   3   0   -0.30    1.20
  21   3   0    1.30    2.00
  21   3   0    0.60    1.70
  23  -3   0    1.60    1.30
  23  -3   0    1.20    2.00
  23  -3   0    2.70    2.10
  23   3   0    1.70    1.90
  23   3   0    0.90    2.10
  25  -3   0    2.80    2.30
  25  -3   0   -0.60    2.20
  25   3   0    0.20    1.90
  25   3   0    2.70    2.30
  27  -3   0    4.00    2.60
  27  -3   0    1.40    2.30
  27   3   0    0.50    2.30
  27   3   0   -2.90    2.30
  29  -3   0    3.50    2.90
  29  -3   0    0.80    2.50
  29   3   0    1.30    2.60
  29   3   0   -2.00    2.40
   0  -4   0  258.27   11.10
   0   4   0  268.07   11.50
   2  -4   0   53.39    2.30
  -2  -4   0   43.30    2.20
   2   4   0   43.70    2.50
   2   4   0   52.19    2.50
  -2   4   0   54.19    2.50
   4  -4   0 1427.76   61.99
  -4  -4   0 1402.56   60.49
   4   4   0 1487.85   60.39
   4   4   0 1528.85   64.79
   4   4   0 1403.96   59.79
   4   4   0 1428.56   61.99
   6  -4   0   80.59    3.70
   6   4   0   74.79    3.60
   6   4   0   75.99    3.80
   6   4   0   68.19    3.40
   6   4   0   77.79    4.10
   8  -4   0  573.14   25.50
   8  -4   0  549.85   24.60
   8   4   0  583.64   25.90
   8   4   0  541.45   24.60
   8   4   0  560.44   23.70
   8   4   0  571.84   23.60
  10  -4   0   16.50    1.30
  10  -4   0   18.20    1.60
  10  -4   0   15.50    1.60
  10   4   0   14.70    1.40
  10   4   0   15.10    1.90
  10   4   0   15.90    1.10
  10   4   0   14.30    1.60
  12  -4   0  367.86   15.60
  12  -4   0  332.37   14.90
  12  -4   0  348.07   16.10
  12   4   0  336.27   15.60
  12   4   0  342.87   14.70
  12   4   0  341.97   14.80
  14  -4   0   34.60    2.70
  14  -4   0   30.40    2.10
  14  -4   0   27.60    2.50
  14   4   0   27.30    1.70
  14   4   0   29.80    2.50
  14   4   0   29.40    2.20
  14   4   0   27.90    2.90
  16  -4   0  249.08   11.90
  16  -4   0  254.07   12.20
  16  -4   0  240.48   11.10
  16   4   0  239.38   12.50
  16   4   0  243.18   11.80
  16   4   0  253.97   11.10
  16   4   0  253.17   10.80
  18  -4   0   24.80    2.70
  18  -4   0   18.20    1.90
  18  -4   0   19.50    2.60
  18   4   0   19.60    2.10
  18   4   0   21.60    2.50
  18   4   0   17.70    2.60
  20  -4   0   42.80    3.70
  20  -4   0   41.20    3.00
  20  -4   0   40.00    3.90
  20   4   0   41.00    3.70
  20   4   0   41.40    3.20
  20   4   0   38.70    4.00
  22  -4   0    7.20    1.60
  22  -4   0    7.10    2.30
  22  -4   0    5.90    2.30
  22   4   0    6.80    1.70
  22   4   0    5.20    2.40
  22   4   0    4.90    2.10
  24  -4   0  117.39    6.30
  24  -4   0  130.59    7.60
  24  -4   0  119.49    7.50
  24   4   0  130.89    7.40
  24   4   0  103.59    7.50
  26  -4   0    3.60    2.40
  26  -4   0    3.20    2.40
  26   4   0    0.80    2.30
  26   4   0    1.10    2.50
  28  -4   0   65.69    5.90
  28  -4   0   62.79    5.80
  28   4   0   71.59    5.80
  28   4   0   45.70    5.30
  30  -4   0    3.30    2.90
  30  -4   0   -0.90    2.70
  30   4   0   -1.80    2.60
  30   4   0    0.90    2.80
   1  -5   0    0.90    0.40
  -1  -5   0    1.20    0.40
   1   5   0    0.50    0.60
   1   5   0    1.50    0.60
   1   5   0    1.30    0.50
  -1   5   0    2.00    0.70
   3  -5   0    1.90    0.50
  -3  -5   0    2.40    0.40
  -3   5   0    3.00    0.70
   3   5   0    2.20    0.70
   3   5   0    1.60    0.70
   3   5   0    2.80    0.70
   3   5   0    4.30    0.80
  -5  -5   0    5.40    0.60
   5  -5   0    4.80    0.90
   5  -5   0    5.90    0.60
   5   5   0    8.10    1.20
   5   5   0    4.70    0.80
   5   5   0    6.50    0.90
   5   5   0    6.00    0.90
   7  -5   0    1.00    0.60
   7  -5   0    0.50    0.70
   7   5   0    1.90    0.80
   7   5   0    1.90    0.70
   7   5   0    1.50    1.00
   7   5   0    1.70    0.80
   9  -5   0    2.70    0.80
   9  -5   0    2.60    0.90
   9   5   0    2.60    0.80
   9   5   0    3.60    1.20
   9   5   0    3.80    0.50
   9   5   0    3.70    1.00
   9   5   0    5.80    1.00
  11  -5   0    0.90    0.80
  11  -5   0    0.20    0.90
  11  -5   0    2.20    0.90
  11   5   0    1.80    0.40
  11   5   0    1.00    0.90
  11   5   0    3.10    1.30
  11   5   0    3.00    0.90
  13  -5   0    4.60    1.00
  13  -5   0    4.60    1.20
  13  -5   0    2.40    1.20
  13   5   0    4.50    0.60
  13   5   0    5.10    1.10
  13   5   0    3.80    1.20
  13   5   0    4.10    0.60
  13   5   0    2.90    1.40
  15  -5   0    2.30    1.00
  15  -5   0   -0.30    1.20
  15  -5   0    3.10    1.30
  15   5   0    1.60    1.50
  15   5   0    1.60    1.30
  15   5   0    1.80    1.10
  17  -5   0    1.90    1.50
  17  -5   0    4.80    1.20
  17  -5   0    1.80    1.60
  17   5   0   -0.70    1.60
  17   5   0    3.80    1.30
  17   5   0    2.10    1.50
  19  -5   0    3.50    1.90
  19  -5   0    2.00    1.20
  19  -5   0    4.80    1.90
  19   5   0    5.20    1.50
  19   5   0    4.60    1.80
  19   5   0    7.40    2.20
  21  -5   0    1.40    1.80
  21  -5   0    2.10    1.30
  21  -5   0   -1.10    1.80
  21   5   0    0.20    1.40
  21   5   0   -0.20    1.80
  21   5   0    2.00    1.70
  23  -5   0    3.90    2.20
  23  -5   0    2.60    2.10
  23  -5   0    1.40    1.50
  23   5   0    1.20    2.10
  23   5   0    1.30    2.00
  25  -5   0    0.50    2.20
  25  -5   0    1.80    2.30
  25   5   0    1.60    2.30
  25   5   0   -0.30    2.10
  27  -5   0    2.90    2.70
  27  -5   0    5.30    2.70
  27   5   0    1.00    2.40
  27   5   0   -0.70    2.60
  29  -5   0    3.30    2.80
  29  -5   0    0.90    2.70
  29   5   0    3.50    2.90
  29   5   0    3.60    2.60
   0  -6   0  562.44   23.50
   0   6   0  552.84   24.20
   2  -6   0    9.40    0.80
  -2  -6   0    8.30    0.80
   2   6   0   10.30    1.10
   2   6   0    8.30    1.00
  -2   6   0   10.40    1.10
   2   6   0   13.00    1.10
  -4  -6   0  186.58    8.70
   4   6   0  214.08    9.60
   4   6   0  199.78    9.20
   4   6   0  204.88    8.70
   4   6   0  198.98    8.90
  -4   6   0  215.88    9.20
   6  -6   0   32.00    2.10
   6  -6   0   31.10    1.70
   6   6   0   28.60    2.00
   6   6   0   29.00    1.90
   6   6   0   26.50    2.00
   6   6   0   33.20    2.40
   8  -6   0  156.78    7.50
   8  -6   0  157.78    7.40
   8   6   0  149.69    7.10
   8   6   0  153.48    6.90
   8   6   0  167.08    8.00
   8   6   0  157.48    7.40
  10  -6   0  302.77   14.00
  10  -6   0  304.57   13.80
  10   6   0  299.07   13.10
  10   6   0  308.47   13.70
  10   6   0  313.37   14.60
  10   6   0  287.17   12.70
  12  -6   0   58.29    3.20
  12  -6   0   58.49    3.60
  12  -6   0   57.39    3.40
  12   6   0   57.59    4.00
  12   6   0   56.59    3.50
  12   6   0   55.69    3.30
  14  -6   0    9.40    1.90
  14  -6   0   11.30    1.40
  14  -6   0   12.40    1.70
  14   6   0   12.90    1.60
  14   6   0   11.80    1.80
  14   6   0   12.00    2.10
  16  -6   0   24.50    2.70
  16  -6   0   24.10    2.10
  16  -6   0   22.50    2.40
  16   6   0   23.60    2.60
  16   6   0   23.50    2.20
  16   6   0   23.40    3.00
  18  -6   0   25.70    3.10
  18  -6   0   35.10    3.10
  18  -6   0   28.90    2.50
  18   6   0   32.10    2.80
  18   6   0   30.00    3.60
  18   6   0   30.10    3.10
  20  -6   0   62.89    3.90
  20  -6   0   61.39    4.50
  20  -6   0   68.79    4.90
  20   6   0   63.69    4.70
  20   6   0   61.29    5.10
  20   6   0   56.79    4.00
  22  -6   0   24.60    2.40
  22  -6   0   28.30    3.60
  22  -6   0   26.90    3.20
  22   6   0   20.20    3.30
  22   6   0   23.20    3.10
  22   6   0   25.60    2.80
  24  -6   0    2.10    2.30
  24  -6   0    1.40    2.20
  24   6   0   -1.60    2.00
  24   6   0    0.80    2.30
  26  -6   0    6.80    2.90
  26   6   0    5.70    2.80
  26   6   0    5.50    2.60
  28  -6   0    6.30    3.00
  28   6   0    3.80    2.90
  28   6   0    3.40    2.70
  -1   7   0   -0.30    0.70
   1   7   0    0.90    0.70
   1   7   0    0.50    0.70
   1   7   0    0.20    0.60
   3   7   0    2.90    0.80
   3   7   0    1.10    0.80
  -3   7   0    2.90    0.90
   3   7   0    2.80    0.90
   3   7   0    1.60    0.80
   5   7   0    0.70    0.80
   5   7   0    1.90    1.00
   5   7   0    0.70    0.80
   5   7   0    2.20    0.80
   7  -7   0    3.70    1.10
   7  -7   0    2.80    0.60
   7   7   0    3.80    1.00
   7   7   0    4.70    1.00
   7   7   0    4.00    1.20
   7   7   0    3.10    1.00
   9  -7   0    0.90    1.00
   9  -7   0    0.90    0.70
   9   7   0    0.10    0.90
   9   7   0   -0.80    0.90
   9   7   0    0.30    0.80
   9   7   0    1.30    1.20
  11  -7   0    1.40    0.80
  11  -7   0    0.80    1.10
  11   7   0    1.60    1.30
  11   7   0   -1.10    0.90
  11   7   0    1.20    1.00
  11   7   0    1.40    1.00
  13  -7   0    1.30    1.00
  13  -7   0    1.20    0.90
  13  -7   0    2.80    1.30
  13   7   0    2.90    1.20
  13   7   0    0.80    1.40
  13   7   0    1.50    1.20
  15  -7   0    0.70    1.20
  15  -7   0    0.60    1.50
  15  -7   0    1.40    1.00
  15   7   0   -1.20    1.60
  15   7   0    1.00    1.30
  15   7   0   -1.30    1.10
  17  -7   0   -0.10    1.30
  17  -7   0    0.40    1.50
  17  -7   0   -0.40    1.10
  17   7   0    2.20    1.90
  17   7   0    0.50    1.50
  17   7   0   -0.90    1.20
  19  -7   0    0.90    1.20
  19  -7   0    3.40    1.70
  19  -7   0    3.70    2.00
  19   7   0    1.60    1.50
  19   7   0    1.50    2.00
  19   7   0   -2.20    1.70
  21  -7   0    2.70    2.00
  21  -7   0    0.10    1.40
  21   7   0    0.80    1.60
  21   7   0    1.10    2.20
  21   7   0    2.00    1.80
  23  -7   0    0.20    2.10
  23   7   0    2.00    2.00
  23   7   0   -0.50    2.10
  25  -7   0    0.70    2.40
  25   7   0   -0.80    2.30
  25   7   0   -0.60    2.20
  27  -7   0    1.50    2.60
  27   7   0   -0.70    2.70
  27   7   0   -3.60    2.30
  29  -7   0    1.50    3.00
  29   7   0   -0.70    2.80
  29   7   0   -0.30    2.70
   0   8   0   19.40    1.70
   0   8   0   20.00    1.70
   2   8   0   43.20    2.50
   2   8   0   38.20    2.40
   2   8   0   41.50    2.60
  -2   8   0   40.10    2.50
   4   8   0   29.10    2.20
   4   8   0   30.70    2.20
  -4   8   0   28.80    2.10
   4   8   0   27.90    2.10
   4   8   0   29.00    2.10
   6  -8   0  229.88   10.20
   6   8   0  219.18    9.80
   6   8   0  219.38   10.60
   6   8   0  203.68    9.50
   6   8   0  227.78   10.20
   8  -8   0   93.99    4.40
   8  -8   0   95.89    4.90
   8   8   0   91.49    4.70
   8   8   0   87.49    5.10
   8   8   0   84.49    4.70
   8   8   0   88.19    4.50
  10  -8   0    2.30    1.20
  10  -8   0    3.80    0.80
  10   8   0    2.10    1.10
  10   8   0    2.30    1.10
  10   8   0    2.40    1.20
  10   8   0    4.20    1.60
  12  -8   0    6.10    1.20
  12  -8   0    6.50    1.60
  12   8   0    8.60    1.50
  12   8   0    6.40    1.70
  12   8   0    6.00    1.40
  12   8   0    4.50    1.40
  14  -8   0    3.50    1.50
  14  -8   0    2.50    1.10
  14   8   0    2.40    1.70
  14   8   0    2.30    1.50
  14   8   0   -0.20    1.20
  16  -8   0   32.70    3.20
  16  -8   0   30.10    2.40
  16   8   0   29.50    2.70
  16   8   0   23.10    3.10
  16   8   0   30.50    3.00
  18  -8   0   37.50    2.90
  18  -8   0   45.80    4.00
  18   8   0   35.70    4.10
  18   8   0   39.20    3.20
  18   8   0   37.80    3.60
  20  -8   0    1.30    2.20
  20  -8   0    4.40    1.60
  20   8   0    5.30    1.90
  20   8   0    2.60    2.30
  20   8   0    2.10    1.90
  22  -8   0   16.10    3.00
  22   8   0   18.30    2.60
  22   8   0   18.50    3.40
  22   8   0   23.70    3.40
  24  -8   0    6.00    2.80
  24   8   0    6.90    2.70
  24   8   0    2.00    2.50
  26  -8   0   13.20    3.30
  26   8   0    9.50    3.10
  26   8   0    6.20    3.00
  28  -8   0    7.40    3.50
  28   8   0   12.00    3.30
  28   8   0    4.80    3.10
   1   9   0    4.00    1.10
   1   9   0    3.60    0.90
   1   9   0    4.70    1.10
  -1   9   0    5.50    1.20
   3   9   0    2.20    1.00
   3   9   0    0.60    0.90
   3   9   0   -1.90    0.80
   3   9   0    1.20    0.90
  -3   9   0    0.40    0.90
   5   9   0    3.10    1.10
   5   9   0    2.90    1.00
   5   9   0    2.70    1.10
   5   9   0    2.70    1.10
  -5   9   0    3.50    1.10
   7  -9   0   -0.20    1.00
   7   9   0   -1.70    0.90
   7   9   0    0.70    1.10
   7   9   0   -0.90    0.90
   7   9   0   -0.10    1.00
   9  -9   0    3.20    1.20
   9   9   0    2.00    1.10
   9   9   0    0.40    1.20
   9   9   0   -1.90    1.20
   9   9   0    2.20    1.10
  11  -9   0    1.70    1.30
  11   9   0    1.10    1.50
  11   9   0    1.80    1.30
  11   9   0    1.40    1.20
  11   9   0    3.20    1.20
  13  -9   0    3.70    1.60
  13   9   0    4.50    1.60
  13   9   0    5.70    1.90
  13   9   0    3.60    1.40
  13   9   0    5.00    1.50
  15  -9   0    4.80    1.80
  15  -9   0    0.80    1.20
  15   9   0    2.10    1.50
  15   9   0    4.20    1.80
  15   9   0    3.00    2.00
  17  -9   0    0.30    1.20
  17  -9   0    1.70    1.80
  17   9   0    2.80    1.60
  17   9   0    4.50    2.10
  17   9   0    2.60    1.80
  19  -9   0    5.20    1.60
  19  -9   0    1.80    2.10
  19   9   0    0.80    1.80
  19   9   0    4.20    2.30
  19   9   0    3.10    1.90
  21  -9   0   -0.70    2.30
  21   9   0    2.60    2.40
  21   9   0   -0.10    2.10
  21   9   0   -0.80    1.80
  23  -9   0    4.90    2.70
  23   9   0    6.30    2.80
  23   9   0    5.80    2.60
  23   9   0    4.00    2.20
  25  -9   0    1.60    2.80
  25   9   0    0.00    2.60
  25   9   0    2.60    2.70
  27  -9   0    3.00    3.00
  27   9   0    4.80    2.90
  27   9   0    4.20    3.00
   0  10   0  412.36   18.00
   0  10   0  394.66   17.00
   2  10   0   18.70    1.90
  -2  10   0   16.60    1.90
   2  10   0   20.40    1.90
   2  10   0   15.80    1.60
   4  10   0  124.59    6.10
   4  10   0  126.99    6.30
   4  10   0  128.39    6.00
  -4  10   0  125.29    6.20
   4  10   0  119.79    6.30
   6  10   0    1.70    1.20
   6  10   0    2.10    1.20
   6  10   0    2.20    1.30
   6  10   0    0.90    1.20
   8 -10   0   65.79    4.00
   8  10   0   65.69    3.80
   8  10   0   65.59    4.00
   8  10   0   65.69    4.20
   8  10   0   64.89    3.90
  10 -10   0   25.70    2.60
  10  10   0   25.10    2.40
  10  10   0   26.20    2.80
  10  10   0   23.30    2.40
  10  10   0   26.70    2.50
  12 -10   0  107.29    6.10
  12  10   0  108.79    5.80
  12  10   0  113.69    5.60
  12  10   0  108.49    6.50
  12  10   0  104.49    5.90
  14 -10   0    3.90    1.80
  14  10   0    2.70    1.60
  14  10   0    1.70    1.90
  14  10   0    1.20    1.50
  16 -10   0   58.99    3.70
  16 -10   0   49.80    4.20
  16  10   0   49.10    3.80
  16  10   0   54.99    4.60
  16  10   0   49.60    4.10
  18 -10   0    0.90    2.00
  18  10   0    3.20    1.80
  18  10   0    3.80    2.30
  18  10   0    1.50    1.90
  20 -10   0   39.60    4.30
  20  10   0   40.70    4.60
  20  10   0   41.40    3.70
  20  10   0   43.50    4.20
  22 -10   0    2.70    2.70
  22  10   0    7.80    2.70
  22  10   0    3.30    2.20
  22  10   0    5.80    2.80
  24 -10   0    8.60    3.10
  24  10   0    6.30    2.80
  24  10   0    8.30    3.00
  26 -10   0    9.70    3.50
  26  10   0    7.30    3.20
  26  10   0    9.00    3.30
  -1  11   0    7.40    1.40
  -1  11   0    6.80    1.50
   1  11   0    8.50    1.50
   1  11   0    9.00    1.60
   3  11   0    7.90    1.50
  -3  11   0    5.00    1.30
   3  11   0    4.80    1.30
   3  11   0    4.80    1.30
   5  11   0   11.40    1.60
   5  11   0    8.80    1.60
  -5  11   0    9.70    1.60
   5  11   0   10.60    1.70
   5  11   0    6.60    1.60
   7 -11   0    3.30    1.40
   7  11   0    4.70    1.40
   7  11   0    3.80    1.50
   7  11   0    4.50    1.40
   7  11   0    3.30    1.40
   9 -11   0    7.00    1.70
   9  11   0    6.60    1.70
   9  11   0    7.70    1.70
   9  11   0    6.50    1.70
   9  11   0    7.90    2.00
  11 -11   0    6.70    1.80
  11  11   0    5.00    1.60
  11  11   0    6.20    1.70
  11  11   0    4.10    1.90
  11  11   0    6.50    1.80
  13 -11   0    5.90    2.00
  13  11   0    5.30    1.80
  13  11   0    4.60    2.10
  13  11   0    5.90    1.80
  13  11   0    3.10    1.70
  15 -11   0    5.40    2.10
  15  11   0   -0.20    1.90
  15  11   0    6.30    1.80
  15  11   0    3.10    1.80
  17 -11   0    2.60    2.00
  17  11   0    0.80    1.80
  17  11   0    1.80    2.20
  17  11   0    3.40    1.90
  19 -11   0    2.70    2.30
  19  11   0   -1.30    2.00
  19  11   0    0.00    2.00
  19  11   0    4.90    2.60
  21 -11   0    3.10    2.50
  21  11   0    0.60    2.60
  21  11   0    3.60    2.20
  21  11   0    2.20    2.40
  23 -11   0   -0.20    2.70
  23  11   0    0.10    2.50
  23  11   0   -1.50    2.10
  23  11   0   -0.60    2.50
  25 -11   0    1.10    2.80
  25  11   0    0.70    2.60
  25  11   0    6.20    3.10
   0  12   0    2.90    1.40
   0  12   0    3.10    1.30
  -2  12   0   25.10    2.40
  -2  12   0   32.30    2.70
   2  12   0   26.80    2.60
   2  12   0   28.00    2.60
   4  12   0  136.59    7.00
   4  12   0  139.79    6.90
   4  12   0  139.29    7.10
  -4  12   0  143.89    7.10
  -6  12   0   53.29    3.70
   6  12   0   53.89    3.70
   6  12   0   54.59    3.60
   6  12   0   54.89    3.60
   8 -12   0   34.30    3.10
   8  12   0   28.40    2.70
   8  12   0   25.40    2.70
   8  12   0   33.80    3.10
  10 -12   0  108.69    6.50
  10  12   0  127.19    6.50
  10  12   0  113.99    6.30
  10  12   0  118.09    6.80
  10  12   0  117.09    6.10
  12 -12   0    7.60    2.10
  12  12   0    6.80    1.90
  12  12   0    6.10    1.90
  12  12   0    5.40    1.90
  12  12   0    5.70    2.00
  14 -12   0   23.40    3.10
  14  12   0   23.90    2.80
  14  12   0   23.40    3.20
  14  12   0   21.60    2.80
  14  12   0   18.70    2.70
  16 -12   0  103.19    6.40
  16  12   0  100.89    6.00
  16  12   0  110.19    6.30
  16  12   0   82.09    6.40
  18 -12   0   19.90    3.30
  18  12   0   20.80    3.10
  18  12   0   22.10    3.50
  18  12   0   21.90    3.00
  20 -12   0   36.30    4.30
  20  12   0   51.29    4.60
  20  12   0   46.60    4.10
  20  12   0   36.50    4.50
  22 -12   0    7.20    3.00
  22  12   0    5.30    2.70
  22  12   0   11.30    2.80
  22  12   0    8.20    2.90
  24 -12   0   28.00    4.60
  24  12   0   34.10    4.20
  24  12   0   26.30    4.30
   1  13   0    7.10    1.70
   1  13   0    4.60    1.70
  -1  13   0    8.20    1.80
  -1  13   0    9.60    1.80
   3  13   0   15.60    2.30
   3  13   0   21.30    2.50
  -3  13   0   18.30    2.20
  -3  13   0   19.10    2.30
   3  13   0   15.20    2.20
  -5  13   0    8.00    1.80
   5  13   0    9.00    1.90
   5  13   0    7.90    1.80
   5  13   0   11.00    2.00
   7 -13   0    9.60    2.10
   7  13   0    6.10    1.90
   7  13   0   10.50    2.10
   7  13   0    8.90    2.00
   9 -13   0    9.40    2.10
   9  13   0    7.30    1.90
   9  13   0    8.40    2.00
   9  13   0   10.70    2.10
  11 -13   0    4.30    2.00
  11  13   0    7.50    2.00
  11  13   0    3.50    1.80
  11  13   0    3.00    1.80
  13 -13   0    6.30    2.20
  13  13   0    7.00    2.10
  13  13   0    2.80    2.00
  13  13   0    5.60    2.00
  15 -13   0    4.10    2.20
  15  13   0    3.20    2.00
  15  13   0    4.20    2.20
  15  13   0    5.80    2.30
  15  13   0    3.60    2.30
  17 -13   0    8.50    2.60
  17  13   0    3.80    2.60
  17  13   0   10.80    2.50
  17  13   0    5.40    2.30
  19 -13   0    3.00    2.50
  19  13   0    0.40    2.10
  19  13   0    2.40    2.40
  19  13   0    1.40    2.60
  21 -13   0    6.50    3.00
  21  13   0    3.80    2.80
  21  13   0    6.30    2.70
  21  13   0    4.70    2.70
  23 -13   0    0.20    2.70
  23  13   0    0.10    2.80
  23  13   0   -0.80    2.70
  23  13   0    1.10    2.50
   0  14   0   44.90    3.70
   0  14   0   47.00    3.50
  -2  14   0   27.70    2.90
   2  14   0   36.20    3.20
  -2  14   0   31.20    3.00
   2  14   0   28.30    3.00
   2  14   0   32.50    3.10
   4  14   0  318.07   14.40
   4  14   0  292.47   14.00
  -4  14   0  301.57   13.60
  -4  14   0  317.67   14.40
   4  14   0  301.77   13.70
   6  14   0    1.00    1.60
  -6  14   0   -0.20    1.60
   6  14   0    4.50    1.90
   6  14   0    1.20    1.60
   8 -14   0  212.18   10.50
   8  14   0  210.78   10.00
   8  14   0  200.48   10.20
   8  14   0  214.18   10.40
  10 -14   0    4.50    1.90
  10  14   0    7.70    2.20
  10  14   0    9.60    2.30
  10  14   0    4.90    2.10
  12 -14   0   57.09    4.60
  12  14   0   49.60    4.30
  12  14   0   48.00    4.10
  12  14   0   54.29    4.40
  14 -14   0    9.90    2.60
  14  14   0   13.20    2.70
  14  14   0    7.00    2.40
  14  14   0    7.60    2.30
  16 -14   0   19.80    3.30
  16  14   0   18.00    3.00
  16  14   0   22.60    3.20
  18 -14   0   -0.80    2.20
  18  14   0    0.20    2.30
  18  14   0    0.10    2.30
  20 -14   0   10.30    3.30
  20  14   0    7.60    2.80
  20  14   0    5.90    2.80
  22 -14   0    3.00    3.00
  22  14   0    1.20    3.00
  22  14   0   -3.00    2.50
  22  14   0   -0.90    2.50
  -1  15   0    4.70    1.90
  -1  15   0    5.70    1.90
   1  15   0    6.20    2.00
   1  15   0    6.20    2.10
   1  15   0    8.00    2.10
  -3  15   0    0.50    1.60
  -3  15   0    3.60    1.90
   3  15   0    2.80    1.80
   3  15   0   -1.10    1.80
   3  15   0    2.90    1.90
   5  15   0    7.70    2.10
  -5  15   0    7.30    2.00
   5  15   0    8.00    2.10
   5  15   0    6.10    2.00
  -5  15   0    8.10    2.20
   7 -15   0    4.20    2.00
   7  15   0    3.50    1.90
   7  15   0    4.90    1.90
   7  15   0    4.70    2.10
   9 -15   0    9.20    2.30
   9  15   0    6.70    2.30
   9  15   0   10.60    2.40
   9  15   0   10.80    2.40
  11 -15   0    7.20    2.30
  11  15   0    4.10    2.20
  11  15   0    4.20    2.20
  11  15   0    2.20    2.00
  13 -15   0   13.30    2.80
  13  15   0   13.90    2.90
  13  15   0   20.20    3.10
  13  15   0   12.60    2.60
  15 -15   0   -0.50    2.20
  15  15   0   -0.20    2.10
  15  15   0   -1.20    2.20
  15  15   0    0.30    2.40
  17 -15   0    6.60    2.90
  17  15   0   13.40    3.00
  17  15   0    9.90    2.80
  19 -15   0    3.50    2.70
  19  15   0    4.30    2.70
  19  15   0    0.00    2.50
  21 -15   0    5.00    3.20
  21  15   0    4.20    2.90
  21  15   0    9.10    3.10
   0  16   0   69.49    4.80
   0  16   0   74.59    5.10
   2  16   0    6.40    2.20
   2  16   0    3.00    2.10
   2  16   0    7.20    2.20
  -2  16   0    7.40    2.20
  -2  16   0    8.60    2.30
  -4  16   0   36.40    3.70
   4  16   0   35.50    3.60
   4  16   0   33.60    3.60
  -4  16   0   38.80    3.50
   4  16   0   31.00    3.40
  -6  16   0    2.90    2.00
   6  16   0    3.30    2.10
   6  16   0   -0.30    1.80
   6  16   0    1.30    2.00
   8 -16   0   15.00    2.70
   8  16   0   19.00    2.80
   8  16   0   19.30    3.00
   8  16   0   20.50    3.00
  10 -16   0    0.40    1.90
  10  16   0    2.00    2.20
  10  16   0    6.70    2.50
  10  16   0    1.30    2.10
  12 -16   0   14.70    3.00
  12  16   0   20.00    3.00
  12  16   0   16.60    3.00
  12  16   0   17.70    3.00
  14 -16   0    0.00    2.30
  14  16   0    1.70    2.40
  14  16   0    1.90    2.30
  14  16   0    4.70    2.50
  16 -16   0   11.80    3.20
  16  16   0   10.90    2.90
  16  16   0   12.70    3.00
  16  16   0   11.40    3.10
  18 -16   0    8.10    3.00
  18  16   0    6.10    2.90
  18  16   0    4.70    2.70
  20 -16   0   11.20    3.40
  20  16   0   12.60    3.30
  20  16   0    8.50    3.10
  -1  17   0    9.30    2.40
  -1  17   0    6.80    2.30
   1  17   0    3.60    2.20
   1  17   0    8.20    2.50
   1  17   0    6.60    2.30
  -3  17   0    5.40    2.30
   3  17   0    5.80    2.30
   3  17   0    3.80    2.10
   3  17   0    3.70    2.10
  -3  17   0    3.20    2.20
   5  17   0    5.00    2.30
   5  17   0    5.60    2.20
  -5  17   0   11.70    2.50
  -5  17   0    8.60    2.40
   5  17   0    6.10    2.30
   7 -17   0    5.00    2.20
  -7  17   0    4.70    2.20
   7  17   0    0.60    2.10
   7  17   0    7.30    2.50
   7  17   0    2.70    2.20
   9 -17   0    5.10    2.30
   9  17   0    4.00    2.40
   9  17   0    6.20    2.30
  -9  17   0    1.70    2.10
   9  17   0    3.00    2.30
  11 -17   0    4.40    2.40
  11  17   0    1.60    2.30
  11  17   0    2.70    2.40
  11  17   0    5.50    2.40
  13 -17   0    6.20    2.70
  13  17   0    1.30    2.50
  13  17   0   -2.20    2.30
  13  17   0    7.30    2.60
  15 -17   0   -1.30    2.70
  15  17   0   -2.60    2.50
  15  17   0   -1.40    2.30
  15  17   0    0.70    2.60
  17 -17   0    5.70    3.00
  17  17   0    3.90    2.90
  17  17   0    4.10    2.70
   0  18   0   -0.10    2.10
   0  18   0    0.40    2.00
   0  18   0    2.40    2.30
   2  18   0   -0.30    2.10
   2  18   0    1.50    2.10
   2  18   0    5.00    2.30
  -2  18   0    6.20    2.40
  -2  18   0    4.10    2.30
  -4  18   0    2.80    2.20
   4  18   0    2.90    2.30
   4  18   0    4.50    2.30
  -4  18   0    2.70    2.30
   4  18   0    3.10    2.40
   6  18   0    7.10    2.50
   6  18   0    9.80    2.70
   6  18   0   10.20    2.70
  -6  18   0    8.10    2.50
   8 -18   0   16.90    3.10
   8  18   0   11.30    3.00
   8  18   0   17.70    3.00
  -8  18   0   11.70    2.70
   8  18   0   11.60    3.00
  10 -18   0    7.00    2.50
  10  18   0    4.90    2.40
  10  18   0    4.70    2.70
 -10  18   0    6.80    2.40
  10  18   0    2.50    2.60
  12 -18   0    9.10    3.00
  12  18   0    8.70    2.90
  12  18   0    5.00    2.50
  12  18   0    2.80    2.90
  14 -18   0   -2.40    2.40
  14  18   0   -1.60    2.60
  14  18   0   -1.10    2.40
  14  18   0    3.20    2.70
   1  19   0   -2.00    2.10
   1  19   0    1.30    2.20
  -1  19   0    3.20    2.30
  -1  19   0    2.90    2.40
   1  19   0    1.40    2.20
  -1  19   0    0.90    2.30
  -3  19   0    5.60    2.40
  -3  19   0    2.20    2.30
   3  19   0   -2.20    2.20
   3  19   0   -0.10    2.20
   3  19   0    0.80    2.30
  -5  19   0    0.70    2.20
   5  19   0    1.30    2.40
   5  19   0    2.10    2.40
   5  19   0    3.80    2.40
   7 -19   0    6.00    2.50
   7  19   0    2.00    2.50
   7  19   0    1.20    2.40
  -7  19   0    1.10    2.20
   7  19   0   -1.00    2.50
   9 -19   0   -1.60    2.30
   9  19   0   -0.20    2.50
  -9  19   0    0.70    2.30
   9  19   0    2.90    2.40
   9  19   0    2.10    2.70
  11 -19   0    0.10    2.40
  11  19   0    0.20    2.50
  11  19   0   -3.10    2.30
 -11  19   0   -0.30    2.30
  11  19   0   -2.40    2.50
  13 -19   0    1.50    2.70
 -13  19   0   -0.70    2.40
  13  19   0    5.80    2.70
  13  19   0    1.50    2.80
  13  19   0    5.50    3.00
   0  20   0    7.10    2.80
   0  20   0    3.50    2.50
   0  20   0    5.30    2.60
   2  20   0   -1.40    2.30
  -2  20   0    0.00    2.40
  -2  20   0   -2.30    2.30
  -2  20   0    2.30    2.50
   2  20   0    2.70    2.50
   2  20   0   -6.00    2.20
   4  20   0    5.40    2.80
   4  20   0    4.90    2.70
   4  20   0   11.80    3.00
  -4  20   0   10.50    3.00
  -4  20   0    8.00    2.80
  -4  20   0    1.40    2.60
   6 -20   0    8.10    2.90
   6  20   0   17.80    3.30
  -6  20   0   13.70    3.00
   6  20   0   15.60    3.20
   6  20   0    9.60    3.10
   8 -20   0   -0.20    2.60
   8  20   0   -0.30    2.70
  -8  20   0    2.40    2.50
   8  20   0    1.50    2.80
   8  20   0    0.20    2.60
  30   0  -1    1.50    2.50
  30   0  -1    2.00    2.70
  28   0  -1   -2.00    2.30
  28   0  -1    0.20    2.50
  26   0  -1    3.60    2.30
  26   0  -1   -0.40    2.20
  24   0  -1   -1.50    1.90
  24   0  -1    3.10    2.00
  22   0  -1    1.20    1.30
  22   0  -1    0.10    1.80
  22   0  -1    1.60    1.70
  20   0  -1   -1.60    1.30
  20   0  -1    0.10    1.10
  20   0  -1    2.30    1.60
  18   0  -1    0.50    1.20
  18   0  -1    0.00    0.80
  18   0  -1   -1.00    1.40
  18   0  -1   -0.50    1.00
  16   0  -1    0.20    1.20
  16   0  -1    1.20    1.20
  16   0  -1    0.10    0.70
  16   0  -1   -1.00    0.80
  14   0  -1    1.10    1.10
  14   0  -1    0.30    1.00
  14   0  -1    0.20    0.40
  14   0  -1    0.50    0.80
  12   0  -1    0.20    0.20
  12   0  -1    0.60    0.70
  12   0  -1    1.50    1.00
  12   0  -1    0.80    0.90
  10   0  -1    0.60    0.60
  10   0  -1    0.50    0.40
  10   0  -1    1.40    0.80
  10   0  -1    0.00    0.80
  10   0  -1   -0.30    0.10
   8   0  -1    1.90    0.70
   8   0  -1    2.50    0.50
   8   0  -1    1.20    0.80
  -8   0   1    1.30    0.60
   8   0  -1    2.20    0.60
   8   0  -1    1.20    0.40
   6   0  -1    2.70    0.70
  -6   0   1    0.90    0.50
   6   0  -1    1.40    0.40
   6   0  -1    0.80    0.40
   6   0  -1    1.60    0.60
   4   0  -1    0.30    0.40
  -4   0   1    0.60    0.20
   4   0  -1    0.10    0.20
  -4   0   1    0.20    0.30
   4   0  -1    0.70    0.40
   4   0  -1    0.60    0.20
   2   0   1    0.00    0.20
  -2   0  -1    0.10    0.20
   2   0   1    0.50    0.30
   4   0   1    1.00    0.50
  -4   0  -1    0.40    0.40
   4   0   1    1.20    0.50
   4   0   1    0.10    0.40
   6   0   1    2.10    0.70
  -6   0  -1    0.90    0.50
   6   0   1    0.20    0.60
   6   0   1    0.40    0.50
   8   0   1    1.50    0.80
   8   0   1    0.50    0.60
   8   0   1    1.30    0.70
  10   0   1   -0.20    0.80
  10   0   1    0.40    0.70
  10   0   1    0.90    0.60
  10   0   1    1.90    1.00
  12   0   1    0.40    1.00
  12   0   1   -0.10    1.00
  12   0   1    0.50    0.70
  12   0   1    0.40    0.70
  14   0   1    0.80    1.10
  14   0   1    0.20    0.80
  14   0   1    0.00    0.70
  14   0   1    0.70    1.10
  16   0   1    0.80    0.80
  16   0   1    0.80    1.20
  16   0   1    1.20    1.40
  16   0   1    1.10    0.90
  18   0   1    1.20    1.10
  18   0   1   -1.00    1.40
  18   0   1    0.40    1.30
  18   0   1    0.00    1.00
  20   0   1    2.90    1.60
  20   0   1    0.50    1.70
  20   0   1    1.10    1.10
  22   0   1    0.20    1.20
  22   0   1   -0.50    2.00
  22   0   1    1.90    1.90
  24   0   1    1.30    2.20
  24   0   1    0.70    1.90
  26   0   1    1.90    2.50
  26   0   1    2.60    2.40
  28   0   1    3.50    2.60
  28   0   1    4.10    2.90
  30   0   1    0.90    2.70
  30   0   1    0.50    2.90
  31  -1  -1    4.40    3.10
  31  -1  -1    9.80    3.40
  31   1  -1    4.00    3.00
  31   1  -1   11.80    3.40
  29  -1  -1   13.00    3.30
  29  -1  -1   17.00    3.60
  29   1  -1   21.40    3.90
  29   1  -1   11.90    3.30
  27  -1  -1   26.50    3.90
  27  -1  -1   25.60    3.60
  27   1  -1   30.30    4.10
  27   1  -1   25.40    3.70
  25  -1  -1   13.00    2.90
  25  -1  -1   12.90    2.90
  25   1  -1   11.30    2.80
  25   1  -1   12.50    2.70
  23  -1  -1   91.89    6.20
  23  -1  -1  101.49    5.90
  23   1  -1   83.89    5.00
  23   1  -1   78.59    6.00
  23   1  -1   95.39    5.90
  21  -1  -1   34.80    3.70
  21  -1  -1   42.00    3.00
  21  -1  -1   44.40    3.90
  21   1  -1   38.40    3.00
  21   1  -1   40.90    3.80
  21   1  -1   41.70    4.10
  19  -1  -1   74.29    5.00
  19  -1  -1   73.19    4.10
  19  -1  -1   82.49    4.90
  19   1  -1   74.69    5.10
  19   1  -1   68.69    4.10
  19   1  -1   80.39    4.90
  17  -1  -1  102.59    5.80
  17  -1  -1  117.29    6.30
  17  -1  -1  102.99    5.20
  17  -1  -1   97.29    5.00
  17   1  -1  113.49    5.00
  17   1  -1   97.89    6.10
  17   1  -1  108.39    5.90
  17   1  -1  112.19    5.30
  15  -1  -1  171.58    7.90
  15  -1  -1  180.18    8.90
  15  -1  -1  168.68    7.80
  15  -1  -1  183.58    8.60
  15   1  -1  166.98    7.90
  15   1  -1  174.38    7.70
  15   1  -1  172.88    8.90
  15   1  -1  172.68    8.50
  13  -1  -1   96.99    5.30
  13  -1  -1   94.49    4.50
  13  -1  -1   92.79    4.60
  13  -1  -1   90.89    5.00
  13   1  -1   92.49    5.30
  13   1  -1   97.59    5.00
  13   1  -1   94.59    4.30
  13   1  -1   90.79    4.60
  11  -1  -1   22.20    1.60
  11  -1  -1   24.60    2.00
  11  -1  -1   22.90    1.60
  11  -1  -1   22.30    2.10
  11   1  -1   21.70    1.40
  11   1  -1   25.80    2.00
  11   1  -1   22.70    1.40
  11   1  -1   24.00    1.70
  11   1  -1   20.30    2.00
   9  -1  -1  388.26   17.40
   9  -1  -1  378.26   16.70
   9  -1  -1  390.66   16.80
   9  -1  -1  384.06   16.80
   9  -1  -1  414.46   18.20
  -9  -1   1  403.46   16.80
   9   1  -1  391.76   18.20
   9   1  -1  389.86   16.70
   9   1  -1  389.56   17.40
   9   1  -1  418.06   16.70
   9   1  -1  393.66   16.70
   7  -1  -1  441.76   17.70
  -7  -1   1  395.06   17.60
   7  -1  -1  407.76   17.70
   7  -1  -1  415.86   17.50
   7  -1  -1  404.06   18.20
   7  -1  -1  440.36   19.00
   7   1  -1  404.86   17.50
   7   1  -1  430.56   19.10
   7   1  -1  441.66   17.50
  -7   1   1  377.96   17.70
   7   1  -1  431.06   17.50
   7   1  -1  418.16   18.20
   5  -1  -1   13.80    0.90
  -5  -1   1   12.80    0.70
   5  -1  -1   13.40    1.10
   5  -1  -1   11.60    0.90
   5  -1  -1   12.60    1.10
  -5   1   1   12.90    0.90
   5   1  -1   11.60    1.00
  -5   1   1   14.50    0.90
   5   1  -1   13.60    1.20
   3  -1  -1    8.80    0.50
   3  -1  -1    9.40    0.60
  -3   1   1    6.80    0.50
   3   1  -1   11.00    0.70
  -3   1   1    8.40    0.50
   3   1  -1    6.60    0.60
   1  -1  -1   27.60    1.20
  -1  -1  -1    1.40    0.30
   1   1   1    1.60    0.30
  -3  -1  -1  280.87   11.50
   3  -1   1  297.37   12.30
   3  -1   1  237.68   11.80
   3   1   1  263.67   11.50
   3   1   1  282.27   12.30
   3   1   1  263.67   11.80
  -5  -1  -1   66.99    3.30
   5  -1   1   68.29    3.20
   5  -1   1   76.59    3.60
   5   1   1   76.29    3.70
   5   1   1   69.99    3.50
   5   1   1   70.49    3.30
   7  -1   1  166.78    7.50
   7  -1   1  155.78    7.20
   7  -1   1  147.29    6.80
   7   1   1  161.88    7.50
   7   1   1  154.78    7.20
  -7   1  -1  150.08    6.80
   7   1   1  150.28    6.80
   9  -1   1   79.19    4.20
   9  -1   1   74.09    3.70
   9  -1   1   76.69    3.50
   9  -1   1   75.39    4.00
   9   1   1   74.19    3.60
   9   1   1   74.09    3.70
   9   1   1   77.99    4.00
   9   1   1   76.09    4.30
  11  -1   1  300.77   13.60
  11  -1   1  298.57   13.00
  11  -1   1  286.47   12.70
  11  -1   1  301.57   14.20
  11   1   1  307.97   13.60
  11   1   1  300.27   12.80
  11   1   1  301.87   13.00
  11   1   1  299.77   14.30
  13  -1   1  144.19    7.50
  13  -1   1  153.28    6.70
  13  -1   1  143.99    7.20
  13  -1   1  138.69    6.50
  13   1   1  140.49    6.50
  13   1   1  143.19    6.60
  13   1   1  142.89    7.60
  13   1   1  142.59    7.10
  15  -1   1  171.48    8.10
  15  -1   1  181.38    9.20
  15  -1   1  175.08    8.00
  15  -1   1  183.48    8.80
  15   1   1  184.88    9.40
  15   1   1  176.08    8.70
  15   1   1  176.38    8.10
  15   1   1  179.18    8.00
  17  -1   1   22.40    2.50
  17  -1   1   22.50    2.80
  17  -1   1   22.40    2.00
  17  -1   1   21.90    1.90
  17   1   1   22.40    2.00
  17   1   1   24.30    2.60
  17   1   1   23.50    2.00
  17   1   1   20.50    2.80
  19  -1   1  173.68    8.00
  19  -1   1  166.08    9.20
  19  -1   1  168.28    8.80
  19   1   1  173.48    8.00
  19   1   1  176.08    8.80
  19   1   1  170.78    7.90
  19   1   1  165.08    9.30
  21  -1   1   14.30    1.80
  21  -1   1   11.00    2.50
  21  -1   1   12.40    2.40
  21   1   1   12.00    1.70
  21   1   1   14.60    2.60
  21   1   1   10.90    2.50
  23  -1   1  143.59    8.80
  23  -1   1  154.28    8.40
  23  -1   1  152.88    7.30
  23   1   1  138.39    8.80
  23   1   1  157.08    8.50
  25  -1   1    4.10    2.30
  25  -1   1    4.30    2.50
  25   1   1    3.80    2.30
  25   1   1    5.80    2.70
  27  -1   1   51.89    5.20
  27  -1   1   57.99    5.60
  27   1   1   54.39    5.10
  27   1   1   48.50    5.40
  29  -1   1    5.10    3.10
  29  -1   1    5.40    2.90
  29   1   1    1.90    2.70
  29   1   1    6.90    3.20
  30  -2  -1   -0.80    2.50
  30  -2  -1    7.20    3.10
  30   2  -1    3.80    2.60
  30   2  -1    2.10    2.80
  28  -2  -1   21.90    3.80
  28  -2  -1   23.20    3.70
  28   2  -1   19.80    3.70
  28   2  -1   17.10    3.30
  26  -2  -1    2.70    2.40
  26  -2  -1    0.90    2.30
  26   2  -1    6.30    2.50
  26   2  -1    3.30    2.40
  24  -2  -1   34.40    3.90
  24  -2  -1   34.50    4.00
  24   2  -1   37.40    3.30
  24   2  -1   31.20    3.90
  24   2  -1   36.50    3.70
  22  -2  -1    8.30    2.30
  22  -2  -1   14.20    2.70
  22   2  -1   15.50    2.70
  22   2  -1   11.40    1.90
  22   2  -1   13.50    2.40
  20  -2  -1   65.59    4.70
  20  -2  -1   66.39    3.70
  20  -2  -1   69.59    4.70
  20   2  -1   70.59    4.70
  20   2  -1   67.29    4.90
  20   2  -1   71.09    4.00
  18  -2  -1    0.80    1.40
  18  -2  -1   -1.00    0.80
  18  -2  -1   -0.20    1.30
  18   2  -1    1.40    1.40
  18   2  -1   -0.10    1.40
  18   2  -1   -1.70    0.90
  16  -2  -1   99.19    5.90
  16  -2  -1  108.79    5.80
  16  -2  -1  106.09    5.10
  16   2  -1  107.49    4.80
  16   2  -1  101.19    6.10
  16   2  -1  105.99    5.70
  16   2  -1  106.49    5.20
  14  -2  -1   21.70    1.80
  14  -2  -1   24.40    2.30
  14  -2  -1   20.60    2.30
  14   2  -1   20.30    2.20
  14   2  -1   27.10    1.50
  14   2  -1   24.80    2.50
  14   2  -1   23.30    1.90
  12  -2  -1   86.19    4.80
  12  -2  -1   89.09    4.30
  12  -2  -1   89.29    4.90
  12   2  -1   89.19    4.10
  12   2  -1   90.69    4.80
  12   2  -1   99.09    4.50
  12   2  -1   88.69    4.10
  12   2  -1   95.19    5.10
  10  -2  -1   57.79    3.20
  10  -2  -1   59.39    3.30
  10  -2  -1   56.99    2.90
  10   2  -1   57.09    3.20
  10   2  -1   58.39    2.60
  10   2  -1   58.19    3.00
  10   2  -1   49.70    3.40
  -8  -2   1  314.47   13.90
   8  -2  -1  354.26   15.10
   8  -2  -1  331.27   14.00
   8  -2  -1  333.07   14.50
   8   2  -1  320.87   13.90
   8   2  -1  322.27   14.50
   8   2  -1  318.77   15.20
   6  -2  -1  323.27   14.70
  -6  -2   1  318.57   14.20
   6  -2  -1  356.66   14.30
   6  -2  -1  356.26   15.30
   6  -2  -1  325.27   14.30
   6   2  -1  328.27   14.70
   6   2  -1  334.17   14.20
   6   2  -1  348.17   15.40
   4  -2  -1  242.48   10.80
   4  -2  -1  234.98   11.10
   4  -2  -1  255.47   11.50
   4  -2  -1  268.47   10.80
   4   2  -1  239.58   11.10
   4   2  -1  280.47   11.70
  -4   2   1  265.27   10.80
   2  -2  -1    6.60    0.50
  -2   2   1    7.10    0.50
   2   2  -1    5.10    0.60
   0  -2  -1   75.89    3.20
   0   2   1   77.69    3.20
   0   2  -1   64.49    3.30
   2  -2   1  169.48    8.40
  -2  -2  -1  195.58    8.20
   2   2   1  189.08    8.40
   2   2   1  207.08    8.80
   2   2   1  197.78    8.20
   4  -2   1    0.60    0.40
  -4  -2  -1    0.70    0.40
   4  -2   1    1.10    0.50
   4   2   1    1.10    0.50
   4   2   1    0.70    0.50
   4   2   1    1.10    0.60
  -6  -2  -1    3.40    0.60
   6  -2   1    4.80    0.90
   6  -2   1    2.80    0.60
   6  -2   1    4.30    0.60
   6   2   1    4.70    0.80
   6   2   1    4.50    0.70
   6   2   1    5.20    0.90
   8  -2   1   17.10    1.30
   8  -2   1   16.70    1.60
   8  -2   1   20.40    1.60
   8   2   1   18.70    1.40
   8   2   1   17.30    1.60
   8   2   1   20.10    1.90
   8   2   1   19.90    1.30
  10  -2   1   26.60    1.80
  10  -2   1   26.00    2.20
  10  -2   1   25.70    2.10
  10   2   1   33.00    2.50
  10   2   1   30.00    1.80
  10   2   1   28.50    1.80
  10   2   1   28.30    2.20
  12  -2   1  182.18    8.40
  12  -2   1  182.98    8.90
  12  -2   1  200.78    9.40
  12   2   1  186.78    8.40
  12   2   1  190.28    9.50
  12   2   1  186.18    8.30
  12   2   1  182.28    8.90
  14  -2   1    2.50    1.30
  14  -2   1    1.60    1.20
  14  -2   1    2.70    0.90
  14   2   1    1.70    1.20
  14   2   1    4.00    1.00
  14   2   1    4.50    1.00
  14   2   1    4.40    1.50
  16  -2   1   13.90    2.00
  16  -2   1   16.40    2.30
  16  -2   1   12.00    1.50
  16   2   1   12.20    1.90
  16   2   1   11.50    1.40
  16   2   1   10.30    2.10
  16   2   1   11.00    1.40
  18  -2   1   13.40    2.30
  18  -2   1   15.40    2.40
  18  -2   1   14.30    1.70
  18   2   1   18.90    1.80
  18   2   1   16.20    2.60
  18   2   1   17.40    1.80
  18   2   1   13.80    2.30
  20  -2   1   38.70    3.70
  20  -2   1   33.70    3.70
  20  -2   1   43.20    2.90
  20   2   1   33.50    3.80
  20   2   1   39.60    3.70
  22  -2   1   22.90    3.10
  22  -2   1   27.10    2.40
  22  -2   1   23.00    3.20
  22   2   1   30.70    3.30
  22   2   1   21.80    3.30
  24  -2   1   28.60    3.70
  24  -2   1   33.80    3.90
  24   2   1   24.30    3.70
  24   2   1   23.30    3.40
  26  -2   1    3.30    2.50
  26  -2   1    4.90    2.70
  26   2   1    4.50    2.30
  26   2   1   -0.30    2.30
  28  -2   1   13.00    3.20
  28  -2   1   12.20    3.30
  28   2   1    2.40    3.00
  28   2   1    8.70    3.10
  30  -2   1    3.60    2.90
  30  -2   1    1.90    3.10
  30   2   1    1.60    3.00
  30   2   1    2.60    2.80
  31  -3  -1   30.50    4.50
  31  -3  -1   23.60    4.20
  31   3  -1   30.10    4.50
  31   3  -1   21.80    4.00
  29  -3  -1    0.10    2.30
  29  -3  -1   -0.20    2.50
  29   3  -1    2.60    2.60
  29   3  -1    2.40    2.60
  27  -3  -1    5.10    2.70
  27  -3  -1    0.50    2.50
  27   3  -1    3.80    2.50
  27   3  -1    6.30    2.60
  25  -3  -1    6.50    2.40
  25  -3  -1    7.10    2.60
  25   3  -1    4.50    2.40
  25   3  -1    7.00    2.50
  23  -3  -1    1.60    2.00
  23  -3  -1    2.20    2.10
  23   3  -1    2.90    1.50
  23   3  -1   -0.30    2.00
  23   3  -1    4.60    2.00
  21  -3  -1    8.60    2.10
  21  -3  -1    8.60    1.50
  21  -3  -1    6.30    2.00
  21   3  -1    4.50    1.70
  21   3  -1    8.20    1.70
  21   3  -1    8.90    2.30
  19  -3  -1   15.50    1.70
  19  -3  -1   12.50    2.20
  19  -3  -1   12.90    2.20
  19   3  -1   13.50    2.50
  19   3  -1   11.90    1.70
  19   3  -1   12.20    2.10
  17  -3  -1   17.50    1.70
  17  -3  -1   18.50    2.40
  17  -3  -1   17.00    2.30
  17   3  -1   17.60    2.60
  17   3  -1   19.50    2.30
  17   3  -1   18.60    1.90
  15  -3  -1    5.30    1.40
  15  -3  -1    2.60    1.30
  15  -3  -1    4.00    1.00
  15   3  -1    1.10    1.10
  15   3  -1    2.40    0.50
  15   3  -1    4.40    1.50
  15   3  -1    2.80    1.10
  13  -3  -1  121.09    5.60
  13  -3  -1  116.19    6.20
  13  -3  -1  130.29    6.20
  13   3  -1  112.99    5.60
  13   3  -1  124.09    6.10
  13   3  -1  116.59    6.50
  11  -3  -1    4.90    0.90
  11  -3  -1    7.50    1.20
  11  -3  -1    8.90    1.30
  11   3  -1    5.30    1.00
  11   3  -1    7.70    1.30
  11   3  -1    4.20    1.20
   9  -3  -1   50.69    2.50
   9  -3  -1   51.19    2.80
   9  -3  -1   46.10    2.80
   9   3  -1   48.80    2.60
   9   3  -1   41.40    3.00
   9   3  -1   51.59    2.80
   7  -3  -1   45.70    2.50
   7  -3  -1   50.69    2.60
  -7  -3   1   44.40    2.20
   7  -3  -1   45.90    2.40
   7   3  -1   47.90    2.80
   7   3  -1   47.00    2.60
   7   3  -1   47.80    2.50
   5  -3  -1 1380.76   63.39
   5  -3  -1 1386.76   59.49
   5  -3  -1 1371.36   60.89
   5   3  -1 1454.95   58.79
   5   3  -1 1493.25   63.59
   5   3  -1 1398.16   60.99
  -5   3   1 1471.15   59.49
   3  -3  -1  421.66   19.20
   3  -3  -1  421.96   18.10
   3   3  -1  455.45   19.30
  -3   3   1  417.26   18.10
   1  -3  -1  512.55   21.80
   1   3  -1  508.05   22.40
  -1   3   1  532.75   21.80
  -1   3   1  523.45   22.30
  -1  -3  -1  517.35   22.40
   1   3   1  553.94   23.90
   1   3   1  536.05   22.40
   1   3   1  541.35   22.90
  -1   3  -1  511.75   22.90
   3  -3   1  113.69    5.30
  -3  -3  -1  112.09    5.10
   3   3   1  114.59    5.30
   3   3   1  122.49    5.50
   3   3   1  119.39    5.10
   5  -3   1  276.67   13.10
   5  -3   1  291.17   13.50
   5   3   1  302.47   12.70
   5   3   1  300.07   13.10
   5   3   1  315.57   13.70
   7  -3   1  104.49    5.00
   7  -3   1   94.09    4.80
   7   3   1   94.79    4.80
   7   3   1  109.19    5.10
   7   3   1   94.69    4.50
   7   3   1   95.59    4.40
   9  -3   1   70.39    3.80
   9  -3   1   71.99    3.90
   9  -3   1   71.99    3.40
   9   3   1   69.69    3.40
   9   3   1   70.29    3.40
   9   3   1   71.89    4.10
   9   3   1   70.89    3.80
  11  -3   1   15.90    1.40
  11  -3   1   13.80    1.60
  11  -3   1   21.70    2.00
  11   3   1   13.70    1.30
  11   3   1   15.00    1.70
  11   3   1   19.00    2.20
  11   3   1   14.50    1.30
  13  -3   1   25.60    2.40
  13  -3   1   17.70    2.10
  13  -3   1   24.40    1.80
  13   3   1   25.40    2.70
  13   3   1   21.00    1.70
  13   3   1   24.10    2.30
  13   3   1   20.10    1.70
  15  -3   1   85.09    5.00
  15  -3   1   84.09    4.30
  15  -3   1   88.99    4.90
  15   3   1   81.49    4.80
  15   3   1   87.39    4.30
  15   3   1   77.59    4.10
  15   3   1   84.19    5.30
  17  -3   1   29.70    3.00
  17  -3   1   31.90    2.40
  17  -3   1   30.60    2.90
  17   3   1   31.10    3.00
  17   3   1   20.70    2.70
  17   3   1   30.70    2.40
  19  -3   1   32.60    3.40
  19  -3   1   30.20    2.50
  19  -3   1   27.90    3.20
  19   3   1   24.80    2.90
  19   3   1   25.20    3.30
  19   3   1   25.60    2.10
  19   3   1   28.10    2.40
  21  -3   1    3.40    1.40
  21  -3   1    0.50    1.80
  21  -3   1    3.30    1.80
  21   3   1    5.70    2.10
  21   3   1    3.60    2.10
  23  -3   1    7.90    2.60
  23  -3   1    9.10    1.70
  23  -3   1   10.40    2.70
  23   3   1    7.80    2.60
  23   3   1    6.70    2.40
  25  -3   1   -1.40    2.20
  25  -3   1    1.10    2.30
  25   3   1    0.10    2.20
  25   3   1   -0.60    2.00
  27  -3   1   23.90    4.00
  27  -3   1   25.90    4.00
  27   3   1   18.50    3.40
  27   3   1   25.50    4.00
  29  -3   1    0.70    2.80
  29  -3   1    8.90    3.20
  29   3   1    2.60    2.80
  29   3   1    3.60    3.00
  30  -4  -1   24.80    4.00
  30  -4  -1   18.20    3.70
  30   4  -1   14.00    3.50
  30   4  -1   20.90    3.70
  28  -4  -1   16.70    3.30
  28  -4  -1   12.00    3.20
  28   4  -1   14.90    3.40
  28   4  -1   14.80    3.20
  26  -4  -1    2.20    2.30
  26  -4  -1    3.70    2.40
  26   4  -1    4.70    2.50
  26   4  -1    3.60    2.60
  24  -4  -1   21.50    3.10
  24  -4  -1   23.80    3.30
  24   4  -1   16.00    3.00
  24   4  -1   17.40    2.40
  24   4  -1   17.90    3.00
  22  -4  -1    5.20    1.40
  22  -4  -1    7.20    2.30
  22  -4  -1    5.40    2.10
  22   4  -1    5.10    2.20
  22   4  -1    1.20    1.80
  22   4  -1    4.90    1.70
  20  -4  -1   41.80    2.80
  20  -4  -1   38.90    3.60
  20  -4  -1   38.90    3.70
  20   4  -1   39.50    3.10
  20   4  -1   33.40    3.60
  20   4  -1   35.50    3.50
  18  -4  -1    1.90    1.50
  18  -4  -1   -0.40    1.00
  18  -4  -1   -1.40    1.30
  18   4  -1    1.80    1.20
  18   4  -1    2.70    1.40
  18   4  -1    2.40    1.70
  16  -4  -1   60.69    4.10
  16  -4  -1   65.29    4.20
  16  -4  -1   67.29    3.60
  16   4  -1   63.29    3.70
  16   4  -1   66.89    4.20
  16   4  -1   71.59    4.60
  14  -4  -1    7.40    1.10
  14  -4  -1   10.80    1.70
  14  -4  -1   11.50    1.60
  14   4  -1    6.30    1.20
  14   4  -1    6.10    1.40
  14   4  -1    7.30    1.70
  12  -4  -1   49.10    3.10
  12  -4  -1   51.59    3.20
  12  -4  -1   46.20    2.80
  12   4  -1   52.79    2.90
  12   4  -1   54.79    3.60
  12   4  -1   53.29    3.20
  10  -4  -1  103.79    5.00
  10  -4  -1   98.29    4.90
  10  -4  -1   93.69    4.60
  10   4  -1   97.69    5.30
  10   4  -1   99.19    5.00
  10   4  -1   93.39    4.60
   8  -4  -1  227.38   10.10
   8  -4  -1  216.68    9.90
   8  -4  -1  217.68    9.50
  -8  -4   1  207.48    9.30
   8   4  -1  231.58    9.50
   8   4  -1  212.88   10.40
   8   4  -1  212.68    9.90
   6  -4  -1  328.87   14.20
  -6  -4   1  300.97   13.60
   6  -4  -1  330.47   14.60
   6   4  -1  316.27   14.20
   6   4  -1  323.87   14.90
   6   4  -1  328.27   13.30
   6   4  -1  330.87   13.70
   4  -4  -1  822.62   36.50
   4  -4  -1  809.42   35.60
   4  -4  -1  852.61   37.90
   4   4  -1  839.52   35.20
   4   4  -1  834.82   36.50
  -4   4   1  869.61   35.60
   4   4  -1  908.61   38.10
   2  -4  -1    9.50    0.80
   2  -4  -1   10.80    0.90
  -2   4   1   10.70    0.80
  -2   4   1   11.30    1.00
   2   4  -1    9.80    1.00
   2   4  -1    9.70    0.90
   2   4  -1   10.90    0.90
   0  -4  -1  305.17   13.40
   0   4   1  308.77   13.70
   0   4   1  317.57   13.40
   0   4   1  329.87   14.30
   0   4  -1  319.57   13.80
  -2  -4  -1   42.80    2.20
  -2   4  -1   48.70    2.40
   2   4   1   45.60    2.20
   2   4   1   47.30    2.40
   2   4   1   44.10    2.30
   4  -4   1  334.97   15.90
  -4  -4  -1  354.26   15.00
   4  -4   1  357.16   15.50
   4   4   1  382.16   16.10
   4   4   1  370.26   14.90
   4   4   1  347.57   15.40
   4   4   1  321.97   14.90
   6  -4   1   27.50    1.80
   6  -4   1   26.10    1.70
   6   4   1   24.10    1.50
   6   4   1   27.50    1.70
   6   4   1   28.90    1.80
   6   4   1   30.00    2.00
   6   4   1   23.30    1.50
   8  -4   1   94.89    4.70
   8  -4   1   97.19    4.70
   8   4   1  103.59    5.10
   8   4   1   93.49    4.20
   8   4   1   93.09    4.60
   8   4   1   76.09    4.20
   8   4   1   96.09    4.40
  10  -4   1    0.70    0.70
  10  -4   1    1.70    0.90
  10  -4   1    1.40    0.90
  10   4   1    1.60    0.90
  10   4   1    0.10    0.40
  10   4   1    1.30    1.10
  10   4   1    1.30    0.80
  12  -4   1   73.79    4.30
  12  -4   1   77.79    4.30
  12  -4   1   77.99    3.80
  12   4   1   75.39    4.30
  12   4   1   74.29    3.80
  12   4   1   74.29    4.70
  14  -4   1    1.30    1.20
  14  -4   1   -0.30    1.10
  14  -4   1    1.50    0.90
  14   4   1   -0.30    1.30
  14   4   1    0.40    1.10
  14   4   1    0.90    0.90
  14   4   1    0.30    0.70
  16  -4   1   55.49    3.90
  16  -4   1   57.89    3.30
  16  -4   1   61.29    4.00
  16   4   1   56.29    3.80
  16   4   1   46.90    4.10
  16   4   1   53.59    3.10
  16   4   1   57.99    3.30
  18  -4   1    2.80    1.70
  18  -4   1   -1.70    1.40
  18  -4   1    0.40    1.10
  18   4   1   -0.70    1.10
  18   4   1    0.10    1.40
  18   4   1   -1.30    1.60
  20  -4   1   13.60    2.50
  20  -4   1   12.60    1.80
  20  -4   1   12.10    2.40
  20   4   1   10.60    2.60
  20   4   1   11.60    2.30
  22  -4   1    0.30    1.30
  22  -4   1    0.10    1.90
  22  -4   1    5.60    2.20
  22   4   1    3.00    2.00
  22   4   1    1.40    2.10
  24  -4   1    1.20    1.40
  24  -4   1    0.10    2.20
  24  -4   1    0.90    2.20
  24   4   1   -1.20    2.10
  24   4   1    2.60    2.20
  26  -4   1   10.50    2.90
  26  -4   1   10.30    3.00
  26   4   1   12.00    3.00
  26   4   1    9.40    3.10
  28  -4   1    6.80    3.00
  28  -4   1   -1.30    2.60
  28   4   1    5.00    2.80
  28   4   1    2.60    2.70
  30  -4   1    8.20    3.30
  30  -4   1    8.50    3.20
  30   4   1    9.40    3.40
  30   4   1    6.20    3.10
  29  -5  -1   14.50    3.40
  29  -5  -1   20.40    3.70
  29   5  -1   15.20    3.40
  29   5  -1   12.10    3.50
  27  -5  -1    1.10    2.60
  27  -5  -1    6.00    2.60
  27   5  -1    6.60    2.70
  27   5  -1    2.90    2.50
  25  -5  -1   18.00    3.10
  25  -5  -1   15.60    3.00
  25   5  -1   12.30    2.90
  25   5  -1   17.90    3.10
  23  -5  -1    1.20    1.90
  23  -5  -1    3.00    2.10
  23  -5  -1    1.90    1.40
  23   5  -1    2.20    2.40
  23   5  -1    1.90    1.60
  23   5  -1    1.20    1.90
  21  -5  -1   39.10    3.60
  21  -5  -1   33.60    2.80
  21  -5  -1   33.90    3.60
  21   5  -1   28.50    3.60
  21   5  -1   32.80    3.00
  21   5  -1   33.70    3.40
  19  -5  -1   11.00    2.20
  19  -5  -1   13.00    2.20
  19  -5  -1   17.20    1.90
  19   5  -1   19.20    2.10
  19   5  -1   13.10    2.20
  19   5  -1   13.80    2.50
  17  -5  -1   18.60    2.30
  17  -5  -1   17.90    1.80
  17  -5  -1   19.90    2.50
  17   5  -1   18.40    2.70
  17   5  -1   28.70    2.80
  17   5  -1   24.60    2.20
  15  -5  -1   14.80    1.90
  15  -5  -1   15.00    2.10
  15  -5  -1   15.30    1.60
  15   5  -1   16.70    2.40
  15   5  -1   17.10    1.90
  15   5  -1   15.40    2.00
  13  -5  -1   50.29    2.90
  13  -5  -1   52.89    3.40
  13  -5  -1   57.89    3.40
  13   5  -1   56.99    3.40
  13   5  -1   50.49    3.70
  13   5  -1   53.99    3.10
  11  -5  -1  217.28   10.00
  11  -5  -1  195.18    9.30
  11  -5  -1  223.48    9.90
  11   5  -1  208.18   10.40
  11   5  -1  208.78    9.40
  11   5  -1  212.68    9.80
   9  -5  -1   24.10    1.70
   9  -5  -1   21.80    1.90
   9   5  -1   20.10    1.70
   9   5  -1   26.30    2.30
   9   5  -1   22.20    1.90
  -7  -5   1    3.40    0.50
   7  -5  -1    5.20    0.70
   7  -5  -1    4.10    0.90
   7   5  -1    4.80    0.90
   7   5  -1    2.60    1.00
   7   5  -1    4.80    0.90
   7   5  -1    3.50    0.80
   5  -5  -1    1.10    0.50
   5  -5  -1    1.10    0.60
  -5  -5   1    1.20    0.30
   5   5  -1    0.60    0.70
   5   5  -1    1.50    0.80
   5   5  -1    2.20    0.70
   5   5  -1    0.10    0.60
   3  -5  -1   13.10    0.90
   3  -5  -1   10.70    1.00
   3   5  -1   12.70    1.10
  -3   5   1   13.90    1.20
   3   5  -1    8.60    1.00
  -3   5   1   13.80    1.00
   3   5  -1   13.30    1.20
   3   5  -1   12.50    1.10
   1  -5  -1   65.79    3.20
   1   5  -1   75.09    3.30
   1   5  -1   71.39    3.50
  -1   5   1   69.79    3.40
  -1   5   1   70.79    3.40
  -1   5   1   70.99    3.20
  -1  -5  -1    0.80    0.40
  -1   5  -1    0.20    0.60
   1   5   1    0.10    0.50
   1   5   1    0.20    0.40
   1   5   1    0.00    0.10
  -3  -5  -1   75.39    3.70
   3   5   1   82.09    3.70
   3   5   1   86.69    4.10
   3   5   1   79.89    3.90
  -3   5  -1   83.49    4.00
   5  -5   1   13.90    1.40
   5  -5   1   15.80    1.10
   5   5   1   12.50    1.30
   5   5   1   16.20    1.30
   5   5   1   15.60    1.20
   5   5   1   18.20    1.50
   5   5   1   13.00    1.00
   7  -5   1   95.49    4.70
   7  -5   1   95.89    4.80
   7   5   1   98.89    4.50
   7   5   1   98.29    4.40
   7   5   1  102.59    5.10
   7   5   1   92.49    4.70
   7   5   1   92.19    4.40
   9  -5   1    3.40    0.90
   9  -5   1    4.80    1.20
   9   5   1    5.70    1.00
   9   5   1    3.50    0.70
   9   5   1    5.10    1.00
   9   5   1    4.70    1.30
   9   5   1    4.00    0.90
  11  -5   1   24.20    2.10
  11  -5   1   25.10    2.20
  11  -5   1   26.10    1.90
  11   5   1   27.30    2.00
  11   5   1   20.70    2.40
  11   5   1   28.70    1.80
  11   5   1   27.40    2.20
  13  -5   1   10.00    1.50
  13  -5   1    5.30    1.50
  13  -5   1    8.30    1.20
  13   5   1    9.70    1.60
  13   5   1    7.70    1.20
  13   5   1    7.50    1.00
  13   5   1    9.50    1.90
  15  -5   1   68.99    3.70
  15  -5   1   66.29    4.10
  15  -5   1   71.99    4.30
  15   5   1   66.29    3.40
  15   5   1   61.59    4.60
  15   5   1   58.89    3.60
  15   5   1   63.49    4.20
  17  -5   1    2.10    1.60
  17  -5   1    1.00    1.40
  17  -5   1    4.60    1.20
  17   5   1    2.20    1.20
  17   5   1    2.80    1.60
  17   5   1   -0.20    1.50
  19  -5   1   36.30    2.90
  19  -5   1   33.90    3.60
  19  -5   1   36.90    3.60
  19   5   1   35.80    3.50
  19   5   1   37.90    2.90
  19   5   1   33.20    3.90
  21  -5   1    5.70    2.20
  21  -5   1    4.20    1.40
  21  -5   1    4.90    2.20
  21   5   1    3.60    2.30
  21   5   1    3.40    1.90
  23  -5   1   27.80    3.50
  23  -5   1   25.70    3.60
  23  -5   1   23.80    2.70
  23   5   1   21.90    3.50
  23   5   1   18.90    3.10
  25  -5   1    7.80    2.70
  25  -5   1    6.70    2.90
  25   5   1    9.10    2.70
  25   5   1    3.50    2.60
  27  -5   1   10.40    3.10
  27  -5   1   11.10    3.30
  27   5   1   12.50    3.10
  27   5   1    9.10    3.10
  29  -5   1   -1.50    2.80
  29   5   1   -0.50    2.70
  29   5   1   -1.80    2.60
  30  -6  -1   13.30    3.70
  30   6  -1    4.30    3.00
  30   6  -1    3.40    3.00
  28  -6  -1   51.19    5.10
  28   6  -1   37.20    4.60
  28   6  -1   32.70    4.60
  26  -6  -1    4.30    2.50
  26  -6  -1    5.90    2.70
  26   6  -1    3.40    2.50
  26   6  -1    4.00    2.60
  24  -6  -1   60.29    4.90
  24  -6  -1   63.99    5.20
  24   6  -1   61.69    4.30
  24   6  -1   52.99    5.30
  24   6  -1   53.19    4.90
  22  -6  -1    3.70    2.00
  22  -6  -1    0.20    2.00
  22  -6  -1    0.70    1.30
  22   6  -1    2.00    1.60
  22   6  -1    0.60    2.00
  22   6  -1   -1.80    1.90
  20  -6  -1   80.89    4.40
  20  -6  -1   71.29    5.00
  20  -6  -1   80.79    5.30
  20   6  -1   75.29    5.60
  20   6  -1   80.19    5.20
  20   6  -1   79.09    4.70
  18  -6  -1    7.90    1.50
  18  -6  -1   10.70    2.20
  18  -6  -1   11.80    2.00
  18   6  -1   11.40    1.90
  18   6  -1   14.00    2.60
  18   6  -1   10.40    2.00
  16  -6  -1  193.08   10.00
  16  -6  -1  201.78    9.30
  16  -6  -1  198.68   10.00
  16   6  -1  212.58   10.00
  16   6  -1  201.58   10.60
  16   6  -1  209.88    9.40
  14  -6  -1    0.70    0.90
  14  -6  -1    0.90    1.00
  14  -6  -1    0.30    1.20
  14   6  -1    0.50    1.10
  14   6  -1   -0.40    1.10
  14   6  -1    0.60    1.30
  12  -6  -1  293.07   13.00
  12  -6  -1  311.17   13.80
  12  -6  -1  305.37   13.60
  12   6  -1  295.37   13.50
  12   6  -1  285.47   13.00
  12   6  -1  285.67   14.30
  10  -6  -1   86.49    4.50
  10  -6  -1   81.89    4.30
  10   6  -1   89.29    4.30
  10   6  -1   78.09    4.80
  10   6  -1   85.09    4.50
   8  -6  -1   15.10    1.50
   8  -6  -1   14.30    1.20
  -8  -6   1   14.00    1.10
   8   6  -1   15.10    1.70
   8   6  -1   13.30    1.40
   8   6  -1   12.60    1.50
   8   6  -1   14.80    1.50
   6  -6  -1    1.40    0.70
   6  -6  -1    1.80    0.60
  -6  -6   1    1.60    0.40
   6   6  -1    2.10    0.80
   6   6  -1    3.00    0.90
   6   6  -1    1.80    0.80
   6   6  -1    3.80    1.00
   4  -6  -1  277.47   12.90
  -4  -6   1  272.67   12.00
   4   6  -1  279.77   11.90
   4   6  -1  296.87   12.70
  -4   6   1  277.07   12.60
   4   6  -1  312.87   13.20
   4   6  -1  279.87   12.30
  -2  -6   1   43.70    2.10
  -2   6   1   45.00    2.50
   2   6  -1   49.00    2.40
  -2   6   1   43.50    2.30
   2   6  -1   47.60    2.50
   2   6  -1   48.50    2.60
   2   6  -1   42.00    2.40
   0   6   1  350.36   14.50
   0   6  -1  344.27   14.10
   0   6   1  344.77   15.40
   0   6   1  331.67   14.90
   0   6  -1  334.27   15.00
   2   6   1   41.00    2.30
   2   6   1   43.00    2.30
   2   6   1   43.70    2.00
   2   6   1   39.10    2.30
  -2   6  -1   36.00    2.30
   4   6   1  318.77   13.40
   4   6   1  337.57   14.90
   4   6   1  322.67   13.80
   4   6   1  317.37   14.30
  -4   6  -1  323.47   14.30
   4   6   1  321.07   13.70
   6  -6   1   35.50    2.40
   6  -6   1   32.40    1.90
   6   6   1   38.30    2.50
   6   6   1   36.40    2.30
   6   6   1   41.80    1.90
   6   6   1   37.40    2.20
   6   6   1   34.00    2.10
   8  -6   1  145.09    6.70
   8  -6   1  138.69    6.50
   8   6   1  131.29    6.50
   8   6   1  130.69    6.10
   8   6   1  137.29    6.30
   8   6   1  145.49    7.10
   8   6   1  133.09    6.10
  10  -6   1    2.50    0.90
  10  -6   1    5.70    1.30
  10   6   1    1.30    1.00
  10   6   1    1.70    1.30
  10   6   1    3.60    1.00
  10   6   1    2.80    0.90
  10   6   1    2.40    0.60
  12  -6   1   45.40    3.00
  12  -6   1   48.30    2.80
  12  -6   1   46.90    3.20
  12   6   1   44.70    2.40
  12   6   1   47.20    3.10
  12   6   1   42.80    2.70
  12   6   1   44.00    3.60
  14  -6   1   27.00    2.10
  14  -6   1   27.00    2.70
  14  -6   1   28.30    2.50
  14   6   1   26.60    1.80
  14   6   1   23.60    2.90
  14   6   1   29.10    2.30
  14   6   1   26.00    2.50
  16  -6   1   77.49    4.30
  16  -6   1   79.19    4.80
  16  -6   1   80.09    5.00
  16   6   1   75.79    5.40
  16   6   1   78.89    4.90
  16   6   1   85.39    4.40
  18  -6   1   15.20    2.50
  18  -6   1   13.40    2.20
  18  -6   1   14.30    1.80
  18   6   1   12.90    2.80
  18   6   1   17.20    2.50
  18   6   1   14.10    1.90
  20  -6   1   37.20    3.90
  20  -6   1   35.30    3.00
  20  -6   1   34.00    3.50
  20   6   1   33.80    4.00
  20   6   1   37.00    3.60
  20   6   1   36.00    3.00
  22  -6   1    3.10    2.10
  22  -6   1    1.60    2.00
  22   6   1    2.90    2.10
  22   6   1    0.40    2.10
  24  -6   1   36.10    4.20
  24   6   1   23.20    3.80
  24   6   1   19.60    3.20
  26  -6   1    0.30    2.40
  26   6   1    1.90    2.40
  26   6   1    5.00    2.80
  28  -6   1   11.80    3.50
  28   6   1    3.80    2.90
  28   6   1    6.20    2.90
  29  -7  -1    9.30    3.30
  29   7  -1   10.00    3.40
  29   7  -1    8.40    3.30
  27  -7  -1    4.30    2.90
  27   7  -1   -0.80    2.50
  27   7  -1    2.70    2.60
  25  -7  -1    3.60    2.50
  25   7  -1    3.80    2.40
  25   7  -1    2.40    2.30
  25   7  -1    7.00    2.20
  23  -7  -1    3.30    2.40
  23  -7  -1    1.00    1.50
  23   7  -1    1.20    2.20
  23   7  -1    0.70    1.80
  23   7  -1   -1.20    2.20
  21  -7  -1    3.00    1.40
  21  -7  -1    5.00    1.90
  21  -7  -1    2.10    2.00
  21   7  -1    2.90    1.70
  21   7  -1    5.20    2.20
  21   7  -1    4.80    2.30
  19  -7  -1   11.90    2.30
  19  -7  -1    7.30    1.90
  19  -7  -1    9.40    1.60
  19   7  -1    7.60    2.10
  19   7  -1    8.10    1.80
  19   7  -1    8.20    2.30
  17  -7  -1    8.20    2.00
  17  -7  -1   10.80    1.50
  17  -7  -1    7.40    1.70
  17   7  -1   14.60    2.70
  17   7  -1    8.10    1.70
  17   7  -1   10.80    2.00
  15  -7  -1    9.20    1.40
  15  -7  -1   11.50    2.00
  15  -7  -1   15.50    1.80
  15   7  -1   11.80    1.90
  15   7  -1    8.00    2.10
  15   7  -1   12.50    1.80
  13  -7  -1    2.20    1.20
  13  -7  -1    1.30    0.90
  13  -7  -1   -0.50    0.90
  13   7  -1   -0.10    1.10
  13   7  -1    1.40    1.40
  13   7  -1   -0.10    1.10
  11  -7  -1   28.50    2.50
  11  -7  -1   28.80    2.00
  11   7  -1   27.20    2.20
  11   7  -1   27.20    2.40
  11   7  -1   30.00    2.80
   9  -7  -1   60.49    3.60
   9  -7  -1   58.59    3.20
   9   7  -1   63.29    3.40
   9   7  -1   62.59    3.90
   9   7  -1   60.99    3.60
   9   7  -1   65.19    3.50
  -7  -7   1    7.80    0.80
   7  -7  -1    8.60    1.20
   7  -7  -1   10.70    0.90
   7   7  -1    7.20    1.20
   7   7  -1    8.30    1.20
   7   7  -1    8.60    1.20
   7   7  -1    7.90    1.40
  -5  -7   1    2.00    0.40
   5  -7  -1    3.20    0.60
   5   7  -1    3.10    0.90
   5   7  -1    2.70    0.90
   5   7  -1    3.40    0.90
   5   7  -1    5.10    1.00
  -3  -7   1   10.90    0.80
   3  -7  -1    8.50    0.80
   3   7  -1   14.10    1.20
   3   7  -1   10.50    1.30
   3   7  -1   10.80    1.20
   3   7  -1   14.00    1.30
  -3   7   1    8.80    0.80
  -3   7   1    9.70    1.20
  -1  -7   1    4.30    0.50
  -1   7   1    6.10    0.90
  -1   7   1    5.80    0.60
   1   7  -1    3.90    0.90
   1   7  -1    4.10    0.90
   1   7   1   15.60    1.40
  -1   7  -1   15.60    1.50
   1   7   1   17.10    1.10
   1   7   1   18.00    1.50
   1   7   1   16.20    1.30
  -1   7  -1   15.10    1.50
   3   7   1   28.80    1.90
   3   7   1   29.10    1.50
   3   7   1   25.50    1.90
   3   7   1   25.50    1.80
  -3   7  -1   26.00    1.90
   5   7   1   71.09    3.80
   5   7   1   78.89    4.00
   5   7   1   71.59    3.70
   5   7   1   62.59    3.50
   5   7   1   75.79    3.30
   7  -7   1    7.00    0.80
   7  -7   1    5.40    1.10
   7   7   1    6.10    1.10
   7   7   1    4.90    1.10
   7   7   1    6.00    0.70
   7   7   1    4.60    1.00
   7   7   1    5.90    1.30
   9  -7   1   12.50    1.70
   9  -7   1   17.20    1.40
   9   7   1   19.70    2.10
   9   7   1   14.80    1.60
   9   7   1   16.40    1.70
   9   7   1   14.10    1.10
   9   7   1   15.70    1.60
  11  -7   1   38.50    2.90
  11  -7   1   31.80    2.20
  11   7   1   34.00    3.20
  11   7   1   31.60    2.40
  11   7   1   31.70    2.20
  11   7   1   32.80    2.60
  11   7   1   29.40    1.80
  13  -7   1    0.70    1.20
  13  -7   1   -0.60    1.00
  13  -7   1    0.00    0.90
  13   7   1   -0.40    1.20
  13   7   1   -0.40    1.40
  13   7   1   -0.30    1.10
  15  -7   1    0.50    1.00
  15  -7   1    1.20    1.50
  15  -7   1    1.60    1.20
  15   7   1    0.30    1.60
  15   7   1    0.10    1.30
  15   7   1   -1.60    1.10
  17  -7   1   -0.80    1.10
  17  -7   1   -1.90    1.20
  17  -7   1    2.50    1.70
  17   7   1    1.50    1.50
  17   7   1    0.10    1.30
  17   7   1    1.70    1.90
  19  -7   1    3.50    1.50
  19  -7   1    1.60    1.90
  19   7   1    7.70    1.70
  19   7   1    5.00    1.90
  19   7   1    5.60    2.30
  21  -7   1    3.30    2.10
  21   7   1    2.20    2.00
  21   7   1    1.60    2.40
  23  -7   1    5.60    2.60
  23   7   1    5.30    2.40
  23   7   1    7.80    2.70
  25  -7   1   -0.60    2.50
  25   7   1    0.40    2.50
  25   7   1   -1.80    2.10
  27  -7   1    1.70    2.80
  27   7   1    3.40    2.90
  27   7   1   -2.50    2.30
  28  -8  -1   34.60    4.70
  28   8  -1   40.60    4.60
  28   8  -1   25.20    4.10
  26  -8  -1    3.40    2.70
  26   8  -1    1.90    2.60
  26   8  -1    5.90    2.80
  24  -8  -1   81.19    6.00
  24   8  -1   70.29    6.00
  24   8  -1   71.19    5.70
  24   8  -1   64.99    4.80
  22  -8  -1    1.80    1.60
  22  -8  -1    1.50    2.10
  22   8  -1    3.60    2.30
  22   8  -1    4.20    2.40
  22   8  -1    2.20    1.90
  20  -8  -1   85.49    4.90
  20  -8  -1   92.09    6.00
  20   8  -1   78.89    6.10
  20   8  -1   88.59    5.20
  20   8  -1   94.69    5.80
  18  -8  -1   28.50    2.50
  18  -8  -1   28.60    3.20
  18   8  -1   24.40    3.30
  18   8  -1   30.60    3.20
  18   8  -1   30.50    2.90
  16  -8  -1  130.19    6.60
  16  -8  -1  114.99    5.80
  16   8  -1  105.89    5.90
  16   8  -1  107.49    6.90
  16   8  -1  116.29    6.40
  14  -8  -1    0.70    1.00
  14  -8  -1    2.30    1.10
  14  -8  -1    1.40    1.40
  14   8  -1    4.00    1.40
  14   8  -1    2.70    1.30
  14   8  -1    3.30    1.70
  12  -8  -1  154.28    7.50
  12  -8  -1  168.38    7.90
  12   8  -1  156.18    7.50
  12   8  -1  160.38    7.80
  12   8  -1  141.09    8.20
  10  -8  -1    2.00    1.10
  10  -8  -1    1.60    0.70
  10   8  -1    0.50    1.10
  10   8  -1    0.60    1.10
  10   8  -1    1.90    1.20
  10   8  -1    1.10    1.00
   8  -8  -1  137.29    6.20
   8  -8  -1  140.29    6.50
   8   8  -1  117.29    6.70
   8   8  -1  135.99    6.30
   8   8  -1  129.79    6.10
   8   8  -1  128.89    6.50
   6  -8  -1   55.89    3.30
   6  -8  -1   58.49    2.90
   6   8  -1   57.69    3.30
   6   8  -1   56.99    3.20
   6   8  -1   58.09    3.40
   6   8  -1   55.19    3.40
  -4  -8   1  126.19    6.10
   4   8  -1  139.99    6.30
  -4   8   1  137.49    6.60
   4   8  -1  151.98    6.80
   4   8  -1  143.19    6.70
   4   8  -1  137.79    6.50
  -2  -8   1    2.80    0.50
   2   8  -1    5.10    1.00
   2   8  -1    3.90    0.70
  -2   8   1    1.00    0.90
  -2   8   1    2.20    0.50
   2   8  -1    2.80    0.90
   2   8  -1    2.80    0.90
   0  -8   1  133.99    6.10
   0   8   1  148.79    6.60
   0   8   1  137.09    6.50
   0   8  -1  135.59    6.20
   0   8  -1  141.19    6.70
   2   8   1    2.10    0.90
   2   8   1    2.10    0.50
   2   8   1    2.10    0.90
  -2   8  -1    2.70    0.90
   2   8   1    2.30    0.80
   4   8   1   15.70    1.10
   4   8   1   17.70    1.70
  -4   8  -1   17.50    1.70
   4   8   1   17.50    1.70
   4   8   1   16.10    1.60
   4   8   1   16.10    1.60
   6  -8   1   96.49    4.90
   6   8   1   84.19    4.10
   6   8   1   97.79    4.70
   6   8   1   92.19    5.00
   6   8   1   91.79    4.50
   6   8   1   92.09    4.70
   8  -8   1   43.30    2.90
   8  -8   1   40.60    2.30
   8   8   1   46.90    2.70
   8   8   1   39.90    2.00
   8   8   1   41.70    2.70
   8   8   1   46.10    3.20
   8   8   1   41.90    2.80
  10  -8   1    7.60    1.60
  10   8   1    7.40    1.30
  10   8   1    8.80    1.90
  10   8   1    9.80    1.50
  10   8   1    7.70    1.40
  12  -8   1  115.69    6.20
  12   8   1  121.99    5.80
  12   8   1  107.79    5.50
  12   8   1  110.09    5.90
  12   8   1  110.19    6.60
  14  -8   1   12.40    1.60
  14  -8   1   10.50    2.10
  14   8   1   16.10    2.00
  14   8   1   14.80    2.20
  14   8   1   11.60    2.40
  16  -8   1   82.59    5.30
  16  -8   1   81.09    4.40
  16   8   1   81.59    5.70
  16   8   1   84.19    5.10
  16   8   1   73.69    4.60
  18  -8   1   25.10    3.20
  18  -8   1   22.40    2.30
  18   8   1   18.40    3.10
  18   8   1   24.10    2.90
  18   8   1   20.60    2.50
  20  -8   1   43.60    4.40
  20   8   1   44.00    4.70
  20   8   1   46.80    3.60
  20   8   1   42.50    4.00
  22  -8   1    9.20    2.70
  22   8   1    3.80    2.40
  22   8   1    5.10    2.70
  24  -8   1   71.69    6.10
  24   8   1   69.19    5.90
  24   8   1   67.49    6.40
  26  -8   1    0.10    2.60
  26   8   1   -2.70    2.50
  26   8   1    2.30    2.50
  28  -8   1   19.90    4.10
  28   8   1   19.80    3.80
  28   8   1   13.40    3.90
  27  -9  -1    7.80    3.10
  27   9  -1    6.70    3.10
  27   9  -1    6.30    3.00
  25  -9  -1    0.40    2.60
  25   9  -1    1.60    2.10
  25   9  -1   -2.80    2.30
  25   9  -1   -0.70    2.40
  23  -9  -1   23.60    3.60
  23   9  -1   20.30    3.30
  23   9  -1   20.10    3.00
  23   9  -1   17.30    3.30
  21  -9  -1   12.20    2.80
  21   9  -1    9.10    2.50
  21   9  -1   12.90    2.40
  21   9  -1    6.10    2.50
  19  -9  -1    7.80    1.70
  19  -9  -1    7.20    2.30
  19   9  -1   12.80    2.20
  19   9  -1   12.60    2.30
  19   9  -1    7.50    2.50
  17  -9  -1   28.10    2.50
  17  -9  -1   30.90    3.30
  17   9  -1   23.80    3.20
  17   9  -1   22.70    2.70
  17   9  -1   28.80    3.20
  15  -9  -1   48.50    3.30
  15  -9  -1   50.59    3.90
  15   9  -1   50.69    3.60
  15   9  -1   47.80    4.40
  15   9  -1   48.70    3.80
  13  -9  -1    2.90    1.50
  13   9  -1    2.30    1.70
  13   9  -1    4.60    1.50
  13   9  -1    4.60    1.60
  11  -9  -1  114.69    5.90
  11   9  -1  102.39    5.70
  11   9  -1  107.39    5.40
  11   9  -1  105.29    5.60
  11   9  -1  109.69    6.20
   9  -9  -1    7.50    1.50
   9   9  -1   10.10    1.60
   9   9  -1    8.00    1.50
   9   9  -1    8.10    1.60
   9   9  -1    9.90    1.50
   7  -9  -1   49.10    3.10
   7   9  -1   41.50    3.00
   7   9  -1   42.10    2.80
   7   9  -1   46.80    3.00
   7   9  -1   45.90    3.10
   5   9  -1   20.40    1.90
   5   9  -1   24.30    2.10
  -5   9   1   24.10    2.00
   5   9  -1   22.90    1.90
   5   9  -1   21.50    2.10
  -3   9   1   85.09    4.40
   3   9  -1   83.49    4.50
   3   9  -1   92.39    4.30
   3   9  -1   78.59    4.20
   3   9  -1   84.49    4.40
   1   9  -1    0.10    0.90
  -1   9   1    0.70    0.60
  -1   9   1    2.30    1.00
   1   9  -1   -0.60    0.80
  -1   9  -1   51.99    3.10
   1   9   1   50.99    2.80
   1   9   1   52.89    3.10
  -1   9  -1   51.99    3.00
   1   9   1   47.70    2.90
  -3   9  -1    1.30    0.90
   3   9   1   -0.30    0.90
   3   9   1    1.40    0.90
   3   9   1    0.20    0.90
   5   9   1   19.10    1.90
   5   9   1   19.10    2.00
   5   9   1   18.20    1.80
  -5   9  -1   18.40    1.90
   5   9   1   20.20    2.00
   7  -9   1    5.60    1.30
   7   9   1    7.80    1.40
   7   9   1    5.70    1.30
   7   9   1    6.40    1.30
   7   9   1    3.80    1.40
   9  -9   1    1.40    1.20
   9   9   1    0.80    1.40
   9   9   1    0.80    1.20
   9   9   1    0.60    1.00
   9   9   1    1.90    1.10
  11  -9   1   39.10    3.30
  11   9   1   36.00    3.00
  11   9   1   44.40    3.70
  11   9   1   38.30    2.80
  11   9   1   45.30    3.10
  13  -9   1    1.30    1.50
  13   9   1    4.90    1.50
  13   9   1    1.30    1.40
  13   9   1    4.00    1.90
  13   9   1    3.00    1.50
  15  -9   1   54.09    3.40
  15  -9   1   50.59    4.10
  15   9   1   53.59    4.60
  15   9   1   54.29    3.80
  15   9   1   53.19    4.00
  17  -9   1    2.00    1.90
  17  -9   1    1.60    1.20
  17   9   1    4.30    2.20
  17   9   1    0.10    1.50
  17   9   1    1.50    1.70
  19  -9   1    3.70    2.20
  19   9   1    4.10    1.90
  19   9   1   10.10    2.40
  19   9   1    8.70    2.60
  21  -9   1   25.30    3.60
  21   9   1   15.80    3.40
  21   9   1   25.80    2.90
  21   9   1   17.80    3.10
  23  -9   1   27.00    4.00
  23   9   1   33.00    4.40
  23   9   1   26.20    3.70
  25  -9   1   17.60    3.70
  25   9   1   16.30    3.80
  25   9   1   17.20    3.50
  27  -9   1    4.70    3.10
  27   9   1    6.40    3.10
  27   9   1    6.60    3.20
  26 -10  -1    3.10    3.00
  26  10  -1    3.60    2.90
  26  10  -1    4.40    2.90
  24 -10  -1   10.70    3.00
  24  10  -1   10.80    3.10
  24  10  -1    6.30    2.40
  24  10  -1    4.00    2.70
  22 -10  -1    2.30    2.50
  22  10  -1    1.20    2.30
  22  10  -1    2.30    2.00
  22  10  -1    5.10    2.80
  20 -10  -1    9.60    2.60
  20  10  -1    5.30    2.50
  20  10  -1   11.50    2.60
  20  10  -1    9.40    2.30
  18 -10  -1   -1.50    1.90
  18 -10  -1    0.10    1.30
  18  10  -1    0.80    1.80
  18  10  -1    2.00    2.10
  18  10  -1   -1.90    1.70
  16 -10  -1   59.49    3.80
  16 -10  -1   57.99    4.40
  16  10  -1   59.09    4.10
  16  10  -1   56.59    4.80
  16  10  -1   62.19    4.40
  14 -10  -1    4.50    1.90
  14  10  -1    8.10    2.10
  14  10  -1    1.70    1.60
  14  10  -1    6.70    1.80
  12 -10  -1   55.59    3.90
  12  10  -1   50.19    3.50
  12  10  -1   56.99    3.70
  12  10  -1   48.20    4.00
  12  10  -1   51.09    3.70
  10 -10  -1    7.70    1.70
  10  10  -1    2.90    1.60
  10  10  -1    7.10    1.60
  10  10  -1    7.70    1.60
  10  10  -1    7.10    1.50
   8 -10  -1  160.48    7.50
   8  10  -1  147.99    7.20
   8  10  -1  129.99    7.50
   8  10  -1  157.98    7.10
   8  10  -1  147.39    7.40
   6  10  -1    8.20    1.40
   6  10  -1    8.70    1.50
   6  10  -1    8.10    1.50
   6  10  -1    5.10    1.40
   4  10  -1   93.79    4.70
   4  10  -1   96.69    4.80
  -4  10   1   91.29    4.80
   4  10  -1   89.89    5.00
   4  10  -1   88.49    4.80
   2  10  -1    4.50    1.20
   2  10  -1    6.70    1.40
  -2  10   1    4.20    1.20
   2  10  -1    6.40    1.30
   2  10  -1    7.80    0.90
   0  10   1   43.50    2.40
   0  10   1   46.20    2.80
   0  10  -1   40.50    2.90
   0  10  -1   37.60    2.70
   0  10   1   44.10    2.90
  -2  10  -1   27.40    2.20
   2  10   1   28.00    2.00
   2  10   1   23.40    2.10
   2  10   1   26.50    2.20
  -2  10  -1   22.40    2.20
   4  10   1  160.38    7.70
   4  10   1  161.98    7.40
   4  10   1  157.58    7.60
   4  10   1  159.98    7.90
  -4  10  -1  159.78    7.80
   6  10   1   22.60    2.20
   6  10   1   20.90    2.30
   6  10   1   22.50    2.20
   6  10   1   22.00    2.10
   8 -10   1  127.09    6.60
   8  10   1  134.29    7.00
   8  10   1  124.49    6.30
   8  10   1  120.09    6.40
   8  10   1  130.69    6.20
  10 -10   1   25.00    2.60
  10  10   1   25.60    2.50
  10  10   1   24.30    2.30
  10  10   1   23.30    2.40
  10  10   1   24.10    3.00
  12 -10   1   39.60    3.70
  12  10   1   46.00    3.40
  12  10   1   42.80    3.90
  12  10   1   46.10    3.30
  12  10   1   43.20    3.20
  14 -10   1   30.80    3.30
  14  10   1   34.00    3.70
  14  10   1   26.80    2.80
  14  10   1   31.80    2.90
  14  10   1   29.60    3.00
  16 -10   1   48.80    4.20
  16 -10   1   40.00    3.20
  16  10   1   40.00    3.70
  16  10   1   47.10    3.50
  16  10   1   40.30    4.30
  18 -10   1    1.40    2.20
  18  10   1    4.00    2.10
  18  10   1    1.60    1.80
  18  10   1   -0.50    2.20
  20 -10   1    4.80    2.50
  20  10   1    8.10    2.90
  20  10   1    4.90    2.40
  20  10   1    4.30    2.10
  22 -10   1    1.50    2.70
  22  10   1   -1.40    2.30
  22  10   1   -1.50    2.20
  24 -10   1    5.30    2.90
  24  10   1   -0.70    2.40
  24  10   1    0.50    2.80
  26 -10   1   -1.60    2.90
  26  10   1    1.80    2.90
  26  10   1    6.10    3.10
  27  11  -1    0.30    2.80
  27  11  -1    4.00    3.10
  25 -11  -1    3.30    2.80
  25  11  -1   -3.40    2.30
  25  11  -1   -0.90    2.50
  25  11  -1    1.70    2.70
  23 -11  -1    8.00    3.00
  23  11  -1    5.90    2.80
  23  11  -1    4.30    2.40
  23  11  -1   12.70    3.00
  21 -11  -1    0.20    2.30
  21  11  -1    1.20    2.30
  21  11  -1    1.90    2.10
  21  11  -1    2.10    2.60
  19 -11  -1    5.40    2.40
  19  11  -1    7.00    2.40
  19  11  -1    4.30    2.60
  19  11  -1    6.60    2.20
  17 -11  -1    1.90    1.40
  17 -11  -1   -1.50    1.80
  17  11  -1    2.20    1.90
  17  11  -1    1.10    2.00
  17  11  -1   -0.10    1.70
  15 -11  -1   11.70    2.40
  15  11  -1    7.50    2.30
  15  11  -1    6.20    2.00
  15  11  -1    7.20    2.00
  13 -11  -1   15.20    2.40
  13  11  -1   11.50    2.40
  13  11  -1   12.30    2.10
  13  11  -1   12.90    2.30
  13  11  -1   14.00    2.30
  11 -11  -1   17.70    2.40
  11  11  -1   16.40    2.30
  11  11  -1   19.20    2.20
  11  11  -1   15.40    2.40
  11  11  -1   12.20    2.10
   9 -11  -1   14.80    2.00
   9  11  -1   13.40    2.10
   9  11  -1   14.40    2.10
   9  11  -1   10.30    1.90
   9  11  -1   16.40    2.10
   7 -11  -1   46.90    3.30
   7  11  -1   45.20    3.30
   7  11  -1   42.40    3.10
   7  11  -1   40.70    3.10
   7  11  -1   47.40    3.30
   5  11  -1   14.50    1.90
   5  11  -1   12.70    1.80
  -5  11   1   14.70    1.80
   5  11  -1   14.60    1.90
  -3  11   1   42.00    2.90
   3  11  -1   37.40    2.90
   3  11  -1   34.60    2.80
   3  11  -1   43.40    2.90
   1  11  -1   49.80    3.20
   1  11  -1   51.89    3.40
  -1  11   1   49.99    3.30
  -1  11  -1   61.99    3.60
   1  11   1   54.79    3.50
  -1  11  -1   63.39    3.80
   1  11   1   62.59    3.70
  -3  11  -1   34.60    2.80
   3  11   1   38.20    2.80
   3  11   1   39.60    2.70
  -3  11  -1   35.60    2.60
   3  11   1   36.70    2.80
   5  11   1   60.69    3.80
   5  11   1   56.79    3.60
   5  11   1   55.59    3.60
   5  11   1   59.49    3.70
  -5  11  -1   57.59    3.80
   7 -11   1   71.69    4.30
   7  11   1   69.59    4.20
   7  11   1   64.29    4.10
   7  11   1   67.09    4.40
   7  11   1   65.29    3.90
   9 -11   1   97.49    5.40
   9  11   1   88.29    5.60
   9  11   1   85.89    4.90
   9  11   1   97.49    5.30
   9  11   1   93.99    5.10
  11 -11   1   18.70    2.60
  11  11   1   15.40    2.20
  11  11   1   22.50    2.50
  11  11   1   14.80    2.10
  11  11   1   16.90    2.70
  13 -11   1   61.49    4.40
  13  11   1   57.29    3.90
  13  11   1   56.79    4.20
  13  11   1   57.69    4.00
  13  11   1   51.99    4.60
  15 -11   1    9.00    2.30
  15  11   1    7.60    2.00
  15  11   1    6.30    2.00
  15  11   1    5.60    2.40
  17 -11   1   14.40    2.80
  17  11   1   21.60    2.70
  17  11   1   14.10    2.60
  17  11   1   12.70    3.00
  19 -11   1    0.70    2.30
  19  11   1    2.80    2.60
  19  11   1    2.20    2.20
  19  11   1    5.80    2.20
  21 -11   1    2.30    2.70
  21  11   1    2.90    2.20
  21  11   1    3.20    2.70
  21  11   1    6.90    2.60
  23 -11   1   10.90    3.30
  23  11   1    4.30    3.10
  23  11   1    3.60    2.70
  25 -11   1    1.40    2.90
  25  11   1   -1.50    2.80
  25  11   1    2.50    2.90
  26 -12  -1   -3.60    2.80
  26  12  -1   -0.70    2.70
  26  12  -1    3.40    3.00
  24 -12  -1    8.80    3.40
  24  12  -1   13.70    3.20
  24  12  -1    7.80    3.10
  24  12  -1    9.50    2.70
  22 -12  -1    1.90    2.50
  22  12  -1    3.90    2.70
  22  12  -1    6.70    2.50
  22  12  -1    7.70    2.60
  20 -12  -1    7.20    2.60
  20  12  -1    6.90    2.80
  20  12  -1    5.30    2.50
  20  12  -1    2.30    2.20
  18 -12  -1   13.10    2.70
  18  12  -1   13.70    2.70
  18  12  -1    5.60    2.60
  18  12  -1    7.20    2.40
  16 -12  -1   12.90    2.60
  16  12  -1   12.50    2.50
  16  12  -1   13.70    2.80
  16  12  -1   14.70    2.60
  14 -12  -1    7.40    2.10
  14  12  -1   11.20    2.30
  14  12  -1   10.40    2.20
  14  12  -1    5.30    2.00
  14  12  -1    7.60    2.30
  12 -12  -1    8.60    2.10
  12  12  -1    7.60    2.00
  12  12  -1    8.40    2.10
  12  12  -1    6.90    2.00
  12  12  -1    8.40    2.00
  10 -12  -1    0.20    1.40
  10  12  -1    0.80    1.50
  10  12  -1    1.50    1.60
  10  12  -1    2.10    1.60
  10  12  -1    2.20    1.60
   8 -12  -1    2.40    1.50
   8  12  -1    0.30    1.40
   8  12  -1    2.70    1.60
   8  12  -1    4.00    1.60
   6  12  -1   -1.50    1.30
   6  12  -1    0.40    1.40
  -6  12   1    1.60    1.30
   6  12  -1    0.60    1.40
   4  12  -1    4.20    1.50
   4  12  -1    3.60    1.50
  -4  12   1    4.60    1.50
   4  12  -1    6.80    1.60
   2  12  -1   20.80    2.30
  -2  12   1   21.20    2.20
   2  12  -1   20.40    2.30
   2  12  -1   16.90    2.20
   0  12  -1    5.10    1.50
   0  12   1   10.70    1.70
   0  12  -1    5.50    1.50
   0  12   1    8.00    1.60
  -2  12  -1   -0.90    1.10
   2  12   1    0.90    1.20
  -2  12  -1    0.90    1.20
   2  12   1   -0.70    1.20
   4  12   1    4.20    1.50
   4  12   1    2.50    1.30
  -4  12  -1    3.30    1.50
  -4  12  -1    3.00    1.40
   4  12   1    2.20    1.40
   6  12   1   32.70    3.00
  -6  12  -1   36.30    3.10
   6  12   1   34.00    3.00
   6  12   1   38.80    3.00
   8 -12   1    8.40    2.00
   8  12   1   11.50    1.90
   8  12   1   10.70    1.90
   8  12   1    7.60    1.80
   8  12   1    6.00    2.00
  10 -12   1    1.90    1.70
  10  12   1    0.40    1.50
  10  12   1    1.20    1.60
  10  12   1    1.00    1.50
  10  12   1    0.80    1.80
  12 -12   1   36.40    3.50
  12  12   1   29.40    3.00
  12  12   1   30.90    3.00
  12  12   1   30.10    3.50
  12  12   1   32.50    3.10
  14 -12   1   -0.60    1.90
  14  12   1   -1.60    1.70
  14  12   1    0.20    1.70
  14  12   1    1.70    2.10
  14  12   1    3.00    1.80
  16 -12   1   33.30    3.70
  16  12   1   30.90    3.90
  16  12   1   28.60    3.30
  16  12   1   28.30    3.10
  18 -12   1   -0.90    2.20
  18  12   1   -0.90    2.00
  18  12   1    0.70    2.30
  18  12   1   -0.50    2.00
  20 -12   1   11.20    3.20
  20  12   1   18.20    3.50
  20  12   1   10.10    2.60
  20  12   1   10.30    2.80
  22 -12   1    2.80    2.80
  22  12   1   -2.80    2.50
  22  12   1    4.10    2.60
  24 -12   1   11.20    3.60
  24  12   1   10.40    3.20
  24  12   1    5.00    3.10
  23 -13  -1    8.90    3.40
  23  13  -1    4.80    3.00
  23  13  -1    9.70    2.80
  23  13  -1    8.50    3.20
  21 -13  -1   -0.70    2.40
  21  13  -1   -4.40    2.20
  21  13  -1    3.00    2.70
  21  13  -1   -1.20    2.20
  19 -13  -1   13.30    3.00
  19  13  -1   23.30    3.30
  19  13  -1   13.30    3.20
  19  13  -1   18.30    3.10
  17 -13  -1    5.40    2.40
  17  13  -1    8.30    2.70
  17  13  -1   11.00    2.60
  17  13  -1    6.60    2.50
  15 -13  -1   19.80    3.10
  15  13  -1   13.90    3.10
  15  13  -1   22.80    3.10
  15  13  -1   21.20    3.00
  13 -13  -1   21.20    2.90
  13  13  -1   17.70    2.70
  13  13  -1   22.70    2.80
  13  13  -1   20.60    2.90
  11 -13  -1    9.70    2.20
  11  13  -1   13.80    2.40
  11  13  -1    8.50    2.10
  11  13  -1   10.70    2.20
   9 -13  -1   32.50    3.20
   9  13  -1   36.70    3.40
   9  13  -1   34.70    3.20
   9  13  -1   31.20    3.10
   7 -13  -1    9.30    1.90
   7  13  -1   14.20    2.30
   7  13  -1   11.10    2.10
   7  13  -1   11.90    2.20
   5  13  -1   28.70    2.90
   5  13  -1   32.10    3.00
   5  13  -1   28.80    2.90
  -5  13   1   36.10    3.00
  -3  13   1   64.99    4.10
   3  13  -1   67.49    4.20
   3  13  -1   64.29    4.20
   3  13  -1   61.29    4.20
  -1  13   1   12.10    1.90
   1  13  -1    9.00    1.90
   1  13  -1   11.20    2.00
  -1  13   1    7.60    1.80
   1  13  -1    9.90    1.90
   1  13   1   57.99    3.90
   1  13   1   64.59    4.10
  -1  13  -1   60.19    3.90
  -1  13  -1   65.69    4.20
   3  13   1   21.30    2.50
  -3  13  -1   23.90    2.50
   3  13   1   26.10    2.70
   3  13   1   22.20    2.40
  -3  13  -1   22.20    2.50
   5  13   1   38.50    3.30
  -5  13  -1   40.50    3.40
   5  13   1   37.40    3.20
   5  13   1   37.70    3.20
  -5  13  -1   38.70    3.20
   7 -13   1    6.50    2.00
   7  13   1    9.50    2.00
   7  13   1    8.20    1.90
   7  13   1    9.50    2.00
   9 -13   1   27.30    3.00
   9  13   1   28.20    2.90
   9  13   1   25.90    2.90
   9  13   1   31.90    3.10
  11 -13   1   10.50    2.40
  11  13   1   11.20    2.30
  11  13   1   15.60    2.30
  11  13   1   11.60    2.30
  13 -13   1   30.10    3.40
  13  13   1   21.00    2.90
  13  13   1   23.60    3.00
  13  13   1   24.20    3.00
  13  13   1   25.60    3.50
  15 -13   1   38.90    4.30
  15  13   1   40.90    4.40
  15  13   1   47.00    4.00
  15  13   1   41.10    3.80
  15  13   1   40.40    3.90
  17 -13   1    9.30    2.80
  17  13   1   10.60    3.00
  17  13   1   14.90    2.80
  17  13   1   10.40    2.70
  19 -13   1   30.40    4.10
  19  13   1   27.00    3.60
  19  13   1   24.80    4.00
  19  13   1   26.30    3.40
  21 -13   1   -1.50    2.70
  21  13   1    0.20    2.50
  21  13   1    2.00    2.30
  21  13   1    0.80    2.70
  23 -13   1   11.60    3.60
  23  13   1    2.50    2.90
  23  13   1    9.90    3.40
  22 -14  -1    1.70    2.90
  22  14  -1    3.90    2.80
  22  14  -1    1.20    2.70
  20 -14  -1    2.50    2.70
  20  14  -1    0.90    2.60
  20  14  -1    4.70    2.60
  18 -14  -1    1.40    2.30
  18  14  -1    1.20    2.30
  18  14  -1    1.10    2.30
  16 -14  -1    3.80    2.40
  16  14  -1    3.00    2.20
  16  14  -1    4.10    2.40
  14 -14  -1   23.80    3.30
  14  14  -1   23.70    3.10
  14  14  -1   24.70    3.10
  14  14  -1   16.60    2.90
  12 -14  -1    3.80    2.10
  12  14  -1    3.50    2.10
  12  14  -1    3.70    2.00
  12  14  -1    5.80    2.10
  10 -14  -1    8.50    2.00
  10  14  -1    4.80    2.10
  10  14  -1    7.30    2.20
  10  14  -1    7.20    2.10
   8 -14  -1    9.60    2.10
   8  14  -1   11.30    2.20
   8  14  -1   11.60    2.30
   8  14  -1   10.00    2.10
  -6  14   1   42.10    3.50
   6  14  -1   43.40    3.50
   6  14  -1   40.70    3.70
   6  14  -1   40.10    3.60
   4  14  -1   30.80    3.00
  -4  14   1   22.90    2.70
   4  14  -1   32.10    3.10
   4  14  -1   29.60    3.00
   2  14  -1   43.40    3.60
  -2  14   1   47.90    3.60
  -2  14   1   48.90    3.70
   2  14  -1   48.90    3.80
   2  14  -1   52.79    3.90
   0  14   1   16.30    2.30
   0  14  -1   14.90    2.30
   0  14  -1   16.40    2.40
   0  14   1   20.10    2.40
  -2  14  -1    5.80    1.80
   2  14   1    6.90    1.90
  -2  14  -1   11.20    2.10
   2  14   1    6.10    1.80
   4  14   1   12.90    2.30
  -4  14  -1   12.00    2.20
  -4  14  -1   15.00    2.20
   4  14   1   11.70    2.10
   4  14   1   10.80    2.20
   6  14   1   12.30    2.30
   6  14   1   16.30    2.30
  -6  14  -1   15.00    2.40
   6  14   1   15.70    2.40
  -6  14  -1   13.40    2.20
   8 -14   1    5.10    1.90
   8  14   1    3.00    1.90
   8  14   1    5.30    1.90
   8  14   1    4.30    2.00
  10 -14   1   10.70    2.30
  10  14   1   14.00    2.40
  10  14   1   12.30    2.40
  10  14   1   10.90    2.40
  12 -14   1    9.40    2.60
  12  14   1    6.50    2.30
  12  14   1    9.80    2.40
  12  14   1    9.30    2.40
  14 -14   1    2.60    2.20
  14  14   1    3.40    2.20
  14  14   1   -0.80    1.90
  14  14   1    4.30    2.20
  16 -14   1   -0.90    2.20
  16  14   1    0.60    2.20
  16  14   1   -1.60    1.90
  16  14   1   -2.80    2.00
  18 -14   1   -0.20    2.30
  18  14   1    0.60    2.40
  18  14   1    1.30    2.30
  20 -14   1    1.80    2.90
  20  14   1    8.30    2.80
  20  14   1    7.50    2.80
  20  14   1    5.20    3.00
  22 -14   1    2.40    3.10
  22  14   1    6.60    2.90
  22  14   1    3.20    3.00
  21 -15  -1   10.20    3.20
  21  15  -1   10.80    3.40
  21  15  -1    8.50    3.20
  19 -15  -1   11.60    3.00
  19  15  -1   17.00    3.20
  19  15  -1   13.80    3.30
  17 -15  -1    8.80    2.80
  17  15  -1   12.10    3.00
  17  15  -1    9.20    2.80
  15 -15  -1   38.00    4.20
  15  15  -1   31.30    3.90
  15  15  -1   42.90    4.10
  15  15  -1   42.00    4.10
  13 -15  -1    0.20    2.10
  13  15  -1    0.90    2.20
  13  15  -1    5.80    2.40
  13  15  -1    4.00    2.20
  11 -15  -1   34.90    3.60
  11  15  -1   32.70    3.70
  11  15  -1   40.00    3.70
  11  15  -1   38.00    3.70
   9 -15  -1   18.60    2.80
   9  15  -1   17.60    2.80
   9  15  -1   20.90    3.00
   9  15  -1   24.40    3.10
   7 -15  -1    2.60    1.80
   7  15  -1    2.80    1.90
   7  15  -1    5.90    2.00
   7  15  -1    4.90    2.10
   5  15  -1    4.10    1.90
   5  15  -1    3.30    1.90
   5  15  -1    0.30    1.70
  -5  15   1    0.90    1.70
  -3  15   1    7.10    2.00
   3  15  -1    9.30    2.10
   3  15  -1   10.10    2.20
   3  15  -1    9.60    2.20
  -3  15   1   11.00    2.10
   1  15  -1    2.50    1.90
   1  15  -1    6.10    2.00
  -1  15   1    8.00    2.00
  -1  15   1    3.10    1.80
   1  15  -1    4.90    1.90
  -1  15  -1    0.00    1.70
  -1  15  -1   -1.30    1.60
   1  15   1    3.50    1.80
   1  15   1   -0.20    1.60
   3  15   1   42.60    3.70
   3  15   1   40.80    3.80
  -3  15  -1   48.60    4.00
  -3  15  -1   37.30    3.50
   3  15   1   46.80    3.80
   5  15   1    2.80    1.90
   5  15   1   -1.30    1.70
  -5  15  -1   -0.60    1.60
  -5  15  -1    0.70    1.70
   5  15   1   -1.60    1.60
   7 -15   1    3.80    2.10
   7  15   1    4.40    1.90
   7  15   1    0.20    1.90
   7  15   1    0.70    1.90
  -7  15  -1    5.10    1.90
   9 -15   1    7.50    2.20
   9  15   1    2.70    2.10
   9  15   1    7.50    2.30
   9  15   1    8.50    2.20
  11 -15   1   45.10    4.30
  11  15   1   45.50    4.10
  11  15   1   40.40    4.00
  11  15   1   42.20    4.00
  13 -15   1    1.60    2.30
  13  15   1    3.50    2.30
  13  15   1    3.00    2.30
  13  15   1    3.00    2.10
  15 -15   1   39.90    4.40
  15  15   1   34.30    3.80
  15  15   1   40.80    4.10
  15  15   1   34.50    3.80
  17 -15   1   -2.60    2.40
  17  15   1    2.60    2.40
  17  15   1    3.60    2.50
  19 -15   1   24.60    3.80
  19  15   1   20.40    3.50
  19  15   1   26.80    3.70
  21 -15   1    3.30    3.10
  21  15   1    4.80    2.90
  21  15   1    0.40    2.60
  20 -16  -1    4.60    3.00
  20  16  -1   10.30    3.00
  20  16  -1    5.20    3.10
  18 -16  -1    2.00    2.60
  18  16  -1   -3.30    2.50
  18  16  -1    1.50    2.50
  16 -16  -1   25.20    3.90
  16  16  -1   17.70    3.40
  16  16  -1   22.10    3.50
  14 -16  -1   -1.20    2.30
  14  16  -1   -3.20    2.10
  14  16  -1   -1.00    2.20
  14  16  -1    4.90    2.40
  12 -16  -1    9.90    2.70
  12  16  -1   11.40    2.60
  12  16  -1    9.00    2.60
  12  16  -1    7.30    2.60
  10 -16  -1    3.10    2.00
  10  16  -1    3.10    2.20
  10  16  -1    0.90    2.10
  10  16  -1   -0.60    2.10
   8 -16  -1    4.60    2.10
   8  16  -1    1.40    2.00
   8  16  -1    3.30    2.10
   8  16  -1    4.10    2.30
   6  16  -1   -0.40    2.00
   6  16  -1   -2.00    1.70
   6  16  -1   -0.90    1.70
   4  16  -1   -0.40    1.80
  -4  16   1    0.40    1.90
  -4  16   1    3.50    1.90
   4  16  -1    0.90    2.00
   4  16  -1    3.20    1.90
   2  16  -1    8.00    2.20
  -2  16   1    3.10    1.90
  -2  16   1   11.40    2.20
   2  16  -1    2.70    2.00
   2  16  -1    2.30    2.00
   0  16   1    4.70    1.90
   0  16   1    7.00    2.10
   0  16  -1    5.00    1.90
   0  16  -1    4.60    2.00
   0  16  -1   -1.30    1.70
   2  16   1   15.20    2.60
   2  16   1   19.60    2.70
  -2  16  -1   13.10    2.50
   2  16   1   13.90    2.50
  -2  16  -1   19.50    2.70
   4  16   1    2.40    1.90
  -4  16  -1    0.30    1.90
  -4  16  -1   -1.00    1.70
   4  16   1   -0.30    1.80
   4  16   1    0.90    1.80
   6  16   1    9.80    2.40
  -6  16  -1   11.70    2.40
   6  16   1    6.80    2.20
   6  16   1   10.60    2.50
   8 -16   1    3.40    2.10
  -8  16  -1   -0.30    1.70
   8  16   1    1.50    2.10
   8  16   1    0.30    1.90
   8  16   1    0.00    2.00
  10 -16   1   17.60    2.90
  10  16   1   17.00    2.80
  10  16   1   14.90    2.80
  10  16   1   12.00    2.80
  12 -16   1    3.80    2.50
  12  16   1    2.30    2.40
  12  16   1    0.90    2.20
  12  16   1    0.20    2.10
  14 -16   1   17.70    3.30
  14  16   1   15.90    3.10
  14  16   1   16.40    3.10
  14  16   1   13.00    2.90
  16 -16   1    5.80    2.80
  16  16   1    0.40    2.50
  16  16   1    5.50    2.90
  16  16   1    3.60    2.70
  18 -16   1   13.60    3.50
  18  16   1   10.00    3.00
  18  16   1   13.90    3.30
  17 -17  -1    3.10    2.90
  17  17  -1    8.40    3.00
  17  17  -1    1.00    2.90
  15 -17  -1   -0.10    2.30
  15  17  -1    0.50    2.30
  15  17  -1   -0.80    2.60
  15  17  -1    5.40    2.90
  13 -17  -1    5.80    2.60
  13  17  -1    3.50    2.60
  13  17  -1   -0.90    2.30
  13  17  -1    3.00    2.50
  11 -17  -1   -0.80    2.10
  11  17  -1    0.50    2.50
  11  17  -1    0.40    2.10
  11  17  -1    1.90    2.40
   9 -17  -1   23.00    3.10
   9  17  -1   21.40    3.20
   9  17  -1   14.40    2.90
   9  17  -1   14.10    3.00
   7 -17  -1   -0.30    2.00
   7  17  -1    1.20    2.20
   7  17  -1   -0.20    2.10
  -7  17   1    4.60    2.20
   7  17  -1    5.40    2.30
   5  17  -1   32.40    3.60
   5  17  -1   23.70    3.20
  -5  17   1   29.50    3.40
  -5  17   1   23.80    3.10
   5  17  -1   19.30    3.10
  -3  17   1    4.50    2.10
   3  17  -1   -0.10    2.00
  -3  17   1    1.30    1.90
   3  17  -1   -0.80    1.80
   3  17  -1    0.20    2.10
  -1  17   1   27.00    3.30
  -1  17   1   40.90    3.70
   1  17  -1   30.50    3.50
   1  17  -1   41.30    3.90
   1  17  -1   38.40    3.80
  -1  17  -1    6.50    2.20
   1  17   1    7.50    2.30
   1  17   1    9.50    2.30
  -1  17  -1    4.10    2.20
  -1  17  -1    6.10    2.30
   1  17   1    4.90    2.20
   3  17   1    6.70    2.30
   3  17   1    7.60    2.30
   3  17   1    8.70    2.40
  -3  17  -1   15.00    2.70
  -3  17  -1   12.50    2.60
  -5  17  -1   11.10    2.40
   5  17   1   12.50    2.60
   5  17   1    9.40    2.60
   5  17   1    6.70    2.30
  -5  17  -1   11.40    2.70
   7 -17   1    5.60    2.30
   7  17   1    6.20    2.30
   7  17   1    7.00    2.50
  -7  17  -1    4.70    2.20
   7  17   1    5.70    2.40
   9 -17   1    5.00    2.40
  -9  17  -1    3.80    2.20
   9  17   1    6.00    2.50
   9  17   1    5.70    2.30
   9  17   1    7.00    2.60
  11 -17   1    9.80    2.70
  11  17   1    8.30    2.50
 -11  17  -1    3.90    2.30
  11  17   1    3.40    2.60
  11  17   1    6.70    2.70
  13 -17   1    1.50    2.40
  13  17   1    2.00    2.50
  13  17   1    2.50    2.30
  13  17   1    2.70    2.60
  15 -17   1    0.60    2.70
  15  17   1   -2.40    2.40
  15  17   1   -2.40    2.30
  15  17   1    3.90    2.80
  17 -17   1    5.00    3.30
  17  17   1    2.50    2.70
  17  17   1    4.30    2.90
  16 -18  -1    7.20    3.00
  16  18  -1    6.50    3.10
  16  18  -1    3.90    2.80
  16  18  -1    2.90    3.00
  14 -18  -1    4.60    2.80
  14  18  -1    4.30    3.00
  14  18  -1    2.40    2.60
  14  18  -1    3.20    2.80
  12 -18  -1    4.50    2.60
  12  18  -1    3.10    2.60
  12  18  -1    5.70    2.50
  12  18  -1    2.30    2.70
  10 -18  -1    2.90    2.40
  10  18  -1   -0.50    2.20
  10  18  -1    3.00    2.60
  10  18  -1    3.80    2.50
   8 -18  -1   18.50    3.10
   8  18  -1   12.50    2.90
   8  18  -1   23.30    3.60
   8  18  -1   21.20    3.20
  -8  18   1   17.00    2.90
   6  18  -1    1.20    2.20
  -6  18   1    1.20    2.10
   6  18  -1    1.80    2.30
   6  18  -1    2.00    2.30
  -4  18   1    9.80    2.50
   4  18  -1    4.50    2.40
   4  18  -1    7.20    2.60
   4  18  -1    4.20    2.30
  -4  18   1    8.10    2.50
   2  18  -1    0.00    2.20
  -2  18   1    4.60    2.20
   2  18  -1    0.70    2.00
  -2  18   1    5.30    2.30
   2  18  -1    1.30    2.20
   0  18  -1   22.00    3.20
   0  18  -1   27.20    3.40
   0  18   1   26.70    3.30
   0  18   1   19.90    3.20
   0  18  -1   24.60    3.40
   0  18   1   27.30    3.30
  -2  18  -1   10.50    2.60
   2  18   1    1.30    2.20
   2  18   1   13.00    2.60
   2  18   1    9.40    2.50
  -2  18  -1   10.30    2.80
  -2  18  -1   10.00    2.60
   4  18   1    9.60    2.60
   4  18   1   11.80    2.60
  -4  18  -1   13.10    2.80
   4  18   1    8.00    2.50
  -4  18  -1   13.20    2.80
   6 -18   1    3.70    2.40
   6  18   1   -1.60    2.20
  -6  18  -1    3.90    2.30
   6  18   1    2.60    2.30
   6  18   1   -1.00    2.20
   8 -18   1   -0.40    2.10
   8  18   1   -1.00    2.30
   8  18   1   -0.20    2.10
  -8  18  -1   -1.30    2.00
   8  18   1    2.30    2.60
  10 -18   1    5.10    2.50
  10  18   1    2.20    2.50
  10  18   1    5.80    2.50
 -10  18  -1    6.10    2.40
  10  18   1    3.20    2.70
  12 -18   1    1.60    2.50
  12  18   1    1.10    2.60
 -12  18  -1    1.30    2.20
  12  18   1    0.00    2.30
  12  18   1    1.80    2.60
  14 -18   1   -1.20    2.80
  14  18   1    3.00    2.50
  14  18   1   -1.30    2.60
  14  18   1    5.30    2.90
  13 -19  -1   16.00    3.50
  13  19  -1   15.40    3.20
  13  19  -1    9.50    3.20
  13  19  -1    9.50    3.30
  11 -19  -1    3.70    2.60
  11  19  -1   -0.50    2.50
  11  19  -1    3.20    2.60
 -11  19   1    3.80    2.50
  11  19  -1    0.00    2.80
   9 -19  -1    0.40    2.30
  -9  19   1    1.20    2.40
   9  19  -1   -3.10    2.40
   9  19  -1    3.10    2.70
   9  19  -1   -1.80    2.20
   7 -19  -1   -2.30    2.10
  -7  19   1   -4.10    2.00
   7  19  -1    0.70    2.40
   7  19  -1    1.60    2.60
   7  19  -1   -1.70    2.30
   5  19  -1    7.80    2.80
   5  19  -1    8.70    2.80
  -5  19   1    6.60    2.50
   5  19  -1   12.20    3.00
   3  19  -1    2.30    2.40
   3  19  -1    3.90    2.50
  -3  19   1    7.10    2.60
  -3  19   1   -1.70    2.10
   3  19  -1    3.10    2.50
  -1  19   1    2.30    2.30
   1  19  -1   -0.90    2.20
   1  19  -1    2.00    2.40
  -1  19   1    2.20    2.40
  -1  19   1    3.10    2.40
   1  19  -1   -1.50    2.10
  -1  19  -1   -0.90    2.30
   1  19   1    1.10    2.20
   1  19   1   -2.40    2.10
  -1  19  -1    0.30    2.20
  -1  19  -1    0.50    2.30
   1  19   1   -0.70    2.30
   3  19   1    1.70    2.50
  -3  19  -1    1.20    2.40
  -3  19  -1    1.10    2.30
   3  19   1   -1.30    2.20
  -3  19  -1    0.70    2.30
   3  19   1    0.40    2.20
  -5  19  -1   -0.10    2.20
   5  19   1    3.80    2.60
   5  19   1    6.00    2.50
   5  19   1    2.20    2.50
   7 -19   1    6.00    2.80
   7  19   1    8.30    2.70
  -7  19  -1    8.50    2.60
   7  19   1    4.10    2.70
   7  19   1    3.50    2.60
   9 -19   1    1.60    2.40
   9  19   1    5.60    2.90
  -9  19  -1    1.30    2.30
   9  19   1   -0.60    2.30
   9  19   1   -0.30    2.50
  11 -19   1    1.10    2.60
  11  19   1    0.70    2.60
  11  19   1    0.30    2.50
  11  19   1    1.30    2.60
 -11  19  -1   -0.50    2.30
   8 -20  -1   14.30    3.50
   8  20  -1   15.20    3.20
  -8  20   1   12.60    2.90
   8  20  -1   13.20    3.30
   8  20  -1   15.20    3.40
   6 -20  -1    8.80    2.80
   6  20  -1    5.70    2.80
   6  20  -1    6.10    2.90
  -6  20   1    8.30    2.80
   6  20  -1    6.70    2.80
   4  20  -1    9.10    3.00
   4  20  -1    8.10    2.90
  -4  20   1    7.20    2.80
   4  20  -1   10.30    3.00
   2  20  -1    1.50    2.60
   2  20  -1    1.30    2.60
  -2  20   1    1.80    2.50
   2  20  -1    2.00    2.50
  -2  20   1    2.30    2.50
   0  20   1   10.70    2.80
   0  20  -1   12.40    3.00
   0  20  -1    8.20    2.80
   0  20  -1    9.40    3.00
   0  20   1    4.50    2.80
  -2  20  -1   -1.70    2.30
  -2  20  -1    1.50    2.50
   2  20   1   -0.60    2.30
   2  20   1   -1.30    2.20
  -2  20  -1    1.70    2.50
  -4  20  -1    1.80    2.40
  -4  20  -1    0.80    2.40
   4  20   1    3.20    2.50
  -4  20  -1    1.20    2.50
   4  20   1    4.10    2.80
   6 -20   1    0.20    2.50
   6  20   1    1.70    2.70
   6  20   1   -2.90    2.50
  -6  20  -1    0.00    2.40
   8 -20   1   17.30    3.40
   8  20   1   16.20    3.60
  -8  20  -1    8.40    2.80
   8  20   1   13.50    3.50
  32   0  -2   -2.10    2.70
  32   0  -2    0.60    2.80
  30   0  -2    1.70    2.50
  30   0  -2   -3.80    2.40
  28   0  -2   -0.20    2.50
  28   0  -2    1.20    2.30
  26   0  -2    2.90    2.40
  26   0  -2    1.30    2.10
  24   0  -2    2.50    2.00
  24   0  -2    1.60    1.80
  24   0  -2   -0.30    1.40
  22   0  -2    2.90    1.40
  22   0  -2    0.80    1.70
  22   0  -2    0.60    1.80
  20   0  -2   13.60    2.10
  20   0  -2    8.70    2.10
  20   0  -2    9.60    1.70
  18   0  -2    2.50    1.50
  18   0  -2    1.20    1.40
  18   0  -2    4.10    1.20
  16   0  -2    7.00    0.80
  16   0  -2    4.80    1.50
  16   0  -2    5.20    1.20
  16   0  -2    4.50    1.40
  14   0  -2    2.20    0.60
  14   0  -2    2.30    0.90
  14   0  -2    1.70    1.20
  14   0  -2    2.60    0.50
  14   0  -2    2.20    1.00
  12   0  -2    5.80    1.30
  12   0  -2    5.90    0.70
  12   0  -2    4.80    1.10
  12   0  -2    5.30    1.00
  10   0  -2    1.20    0.80
  10   0  -2    1.50    0.80
  10   0  -2    0.80    0.30
  10   0  -2    0.50    0.70
  10   0  -2    0.90    0.40
   8   0  -2    2.90    0.80
  -8   0   2    4.10    0.50
  -8   0   2    3.20    0.60
   8   0  -2    2.80    0.80
   8   0  -2    2.80    0.70
   6   0  -2   10.50    1.10
   6   0  -2    9.80    1.00
   6   0  -2    9.70    1.00
  -6   0   2    7.80    0.70
  -6   0   2    8.90    0.70
   4   0  -2    3.80    0.50
   2   0  -2   -0.20    0.30
   0   0  -2   -8.40    0.60
   2   0   2    1.10    0.40
   2   0   2    1.40    0.30
   2   0   2    0.50    0.30
   4   0   2    5.80    0.80
  -4   0  -2    5.60    0.50
   4   0   2    4.90    0.60
   4   0   2    5.30    0.80
  -6   0  -2    1.20    0.50
   6   0   2    1.80    0.70
   6   0   2    1.50    0.70
   6   0   2    1.80    0.60
   8   0   2    2.60    0.70
   8   0   2    2.30    0.90
   8   0   2    4.80    0.90
  10   0   2    1.50    0.90
  10   0   2    1.70    1.00
  10   0   2    1.10    0.70
  12   0   2    7.10    1.50
  12   0   2    6.00    1.10
  12   0   2    7.50    1.00
  12   0   2    6.50    1.30
  14   0   2    2.20    1.40
  14   0   2    3.10    1.00
  14   0   2    1.00    1.10
  14   0   2    1.50    0.80
  16   0   2    2.50    1.50
  16   0   2    4.10    1.00
  16   0   2    3.10    1.50
  16   0   2    2.80    1.10
  18   0   2    4.00    1.70
  18   0   2    4.10    1.20
  18   0   2    4.80    1.90
  20   0   2    2.20    2.00
  20   0   2    2.00    1.80
  20   0   2    4.80    1.40
  22   0   2    6.00    2.40
  22   0   2    3.20    1.40
  22   0   2    4.70    2.00
  24   0   2   -0.50    1.90
  24   0   2   -1.30    2.10
  26   0   2    1.30    2.20
  26   0   2    0.40    2.50
  28   0   2    0.80    2.50
  28   0   2   -1.60    2.60
  30   0   2    1.90    2.80
  30   0   2    4.80    3.30
  31  -1  -2    3.00    3.00
  31  -1  -2    3.20    2.80
  31   1  -2    5.60    2.90
  31   1  -2    5.20    3.20
  29  -1  -2    0.40    2.50
  29  -1  -2    7.20    3.00
  29   1  -2    4.30    2.80
  29   1  -2    2.60    2.50
  27  -1  -2   13.10    2.90
  27  -1  -2   11.70    3.10
  27   1  -2   15.40    3.00
  27   1  -2   13.50    3.20
  25  -1  -2    4.80    2.40
  25  -1  -2    3.90    2.30
  25   1  -2    2.50    2.20
  25   1  -2    4.40    1.70
  25   1  -2    3.20    2.10
  23  -1  -2   -2.30    1.70
  23  -1  -2    0.80    1.40
  23  -1  -2    2.40    1.90
  23   1  -2    0.10    1.70
  23   1  -2   -0.40    1.90
  23   1  -2    0.80    1.40
  21  -1  -2    8.00    2.00
  21  -1  -2    6.90    2.10
  21  -1  -2    5.70    1.50
  21   1  -2    6.70    2.00
  21   1  -2    9.50    1.70
  21   1  -2    8.60    2.00
  19  -1  -2   76.39    5.20
  19  -1  -2   81.19    4.50
  19  -1  -2   91.29    5.10
  19   1  -2   76.29    5.20
  19   1  -2   83.19    5.00
  19   1  -2   82.99    4.50
  17  -1  -2    0.30    0.90
  17  -1  -2    1.20    0.80
  17  -1  -2   -1.40    1.10
  17  -1  -2   -0.10    1.20
  17   1  -2    1.00    1.30
  17   1  -2    1.60    1.00
  17   1  -2   -0.20    1.10
  15  -1  -2    2.70    1.00
  15  -1  -2   -0.10    1.10
  15  -1  -2    0.40    1.10
  15  -1  -2    2.50    0.70
  15   1  -2    0.50    0.90
  15   1  -2    2.20    1.20
  15   1  -2    1.40    1.20
  13  -1  -2   34.80    2.50
  13  -1  -2   31.80    1.80
  13  -1  -2   29.30    2.10
  13  -1  -2   29.90    2.50
  13   1  -2   26.60    2.30
  13   1  -2   29.80    2.10
  13   1  -2   29.40    2.50
  11  -1  -2   13.20    1.50
  11  -1  -2   10.00    0.90
  11  -1  -2    7.90    1.10
  11  -1  -2   11.80    1.00
  11  -1  -2   14.70    1.60
  11   1  -2   10.70    1.50
  11   1  -2   11.30    1.20
  11   1  -2   10.10    1.30
   9  -1  -2  836.12   37.60
   9  -1  -2  850.51   36.20
  -9  -1   2  886.31   36.50
   9  -1  -2  845.22   36.50
   9  -1  -2  908.91   39.20
  -9  -1   2  836.32   36.50
   9   1  -2  859.41   36.20
  -9   1   2  898.51   36.70
   9   1  -2  869.81   37.60
  -9   1   2  905.91   36.60
   7  -1  -2    3.30    0.70
   7  -1  -2    4.50    0.80
  -7  -1   2    2.80    0.30
   7  -1  -2    5.70    0.50
   7  -1  -2    5.80    0.80
   7  -1  -2    4.00    0.50
  -7   1   2    4.40    0.50
   7   1  -2    3.50    0.70
   7   1  -2    2.90    0.70
   7   1  -2    4.90    0.90
   5  -1  -2  789.02   34.60
   5   1  -2  766.32   33.20
  -5   1   2  761.42   32.30
  -5   1   2  730.93   32.30
   5   1  -2  813.12   34.60
   3  -1  -2  689.13   29.10
  -3   1   2  614.84   27.20
   3   1  -2  641.24   27.90
  -3   1   2  624.54   27.20
   3   1  -2  681.83   29.10
   1  -1  -2  334.87   15.50
   1   1  -2  353.56   15.50
   1  -1   2   83.99    3.90
   1  -1   2   90.89    4.00
  -1  -1  -2   83.39    3.70
   1   1   2   88.19    4.10
   1   1   2   81.19    3.70
  -1   1  -2   86.49    4.00
   3  -1   2  522.65   22.60
   3  -1   2  471.05   21.70
  -3  -1  -2  511.55   21.20
   3   1   2  549.05   22.70
   3   1   2  484.05   21.70
   3   1   2  482.05   21.20
   5  -1   2  171.88    7.40
  -5  -1  -2  155.18    6.80
   5  -1   2  144.49    7.00
   5  -1   2  150.88    6.70
   5   1   2  154.98    6.80
   5   1   2  162.08    7.40
   5   1   2  153.78    7.10
   7  -1   2    7.40    1.00
   7  -1   2    8.50    0.90
   7  -1   2    8.20    1.10
   7   1   2   12.00    1.30
   7   1   2   12.00    1.10
   7   1   2   10.20    1.20
   9  -1   2  177.78    7.70
   9  -1   2  185.08    8.40
   9  -1   2  169.88    8.10
   9   1   2  163.88    8.00
   9   1   2  168.48    8.40
   9   1   2  166.28    7.70
  11  -1   2   89.99    4.30
  11  -1   2   93.79    4.60
  11  -1   2   95.39    5.30
  11  -1   2   96.89    5.00
  11   1   2   93.79    4.60
  11   1   2   99.59    5.30
  11   1   2   96.69    5.00
  11   1   2   96.19    4.40
  13  -1   2    4.20    1.00
  13  -1   2    4.70    1.20
  13  -1   2    3.00    1.30
  13   1   2    3.10    1.00
  13   1   2    1.90    1.30
  13   1   2    2.60    0.80
  13   1   2    2.60    1.10
  15  -1   2    1.70    1.40
  15  -1   2    3.50    1.40
  15  -1   2    3.20    1.10
  15   1   2    4.30    1.10
  15   1   2    4.40    1.00
  15   1   2    2.80    1.50
  15   1   2    2.60    1.30
  17  -1   2    0.50    1.40
  17  -1   2    3.10    1.50
  17  -1   2    2.30    1.10
  17   1   2    1.00    1.50
  17   1   2    2.30    1.10
  17   1   2    2.90    1.70
  19  -1   2    9.70    2.30
  19  -1   2   11.30    1.60
  19  -1   2    7.30    2.00
  19   1   2    9.30    2.00
  19   1   2    8.00    1.50
  19   1   2    7.40    2.20
  21  -1   2    7.80    1.60
  21  -1   2    6.50    2.30
  21  -1   2   10.20    2.30
  21   1   2    4.50    2.00
  21   1   2    9.10    1.60
  21   1   2    6.90    2.30
  23  -1   2    5.90    2.50
  23  -1   2    8.60    1.80
  23  -1   2    7.80    2.60
  23   1   2    8.30    2.40
  23   1   2    5.50    2.50
  25  -1   2    1.50    2.50
  25  -1   2    2.00    2.20
  25   1   2   -0.30    2.50
  25   1   2   -3.10    2.00
  27  -1   2    3.90    2.70
  27  -1   2    5.20    2.90
  27   1   2    4.40    2.70
  27   1   2    4.00    2.90
  29  -1   2    7.70    3.40
  29  -1   2    5.40    2.90
  29   1   2    6.20    3.00
  29   1   2    5.00    3.30
  30  -2  -2    1.60    2.70
  30  -2  -2    2.50    2.80
  30   2  -2    3.30    2.90
  30   2  -2    4.60    2.90
  28  -2  -2    0.90    2.30
  28  -2  -2    1.80    2.60
  28   2  -2    0.60    2.40
  28   2  -2    1.60    2.40
  26  -2  -2    3.30    2.40
  26  -2  -2    5.10    2.40
  26   2  -2    4.40    1.80
  26   2  -2    3.10    2.40
  26   2  -2    1.30    2.10
  24  -2  -2    1.00    1.90
  24  -2  -2    0.80    2.00
  24   2  -2    2.90    2.10
  24   2  -2    0.50    2.00
  24   2  -2    5.70    1.70
  22  -2  -2    5.20    1.90
  22  -2  -2    5.80    2.10
  22   2  -2    1.00    1.80
  22   2  -2    4.50    1.90
  22   2  -2    2.70    1.50
  20  -2  -2    2.40    1.60
  20  -2  -2    2.00    1.70
  20   2  -2   -0.90    1.30
  20   2  -2    0.10    1.50
  20   2  -2    3.90    1.30
  18  -2  -2    3.60    1.50
  18  -2  -2    2.20    1.00
  18  -2  -2    3.70    1.60
  18   2  -2    5.30    1.50
  18   2  -2    1.70    1.20
  18   2  -2    3.40    1.60
  16  -2  -2   -0.80    1.10
  16  -2  -2    2.20    1.00
  16  -2  -2    1.70    1.20
  16  -2  -2    2.20    0.70
  16   2  -2    1.90    1.30
  16   2  -2    2.90    1.00
  16   2  -2    1.20    1.20
  14  -2  -2    0.20    0.30
  14  -2  -2    5.00    1.30
  14  -2  -2    4.10    1.00
  14  -2  -2    1.40    1.00
  14   2  -2    1.70    1.00
  14   2  -2    1.70    0.90
  14   2  -2    2.60    1.30
  12  -2  -2    0.30    0.90
  12  -2  -2    0.20    0.40
  12  -2  -2    1.40    0.80
  12  -2  -2    2.90    1.00
  12   2  -2    1.10    0.90
  12   2  -2    0.50    0.80
  12   2  -2    2.00    1.10
 -10  -2   2   -0.10    0.50
  10  -2  -2    1.00    0.80
  10  -2  -2    0.50    0.80
  10  -2  -2    0.50    0.30
  10   2  -2    0.10    0.70
  10   2  -2    0.30    0.80
  10   2  -2   -0.80    0.70
   8  -2  -2    7.30    1.00
   8  -2  -2    7.10    0.70
   8  -2  -2    5.30    0.90
  -8  -2   2    5.90    0.50
  -8  -2   2    6.40    0.50
   8   2  -2    5.80    0.90
  -8   2   2    7.60    0.80
   8   2  -2    6.50    1.10
   8   2  -2    6.60    1.00
   6  -2  -2    0.50    0.50
   6  -2  -2   -0.40    0.40
   6  -2  -2    0.70    0.50
  -6   2   2    0.80    0.40
  -6   2   2    0.10    0.40
   6   2  -2   -0.10    0.50
   6   2  -2    0.30    0.60
   6   2  -2   -0.50    0.50
   4  -2  -2   -0.20    0.40
   4  -2  -2   -0.90    0.30
   4  -2  -2   -0.40    0.20
   4  -2  -2    0.20    0.40
   4   2  -2   -0.40    0.40
   4   2  -2    0.20    0.50
  -4   2   2   -0.50    0.30
   2  -2  -2    0.50    0.30
   2  -2  -2   -0.10    0.30
   2   2  -2    0.50    0.40
   2   2  -2    0.30    0.40
  -2   2   2    0.30    0.30
   0  -2  -2    0.50    0.30
   0  -2  -2    0.30    0.30
   0   2   2    0.00    0.40
   0   2   2    0.40    0.40
   0   2  -2    0.90    0.40
   2  -2   2    0.10    0.40
   2  -2   2    0.20    0.30
  -2  -2  -2    0.70    0.40
   2   2   2    0.20    0.40
   2   2   2   -0.40    0.40
   2   2   2    0.40    0.50
   4  -2   2    0.10    0.40
  -4  -2  -2    0.00    0.50
   4  -2   2    0.10    0.40
   4   2   2   -0.30    0.50
   4   2   2   -0.10    0.50
   4   2   2    0.50    0.50
   6  -2   2    0.60    0.60
   6  -2   2    0.30    0.60
   6   2   2    0.80    0.60
   6   2   2    0.20    0.60
   6   2   2    1.40    0.70
   8  -2   2   -0.70    0.60
   8  -2   2    1.50    0.80
   8  -2   2    0.40    0.50
   8   2   2    0.40    0.60
   8   2   2    0.20    0.70
   8   2   2    0.90    0.80
  10  -2   2    5.40    1.10
  10  -2   2    4.40    0.80
  10  -2   2    4.10    1.10
  10   2   2    3.70    1.00
  10   2   2    4.10    1.20
  10   2   2    3.00    0.80
  10   2   2    2.60    0.70
  12  -2   2    1.60    1.00
  12  -2   2    1.70    0.80
  12  -2   2    0.00    1.00
  12   2   2    1.20    1.00
  12   2   2    2.40    0.70
  12   2   2    1.70    1.20
  12   2   2    2.40    0.90
  14  -2   2    6.50    1.50
  14  -2   2    2.10    1.30
  14  -2   2    3.90    1.00
  14   2   2    6.40    1.80
  14   2   2    3.20    1.30
  14   2   2    4.50    1.00
  14   2   2    4.60    1.20
  16  -2   2    1.00    1.40
  16  -2   2    0.70    1.00
  16  -2   2   -0.80    1.30
  16   2   2    2.20    1.10
  16   2   2    1.40    0.90
  16   2   2    3.10    1.60
  16   2   2    1.40    1.30
  18  -2   2    1.40    1.10
  18  -2   2    1.90    1.60
  18  -2   2    1.40    1.50
  18   2   2    4.60    1.30
  18   2   2    1.00    1.70
  18   2   2   -0.30    1.40
  20  -2   2    3.50    1.90
  20  -2   2   -0.80    1.20
  20  -2   2    0.40    1.80
  20   2   2    0.40    1.20
  20   2   2   -1.00    1.60
  20   2   2    2.00    2.00
  22  -2   2    0.70    2.00
  22  -2   2   -0.10    1.80
  22  -2   2    6.00    1.60
  22   2   2    4.40    2.10
  22   2   2    4.00    2.40
  24  -2   2    0.60    1.40
  24  -2   2   -2.10    2.10
  24  -2   2    5.90    2.40
  24   2   2   -0.40    2.20
  24   2   2   -2.70    1.90
  26  -2   2    1.30    2.50
  26  -2   2    2.20    2.40
  26   2   2    2.40    2.40
  26   2   2    2.60    2.60
  28  -2   2    3.00    2.80
  28  -2   2   -0.50    2.70
  28   2   2   -0.20    2.40
  28   2   2    0.50    2.80
  31  -3  -2   24.30    4.30
  31  -3  -2   23.80    4.10
  31   3  -2   21.50    3.90
  31   3  -2   22.80    4.20
  29  -3  -2    5.80    2.80
  29  -3  -2    4.10    2.80
  29   3  -2   -1.20    2.50
  29   3  -2   -1.00    2.50
  27  -3  -2   28.10    3.60
  27  -3  -2   25.70    3.80
  27   3  -2   22.70    3.30
  27   3  -2   18.70    3.40
  25  -3  -2   48.80    4.50
  25  -3  -2   42.40    4.40
  25   3  -2   40.10    4.50
  25   3  -2   39.80    4.10
  25   3  -2   43.50    3.60
  23  -3  -2    0.50    2.00
  23  -3  -2    4.10    2.00
  23   3  -2    5.30    1.60
  23   3  -2    1.20    1.90
  23   3  -2    5.10    2.10
  21  -3  -2   -0.50    1.60
  21  -3  -2   -1.10    1.50
  21   3  -2   -0.30    1.50
  21   3  -2    1.20    1.70
  21   3  -2    0.10    1.30
  19  -3  -2   57.19    4.20
  19  -3  -2   52.39    4.10
  19   3  -2   59.69    4.40
  19   3  -2   69.79    3.80
  19   3  -2   56.29    4.10
  17  -3  -2   42.10    3.30
  17  -3  -2   42.40    2.50
  17  -3  -2   43.30    3.30
  17   3  -2   31.10    3.30
  17   3  -2   44.10    3.20
  17   3  -2   38.40    2.80
  15  -3  -2  178.88    8.90
  15  -3  -2  166.78    7.90
  15  -3  -2  176.58    8.60
  15   3  -2  166.28    9.10
  15   3  -2  174.58    8.10
  15   3  -2  193.58    8.60
  13  -3  -2   19.60    1.50
  13  -3  -2   19.30    1.90
  13  -3  -2   22.50    2.10
  13   3  -2   17.20    2.20
  13   3  -2   17.30    2.00
  13   3  -2   18.10    1.70
  11  -3  -2  463.75   21.00
  11  -3  -2  455.25   19.60
  11  -3  -2  457.25   20.30
  11   3  -2  465.25   20.30
  11   3  -2  450.05   19.50
  11   3  -2  463.25   21.30
   9  -3  -2   64.29    3.30
   9  -3  -2   60.69    3.30
   9  -3  -2   57.59    2.90
  -9   3   2   58.39    2.90
   9   3  -2   57.19    3.20
   9   3  -2   66.09    3.60
   9   3  -2   61.19    3.10
   7  -3  -2    6.30    0.70
   7  -3  -2    6.00    0.90
   7  -3  -2    7.40    0.80
   7  -3  -2    7.80    0.90
   7   3  -2   10.00    1.20
   7   3  -2    5.80    0.90
   7   3  -2    6.00    0.90
  -7   3   2    6.50    0.70
   5  -3  -2  398.66   16.90
   5  -3  -2  400.06   18.10
   5  -3  -2  402.86   16.90
   5   3  -2  405.26   16.80
  -5   3   2  404.96   16.90
   5   3  -2  406.06   18.10
   5   3  -2  379.26   17.40
   3  -3  -2  128.49    6.00
   3  -3  -2  130.99    5.80
   3  -3  -2  130.09    5.70
  -3   3   2  124.19    5.70
   3   3  -2  136.99    5.90
   3   3  -2  131.99    6.00
   1  -3  -2  346.57   14.20
   1  -3  -2  332.97   15.10
  -1   3   2  342.87   14.20
   1   3  -2  315.47   14.50
  -1  -3  -2   55.39    2.60
   1   3   2   53.09    2.60
  -1   3  -2   60.69    2.80
   1   3   2   55.79    2.80
   1   3   2   52.59    2.60
   3  -3   2  397.06   17.70
  -3  -3  -2  372.86   16.70
   3   3   2  384.46   17.00
   3   3   2  408.76   16.70
   3   3   2  405.66   17.90
   5  -3   2  190.28    8.50
   5   3   2  174.88    8.20
   5   3   2  182.48    8.60
   5   3   2  182.38    8.00
   7  -3   2   47.70    2.70
   7  -3   2   42.90    2.70
   7   3   2   46.00    2.30
   7   3   2   46.20    2.50
   7   3   2   46.00    2.80
   7   3   2   50.19    2.70
   9  -3   2    2.60    0.70
   9  -3   2    3.30    0.90
   9  -3   2    3.50    1.00
   9   3   2    2.00    0.70
   9   3   2    2.80    0.90
   9   3   2    2.20    0.80
   9   3   2    2.60    1.00
  11  -3   2   54.89    3.10
  11  -3   2   58.19    3.70
  11  -3   2   54.59    3.50
  11   3   2   59.29    3.20
  11   3   2   63.19    3.00
  11   3   2   62.29    3.60
  11   3   2   60.59    3.80
  13  -3   2   43.90    3.10
  13  -3   2   38.20    3.00
  13  -3   2   38.30    2.50
  13   3   2   40.10    3.00
  13   3   2   40.10    2.40
  13   3   2   38.70    3.20
  13   3   2   42.80    2.60
  15  -3   2   27.70    2.90
  15  -3   2   27.10    2.80
  15  -3   2   27.50    2.10
  15   3   2   21.20    2.70
  15   3   2   29.20    2.10
  15   3   2   27.70    2.80
  15   3   2   27.70    2.00
  17  -3   2    3.20    1.60
  17  -3   2    0.70    1.10
  17  -3   2   -0.30    1.40
  17   3   2    2.10    1.50
  17   3   2    0.50    1.50
  17   3   2    0.70    1.00
  17   3   2    1.00    1.00
  19  -3   2   52.29    3.50
  19  -3   2   49.50    4.30
  19  -3   2   54.69    4.30
  19   3   2   56.39    4.30
  19   3   2   59.99    3.40
  19   3   2   49.70    4.80
  21  -3   2    0.80    1.90
  21  -3   2    0.90    1.80
  21  -3   2    1.00    1.30
  21   3   2    4.40    2.20
  21   3   2    2.70    2.00
  23  -3   2    2.90    1.50
  23  -3   2    5.00    2.50
  23  -3   2   -2.00    1.70
  23   3   2    0.00    2.30
  23   3   2   -0.90    2.00
  25  -3   2   13.50    3.20
  25  -3   2   15.50    3.10
  25   3   2    9.60    2.70
  25   3   2    7.90    2.90
  27  -3   2   31.60    4.40
  27  -3   2   39.80    4.60
  27   3   2   40.70    5.00
  27   3   2   36.50    4.40
  29  -3   2   -0.10    2.60
  29  -3   2    2.20    2.80
  29   3   2    0.20    2.70
  29   3   2   -3.20    2.60
  30  -4  -2    3.00    2.60
  30  -4  -2    6.90    3.00
  30   4  -2    3.30    2.70
  30   4  -2    2.50    2.60
  28  -4  -2   -1.80    2.30
  28  -4  -2   -2.10    2.30
  28   4  -2    0.60    2.30
  28   4  -2    0.00    2.30
  26  -4  -2    0.70    2.30
  26  -4  -2   -1.00    2.10
  26   4  -2    0.60    2.30
  26   4  -2    0.80    1.70
  26   4  -2    2.90    2.30
  24  -4  -2   -2.90    1.70
  24  -4  -2    0.50    2.00
  24   4  -2   -0.90    1.80
  24   4  -2    0.90    1.90
  24   4  -2    0.60    1.50
  22  -4  -2    2.50    1.90
  22  -4  -2    4.80    2.10
  22   4  -2    2.30    1.60
  22   4  -2    1.90    1.90
  22   4  -2    1.80    2.00
  20  -4  -2    0.40    1.60
  20  -4  -2    3.00    1.10
  20  -4  -2   -0.40    1.50
  20   4  -2    0.80    1.50
  20   4  -2    2.00    1.30
  20   4  -2    0.20    1.70
  18  -4  -2    4.60    1.60
  18  -4  -2    5.20    1.70
  18  -4  -2    4.20    1.20
  18   4  -2    5.90    1.90
  18   4  -2    3.40    1.30
  18   4  -2    4.40    1.60
  16  -4  -2    3.00    0.90
  16  -4  -2    1.10    1.30
  16  -4  -2    2.20    1.30
  16   4  -2    3.40    1.20
  16   4  -2   -0.20    1.40
  16   4  -2    3.70    1.30
  14  -4  -2    6.20    1.40
  14  -4  -2    5.10    1.00
  14  -4  -2    5.70    1.30
  14   4  -2    5.90    1.20
  14   4  -2    4.00    1.30
  14   4  -2    5.10    1.60
  12  -4  -2    2.20    0.80
  12  -4  -2    1.90    1.00
  12  -4  -2    2.20    1.00
  12   4  -2    1.60    1.00
  12   4  -2    1.30    1.20
  12   4  -2    1.20    0.90
  10  -4  -2    9.70    1.20
  10  -4  -2   10.30    1.30
  10  -4  -2    9.40    1.00
 -10  -4   2    8.30    0.80
  10   4  -2   10.00    1.20
  10   4  -2    9.60    1.30
  10   4  -2   12.10    1.60
   8  -4  -2    2.00    0.60
   8  -4  -2   -0.20    0.60
   8  -4  -2    0.90    0.60
   8   4  -2    0.00    0.70
  -8   4   2    1.40    0.60
   8   4  -2    0.70    0.70
   8   4  -2    0.70    0.80
   6  -4  -2    7.80    0.80
   6  -4  -2    6.60    0.90
   6   4  -2    6.20    0.90
   6   4  -2    8.80    1.00
  -6   4   2    7.80    0.80
   6   4  -2    8.00    1.00
   6   4  -2    9.60    1.10
   4  -4  -2    4.00    0.60
   4  -4  -2    4.70    0.60
   4  -4  -2    3.30    0.60
   4   4  -2    4.80    0.70
   4   4  -2    4.90    0.80
  -4   4   2    4.60    0.60
   4   4  -2    3.20    0.70
   4   4  -2    2.10    0.70
   2  -4  -2    9.70    0.80
   2  -4  -2   10.80    0.90
   2   4  -2   10.20    1.00
  -2   4   2   11.30    0.90
   2   4  -2   12.00    1.00
   2   4  -2   11.20    0.80
  -2   4   2   10.50    0.90
   0  -4  -2    0.00    0.40
   0   4   2    0.80    0.50
   0   4  -2    0.40    0.50
   0   4  -2    0.20    0.50
   0   4   2    0.20    0.40
   0   4   2    0.80    0.40
  -2  -4  -2    7.50    0.80
   2   4   2   10.50    1.00
   2   4   2   10.80    0.90
   2   4   2    9.90    0.90
  -2   4  -2    8.70    0.90
   4  -4   2    0.80    0.40
   4  -4   2    0.50    0.60
   4   4   2    0.60    0.60
   4   4   2    0.40    0.60
   4   4   2    1.30    0.60
   4   4   2    0.10    0.60
   6  -4   2   10.20    1.20
   6  -4   2   13.20    1.20
   6   4   2   13.00    1.40
   6   4   2   11.30    1.20
   6   4   2   14.40    1.20
   6   4   2   15.50    1.30
   8  -4   2    1.50    0.80
   8  -4   2    2.40    0.90
   8   4   2    2.30    1.00
   8   4   2    2.30    0.70
   8   4   2    1.80    0.70
   8   4   2    1.80    0.80
   8   4   2    1.80    0.80
  10  -4   2    7.60    1.00
  10  -4   2   10.00    1.40
  10  -4   2    7.90    1.30
  10   4   2    9.20    1.10
  10   4   2    7.60    1.30
  10   4   2    7.50    1.50
  10   4   2    7.30    1.00
  12  -4   2   -0.70    1.00
  12  -4   2    2.30    0.80
  12  -4   2    0.50    1.00
  12   4   2    1.30    0.80
  12   4   2    0.30    0.70
  12   4   2   -0.30    0.90
  12   4   2   -0.20    1.20
  14  -4   2    6.30    1.20
  14  -4   2    6.60    1.60
  14  -4   2    4.80    1.50
  14   4   2    6.60    1.20
  14   4   2    5.10    1.80
  14   4   2    7.00    1.50
  14   4   2    6.50    1.10
  16  -4   2    1.10    1.00
  16  -4   2    0.80    1.40
  16  -4   2    1.20    1.40
  16   4   2    0.80    1.00
  16   4   2   -0.50    1.50
  16   4   2    1.60    1.30
  16   4   2    2.60    1.10
  18  -4   2    6.10    1.90
  18  -4   2    3.60    1.20
  18  -4   2    3.20    1.80
  18   4   2    5.40    1.20
  18   4   2    2.40    1.60
  18   4   2    2.90    2.00
  20  -4   2    1.20    1.80
  20  -4   2    0.00    1.20
  20  -4   2   -0.10    1.80
  20   4   2    2.70    1.80
  20   4   2    0.30    1.80
  22  -4   2    1.50    2.00
  22  -4   2    2.80    2.20
  22  -4   2    1.00    1.50
  22   4   2    3.20    2.30
  22   4   2    2.80    2.10
  24  -4   2   -0.20    2.30
  24  -4   2    0.10    2.20
  24   4   2   -0.30    2.40
  24   4   2   -0.60    2.10
  26  -4   2    4.80    2.60
  26  -4   2    0.40    2.40
  26   4   2   -0.20    2.60
  26   4   2    0.50    2.30
  28  -4   2    2.70    2.80
  28  -4   2   -0.10    2.60
  28   4   2   -0.60    2.60
  28   4   2   -0.50    2.40
  31  -5  -2   22.80    3.90
  31  -5  -2   15.70    3.60
  31   5  -2   14.40    3.80
  31   5  -2   24.60    4.10
  29  -5  -2   51.99    5.20
  29  -5  -2   54.69    5.40
  29   5  -2   49.50    5.50
  29   5  -2   54.39    5.30
  27  -5  -2   33.00    4.00
  27  -5  -2   15.90    3.20
  27   5  -2   26.10    3.70
  27   5  -2   22.70    3.90
  25  -5  -2   50.79    4.70
  25  -5  -2   61.79    5.00
  25   5  -2   60.19    4.20
  25   5  -2   40.40    4.70
  25   5  -2   47.10    4.60
  23  -5  -2   47.10    4.20
  23  -5  -2   53.39    4.60
  23   5  -2   44.90    3.60
  23   5  -2   46.60    4.30
  23   5  -2   34.60    4.20
  21  -5  -2   20.00    2.00
  21  -5  -2   16.70    2.60
  21  -5  -2   20.40    2.80
  21   5  -2   19.10    2.40
  21   5  -2   16.60    2.80
  21   5  -2   18.70    2.70
  19  -5  -2  475.15   21.00
  19  -5  -2  444.76   21.50
  19  -5  -2  464.65   19.90
  19   5  -2  445.66   22.00
  19   5  -2  446.66   19.90
  19   5  -2  468.35   20.90
  17  -5  -2  247.08   10.70
  17  -5  -2  240.68   11.50
  17  -5  -2  234.08   11.70
  17   5  -2  231.48   10.80
  17   5  -2  234.38   12.20
  17   5  -2  240.68   11.40
  15  -5  -2   32.10    2.60
  15  -5  -2   35.20    2.80
  15  -5  -2   30.10    2.20
  15   5  -2   31.50    2.50
  15   5  -2   36.90    2.80
  15   5  -2   24.70    2.90
  13  -5  -2  454.35   19.10
  13  -5  -2  472.05   20.50
  13  -5  -2  460.25   19.90
  13   5  -2  389.36   20.80
  13   5  -2  441.16   19.00
  13   5  -2  443.36   19.80
  11  -5  -2  376.06   15.80
  11  -5  -2  387.36   16.90
 -11  -5   2  328.67   15.70
  11  -5  -2  381.96   16.40
  11   5  -2  365.86   16.40
  11   5  -2  369.26   15.80
  11   5  -2  358.16   17.30
   9  -5  -2   40.30    2.30
  -9  -5   2   37.40    1.90
   9  -5  -2   45.70    2.50
   9  -5  -2   44.80    2.40
   9   5  -2   41.50    2.80
   9   5  -2   39.80    2.50
   9   5  -2   36.80    2.40
   7  -5  -2 1154.88   48.90
   7  -5  -2 1136.39   50.89
  -7   5   2 1131.69   47.80
   7   5  -2 1119.39   46.00
   7   5  -2 1208.58   51.09
   7   5  -2 1087.19   49.00
   7   5  -2 1119.49   47.30
   5  -5  -2  275.67   12.50
  -5   5   2  281.47   11.80
   5   5  -2  268.17   12.20
   5   5  -2  282.77   12.60
   5   5  -2  260.07   11.40
   5   5  -2  272.97   11.80
   3  -5  -2  341.57   15.80
   3   5  -2  347.07   14.80
   3   5  -2  366.86   15.80
   3   5  -2  350.96   15.40
   3   5  -2  352.26   14.50
  -3   5   2  346.07   15.20
  -3   5   2  346.57   14.90
   1   5  -2  125.59    5.40
  -1   5   2  126.39    5.50
  -1   5   2  124.59    5.90
   1   5  -2  118.89    5.80
  -1   5   2  121.49    5.60
   1   5  -2  133.89    5.60
  -1   5  -2   53.99    2.90
   1   5   2   56.29    2.80
   1   5   2   55.49    2.70
   1   5   2   52.09    2.70
   3   5   2  299.37   12.90
   3   5   2  310.57   12.50
   3   5   2  289.77   13.20
  -3   5  -2  301.17   13.40
   3   5   2  308.57   13.90
   5  -5   2    1.80    0.60
   5  -5   2    2.80    0.80
   5   5   2    2.00    0.80
   5   5   2    1.10    0.70
   5   5   2    1.70    0.70
   5   5   2    0.70    0.60
   5   5   2    1.80    0.60
   7  -5   2 1251.07   55.39
   7  -5   2 1258.57   57.49
   7   5   2 1317.87   57.79
   7   5   2 1216.38   51.79
   7   5   2 1302.47   53.99
   7   5   2 1267.57   55.29
   7   5   2 1378.46   53.29
   9  -5   2    4.30    1.00
   9  -5   2    2.70    1.00
   9   5   2    4.00    1.20
   9   5   2    4.70    1.10
   9   5   2    5.30    1.00
   9   5   2    5.50    0.90
   9   5   2    3.70    0.90
  11  -5   2  294.67   12.60
  11  -5   2  284.67   13.20
  11  -5   2  291.87   13.60
  11   5   2  287.57   12.40
  11   5   2  290.37   12.60
  11   5   2  290.77   13.10
  11   5   2  272.87   13.90
  13  -5   2   37.80    2.80
  13  -5   2   41.30    3.00
  13  -5   2   35.60    2.30
  13   5   2   31.20    2.30
  13   5   2   30.40    3.20
  13   5   2   33.40    2.80
  13   5   2   36.00    2.30
  15  -5   2  213.48   10.40
  15  -5   2  210.68   10.20
  15  -5   2  218.58    9.50
  15   5   2  213.08   10.10
  15   5   2  231.18    9.40
  15   5   2  200.48   10.90
  15   5   2  167.58    9.20
  17  -5   2   59.49    4.20
  17  -5   2   63.39    4.30
  17  -5   2   57.49    3.50
  17   5   2   55.59    4.10
  17   5   2   52.29    3.20
  17   5   2   57.59    4.60
  17   5   2   59.59    3.50
  19  -5   2  456.45   21.70
  19  -5   2  473.05   21.10
  19  -5   2  484.65   20.00
  19   5   2  411.06   22.10
  19   5   2  445.06   20.80
  21  -5   2    4.30    2.30
  21  -5   2    5.00    1.60
  21  -5   2    3.90    2.20
  21   5   2    8.20    2.30
  21   5   2    7.00    2.40
  23  -5   2   72.09    5.50
  23  -5   2   72.79    5.80
  23   5   2   65.09    5.90
  23   5   2   75.99    5.60
  25  -5   2   31.30    4.00
  25  -5   2   34.20    4.30
  25   5   2   28.90    4.30
  25   5   2   29.80    3.90
  27  -5   2   30.50    4.10
  27   5   2   22.30    4.10
  27   5   2   18.80    3.70
  29  -5   2   22.10    4.40
  29   5   2   19.60    3.80
  29   5   2   13.90    3.60
  30  -6  -2    6.60    3.20
  30   6  -2    1.80    2.80
  30   6  -2    0.90    2.70
  28  -6  -2   -0.20    2.60
  28   6  -2    0.30    2.40
  28   6  -2   -0.90    2.50
  26  -6  -2    3.90    2.40
  26  -6  -2    0.00    2.10
  26   6  -2    1.50    2.40
  26   6  -2    4.50    2.10
  26   6  -2    1.90    2.30
  24  -6  -2   -0.60    1.90
  24  -6  -2    0.10    2.00
  24   6  -2    0.50    2.20
  24   6  -2   -3.50    1.50
  24   6  -2   -0.70    1.90
  22  -6  -2    5.20    2.10
  22  -6  -2    2.00    1.40
  22  -6  -2    1.90    2.00
  22   6  -2    1.80    2.00
  22   6  -2    4.40    1.70
  22   6  -2    0.80    1.80
  20  -6  -2   -0.80    1.50
  20  -6  -2    2.10    1.60
  20  -6  -2    1.00    1.20
  20   6  -2    0.00    1.70
  20   6  -2   -0.10    1.40
  20   6  -2    1.60    1.90
  18  -6  -2    7.40    1.40
  18  -6  -2   13.00    2.20
  18  -6  -2   12.70    2.00
  18   6  -2   13.80    2.30
  18   6  -2    8.90    1.80
  18   6  -2   15.80    2.70
  16  -6  -2    2.00    1.00
  16  -6  -2    1.00    1.30
  16  -6  -2    1.60    1.40
  16   6  -2    2.00    1.70
  16   6  -2    2.70    1.30
  16   6  -2    2.30    1.30
  14  -6  -2   10.40    1.30
  14  -6  -2   10.40    1.70
  14  -6  -2   12.10    1.60
  14   6  -2    7.30    1.80
  14   6  -2    7.20    1.50
  14   6  -2    8.60    1.60
  12  -6  -2    2.80    1.10
  12  -6  -2   -0.50    0.80
  12  -6  -2    2.10    0.80
  12   6  -2    1.70    1.00
  12   6  -2    2.80    1.30
  12   6  -2    1.50    1.00
  10  -6  -2   15.90    1.40
 -10  -6   2   17.40    1.10
  10  -6  -2   15.30    1.40
  10  -6  -2   18.20    1.80
  10   6  -2   18.30    2.00
  10   6  -2   18.90    1.90
  10   6  -2   13.10    1.60
  -8  -6   2    2.30    0.40
   8  -6  -2    2.70    0.70
   8  -6  -2    4.20    1.00
   8   6  -2    3.20    0.90
   8   6  -2    4.30    1.10
   8   6  -2    4.20    1.00
   8   6  -2    3.30    1.00
   6  -6  -2   18.50    1.40
   6  -6  -2   19.70    1.50
  -6   6   2   18.80    1.40
   6   6  -2   17.30    1.50
   6   6  -2   18.60    1.60
   6   6  -2   21.40    1.70
   6   6  -2   15.50    1.60
   4  -6  -2    4.40    0.70
   4   6  -2    4.10    0.80
  -4   6   2    4.60    0.70
   4   6  -2    3.90    0.80
   4   6  -2    1.90    0.80
   4   6  -2    4.80    0.90
  -4   6   2    4.40    0.80
   2  -6  -2   25.00    1.50
   2   6  -2   23.60    1.80
   2   6  -2   29.60    1.80
  -2   6   2   23.90    1.60
   2   6  -2   26.70    1.80
  -2   6   2   26.50    1.70
   2   6  -2   27.00    1.50
  -2   6   2   25.40    1.60
   0   6  -2    4.50    0.90
   0   6  -2    4.50    0.80
   0   6   2    4.60    0.70
   0   6   2    5.40    0.80
   0   6   2    4.10    0.70
   2   6   2   23.30    1.70
   2   6   2   24.00    1.70
  -2   6  -2   24.30    1.60
   2   6   2   25.80    1.50
   2   6   2   24.80    1.70
  -2   6  -2   24.90    1.80
   4   6   2   -0.20    0.50
  -4   6  -2    0.60    0.70
   4   6   2   -0.40    0.60
   4   6   2    1.70    0.70
   4   6   2    1.20    0.70
   6  -6   2   11.20    1.40
   6  -6   2   11.50    1.10
   6   6   2   15.10    1.40
   6   6   2   14.30    1.50
   6   6   2   12.40    1.20
   6   6   2   11.70    1.30
   6   6   2   12.70    1.10
   8  -6   2    2.30    0.80
   8  -6   2    1.00    0.90
   8   6   2    2.00    0.80
   8   6   2    1.00    1.00
   8   6   2    2.10    0.90
   8   6   2    2.30    0.90
   8   6   2    2.80    0.80
  10  -6   2    4.40    1.20
  10  -6   2    3.90    1.00
  10   6   2    2.70    1.30
  10   6   2    0.90    1.00
  10   6   2    3.40    0.80
  10   6   2    3.70    0.90
  10   6   2    4.00    1.00
  12  -6   2    0.60    1.20
  12  -6   2    1.00    1.00
  12  -6   2    0.80    0.80
  12   6   2    3.40    1.10
  12   6   2    2.70    1.20
  12   6   2    2.70    1.50
  12   6   2   -0.20    0.30
  14  -6   2    7.00    1.20
  14  -6   2    5.90    1.60
  14  -6   2    6.50    1.50
  14   6   2    5.80    1.30
  14   6   2    2.90    1.70
  14   6   2    6.70    1.20
  14   6   2    3.30    1.40
  16  -6   2    0.90    1.60
  16  -6   2    1.80    1.10
  16  -6   2    2.10    1.40
  16   6   2    2.10    1.20
  16   6   2    3.90    1.90
  16   6   2    1.70    1.00
  16   6   2    1.90    1.50
  18  -6   2    8.60    1.60
  18  -6   2    4.30    1.80
  18  -6   2    6.10    2.30
  18   6   2    4.10    2.30
  18   6   2    5.00    1.90
  18   6   2    4.50    1.60
  20  -6   2    0.00    1.80
  20  -6   2    0.70    1.40
  20  -6   2   -0.40    1.90
  20   6   2   -1.10    1.80
  20   6   2   -2.60    1.90
  22  -6   2    2.80    2.30
  22  -6   2    2.20    2.20
  22   6   2    1.00    2.10
  22   6   2    1.10    2.30
  24  -6   2    0.10    2.50
  24   6   2    5.70    2.80
  24   6   2    0.70    2.30
  26  -6   2   -1.60    2.50
  26   6   2    3.80    2.60
  26   6   2    0.40    2.60
  28  -6   2    5.70    3.10
  28   6   2    0.40    2.90
  28   6   2    4.10    2.90
  29  -7  -2   -0.30    2.60
  29   7  -2    1.70    2.70
  29   7  -2   -1.60    2.50
  27  -7  -2   56.19    5.20
  27   7  -2   45.90    5.10
  27   7  -2   50.79    4.40
  27   7  -2   37.20    4.80
  25  -7  -2    0.70    2.20
  25   7  -2    4.80    2.60
  25   7  -2   -1.30    2.10
  25   7  -2    0.90    1.90
  23  -7  -2   39.10    4.20
  23  -7  -2   38.10    3.80
  23   7  -2   24.50    3.60
  23   7  -2   32.30    3.70
  23   7  -2   29.30    3.20
  21  -7  -2   15.10    2.50
  21  -7  -2   15.40    2.70
  21  -7  -2   13.60    1.90
  21   7  -2   17.70    3.10
  21   7  -2   13.90    2.30
  21   7  -2   15.30    2.60
  19  -7  -2   72.59    4.90
  19  -7  -2   72.29    4.10
  19  -7  -2   65.49    4.50
  19   7  -2   72.49    5.30
  19   7  -2   73.99    4.90
  19   7  -2   71.39    4.50
  17  -7  -2    8.20    1.40
  17  -7  -2    8.00    1.90
  17  -7  -2    3.40    1.40
  17   7  -2    5.50    1.60
  17   7  -2    7.50    1.90
  17   7  -2    6.00    2.00
  15  -7  -2   78.69    4.70
  15  -7  -2   75.19    4.10
  15  -7  -2   85.39    4.40
  15   7  -2   75.49    4.60
  15   7  -2   71.19    5.00
  15   7  -2   73.39    4.40
  13  -7  -2   99.29    4.90
  13  -7  -2  108.69    5.40
  13  -7  -2  106.69    5.20
  13   7  -2  106.59    5.20
  13   7  -2   85.49    5.70
  13   7  -2   93.79    5.40
  11  -7  -2    3.90    1.20
  11  -7  -2    4.00    1.00
  11  -7  -2    5.20    1.00
  11   7  -2    6.30    1.30
  11   7  -2    5.10    1.50
  11   7  -2    3.30    1.10
  -9  -7   2  514.05   25.40
   9  -7  -2  636.04   27.30
   9  -7  -2  641.54   26.50
   9   7  -2  598.54   26.50
   9   7  -2  604.94   24.90
   9   7  -2  641.44   27.80
   9   7  -2  597.04   25.60
   7  -7  -2  117.89    5.80
   7  -7  -2  117.49    5.70
  -7  -7   2  110.29    5.10
   7   7  -2  118.49    5.50
   7   7  -2  120.19    5.70
   7   7  -2  131.99    6.10
   7   7  -2  120.39    5.90
   5  -7  -2  184.98    8.70
   5   7  -2  193.18    8.50
   5   7  -2  181.28    8.70
   5   7  -2  180.98    8.20
  -5   7   2  191.38    8.30
   5   7  -2  201.38    8.90
   3  -7  -2  286.77   13.40
   3   7  -2  294.97   13.20
  -3   7   2  305.67   12.70
   3   7  -2  302.17   13.40
  -3   7   2  282.67   13.00
   3   7  -2  287.77   12.40
   3   7  -2  303.77   12.80
   1   7  -2  640.04   26.00
   1   7  -2  605.64   27.70
  -1   7   2  635.04   27.60
   1   7  -2  659.13   26.80
  -1   7   2  630.44   28.60
  -1   7   2  648.04   26.90
   1   7   2  410.66   18.40
  -1   7  -2  398.46   16.70
   1   7   2  414.56   17.30
  -1   7  -2  401.36   17.90
   1   7   2  400.36   17.70
   3   7   2  386.36   17.20
   3   7   2  399.86   16.30
   3   7   2  396.46   16.70
   3   7   2  396.46   17.90
  -3   7  -2  379.16   17.30
   5  -7   2  133.19    6.60
   5   7   2  139.59    6.30
   5   7   2  133.29    6.40
   5   7   2  135.49    6.10
   5   7   2  136.49    6.70
   7  -7   2   81.49    4.30
   7  -7   2   88.09    4.70
   7   7   2   91.99    4.60
   7   7   2   89.59    4.90
   7   7   2   92.69    4.30
   7   7   2   92.89    4.40
   9  -7   2  137.79    6.70
   9  -7   2  149.79    7.00
   9   7   2  123.69    6.20
   9   7   2  141.79    6.30
   9   7   2  137.69    6.50
   9   7   2  133.79    6.70
   9   7   2  148.49    7.30
  11  -7   2  145.59    7.40
  11  -7   2  144.79    7.20
  11   7   2  141.79    6.60
  11   7   2  148.49    7.20
  11   7   2  146.19    6.80
  11   7   2  148.39    6.60
  11   7   2  145.49    7.90
  13  -7   2  153.38    6.70
  13  -7   2  135.79    7.30
  13  -7   2  134.19    7.10
  13   7   2  135.09    7.80
  13   7   2  134.39    6.40
  13   7   2  138.39    6.70
  13   7   2  149.39    7.20
  15  -7   2  102.09    5.10
  15  -7   2  103.79    5.50
  15  -7   2  105.59    5.90
  15   7   2   92.29    5.50
  15   7   2   91.49    5.00
  15   7   2   89.09    6.20
  17  -7   2   11.70    1.70
  17  -7   2   12.10    2.40
  17   7   2   12.50    1.90
  17   7   2    7.80    2.40
  17   7   2    9.50    2.00
  19  -7   2    9.10    2.50
  19  -7   2   12.10    1.90
  19   7   2   13.00    2.90
  19   7   2    9.00    2.30
  21  -7   2    2.10    2.10
  21   7   2    0.80    2.20
  21   7   2   -0.50    2.00
  23  -7   2   12.20    3.10
  23   7   2   14.30    3.40
  23   7   2   17.70    3.10
  25  -7   2    9.10    3.30
  25   7   2    6.80    2.80
  25   7   2    7.20    3.10
  27  -7   2   28.70    4.50
  27   7   2   15.60    4.00
  27   7   2   29.40    4.20
  28  -8  -2    2.30    2.80
  28   8  -2    2.00    2.90
  28   8  -2    5.00    2.90
  26  -8  -2    5.90    2.80
  26   8  -2    1.90    2.60
  26   8  -2    3.80    2.30
  26   8  -2    1.60    2.60
  24  -8  -2    6.10    2.60
  24   8  -2   -0.50    1.90
  24   8  -2    4.80    2.50
  24   8  -2    1.70    2.40
  22  -8  -2    4.50    2.30
  22  -8  -2    7.10    1.70
  22   8  -2    4.70    2.00
  22   8  -2    7.10    2.60
  22   8  -2    6.00    2.40
  20  -8  -2    3.60    2.00
  20  -8  -2    0.40    1.20
  20   8  -2    1.70    1.80
  20   8  -2   -0.80    1.90
  20   8  -2    1.10    1.60
  18  -8  -2   13.40    1.80
  18  -8  -2   15.50    2.60
  18   8  -2   12.20    2.30
  18   8  -2   14.80    2.20
  18   8  -2   11.90    2.60
  16  -8  -2    3.20    1.20
  16  -8  -2    6.60    1.80
  16  -8  -2    3.60    1.30
  16   8  -2    5.90    1.70
  16   8  -2    2.40    1.50
  16   8  -2    2.60    1.90
  14  -8  -2   17.60    1.80
  14  -8  -2   18.20    2.20
  14  -8  -2   15.10    1.70
  14   8  -2   11.60    1.90
  14   8  -2   14.70    2.30
  14   8  -2   18.20    2.10
  12  -8  -2    2.10    0.90
  12  -8  -2    2.40    1.30
  12   8  -2   -0.10    1.10
  12   8  -2    0.80    1.40
  12   8  -2    0.90    1.20
  10  -8  -2   21.10    2.10
  10  -8  -2   18.70    1.60
  10   8  -2   21.20    2.10
  10   8  -2   20.40    2.20
  10   8  -2   18.10    2.00
  10   8  -2   20.20    2.00
   8  -8  -2    4.00    1.00
   8  -8  -2    3.60    0.80
  -8  -8   2    2.80    0.50
   8   8  -2    2.40    1.10
   8   8  -2    2.30    1.10
   8   8  -2    5.10    1.20
   8   8  -2    2.50    1.10
   6  -8  -2   11.70    1.50
   6  -8  -2   14.20    1.20
  -6  -8   2   12.40    0.80
   6   8  -2   17.50    1.60
   6   8  -2   11.50    1.50
   6   8  -2   14.00    1.60
   6   8  -2   15.60    1.60
   4  -8  -2    4.30    0.70
   4   8  -2    4.50    1.10
   4   8  -2    4.00    1.00
  -4   8   2    3.60    0.80
   4   8  -2    5.70    0.90
   4   8  -2    2.80    1.00
  -4   8   2    4.20    1.00
  -2   8   2   21.80    1.40
   2   8  -2   19.60    1.20
   2   8  -2   20.00    1.80
  -2   8   2   20.40    1.40
   2   8  -2   17.30    1.70
   2   8  -2   21.20    1.80
  -2   8   2   20.40    1.70
   0   8  -2    2.00    0.90
   0   8  -2    1.70    0.90
   0   8   2    0.20    0.20
   0   8   2    1.70    0.60
   0   8   2    0.90    0.80
  -2   8  -2   18.70    1.70
   2   8   2   18.90    1.60
   2   8   2   16.20    1.20
   2   8   2   17.30    1.50
   2   8   2   17.10    1.60
  -2   8  -2   19.30    1.70
   4   8   2    9.30    1.30
   4   8   2   10.40    1.30
   4   8   2   10.10    1.30
  -4   8  -2    7.20    1.30
   4   8   2    8.80    1.00
   6  -8   2    8.10    1.40
   6   8   2    5.70    1.10
   6   8   2   11.00    1.40
   6   8   2    8.80    1.30
   6   8   2   12.90    1.60
   6   8   2    8.00    1.00
   8  -8   2    8.10    1.50
   8   8   2    9.10    1.40
   8   8   2    6.00    1.40
   8   8   2    7.20    1.30
   8   8   2    8.90    1.30
   8   8   2    7.40    0.90
  10  -8   2   11.70    1.80
  10   8   2   11.80    1.80
  10   8   2   13.90    1.60
  10   8   2   15.10    2.10
  10   8   2   11.80    1.20
  10   8   2   14.40    1.70
  12  -8   2    2.60    1.50
  12   8   2    7.90    1.40
  12   8   2    6.40    1.40
  12   8   2    6.90    1.50
  12   8   2    5.50    1.90
  12   8   2    4.80    0.90
  14  -8   2   15.20    2.30
  14  -8   2   14.90    1.70
  14   8   2   13.30    1.80
  14   8   2    7.10    2.30
  14   8   2   11.20    2.00
  16  -8   2    5.80    2.00
  16  -8   2    4.10    1.40
  16   8   2    7.40    2.40
  16   8   2    4.40    1.80
  16   8   2    6.30    1.60
  18  -8   2    9.70    2.40
  18  -8   2    6.50    1.60
  18   8   2    8.60    2.20
  18   8   2    9.60    1.90
  18   8   2    5.20    2.50
  20  -8   2    2.20    2.40
  20   8   2    1.80    2.40
  20   8   2    4.50    2.10
  22  -8   2    1.30    2.40
  22   8   2    2.40    2.50
  22   8   2    0.00    2.10
  24  -8   2   -1.60    2.50
  24   8   2    0.20    2.50
  24   8   2   -0.60    2.50
  26  -8   2    1.00    2.80
  26   8   2    0.70    2.60
  26   8   2    1.30    2.90
  29   9  -2   14.80    3.80
  29   9  -2    2.90    3.00
  27  -9  -2   41.50    4.90
  27   9  -2   23.60    4.10
  27   9  -2   40.60    4.20
  27   9  -2   43.00    4.90
  25  -9  -2   41.50    4.70
  25   9  -2   37.90    3.90
  25   9  -2   34.30    4.10
  25   9  -2   25.70    4.20
  23  -9  -2   24.60    3.50
  23  -9  -2   24.70    2.70
  23   9  -2   29.20    3.70
  23   9  -2   16.00    3.30
  23   9  -2   28.10    3.40
  21  -9  -2   75.89    5.60
  21  -9  -2   81.39    4.60
  21   9  -2   83.09    5.60
  21   9  -2   61.99    5.60
  21   9  -2   76.79    5.00
  19  -9  -2    3.30    1.40
  19  -9  -2    4.40    2.10
  19   9  -2    3.80    2.20
  19   9  -2    4.40    2.10
  19   9  -2    3.40    1.80
  17  -9  -2   36.40    2.80
  17  -9  -2   31.50    3.40
  17   9  -2   25.70    3.50
  17   9  -2   34.10    3.20
  17   9  -2   40.80    3.60
  15  -9  -2  360.36   16.50
  15  -9  -2  356.36   15.70
  15   9  -2  316.07   17.30
  15   9  -2  371.26   16.50
  15   9  -2  375.26   16.00
  13  -9  -2   80.49    4.30
  13  -9  -2   83.49    4.90
  13   9  -2   79.99    4.80
  13   9  -2   75.09    5.10
  13   9  -2   81.19    4.70
  11  -9  -2  151.18    7.30
  11   9  -2  133.39    7.60
  11   9  -2  138.89    6.80
  11   9  -2  144.79    7.30
  11   9  -2  147.09    7.10
   9  -9  -2  216.68   10.10
   9  -9  -2  221.28   10.20
   9   9  -2  216.78    9.70
   9   9  -2  221.68   10.70
   9   9  -2  214.98   10.00
   9   9  -2  214.38   10.30
   7  -9  -2  104.69    5.10
   7  -9  -2   99.59    4.80
  -7  -9   2   84.69    4.40
   7   9  -2  107.59    5.20
   7   9  -2  100.09    5.20
   7   9  -2   95.89    5.00
   7   9  -2   98.09    4.90
  -5  -9   2   97.19    5.10
   5  -9  -2  113.89    5.50
   5   9  -2  128.59    5.80
   5   9  -2  116.29    5.70
   5   9  -2  126.59    5.90
  -5   9   2  119.09    5.70
   5   9  -2  114.39    5.50
  -3  -9   2   71.69    3.40
   3   9  -2   74.09    4.00
  -3   9   2   77.09    3.80
  -3   9   2   75.69    4.00
   3   9  -2   78.69    3.80
   3   9  -2   79.09    4.10
   3   9  -2   82.29    4.20
  -1   9   2  500.85   20.40
   1   9  -2  465.95   19.90
  -1   9   2  479.35   21.00
  -1   9   2  479.95   21.60
   1   9  -2  465.05   20.40
   1   9  -2  475.65   21.20
   1   9   2  120.79    5.60
   1   9   2  126.99    6.10
   1   9   2  120.99    6.00
  -1   9  -2  128.59    6.20
  -1   9  -2  126.99    5.80
   3   9   2  425.16   17.90
   3   9   2  423.16   18.60
   3   9   2  414.36   17.60
  -3   9  -2  428.16   18.80
  -3   9  -2  407.66   17.60
   3   9   2  426.86   19.30
   5   9   2   87.39    4.60
   5   9   2   83.29    4.40
   5   9   2   83.59    4.00
   5   9   2   82.19    4.40
  -5   9  -2   82.99    4.60
   5   9   2   83.49    4.30
   7  -9   2  105.59    5.50
   7   9   2  103.89    4.70
   7   9   2  105.69    5.20
   7   9   2  100.09    5.60
   7   9   2   94.49    4.90
   7   9   2  102.19    5.30
   9  -9   2   38.00    3.00
   9   9   2   40.60    2.80
   9   9   2   33.40    2.80
   9   9   2   38.20    2.70
   9   9   2   38.20    2.10
   9   9   2   36.20    3.10
  11  -9   2  225.78   11.00
  11   9   2  237.68   10.40
  11   9   2  218.58   11.50
  11   9   2  227.48   10.70
  11   9   2  222.58   10.00
  13  -9   2   11.20    2.10
  13   9   2   12.90    1.90
  13   9   2    7.00    1.60
  13   9   2   12.70    2.10
  13   9   2   12.50    2.50
  15  -9   2  242.78   11.50
  15  -9   2  239.18   10.70
  15   9   2  231.78   10.70
  15   9   2  230.98   11.30
  15   9   2  210.98   12.20
  17  -9   2    7.70    1.60
  17  -9   2    4.20    2.10
  17   9   2    5.70    2.60
  17   9   2   12.10    2.30
  17   9   2    8.00    1.90
  19  -9   2   29.50    3.70
  19   9   2   26.90    3.90
  19   9   2   30.10    3.10
  19   9   2   24.90    3.30
  21  -9   2   40.70    4.60
  21   9   2   37.90    4.10
  21   9   2   36.60    4.50
  23  -9   2   47.80    5.00
  23   9   2   55.69    5.00
  23   9   2   39.20    5.00
  25  -9   2    6.30    3.20
  25   9   2    4.40    2.90
  25   9   2    7.30    3.20
  27  -9   2   40.90    5.50
  27   9   2   39.00    5.40
  27   9   2   47.10    5.20
  28 -10  -2   -0.90    2.80
  28  10  -2    3.80    3.10
  28  10  -2    0.40    2.70
  26 -10  -2    1.10    2.70
  26  10  -2    1.20    2.80
  26  10  -2    1.50    2.30
  26  10  -2   -0.60    2.50
  24 -10  -2    1.10    2.50
  24  10  -2    4.80    2.70
  24  10  -2   -0.20    2.10
  24  10  -2    4.80    2.70
  22 -10  -2    3.90    2.50
  22  10  -2    0.70    2.10
  22  10  -2    2.20    2.00
  22  10  -2    2.70    2.40
  20 -10  -2    2.10    2.10
  20 -10  -2    2.90    1.50
  20  10  -2    1.30    2.10
  20  10  -2   -1.30    1.90
  20  10  -2   -3.60    1.80
  18 -10  -2    6.30    2.30
  18 -10  -2    4.50    1.50
  18  10  -2    4.90    2.10
  18  10  -2    3.90    2.20
  18  10  -2    3.90    1.90
  16 -10  -2    2.10    1.80
  16 -10  -2    0.70    1.20
  16  10  -2    0.80    1.90
  16  10  -2    4.80    1.80
  16  10  -2   -0.80    1.50
  14 -10  -2   10.30    2.10
  14 -10  -2    8.70    1.50
  14  10  -2    8.30    2.00
  14  10  -2    5.60    2.10
  14  10  -2    7.70    1.80
  12 -10  -2    2.10    1.40
  12  10  -2   -1.80    1.40
  12  10  -2   -0.50    1.30
  12  10  -2    2.30    1.50
  12  10  -2   -0.50    1.30
  10 -10  -2    8.40    1.70
  10  10  -2    8.90    1.70
  10  10  -2    6.20    1.60
  10  10  -2    7.50    1.70
  10  10  -2    8.20    1.70
   8 -10  -2    6.60    1.40
   8  10  -2    4.20    1.30
   8  10  -2    7.20    1.50
   8  10  -2    4.20    1.40
   8  10  -2    7.70    1.60
   6  10  -2   22.90    1.90
   6  10  -2   17.20    2.00
   6  10  -2   17.00    2.00
   6  10  -2   18.50    2.10
   4  10  -2    4.80    1.30
   4  10  -2    4.50    1.20
   4  10  -2    4.20    1.20
  -4  10   2    4.10    0.80
   4  10  -2    3.30    0.80
  -4  10   2    4.10    1.10
  -2  10   2   12.80    1.50
  -2  10   2   13.60    1.20
   2  10  -2   16.00    1.80
   2  10  -2   11.70    1.60
   2  10  -2   15.20    1.70
   0  10   2    5.80    1.20
   0  10   2    4.90    0.80
   0  10   2    2.80    0.80
   0  10  -2    4.60    1.20
   0  10  -2    3.30    1.20
   2  10   2   14.10    1.60
   2  10   2   12.10    1.10
  -2  10  -2   13.80    1.70
   2  10   2   14.60    1.50
  -2  10  -2   11.10    1.50
   2  10   2   12.10    1.70
  -4  10  -2    3.30    1.30
  -4  10  -2    4.80    1.20
   4  10   2    3.60    1.20
   4  10   2    2.80    1.20
   4  10   2    4.30    1.20
   4  10   2    3.60    0.70
   6 -10   2   19.00    2.20
   6  10   2   22.60    2.10
   6  10   2   18.50    2.00
   6  10   2   18.40    2.10
   6  10   2   22.40    2.20
   6  10   2   18.80    1.40
   8 -10   2    4.80    1.50
   8  10   2    5.70    1.60
   8  10   2    0.90    1.10
   8  10   2    2.50    1.30
   8  10   2    3.50    1.30
  10 -10   2   10.20    2.00
  10  10   2   12.00    2.20
  10  10   2   15.30    2.00
  10  10   2   12.30    1.80
  10  10   2   13.70    2.00
  12 -10   2    2.90    1.70
  12  10   2    4.90    1.70
  12  10   2    5.00    1.50
  12  10   2    3.30    1.90
  12  10   2    4.00    1.60
  14 -10   2    5.70    1.90
  14  10   2    3.10    2.10
  14  10   2   -0.20    1.60
  14  10   2    5.60    1.60
  14  10   2    3.30    1.70
  16 -10   2    3.20    2.10
  16 -10   2    1.60    1.40
  16  10   2    6.40    1.90
  16  10   2    4.60    2.30
  16  10   2    2.90    1.90
  18 -10   2   -0.80    2.00
  18  10   2    2.80    1.80
  18  10   2    2.10    2.10
  18  10   2    1.10    2.40
  20 -10   2    1.70    2.50
  20  10   2    5.00    2.30
  20  10   2    2.60    2.80
  22 -10   2    1.50    2.80
  22  10   2    0.70    2.40
  22  10   2    1.90    2.80
  24 -10   2    2.20    2.90
  24  10   2    4.80    2.80
  24  10   2   -0.80    2.70
  26 -10   2   -4.10    2.90
  26  10   2   -0.80    2.80
  26  10   2   -5.40    2.40
  27 -11  -2   -2.00    2.80
  27  11  -2   -4.50    2.50
  27  11  -2   -1.00    2.30
  27  11  -2    1.40    2.90
  25 -11  -2   14.90    3.50
  25  11  -2   16.60    3.60
  25  11  -2    8.40    3.10
  25  11  -2    9.80    2.90
  23 -11  -2   23.10    3.70
  23  11  -2   17.40    3.40
  23  11  -2   26.20    3.40
  23  11  -2   12.20    3.30
  21 -11  -2   10.50    2.90
  21  11  -2    5.50    2.40
  21  11  -2    6.00    2.70
  21  11  -2   11.40    2.60
  19 -11  -2   20.90    3.10
  19  11  -2   10.00    2.80
  19  11  -2   14.30    2.80
  19  11  -2   15.10    2.70
  17 -11  -2    0.00    1.80
  17 -11  -2    2.50    1.40
  17  11  -2    2.60    2.10
  17  11  -2    4.90    2.00
  17  11  -2   -1.40    1.60
  15 -11  -2   51.09    4.10
  15 -11  -2   54.99    3.60
  15  11  -2   44.40    4.30
  15  11  -2   54.69    4.00
  15  11  -2   48.90    4.10
  13 -11  -2   33.00    3.20
  13  11  -2   28.30    2.90
  13  11  -2   32.40    3.00
  13  11  -2   27.10    3.00
  13  11  -2   25.10    3.10
  11 -11  -2  137.09    7.00
  11  11  -2  132.69    7.20
  11  11  -2  132.69    6.80
  11  11  -2  130.09    7.00
  11  11  -2  125.99    6.60
   9 -11  -2   14.30    2.00
   9  11  -2   15.20    2.00
   9  11  -2   17.50    2.20
   9  11  -2   19.10    2.30
   9  11  -2   21.10    2.40
   7 -11  -2  100.39    5.20
   7  11  -2   99.99    5.10
   7  11  -2   89.49    5.20
   7  11  -2   86.99    5.00
   7  11  -2   87.79    5.10
   5  11  -2    9.90    1.70
   5  11  -2   11.70    1.80
   5  11  -2   10.60    1.70
  -5  11   2    9.30    1.50
   3  11  -2   60.29    3.70
   3  11  -2   62.19    3.80
  -3  11   2   57.29    3.50
   3  11  -2   58.39    3.50
  -1  11   2    8.70    1.50
   1  11  -2   10.10    1.70
   1  11  -2    9.80    1.60
   1  11  -2    7.30    1.40
   1  11   2    3.70    1.20
   1  11   2    4.60    1.00
  -1  11  -2    4.00    1.40
  -1  11  -2    5.80    1.40
   1  11   2    2.00    1.20
   3  11   2   48.70    3.10
  -3  11  -2   48.30    3.10
  -3  11  -2   52.89    3.40
   3  11   2   46.40    3.20
   3  11   2   49.40    3.20
   5  11   2    8.70    1.60
   5  11   2    8.00    1.60
   5  11   2    9.00    1.60
  -5  11  -2    8.60    1.70
   5  11   2    9.80    1.70
   7 -11   2  115.79    6.20
   7  11   2  113.09    6.30
   7  11   2  113.09    6.00
   7  11   2  113.69    5.70
   7  11   2  113.89    5.90
   9 -11   2    2.30    1.60
   9  11   2    4.60    1.90
   9  11   2    4.00    1.60
   9  11   2    1.70    1.40
   9  11   2    0.50    1.40
  11 -11   2   13.50    2.30
  11  11   2   11.00    2.40
  11  11   2   11.80    2.00
  11  11   2   10.10    2.00
  11  11   2   13.90    2.00
  13 -11   2    5.00    1.90
  13  11   2    1.30    1.70
  13  11   2    3.30    1.60
  13  11   2    4.00    1.70
  13  11   2    2.90    2.10
  15 -11   2   38.10    3.90
  15  11   2   35.50    3.30
  15  11   2   32.90    4.00
  15  11   2   34.30    3.40
  17 -11   2    2.70    2.20
  17  11   2    4.30    2.50
  17  11   2    0.70    2.00
  17  11   2    6.10    2.10
  19 -11   2   24.70    3.80
  19  11   2   27.40    4.10
  19  11   2   29.30    3.30
  19  11   2   42.20    4.10
  21 -11   2   12.30    3.30
  21  11   2   14.70    3.20
  21  11   2   13.80    3.40
  23 -11   2   16.40    4.00
  23  11   2   23.70    3.70
  23  11   2   17.50    3.80
  25 -11   2    8.10    3.30
  25  11   2    5.80    3.10
  25  11   2    7.90    3.30
  26 -12  -2   -0.60    2.90
  26  12  -2    1.80    2.90
  26  12  -2   -2.60    2.40
  26  12  -2   -2.00    2.60
  24 -12  -2    2.30    2.80
  24  12  -2    5.10    2.90
  24  12  -2    2.40    2.50
  24  12  -2    2.20    2.80
  22 -12  -2    0.20    2.40
  22  12  -2    3.20    2.50
  22  12  -2    1.20    2.60
  22  12  -2    2.50    2.40
  20 -12  -2    4.60    2.50
  20  12  -2    3.40    2.50
  20  12  -2    1.20    2.10
  20  12  -2    2.50    2.20
  18 -12  -2    2.90    2.20
  18  12  -2   -0.50    2.10
  18  12  -2    4.90    2.20
  18  12  -2    2.70    2.10
  16 -12  -2    0.50    1.50
  16 -12  -2    2.60    2.00
  16  12  -2    1.30    2.10
  16  12  -2    0.80    1.80
  16  12  -2    1.60    1.90
  14 -12  -2    7.60    2.10
  14  12  -2    5.60    2.00
  14  12  -2    2.80    2.00
  14  12  -2    2.40    1.90
  12 -12  -2    2.90    1.80
  12  12  -2    4.80    1.80
  12  12  -2    2.00    1.70
  12  12  -2    3.40    1.80
  12  12  -2    5.00    1.80
  10 -12  -2    6.80    1.80
  10  12  -2    3.70    1.70
  10  12  -2    7.10    1.90
  10  12  -2    2.60    1.60
   8 -12  -2   -0.90    1.30
   8  12  -2   -0.40    1.40
   8  12  -2   -1.30    1.30
   8  12  -2    1.00    1.50
   6  12  -2    8.00    1.80
   6  12  -2    7.50    1.70
  -6  12   2    8.90    1.60
   6  12  -2    7.00    1.70
   4  12  -2    3.20    1.50
   4  12  -2   -0.40    1.30
  -4  12   2    0.50    1.20
   4  12  -2    1.20    1.30
  -2  12   2    8.20    1.60
   2  12  -2    5.10    1.50
   2  12  -2    8.80    1.80
   2  12  -2    5.90    1.60
   0  12  -2    0.70    1.30
   0  12   2   -0.30    1.20
   0  12  -2    3.60    1.40
   0  12  -2    2.20    1.30
   0  12   2    2.50    1.30
  -2  12  -2    4.10    1.40
   2  12   2    3.80    1.40
   2  12   2    3.20    1.40
  -2  12  -2    3.00    1.40
   4  12   2   -0.90    1.20
  -4  12  -2    0.40    1.40
   4  12   2   -0.40    1.30
   4  12   2    0.60    1.30
  -4  12  -2    2.60    1.30
   6  12   2    5.60    1.70
   6  12   2    4.30    1.50
   6  12   2    2.60    1.50
   6  12   2    3.50    1.40
   8 -12   2    0.70    1.50
   8  12   2    1.30    1.70
   8  12   2    0.60    1.30
   8  12   2   -0.40    1.40
   8  12   2    0.00    1.40
  10 -12   2    4.70    1.90
  10  12   2    4.30    1.80
  10  12   2    7.70    2.20
  10  12   2    3.40    1.60
  10  12   2    4.30    1.70
  12 -12   2   -0.10    1.70
  12  12   2    2.30    1.70
  12  12   2    3.40    1.70
  12  12   2   -0.20    1.60
  12  12   2    6.50    2.30
  14 -12   2    2.50    2.10
  14  12   2    4.50    2.00
  14  12   2    3.30    1.90
  14  12   2    3.80    1.90
  14  12   2    2.80    2.20
  16 -12   2    2.80    2.20
  16  12   2    4.60    2.60
  16  12   2    3.80    2.10
  16  12   2    3.40    2.00
  18 -12   2    2.30    2.40
  18  12   2    4.10    2.60
  18  12   2    0.10    2.10
  18  12   2    4.70    2.20
  20 -12   2    2.50    2.70
  20  12   2    2.60    2.80
  20  12   2    4.90    2.50
  22 -12   2   -2.00    2.70
  22  12   2    1.70    2.50
  22  12   2    1.80    3.00
  24 -12   2    3.20    3.30
  24  12   2    2.00    2.80
  24  12   2    4.10    3.20
  25 -13  -2   -0.80    2.90
  25  13  -2    2.70    3.20
  25  13  -2    2.60    2.90
  25  13  -2    1.70    2.70
  23 -13  -2    1.70    2.80
  23  13  -2   -0.40    2.40
  23  13  -2   -0.40    2.70
  23  13  -2   -0.30    2.50
  21 -13  -2   -1.50    2.30
  21  13  -2    6.30    2.90
  21  13  -2   -0.20    2.40
  21  13  -2    2.80    2.50
  19 -13  -2    1.00    2.30
  19  13  -2    5.20    2.40
  19  13  -2    3.30    2.50
  19  13  -2    1.70    2.60
  17 -13  -2   -1.40    1.80
  17  13  -2   -0.80    1.90
  17  13  -2    0.00    2.20
  17  13  -2   -0.50    2.10
  15 -13  -2    8.20    2.40
  15  13  -2    0.90    2.00
  15  13  -2    6.00    2.20
  13 -13  -2   32.30    3.40
  13  13  -2   27.20    3.20
  13  13  -2   29.00    3.30
  13  13  -2   30.10    3.30
  11 -13  -2    4.10    1.90
  11  13  -2    2.80    1.90
  11  13  -2    5.10    1.90
  11  13  -2    2.40    1.80
   9 -13  -2   38.30    3.40
   9  13  -2   36.40    3.50
   9  13  -2   40.70    3.50
   9  13  -2   35.70    3.40
   7 -13  -2   19.80    2.40
   7  13  -2   15.90    2.40
   7  13  -2   17.10    2.40
   7  13  -2   16.50    2.40
   5  13  -2   50.39    3.70
  -5  13   2   51.79    3.60
   5  13  -2   53.59    3.80
   5  13  -2   51.89    3.90
   3  13  -2  123.79    6.30
   3  13  -2  114.29    6.40
   3  13  -2  134.39    6.80
  -3  13   2  124.29    6.50
  -1  13   2  113.29    5.80
   1  13  -2   94.09    5.70
  -1  13   2  104.19    5.60
   1  13  -2  119.59    6.10
   1  13  -2  101.49    5.70
  -1  13  -2   47.20    3.50
   1  13   2   51.39    3.50
  -1  13  -2   47.60    3.70
   1  13   2   48.10    3.50
   3  13   2  114.29    5.90
   3  13   2  111.69    5.80
  -3  13  -2  102.99    5.70
  -3  13  -2  109.39    6.10
   5  13   2    1.30    1.40
  -5  13  -2   -0.50    1.50
  -5  13  -2   -0.40    1.40
   5  13   2   -2.40    1.40
   5  13   2   -1.10    1.40
   7 -13   2    2.00    1.70
   7  13   2    3.80    1.60
   7  13   2    1.30    1.60
   7  13   2    3.20    1.70
   9 -13   2   32.70    3.40
   9  13   2   34.50    3.20
   9  13   2   40.90    3.40
   9  13   2   30.40    3.10
  11 -13   2    3.80    2.00
  11  13   2    1.40    2.00
  11  13   2    1.30    1.70
  11  13   2    0.60    1.70
  11  13   2    3.30    1.70
  13 -13   2   26.30    3.40
  13  13   2   24.30    3.00
  13  13   2   23.70    3.00
  13  13   2   24.70    3.50
  13  13   2   27.60    3.10
  15 -13   2    4.30    2.40
  15  13   2   -0.20    2.20
  15  13   2    2.80    2.10
  15  13   2    2.40    2.10
  15  13   2    2.00    2.00
  17 -13   2    9.00    2.90
  17  13   2    7.30    2.80
  17  13   2    9.40    2.60
  17  13   2   10.30    2.50
  19 -13   2    4.70    2.70
  19  13   2    7.30    2.80
  19  13   2    5.60    2.40
  19  13   2    6.80    2.90
  21 -13   2   -0.50    2.70
  21  13   2    0.50    2.80
  21  13   2    3.50    2.60
  23 -13   2    1.70    3.20
  23  13   2   -0.30    2.80
  23  13   2   -1.60    2.50
  22 -14  -2   -2.80    2.60
  22  14  -2   -0.60    2.70
  22  14  -2    2.60    2.60
  20 -14  -2   -3.90    2.30
  20  14  -2    0.90    2.40
  20  14  -2   -0.20    2.50
  18 -14  -2    1.00    2.20
  18  14  -2    1.00    2.30
  18  14  -2    4.40    2.50
  16 -14  -2    1.10    2.20
  16  14  -2   -1.30    2.00
  16  14  -2    1.80    2.20
  14 -14  -2    1.00    2.10
  14  14  -2    1.70    2.20
  14  14  -2    1.00    2.00
  14  14  -2    1.00    2.10
  12 -14  -2    0.50    1.80
  12  14  -2    0.00    1.80
  12  14  -2    4.10    2.00
  12  14  -2   -0.10    1.90
  10 -14  -2    2.50    1.70
  10  14  -2   -1.60    1.60
  10  14  -2    0.00    1.80
  10  14  -2    0.20    1.80
   8 -14  -2    2.10    1.70
   8  14  -2   -0.80    1.60
   8  14  -2    3.10    1.80
   8  14  -2    3.10    1.90
   6  14  -2    3.20    1.80
   6  14  -2    2.00    1.70
  -6  14   2    3.70    1.60
   6  14  -2   -1.40    1.60
   4  14  -2    0.60    1.60
   4  14  -2    3.10    1.70
   4  14  -2    2.50    1.60
  -4  14   2    4.00    1.70
   2  14  -2    1.70    1.60
  -2  14   2   -0.50    1.50
   2  14  -2    0.70    1.60
   2  14  -2    1.00    1.60
  -2  14   2    0.70    1.50
   0  14   2   -0.40    1.50
   0  14  -2    3.20    1.70
   0  14  -2    1.10    1.60
   0  14  -2    0.20    1.50
   0  14   2    1.30    1.60
   2  14   2    0.10    1.50
  -2  14  -2    2.60    1.70
  -2  14  -2    0.20    1.60
   2  14   2   -0.40    1.50
  -4  14  -2    5.20    1.80
  -4  14  -2    6.60    1.90
   4  14   2    8.40    2.00
   4  14   2    2.80    1.80
   4  14   2    7.70    1.80
   6  14   2    0.40    1.70
  -6  14  -2    1.60    1.70
   6  14   2    0.90    1.60
   6  14   2    2.20    1.70
   8 -14   2    1.30    1.70
   8  14   2    0.50    1.70
  -8  14  -2   -0.40    1.50
   8  14   2   -0.50    1.60
   8  14   2    0.50    1.60
  10 -14   2    0.70    1.90
  10  14   2    2.20    1.80
  10  14   2    2.80    2.00
  10  14   2   -2.60    1.70
  12 -14   2    3.20    2.10
  12  14   2    2.50    2.00
  12  14   2    0.90    1.80
  12  14   2   -2.20    1.80
  14 -14   2   -1.40    2.10
  14  14   2    2.70    2.20
  14  14   2    3.80    2.20
  14  14   2    1.00    1.90
  16 -14   2    3.80    2.50
  16  14   2    5.20    2.40
  16  14   2    2.30    2.10
  16  14   2    4.60    2.30
  18 -14   2   -2.40    2.40
  18  14   2    0.90    2.30
  18  14   2    1.30    2.70
  18  14   2    1.40    2.40
  20 -14   2    4.40    3.00
  20  14   2    1.50    2.90
  20  14   2    0.20    2.50
  22 -14   2   -0.60    3.00
  22  14   2   -1.30    2.60
  22  14   2   -0.90    3.00
  21 -15  -2    1.00    2.80
  21  15  -2    5.90    2.90
  21  15  -2    1.00    2.70
  19 -15  -2    0.80    2.60
  19  15  -2    6.10    2.90
  19  15  -2    2.40    2.60
  17 -15  -2    4.40    2.50
  17  15  -2    3.20    2.50
  17  15  -2    4.00    2.70
  15 -15  -2    1.40    2.20
  15  15  -2    0.50    2.10
  15  15  -2    0.40    2.30
  15  15  -2    2.10    2.20
  13 -15  -2    2.50    2.10
  13  15  -2    2.80    2.10
  13  15  -2    4.60    2.30
  13  15  -2    3.30    2.30
  11 -15  -2    4.80    2.10
  11  15  -2    0.80    1.90
  11  15  -2    1.60    2.10
  11  15  -2    4.00    2.20
   9 -15  -2    2.60    1.90
   9  15  -2    4.70    2.10
   9  15  -2    2.20    1.90
   9  15  -2    0.20    1.80
   7 -15  -2    1.80    1.70
   7  15  -2    2.90    2.00
   7  15  -2    2.50    1.90
   7  15  -2    2.10    1.90
  -5  15   2   53.69    4.30
   5  15  -2   53.79    4.30
   5  15  -2   66.69    4.50
   5  15  -2   62.09    4.50
   3  15  -2   -1.00    1.70
   3  15  -2   -0.90    1.70
  -3  15   2    0.80    1.70
   3  15  -2   -1.40    1.60
  -3  15   2   -1.50    1.50
   1  15  -2   19.60    2.70
   1  15  -2   24.30    2.90
  -1  15   2   17.30    2.50
   1  15  -2   20.10    2.70
  -1  15   2   27.30    2.80
  -1  15  -2    9.20    2.20
  -1  15  -2   10.50    2.20
  -1  15  -2   12.20    2.30
   1  15   2    5.10    2.00
   1  15   2    9.20    2.10
  -3  15  -2    0.80    1.80
   3  15   2    2.80    1.90
  -3  15  -2    3.90    1.90
   3  15   2    1.60    1.80
   3  15   2    2.70    1.80
   5  15   2   14.70    2.40
  -5  15  -2   19.70    2.70
   5  15   2   12.50    2.40
   5  15   2   16.10    2.40
  -5  15  -2   14.50    2.30
   7 -15   2   29.90    3.40
  -7  15  -2   31.90    3.20
   7  15   2   25.10    3.10
   7  15   2   35.50    3.30
   7  15   2   26.70    3.20
   9 -15   2    2.10    2.00
   9  15   2   -2.20    1.80
  -9  15  -2    1.60    1.80
   9  15   2   -1.20    1.70
   9  15   2   -2.60    1.80
  11 -15   2    3.60    2.10
  11  15   2    2.60    2.00
  11  15   2    0.10    2.10
  11  15   2   -0.60    1.90
  13 -15   2   -0.30    2.20
  13  15   2   -1.30    2.00
  13  15   2    1.70    2.20
  13  15   2    0.40    2.20
  15 -15   2   -2.50    2.30
  15  15   2   -0.20    2.20
  15  15   2   -1.80    2.20
  15  15   2   -0.40    2.10
  17 -15   2   -0.80    2.70
  17  15   2    2.40    2.40
  17  15   2    6.40    2.60
  19 -15   2    1.10    2.50
  19  15   2    3.30    2.70
  19  15   2   -1.30    2.50
  20 -16  -2    1.70    2.80
  20  16  -2    1.10    2.70
  20  16  -2   -1.10    2.50
  18 -16  -2    1.70    2.50
  18  16  -2    1.50    2.70
  18  16  -2   -3.00    2.50
  16 -16  -2   -1.00    2.40
  16  16  -2   -0.60    2.40
  16  16  -2    0.30    2.40
  14 -16  -2    4.20    2.40
  14  16  -2    2.40    2.30
  14  16  -2    2.90    2.50
  14  16  -2    1.00    2.40
  12 -16  -2   -2.10    2.00
  12  16  -2   -0.50    2.20
  12  16  -2    0.90    2.10
  12  16  -2    1.80    2.20
  10 -16  -2    3.00    1.90
  10  16  -2    0.50    2.10
  10  16  -2    1.70    2.10
  10  16  -2    1.50    2.10
   8 -16  -2    1.70    2.00
   8  16  -2    1.40    2.00
   8  16  -2   -0.90    2.00
   8  16  -2    1.20    2.10
   6  16  -2    0.90    1.90
   6  16  -2   -0.20    1.80
   6  16  -2    2.30    2.00
   4  16  -2    2.30    2.00
   4  16  -2   -0.70    1.80
   4  16  -2   -1.50    1.70
  -4  16   2    2.70    1.90
  -4  16   2    1.90    1.80
  -2  16   2   -1.10    1.70
  -2  16   2   -0.10    1.70
   2  16  -2   -1.10    1.70
   2  16  -2    3.00    2.00
   2  16  -2    0.10    1.60
   0  16   2   -1.40    1.70
   0  16  -2    2.10    1.80
   0  16   2    0.00    1.80
   0  16  -2   -1.30    1.80
   0  16  -2    1.20    2.00
   2  16   2   -1.90    1.70
   2  16   2   -2.20    1.60
  -2  16  -2    1.10    1.90
   2  16   2    1.70    1.80
  -2  16  -2   -0.90    1.60
  -2  16  -2    1.60    1.90
  -4  16  -2    0.10    1.90
   4  16   2   -1.10    1.70
  -4  16  -2   -0.20    1.70
   4  16   2    0.80    1.90
   4  16   2    1.00    1.80
   6  16   2   -1.50    1.70
   6  16   2    1.40    2.00
  -6  16  -2    0.30    1.80
   6  16   2   -1.70    1.80
   8 -16   2   -2.20    1.90
   8  16   2    0.90    2.00
   8  16   2    0.50    2.10
  -8  16  -2    0.80    1.90
   8  16   2   -0.30    1.90
  10 -16   2   -0.80    2.10
 -10  16  -2   -2.10    1.70
  10  16   2   -1.70    2.00
  10  16   2   -0.50    2.00
  10  16   2    1.10    2.20
  12 -16   2    2.60    2.30
  12  16   2   -2.00    2.00
  12  16   2   -3.00    2.10
  12  16   2    1.40    2.10
  14 -16   2    2.40    2.60
  14  16   2   -2.40    2.10
  14  16   2    2.00    2.40
  14  16   2   -1.00    2.30
  16 -16   2    2.50    2.80
  16  16   2   -0.50    2.50
  16  16   2    1.10    2.40
  16  16   2    2.50    2.60
  18 -16   2    1.20    2.80
  18  16   2    1.30    2.60
  18  16   2    0.40    2.60
  17 -17  -2   -2.50    2.70
  17  17  -2   -1.00    2.70
  17  17  -2   -2.90    2.40
  15 -17  -2    0.40    2.50
  15  17  -2   -0.20    2.60
  15  17  -2    1.30    2.40
  15  17  -2    1.10    2.80
  13 -17  -2    3.50    2.50
  13  17  -2    1.40    2.50
  13  17  -2    8.10    2.90
  13  17  -2    5.10    2.60
  11 -17  -2   -0.90    2.10
  11  17  -2    1.10    2.40
  11  17  -2    0.80    2.30
  11  17  -2    0.20    2.20
   9 -17  -2   19.50    3.00
   9  17  -2   16.70    3.00
   9  17  -2   16.40    3.10
   9  17  -2   14.90    3.00
   7 -17  -2    1.30    2.10
   7  17  -2    6.60    2.50
   7  17  -2    3.40    2.30
   7  17  -2    0.00    2.00
  -5  17   2   18.10    2.90
   5  17  -2   18.90    3.00
  -5  17   2   14.40    2.60
   5  17  -2   17.70    3.00
   5  17  -2   22.10    3.10
  -3  17   2   43.80    3.90
   3  17  -2   50.19    4.20
  -3  17   2   41.60    3.80
   3  17  -2   45.50    4.20
   3  17  -2   34.70    3.90
   1  17  -2    3.00    2.10
  -1  17   2    1.80    2.00
   1  17  -2    3.70    2.00
   1  17  -2    3.50    2.10
  -1  17   2   -1.10    1.80
   1  17   2    3.90    2.20
  -1  17  -2    2.60    2.10
  -1  17  -2    5.10    2.30
  -1  17  -2    2.10    2.10
   1  17   2    4.50    2.10
   3  17   2   18.80    3.00
  -3  17  -2   14.50    2.70
   3  17   2    8.80    2.40
  -3  17  -2   13.60    2.60
   3  17   2   10.00    2.50
  -3  17  -2   13.70    2.80
   5  17   2    0.20    1.90
  -5  17  -2   -0.10    2.00
   5  17   2   -2.70    1.90
  -5  17  -2    2.80    2.00
   5  17   2   -0.10    2.00
   7 -17   2    8.20    2.50
   7  17   2    6.40    2.50
   7  17   2    3.20    2.30
   7  17   2    6.40    2.20
  -7  17  -2    3.80    2.10
   9 -17   2    4.20    2.50
   9  17   2    9.10    2.50
  -9  17  -2    5.10    2.20
   9  17   2    4.60    2.40
   9  17   2    2.60    2.40
  11 -17   2    1.30    2.40
  11  17   2    2.60    2.50
  11  17   2    0.40    2.40
 -11  17  -2    4.60    2.30
  11  17   2    9.00    2.70
  13 -17   2    4.90    2.80
  13  17   2    0.80    2.40
 -13  17  -2    1.10    2.20
  13  17   2   -2.20    2.40
  13  17   2    4.10    2.50
  15 -17   2    4.70    2.90
  15  17   2    0.40    2.30
  15  17   2    0.30    2.60
  15  17   2    1.10    2.60
  16  18  -2    5.80    3.00
  16  18  -2    7.80    2.80
  14  18  -2    6.80    3.00
  14  18  -2   -2.40    2.20
  14  18  -2   -0.10    2.90
  12 -18  -2    2.50    2.50
  12  18  -2   -2.40    2.40
  12  18  -2    0.90    2.50
  12  18  -2    0.10    2.10
  10 -18  -2    3.00    2.30
  10  18  -2   -0.90    2.30
  10  18  -2    3.00    2.50
  10  18  -2    3.80    2.60
   8 -18  -2    1.70    2.20
   8  18  -2   -2.00    2.20
   8  18  -2    0.80    2.20
   8  18  -2   -0.40    2.30
   6 -18  -2   -0.10    2.10
  -6  18   2    0.10    2.00
   6  18  -2    1.80    2.40
   6  18  -2    9.20    2.70
   6  18  -2   -0.10    2.20
  -4  18   2    1.70    2.10
   4  18  -2    0.90    2.30
  -4  18   2    0.50    2.10
   4  18  -2    2.90    2.20
   4  18  -2   -2.60    2.10
  -2  18   2    5.40    2.50
  -2  18   2    6.60    2.30
   2  18  -2    9.00    2.70
   2  18  -2    5.60    2.40
   2  18  -2    8.40    2.60
   0  18   2    1.70    2.10
   0  18  -2    0.70    2.00
   0  18  -2    4.10    2.40
   0  18   2    2.50    2.20
   0  18  -2   -2.50    2.00
   2  18   2    5.10    2.40
  -2  18  -2    7.20    2.60
   2  18   2    3.80    2.20
  -2  18  -2    5.80    2.40
   2  18   2    4.80    2.40
  -2  18  -2    3.40    2.40
   4  18   2    0.80    2.20
   4  18   2   -0.30    2.20
  -4  18  -2   -1.20    2.20
  -4  18  -2    4.70    2.30
   4  18   2   -0.80    2.10
  -4  18  -2   -1.10    2.00
   6 -18   2    1.80    2.40
   6  18   2   -1.20    2.20
  -6  18  -2    0.60    2.10
   6  18   2    1.00    2.50
   6  18   2    0.30    2.20
   8 -18   2    2.60    2.50
   8  18   2   -1.80    2.30
   8  18   2    0.00    2.30
  -8  18  -2    1.30    2.10
  10 -18   2    3.80    2.60
  10  18   2    1.70    2.60
  10  18   2    0.40    2.40
 -10  18  -2    1.50    2.30
  12 -18   2   -3.70    2.40
  12  18   2    0.50    2.60
 -12  18  -2    1.80    2.40
  12  18   2    0.90    2.40
  14 -18   2    1.70    3.00
  14  18   2   -1.00    2.70
 -14  18  -2   -3.40    2.30
  14  18   2    1.80    2.80
  13  19  -2   -3.50    2.70
  13  19  -2    4.90    3.10
  13  19  -2   -1.30    2.40
  11  19  -2   23.90    3.80
  11  19  -2   19.20    3.60
  11  19  -2   32.00    4.20
   9  19  -2    2.70    2.80
   9  19  -2    9.00    3.00
   9  19  -2    3.10    2.70
  -9  19   2    2.30    2.50
   7  19  -2    5.30    2.70
  -7  19   2    4.90    2.50
   7  19  -2    9.00    2.70
   7  19  -2    5.70    2.70
  -5  19   2    1.80    2.20
   5  19  -2    4.30    2.60
   5  19  -2    0.30    2.50
   5  19  -2    2.60    2.40
  -3  19   2    0.30    2.20
   3  19  -2   -1.00    2.40
   3  19  -2   -1.30    2.10
   3  19  -2    1.90    2.50
   1  19  -2    3.80    2.40
   1  19  -2    6.30    2.50
  -1  19   2    0.30    2.30
   1  19  -2    3.50    2.40
   1  19   2   -1.90    2.20
  -1  19  -2    1.00    2.30
  -1  19  -2    0.00    2.40
   1  19   2    3.50    2.40
  -1  19  -2    1.00    2.20
  -3  19  -2    8.30    2.50
  -3  19  -2    7.70    2.70
   3  19   2    5.70    2.60
  -3  19  -2    8.40    2.70
   3  19   2    4.90    2.50
   5  19   2    4.20    2.70
  -5  19  -2    5.50    2.40
   5  19   2    5.40    2.60
  -5  19  -2    7.70    2.60
   7 -19   2    8.90    2.90
   7  19   2    5.90    2.70
  -7  19  -2    5.20    2.50
   7  19   2    5.30    2.60
   9 -19   2    1.50    2.70
  -9  19  -2   -2.50    2.10
   9  19   2   -3.90    2.30
   9  19   2    3.40    2.80
  11 -19   2   23.80    4.00
  11  19   2   26.40    3.80
  11  19   2   25.50    3.90
 -11  19  -2   26.30    3.60
  -8  20   2    1.00    2.40
   8  20  -2    3.00    2.90
   8  20  -2   -1.70    2.70
   8  20  -2    4.10    2.70
   6  20  -2    7.00    3.00
  -6  20   2   10.10    2.80
   6  20  -2    6.10    2.90
   6  20  -2    8.20    3.00
  -4  20   2    1.80    2.40
   4  20  -2    5.10    2.70
   4  20  -2    2.00    2.70
   4  20  -2    4.50    2.80
  -2  20   2    7.60    2.70
   2  20  -2    8.00    2.90
   2  20  -2    5.00    2.60
   2  20  -2   -2.80    2.20
   0  20   2    3.40    2.60
   0  20  -2    0.20    2.40
   0  20   2    0.30    2.40
   0  20  -2    1.20    2.50
   0  20  -2   -1.40    2.40
  -2  20  -2   -2.60    2.30
   2  20   2    5.70    2.70
   2  20   2    1.80    2.60
  -2  20  -2    1.20    2.40
  -2  20  -2    6.00    2.80
   4  20   2    1.00    2.50
  -4  20  -2    4.90    2.60
  -4  20  -2    6.20    2.60
  -4  20  -2   -3.20    2.10
   4  20   2    2.50    2.60
   6 -20   2    6.60    3.00
  -6  20  -2    1.00    2.40
   6  20   2    6.10    2.90
  -6  20  -2    2.60    2.60
   6  20   2    6.70    3.00
  32   0  -3   -1.60    2.40
  32   0  -3    1.20    2.90
  30   0  -3    1.00    2.40
  30   0  -3   -0.40    2.60
  28   0  -3    0.30    2.10
  28   0  -3   -2.00    2.30
  26   0  -3    0.80    2.20
  26   0  -3   -1.30    1.50
  26   0  -3    0.20    2.00
  24   0  -3    0.20    1.80
  24   0  -3    0.30    1.90
  24   0  -3   -1.60    1.30
  22   0  -3    1.40    1.40
  22   0  -3    1.10    1.70
  22   0  -3    2.00    1.70
  20   0  -3   -1.50    1.40
  20   0  -3    0.20    1.20
  20   0  -3   -0.60    1.40
  18   0  -3    0.80    1.30
  18   0  -3    2.00    1.10
  18   0  -3    0.30    1.40
  16   0  -3   -1.10    0.80
  16   0  -3   -0.70    1.00
  16   0  -3    2.00    1.30
  14   0  -3    0.20    0.90
  14   0  -3    0.10    1.00
  14   0  -3    0.40    0.90
  12   0  -3    0.50    0.80
 -12   0   3    1.20    0.50
  12   0  -3   -0.20    0.90
  12   0  -3    0.80    0.80
  10   0  -3   -0.10    0.60
 -10   0   3    1.00    0.40
  10   0  -3    0.00    0.70
 -10   0   3    0.10    0.50
  10   0  -3    0.90    0.70
   8   0  -3    2.60    0.80
   8   0  -3    1.70    0.70
   8   0  -3    2.40    0.70
  -8   0   3    1.50    0.40
   6   0  -3    0.80    0.50
   6   0  -3   -0.20    0.50
   6   0  -3   -0.20    0.30
   4   0  -3    1.10    0.40
   4   0  -3    0.90    0.50
   2   0  -3   -0.30    0.40
   0   0  -3    0.50    0.40
   2   0   3    0.20    0.40
   2   0   3    0.70    0.50
   4   0   3    0.80    0.50
   4   0   3    0.10    0.40
   4   0   3    0.50    0.50
   6   0   3    1.10    0.60
   6   0   3    0.70    0.70
   6   0   3    1.10    0.50
   8   0   3    0.40    0.60
   8   0   3    1.30    0.80
   8   0   3    1.60    0.80
  10   0   3    0.60    0.90
  10   0   3    0.60    0.70
  10   0   3    0.00    0.90
  12   0   3    1.00    0.80
  12   0   3    0.30    0.60
  12   0   3    0.30    1.10
  12   0   3    0.20    1.00
  14   0   3    0.00    0.90
  14   0   3   -1.00    1.20
  14   0   3   -0.30    1.10
  16   0   3   -1.00    0.90
  16   0   3   -0.40    1.40
  16   0   3    0.90    1.30
  18   0   3    0.40    1.40
  18   0   3    0.00    1.10
  18   0   3    2.80    1.80
  20   0   3   -0.70    1.70
  20   0   3   -2.20    1.90
  20   0   3    1.40    1.30
  22   0   3   -1.60    1.80
  22   0   3   -1.30    2.00
  22   0   3    0.50    1.40
  24   0   3    2.30    2.20
  24   0   3   -0.10    2.40
  26   0   3   -0.50    2.60
  26   0   3    1.40    2.40
  28   0   3   -0.30    2.60
  28   0   3   -2.10    2.90
  31  -1  -3   25.90    4.20
  31  -1  -3   29.40    4.20
  31   1  -3   25.20    4.20
  31   1  -3   36.00    4.60
  29  -1  -3   11.70    3.00
  29  -1  -3   13.70    3.30
  29   1  -3   17.20    3.50
  29   1  -3   15.80    3.10
  27  -1  -3   42.90    4.30
  27  -1  -3   35.30    4.30
  27   1  -3   37.40    3.40
  27   1  -3   35.20    4.00
  27   1  -3   41.30    4.60
  25  -1  -3   39.10    4.10
  25  -1  -3   40.00    3.30
  25  -1  -3   39.80    4.00
  25   1  -3   41.40    4.20
  25   1  -3   41.60    4.40
  25   1  -3   42.20    3.50
  23  -1  -3  106.99    6.90
  23  -1  -3  115.99    6.00
  23  -1  -3  114.99    6.60
  23   1  -3   98.89    6.80
  23   1  -3  113.49    6.60
  23   1  -3  106.19    5.80
  21  -1  -3  112.09    6.20
  21  -1  -3  100.69    6.40
  21  -1  -3   99.19    5.50
  21   1  -3  108.59    5.60
  21   1  -3   93.59    6.40
  21   1  -3  116.59    6.20
  19  -1  -3  125.39    7.40
  19  -1  -3  153.98    7.20
  19  -1  -3  139.09    6.60
  19   1  -3  136.69    7.10
  19   1  -3  130.29    6.60
  19   1  -3  121.59    7.40
  17  -1  -3  108.99    5.90
  17  -1  -3  103.09    5.20
  17  -1  -3  106.89    5.60
  17   1  -3   96.39    5.90
  17   1  -3   98.69    5.60
  17   1  -3   98.89    5.20
  15  -1  -3  113.89    6.10
  15  -1  -3  108.89    5.80
  15  -1  -3  106.49    5.50
  15  -1  -3  110.69    4.90
  15   1  -3  115.99    5.50
  15   1  -3  115.79    5.80
  15   1  -3  113.89    6.20
  13  -1  -3  187.68    9.10
  13  -1  -3  190.08    8.70
  13  -1  -3  202.88    9.50
  13   1  -3  193.98    9.10
  13   1  -3  202.28    9.60
  13   1  -3  184.08    8.70
  11  -1  -3   97.39    5.00
  11  -1  -3   98.59    4.60
 -11  -1   3   93.89    4.30
 -11  -1   3   91.49    4.20
  11  -1  -3   95.99    4.80
  11   1  -3   98.49    5.10
  11   1  -3   91.89    4.70
  11   1  -3   90.69    4.60
 -11   1   3   95.49    4.30
   9  -1  -3  179.18    8.50
   9  -1  -3  186.38    8.30
   9  -1  -3  194.78    8.90
  -9   1   3  180.98    8.20
  -9   1   3  187.78    8.10
   9   1  -3  193.48    8.30
   9   1  -3  187.38    8.60
   9   1  -3  197.28    9.00
   7  -1  -3   59.39    2.90
   7  -1  -3   56.09    3.00
   7   1  -3   54.09    2.90
   7   1  -3   57.49    3.00
  -7   1   3   57.79    2.60
   7   1  -3   51.09    2.80
  -7   1   3   57.69    2.50
   5  -1  -3  131.09    6.00
   5  -1  -3  138.79    6.40
   5  -1  -3  136.19    5.90
   5   1  -3  134.19    6.30
   5   1  -3  129.49    6.00
   5   1  -3  138.09    5.90
   3  -1  -3   91.79    4.30
   3   1  -3   89.09    4.30
   1  -1  -3   62.39    3.00
   1   1  -3   59.59    3.00
   1  -1   3   57.89    2.90
  -1  -1  -3   62.09    3.10
   1  -1   3   63.79    3.10
  -1   1  -3   62.39    3.00
   1   1   3   60.69    2.70
   1   1   3   62.79    3.10
   3  -1   3   42.60    2.20
   3  -1   3   35.60    2.10
  -3  -1  -3   40.60    1.90
   3   1   3   41.00    2.00
   3   1   3   39.10    2.10
   3   1   3   43.50    2.30
   5  -1   3   17.70    1.40
   5  -1   3   17.70    1.10
  -5  -1  -3   20.60    1.20
   5  -1   3   18.50    1.40
   5   1   3   19.90    1.50
   5   1   3   20.90    1.50
   5   1   3   19.50    1.30
   7  -1   3  109.49    5.80
   7  -1   3  124.89    5.50
   7  -1   3  123.89    6.00
   7   1   3  120.99    5.80
   7   1   3  123.29    5.60
   7   1   3  126.19    6.10
   9  -1   3   33.60    2.10
   9  -1   3   36.90    2.50
   9  -1   3   36.30    2.40
   9   1   3   35.80    2.20
   9   1   3   32.40    2.40
   9   1   3   36.80    2.50
  11  -1   3  187.68    8.60
  11  -1   3  188.78    9.20
  11  -1   3  191.68    9.50
  11   1   3  184.28    8.70
  11   1   3  189.48    9.10
  11   1   3  201.88    8.40
  11   1   3  208.58    9.70
  13  -1   3   30.30    2.70
  13  -1   3   26.90    2.10
  13  -1   3   30.70    2.60
  13   1   3   29.50    1.90
  13   1   3   29.80    2.90
  13   1   3   26.10    2.60
  13   1   3   31.90    2.20
  15  -1   3  160.28    7.30
  15  -1   3  152.88    8.40
  15  -1   3  154.58    7.90
  15   1   3  148.49    8.40
  15   1   3  153.38    7.90
  15   1   3  157.58    7.30
  17  -1   3    6.10    2.00
  17  -1   3    8.70    1.90
  17  -1   3    5.90    1.40
  17   1   3    4.90    1.90
  17   1   3    5.80    1.80
  17   1   3    7.50    1.50
  19  -1   3   88.69    6.00
  19  -1   3   92.29    4.90
  19  -1   3   94.89    5.70
  19   1   3   92.19    4.90
  19   1   3   81.29    5.50
  19   1   3   83.09    6.00
  21  -1   3    3.20    2.00
  21  -1   3   -0.50    2.10
  21  -1   3    3.80    1.50
  21   1   3    1.70    1.40
  21   1   3    0.70    2.10
  21   1   3    4.10    2.00
  23  -1   3   84.69    5.70
  23  -1   3   67.89    4.70
  23  -1   3   69.09    5.80
  23   1   3   79.79    5.60
  23   1   3   75.59    4.40
  23   1   3   57.19    5.90
  25  -1   3    1.50    2.30
  25  -1   3   -0.60    2.40
  25   1   3   -2.70    2.10
  25   1   3   -0.90    2.50
  27  -1   3   17.90    3.50
  27  -1   3   12.50    3.50
  27   1   3    8.90    3.10
  27   1   3   21.20    3.90
  29  -1   3    2.70    3.10
  29  -1   3    1.10    2.80
  29   1   3    1.10    2.70
  29   1   3    3.70    3.20
  32  -2  -3    4.80    3.20
  32  -2  -3   -0.90    2.90
  32   2  -3    6.80    3.10
  32   2  -3   -1.00    2.70
  30  -2  -3    2.10    2.70
  30  -2  -3    1.80    2.50
  30   2  -3   -0.80    2.60
  30   2  -3    3.90    2.80
  28  -2  -3    3.90    2.40
  28  -2  -3    5.30    2.70
  28   2  -3    5.60    2.70
  28   2  -3    3.70    1.90
  28   2  -3    2.30    2.50
  26  -2  -3    5.70    2.50
  26  -2  -3    3.80    2.30
  26   2  -3   -0.10    2.20
  26   2  -3    1.70    2.10
  26   2  -3    4.80    1.80
  24  -2  -3   62.49    4.50
  24  -2  -3   49.00    4.60
  24   2  -3   47.30    3.60
  24   2  -3   50.39    4.60
  24   2  -3   44.80    4.20
  22  -2  -3   -0.80    1.50
  22  -2  -3    0.70    1.70
  22   2  -3   -2.50    1.50
  22   2  -3   -0.30    1.30
  22   2  -3   -0.30    1.60
  20  -2  -3  106.19    6.60
  20  -2  -3  126.39    6.50
  20   2  -3  124.09    6.50
  20   2  -3  118.09    5.90
  20   2  -3  100.49    6.70
  18  -2  -3    6.00    1.60
  18  -2  -3    3.90    1.60
  18  -2  -3    4.50    1.30
  18   2  -3    4.70    1.60
  18   2  -3    7.50    1.50
  18   2  -3    2.00    1.40
  16  -2  -3   47.50    3.00
  16  -2  -3   48.80    2.50
  16  -2  -3   51.59    3.50
  16  -2  -3   49.40    3.30
  16   2  -3   44.00    3.00
  16   2  -3   52.79    3.30
  16   2  -3   40.70    3.40
  14  -2  -3    3.80    1.10
  14  -2  -3    6.10    0.80
  14  -2  -3    3.60    1.20
  14  -2  -3    4.30    1.20
  14   2  -3    6.40    1.50
  14   2  -3    6.90    1.30
  14   2  -3    7.80    1.30
 -12  -2   3   93.09    4.20
  12  -2  -3   95.69    4.90
  12  -2  -3   95.59    4.20
 -12  -2   3   96.59    4.30
  12  -2  -3   93.89    4.30
 -12  -2   3   96.79    4.30
  12  -2  -3   90.69    4.60
  12  -2  -3   94.39    5.00
  12   2  -3   90.19    4.60
  12   2  -3   91.79    4.80
  12   2  -3   99.89    5.20
 -12   2   3   94.69    4.40
  10  -2  -3    5.70    0.60
  10  -2  -3    5.10    0.90
  10  -2  -3    4.90    0.50
 -10  -2   3    4.80    0.50
  10  -2  -3    4.90    1.00
  10  -2  -3    5.80    1.00
  10   2  -3    6.30    1.10
 -10   2   3    4.80    0.70
  10   2  -3    5.90    1.00
  10   2  -3    4.50    0.90
   8  -2  -3   15.40    1.30
   8  -2  -3   16.30    1.40
   8  -2  -3   13.70    0.90
   8  -2  -3   13.70    0.90
   8   2  -3   15.20    1.30
   8   2  -3   16.10    1.30
   8   2  -3   16.10    1.40
  -8   2   3   15.20    1.10
  -8   2   3   13.90    1.00
   6  -2  -3    1.20    0.60
   6  -2  -3    1.20    0.30
   6  -2  -3    1.00    0.60
   6   2  -3    0.50    0.60
  -6   2   3    1.30    0.40
  -6   2   3    1.60    0.40
   6   2  -3    1.60    0.60
   6   2  -3   -0.20    0.50
   4  -2  -3    0.70    0.50
   4   2  -3    1.00    0.50
  -4   2   3    1.50    0.40
   4   2  -3    0.90    0.50
   4   2  -3    1.70    0.60
  -4   2   3    0.80    0.40
   2  -2  -3   79.79    3.80
   2   2  -3   83.49    3.80
   2   2  -3   77.59    3.70
  -2   2   3   74.29    3.50
   0  -2  -3   18.20    1.20
   0  -2  -3   17.10    0.90
   0   2  -3   16.80    1.20
   0   2  -3   17.60    1.10
   0   2   3   16.80    1.20
   0   2   3   15.50    1.00
  -2  -2  -3   12.90    1.00
   2  -2   3   15.00    1.10
   2  -2   3   14.20    1.10
   2   2   3   15.90    1.20
   2   2   3   13.90    1.10
   2   2   3   13.80    1.00
  -4  -2  -3   17.20    1.10
   4  -2   3   16.20    1.20
   4  -2   3   11.00    1.10
   4   2   3   16.80    1.30
   4   2   3   14.60    1.30
   4   2   3   16.70    1.20
   6  -2   3    6.80    0.90
   6  -2   3    6.20    0.90
   6   2   3    8.70    1.00
   6   2   3    7.20    1.00
   6   2   3    6.80    1.00
   8  -2   3   23.70    1.90
   8  -2   3   21.80    1.80
   8  -2   3   25.10    1.50
   8   2   3   24.30    1.70
   8   2   3   25.30    2.00
   8   2   3   21.40    1.90
  10  -2   3   38.60    2.60
  10  -2   3   37.60    2.20
  10  -2   3   37.40    2.60
  10   2   3   34.40    2.00
  10   2   3   39.10    2.80
  10   2   3   36.90    2.30
  10   2   3   36.50    2.60
  12  -2   3   94.49    5.30
  12  -2   3  100.09    5.10
  12  -2   3   91.79    4.50
  12   2   3   89.59    4.60
  12   2   3   92.99    4.30
  12   2   3   90.69    5.30
  12   2   3   88.69    5.00
  14  -2   3   50.39    3.60
  14  -2   3   52.39    3.10
  14  -2   3   52.29    3.80
  14   2   3   53.99    3.60
  14   2   3   52.49    2.80
  14   2   3   48.20    3.80
  14   2   3   55.49    3.10
  16  -2   3   28.70    3.10
  16  -2   3   30.90    2.40
  16  -2   3   34.50    3.10
  16   2   3   35.00    3.10
  16   2   3   24.70    3.10
  16   2   3   29.60    2.40
  18  -2   3   19.60    2.90
  18  -2   3   16.50    2.70
  18  -2   3   21.30    2.20
  18   2   3   18.00    2.90
  18   2   3   18.60    2.00
  18   2   3   28.50    3.00
  20  -2   3   35.60    3.70
  20  -2   3   35.90    3.00
  20  -2   3   39.10    4.00
  20   2   3   37.10    2.90
  20   2   3   38.30    4.30
  20   2   3   32.50    3.50
  22  -2   3   25.30    3.60
  22  -2   3   25.90    2.60
  22  -2   3   29.70    3.60
  22   2   3   28.00    3.40
  22   2   3   27.90    2.60
  22   2   3   23.00    3.70
  24  -2   3   24.30    3.60
  24  -2   3   20.50    3.50
  24   2   3   15.30    3.10
  24   2   3   12.70    3.30
  26  -2   3    4.90    3.00
  26  -2   3   -1.40    2.20
  26   2   3    6.60    3.00
  26   2   3    6.90    2.80
  28  -2   3   12.90    3.70
  28  -2   3   15.30    3.60
  28   2   3   17.30    3.60
  28   2   3    9.60    3.40
  31  -3  -3   36.00    4.60
  31  -3  -3   36.90    4.60
  31   3  -3   40.10    4.70
  31   3  -3   31.10    4.70
  29  -3  -3    3.00    2.70
  29  -3  -3    6.60    2.80
  29   3  -3    3.90    2.70
  29   3  -3    3.20    2.50
  27  -3  -3   46.10    4.70
  27  -3  -3   37.40    4.20
  27   3  -3   48.30    4.70
  27   3  -3   49.99    3.90
  27   3  -3   34.00    4.50
  25  -3  -3   -0.90    1.90
  25  -3  -3   -1.30    2.00
  25   3  -3    0.00    1.90
  25   3  -3    2.60    1.70
  25   3  -3    1.20    2.00
  23  -3  -3   11.00    2.40
  23  -3  -3    7.70    2.20
  23   3  -3    9.20    1.90
  23   3  -3    9.20    2.40
  23   3  -3    8.10    2.40
  21  -3  -3    1.10    1.60
  21  -3  -3    1.10    1.60
  21   3  -3    1.50    1.40
  21   3  -3    3.80    2.00
  21   3  -3    1.80    1.80
  19  -3  -3   18.90    2.50
  19  -3  -3   17.90    2.40
  19   3  -3   18.60    2.60
  19   3  -3   14.00    2.00
  19   3  -3   16.50    2.30
  17  -3  -3   36.80    3.00
  17  -3  -3   41.90    2.30
  17  -3  -3   35.30    3.00
  17   3  -3   27.40    3.00
  17   3  -3   33.30    2.60
  17   3  -3   43.10    3.10
  15  -3  -3   13.00    1.90
  15  -3  -3   11.90    1.20
  15  -3  -3   11.50    1.70
  15   3  -3   10.00    1.90
  15   3  -3   10.00    1.50
  15   3  -3   14.20    1.80
  13  -3  -3  157.18    7.50
  13  -3  -3  161.88    7.80
  13  -3  -3  148.39    6.90
  13   3  -3  149.79    7.20
  13   3  -3  161.08    7.50
  13   3  -3  153.08    7.90
 -11  -3   3    5.20    0.50
  11  -3  -3    6.00    1.10
  11  -3  -3    5.70    0.80
  11  -3  -3    4.70    1.10
 -11  -3   3    5.20    0.60
 -11   3   3    5.50    0.80
  11   3  -3    5.30    1.20
  11   3  -3    4.40    1.00
  11   3  -3    7.70    1.10
   9  -3  -3  184.08    8.00
   9  -3  -3  190.08    8.00
   9  -3  -3  186.48    8.70
   9  -3  -3  177.88    8.40
  -9   3   3  183.08    8.00
   9   3  -3  190.28    8.90
   9   3  -3  186.98    8.20
   9   3  -3  175.48    8.40
   7  -3  -3  106.69    4.60
   7  -3  -3  110.89    4.60
   7  -3  -3  110.19    5.10
   7  -3  -3   83.39    4.80
  -7   3   3  105.29    4.70
   7   3  -3  108.09    5.20
   7   3  -3  102.89    4.80
   5  -3  -3  261.17   11.30
   5  -3  -3  272.97   11.30
   5  -3  -3  274.57   12.20
   5  -3  -3  258.57   11.60
   5   3  -3  268.77   11.30
   5   3  -3  260.37   12.10
  -5   3   3  263.97   11.30
   5   3  -3  261.57   11.70
   3  -3  -3   15.60    1.00
   3  -3  -3   15.40    1.10
   3   3  -3   14.50    1.10
  -3   3   3   15.50    1.00
   3   3  -3   15.00    1.20
   3   3  -3   13.50    1.10
   1  -3  -3  469.85   21.80
   1  -3  -3  502.15   20.30
  -1   3   3  485.95   20.40
   1   3  -3  481.75   20.90
   1   3  -3  473.25   21.70
   1  -3   3  188.88    8.60
  -1  -3  -3  191.48    8.10
   1   3   3  195.88    8.80
  -1   3  -3  190.88    8.40
  -1   3  -3  185.28    8.60
   1   3   3  185.08    8.20
   1   3   3  184.78    8.20
   3  -3   3  268.77   12.30
  -3  -3  -3  283.27   11.90
   3  -3   3  282.57   12.70
   3   3   3  281.57   12.00
   3   3   3  265.37   12.20
   3   3   3  292.47   12.90
   5  -3   3  204.88    9.20
   5   3   3  186.38    8.60
   5   3   3  199.88    9.30
   5   3   3  195.88    8.80
   7  -3   3  164.68    7.70
   7  -3   3  156.78    7.50
   7   3   3  155.08    7.20
   7   3   3  159.18    7.50
   7   3   3  172.78    7.90
   7   3   3  159.18    7.00
   9  -3   3   49.60    3.10
   9  -3   3   50.39    2.70
   9  -3   3   52.49    3.10
   9   3   3   51.29    2.60
   9   3   3   54.59    3.30
   9   3   3   51.89    3.10
   9   3   3   55.19    2.90
  11  -3   3   13.20    1.30
  11  -3   3   12.70    1.70
  11  -3   3   13.90    1.80
  11   3   3   14.40    1.70
  11   3   3   15.90    1.30
  11   3   3   13.50    1.80
  11   3   3   15.90    1.50
  13  -3   3   75.89    4.50
  13  -3   3   67.09    3.70
  13  -3   3   68.69    4.30
  13   3   3   67.49    4.20
  13   3   3   72.69    3.60
  13   3   3   75.39    3.90
  13   3   3   70.89    4.60
  15  -3   3   17.70    2.30
  15  -3   3   18.30    2.40
  15  -3   3   17.60    1.80
  15   3   3   17.80    1.80
  15   3   3   13.20    2.30
  15   3   3   19.60    2.40
  17  -3   3   22.20    2.90
  17  -3   3   20.10    2.60
  17  -3   3   20.80    2.10
  17   3   3   23.80    3.10
  17   3   3   23.70    2.10
  17   3   3   23.10    2.60
  19  -3   3   13.40    2.50
  19  -3   3   13.00    2.60
  19  -3   3   11.60    1.80
  19   3   3    9.80    1.70
  19   3   3   10.40    2.20
  19   3   3    9.10    2.40
  21  -3   3   -1.00    1.30
  21  -3   3    0.40    1.80
  21  -3   3    0.80    2.00
  21   3   3    1.80    1.90
  21   3   3   -0.70    2.00
  21   3   3    1.70    1.40
  23  -3   3   -1.00    2.10
  23  -3   3    3.20    2.50
  23   3   3    4.20    2.30
  23   3   3   -0.10    2.30
  25  -3   3   -1.60    2.10
  25  -3   3   -1.00    2.40
  25   3   3   -1.70    2.20
  25   3   3   -0.90    2.60
  27  -3   3    5.50    3.00
  27  -3   3    7.20    2.80
  27   3   3    5.40    3.20
  27   3   3    6.20    2.90
  29  -3   3    1.30    2.80
  29  -3   3    2.40    3.20
  29   3   3    3.20    2.90
  29   3   3    3.70    3.30
  30  -4  -3    8.50    3.10
  30  -4  -3    9.40    3.20
  30   4  -3   10.40    3.30
  30   4  -3    4.90    2.80
  28  -4  -3   18.20    3.60
  28  -4  -3   13.80    3.00
  28   4  -3   16.20    2.60
  28   4  -3   16.30    3.30
  28   4  -3   11.10    3.00
  26  -4  -3   15.00    2.90
  26  -4  -3   11.40    2.70
  26   4  -3   17.00    3.30
  26   4  -3   11.00    2.30
  26   4  -3   19.60    3.20
  24  -4  -3    6.50    2.20
  24  -4  -3    2.70    2.10
  24   4  -3    0.90    1.60
  24   4  -3    4.60    2.20
  24   4  -3    3.70    2.20
  22  -4  -3   -0.10    1.70
  22  -4  -3    0.30    1.60
  22   4  -3    0.20    1.50
  22   4  -3    0.10    1.70
  22   4  -3    0.50    1.60
  20  -4  -3   21.30    2.60
  20  -4  -3   22.00    2.80
  20   4  -3   20.00    2.70
  20   4  -3   19.90    2.30
  20   4  -3   12.70    2.60
  18  -4  -3    0.30    0.80
  18  -4  -3    3.00    1.60
  18  -4  -3    0.80    1.30
  18   4  -3    1.50    1.30
  18   4  -3    1.40    1.30
  16  -4  -3   12.00    1.80
  16  -4  -3   11.80    1.80
  16  -4  -3    6.20    0.90
  16   4  -3    7.80    1.90
  16   4  -3    7.60    1.60
  16   4  -3    8.00    1.50
  14  -4  -3   97.89    5.00
  14  -4  -3   92.39    4.90
  14   4  -3   86.09    4.60
  14   4  -3   91.09    4.90
  14   4  -3   84.09    5.20
  12  -4  -3  106.59    5.50
 -12  -4   3  109.99    4.70
  12  -4  -3  102.69    5.40
  12  -4  -3  102.69    4.90
 -12   4   3  107.59    5.00
  12   4  -3  107.69    5.20
  12   4  -3  105.89    5.80
  12   4  -3  108.19    5.40
  10  -4  -3   87.89    4.40
  10  -4  -3   91.89    4.40
  10  -4  -3   82.09    4.00
 -10   4   3   85.99    4.10
  10   4  -3   87.89    4.70
  10   4  -3   82.79    4.20
  10   4  -3   83.09    4.40
   8  -4  -3  256.17   12.10
   8  -4  -3  250.57   11.20
   8   4  -3  261.87   11.40
  -8   4   3  260.67   11.30
   8   4  -3  283.37   12.30
   8   4  -3  257.97   11.70
   6  -4  -3    8.20    0.80
   6  -4  -3    7.30    0.90
   6  -4  -3    7.50    0.90
   6  -4  -3    7.40    0.80
  -6   4   3    7.40    0.80
   6   4  -3    6.60    1.00
   6   4  -3    8.00    1.00
   6   4  -3    5.90    0.90
   4  -4  -3  180.48    7.80
   4  -4  -3  181.48    8.00
   4  -4  -3  181.58    8.40
   4   4  -3  184.58    8.20
   4   4  -3  181.88    8.40
  -4   4   3  181.58    7.90
   4   4  -3  174.28    7.70
   4   4  -3  181.78    7.90
   2  -4  -3  167.88    7.40
   2  -4  -3  174.98    7.90
   2   4  -3  166.98    7.60
   2   4  -3  170.58    7.80
  -2   4   3  168.98    7.40
   2   4  -3  167.08    7.40
   0  -4  -3  319.77   14.20
   0   4   3  333.47   14.40
   0   4   3  332.27   14.20
   0   4  -3  340.07   14.60
   0   4  -3  324.57   15.00
   0   4  -3  344.67   14.00
   0   4   3  337.97   15.20
   2  -4   3    6.10    0.60
  -2   4  -3    6.10    0.90
   2   4   3    6.40    0.90
   2   4   3    5.90    0.70
   2   4   3    7.20    0.80
   4  -4   3  361.16   16.20
   4  -4   3  344.87   15.80
   4   4   3  364.16   15.40
   4   4   3  357.46   15.70
   4   4   3  366.16   16.50
   6  -4   3    1.60    0.60
   6  -4   3    1.00    0.70
   6   4   3    1.60    0.70
   6   4   3    1.50    0.70
   6   4   3    3.40    0.90
   6   4   3    3.00    0.70
   8  -4   3  299.47   13.70
   8  -4   3  291.17   13.30
   8   4   3  308.67   14.00
   8   4   3  291.37   12.80
   8   4   3  273.47   12.10
   8   4   3  306.07   12.50
   8   4   3  291.97   13.20
  10  -4   3    0.30    0.80
  10  -4   3    0.50    0.90
  10  -4   3    0.70    0.70
  10   4   3    0.40    0.90
  10   4   3   -0.40    0.80
  10   4   3    1.60    1.20
  10   4   3   -0.20    0.70
  12  -4   3  149.69    7.60
  12  -4   3  148.39    6.70
  12  -4   3  150.58    7.40
  12   4   3  146.69    7.20
  12   4   3  148.39    6.60
  12   4   3  134.89    6.70
  12   4   3  138.89    7.70
  14  -4   3    2.30    1.00
  14  -4   3    3.80    1.40
  14  -4   3    3.60    1.40
  14   4   3    1.20    1.20
  14   4   3    4.40    1.00
  14   4   3    1.50    1.10
  14   4   3   -0.30    1.30
  16  -4   3   73.19    4.70
  16  -4   3   77.79    4.00
  16  -4   3   63.09    4.70
  16   4   3   68.79    4.50
  16   4   3   71.09    3.90
  16   4   3   64.39    5.00
  18  -4   3    1.10    1.20
  18  -4   3    1.40    1.80
  18  -4   3    1.60    1.70
  18   4   3   -1.50    1.10
  18   4   3   -1.20    1.60
  18   4   3    3.30    1.70
  20  -4   3   17.30    2.80
  20  -4   3    9.60    1.80
  20  -4   3   16.40    2.70
  20   4   3    7.00    1.60
  20   4   3    6.10    2.50
  20   4   3   12.20    2.40
  22  -4   3   11.30    2.70
  22  -4   3    3.70    2.30
  22   4   3    5.30    2.50
  22   4   3    6.70    2.30
  24  -4   3    3.40    2.50
  24  -4   3   -0.40    2.30
  24   4   3    3.60    2.70
  24   4   3    2.40    2.20
  26  -4   3    7.30    2.80
  26  -4   3    8.50    3.00
  26   4   3    9.80    2.90
  26   4   3    7.80    3.30
  28  -4   3    4.90    3.10
  28  -4   3   -4.20    2.70
  28   4   3    2.90    3.00
  28   4   3   -1.10    2.60
  31  -5  -3    4.00    2.90
  31  -5  -3    7.30    3.20
  31   5  -3    2.90    3.10
  31   5  -3   -2.60    2.50
  29  -5  -3   11.60    3.20
  29  -5  -3   14.60    3.20
  29   5  -3    7.60    3.00
  29   5  -3    7.00    3.00
  27  -5  -3    6.80    2.70
  27  -5  -3    5.80    2.50
  27   5  -3    5.30    2.00
  27   5  -3    2.10    2.40
  27   5  -3    4.30    2.70
  25  -5  -3   16.90    3.10
  25  -5  -3   22.60    3.30
  25   5  -3   16.00    3.30
  25   5  -3    9.50    2.70
  25   5  -3   18.80    2.60
  23  -5  -3   21.70    3.00
  23  -5  -3   18.50    2.90
  23   5  -3   22.10    2.60
  23   5  -3   24.90    3.20
  23   5  -3   16.60    2.90
  21  -5  -3   15.00    2.40
  21  -5  -3   15.00    2.50
  21   5  -3   14.60    2.50
  21   5  -3    9.80    2.60
  21   5  -3   15.70    2.20
  19  -5  -3   27.50    2.90
  19  -5  -3   28.80    2.90
  19   5  -3   24.80    2.60
  19   5  -3   22.50    2.70
  19   5  -3   24.30    3.20
  17  -5  -3   14.30    1.50
  17  -5  -3   17.80    2.30
  17  -5  -3   14.40    2.10
  17   5  -3   17.20    2.20
  17   5  -3   14.70    1.90
  17   5  -3   10.90    2.20
  15  -5  -3  150.68    6.60
  15  -5  -3  141.99    7.20
  15  -5  -3  143.79    7.20
  15   5  -3  136.29    6.90
  15   5  -3  129.29    7.60
  15   5  -3  152.78    7.30
  13  -5  -3    5.30    1.20
  13  -5  -3    4.00    0.90
  13  -5  -3    5.00    1.10
  13   5  -3    4.30    1.20
  13   5  -3    3.90    1.40
  13   5  -3    5.60    1.20
  11  -5  -3   58.09    3.30
 -11  -5   3   51.89    2.50
 -11  -5   3   52.49    2.50
  11  -5  -3   60.69    2.90
  11  -5  -3   58.89    3.20
 -11   5   3   57.39    2.90
  11   5  -3   54.19    3.30
  11   5  -3   55.39    3.20
  11   5  -3   53.69    3.50
   9  -5  -3    1.80    0.80
   9  -5  -3    2.10    0.70
   9  -5  -3    0.50    0.70
   9   5  -3    1.50    0.90
  -9   5   3    2.10    0.60
   9   5  -3    0.40    0.80
   9   5  -3    1.80    0.90
   7  -5  -3   13.40    1.20
   7  -5  -3   16.40    1.40
   7   5  -3   18.20    1.50
   7   5  -3   19.30    1.60
  -7   5   3   15.10    1.30
   7   5  -3   19.20    1.60
   5  -5  -3   18.00    1.40
   5  -5  -3   19.40    1.30
   5   5  -3   18.10    1.40
  -5   5   3   13.10    1.20
   5   5  -3   17.20    1.50
   5   5  -3   18.30    1.50
   5   5  -3   18.50    1.50
   3  -5  -3   63.19    3.20
   3   5  -3   58.49    3.00
   3   5  -3   63.59    3.10
  -3   5   3   63.89    3.00
  -3   5   3   62.99    3.00
   3   5  -3   60.19    3.20
   3   5  -3   58.49    3.10
   1  -5  -3   16.80    1.30
   1   5  -3   17.70    1.40
  -1   5   3   15.40    1.20
  -1   5   3   17.00    1.30
   1   5  -3   17.60    1.30
  -1   5   3   17.00    1.20
   1   5  -3   18.30    1.40
   1   5  -3   17.20    1.10
   1  -5   3    3.90    0.50
   1   5   3    4.20    0.70
  -1   5  -3    3.80    0.50
  -1   5  -3    3.40    0.80
   1   5   3    4.70    0.80
   1   5   3    5.20    0.70
  -1   5  -3    4.70    0.80
   3  -5   3   53.29    2.70
   3   5   3   56.89    2.70
   3   5   3   59.39    2.90
   3   5   3   56.89    3.10
  -3   5  -3   52.29    3.00
   3   5   3   55.49    2.80
   5  -5   3   13.40    1.10
   5  -5   3   13.20    1.40
   5   5   3   16.40    1.30
   5   5   3   13.60    1.30
   5   5   3   15.10    1.50
   5   5   3   16.30    1.30
   5   5   3   16.30    1.30
   7  -5   3    3.60    0.80
   7  -5   3    3.20    0.90
   7   5   3    4.90    1.10
   7   5   3    4.60    0.90
   7   5   3    4.30    0.90
   7   5   3    4.20    0.80
   7   5   3    4.60    0.90
   9  -5   3    6.30    1.10
   9  -5   3    5.20    1.20
   9   5   3    9.60    1.50
   9   5   3    6.30    1.10
   9   5   3    6.60    1.00
   9   5   3    5.70    1.10
   9   5   3    6.70    1.00
  11  -5   3   13.50    1.70
  11  -5   3    9.90    1.60
  11  -5   3   12.90    1.30
  11   5   3   12.90    1.90
  11   5   3   10.90    1.30
  11   5   3   10.70    1.40
  11   5   3   11.80    1.60
  13  -5   3   -0.80    0.80
  13  -5   3    1.40    1.20
  13  -5   3   -1.00    1.20
  13   5   3    0.00    0.90
  13   5   3    2.30    1.10
  13   5   3   -0.10    1.10
  13   5   3   -1.70    1.20
  15  -5   3   17.30    2.40
  15  -5   3   21.30    2.50
  15  -5   3   20.60    1.90
  15   5   3   21.00    1.90
  15   5   3   21.10    2.50
  15   5   3   14.10    2.40
  15   5   3   18.60    1.90
  17  -5   3    2.30    1.70
  17  -5   3    0.90    1.20
  17  -5   3    2.10    1.80
  17   5   3    2.00    1.20
  17   5   3    1.70    1.90
  17   5   3    2.60    1.70
  19  -5   3   37.30    3.00
  19  -5   3   31.00    3.50
  19  -5   3   30.70    3.50
  19   5   3   34.00    3.60
  19   5   3   32.70    4.10
  21  -5   3   13.70    2.70
  21  -5   3   13.70    2.80
  21   5   3   13.50    2.70
  21   5   3   14.00    3.10
  23  -5   3   10.30    2.70
  23  -5   3    8.80    2.70
  23   5   3    9.40    2.50
  23   5   3    9.90    3.00
  25  -5   3    1.70    2.60
  25  -5   3    2.30    2.60
  25   5   3    0.90    2.70
  25   5   3    2.90    2.50
  27  -5   3    9.70    3.20
  27   5   3   10.50    3.10
  27   5   3   13.00    3.50
  30  -6  -3    1.50    2.60
  30   6  -3    0.40    2.90
  30   6  -3   -1.40    2.40
  28  -6  -3   30.90    4.10
  28  -6  -3   26.70    3.80
  28   6  -3   33.20    3.50
  28   6  -3   25.10    3.90
  28   6  -3   26.40    4.20
  26  -6  -3    1.30    2.20
  26  -6  -3   -0.80    2.10
  26   6  -3   -0.60    2.30
  26   6  -3    2.20    2.50
  26   6  -3    0.00    1.90
  24  -6  -3   46.00    4.30
  24  -6  -3   36.50    4.00
  24   6  -3   40.80    4.20
  24   6  -3   38.40    3.70
  24   6  -3   37.10    4.40
  22  -6  -3   -0.30    1.70
  22  -6  -3    3.40    1.90
  22   6  -3   -0.80    1.80
  22   6  -3   -0.80    1.50
  22   6  -3   -2.80    1.60
  20  -6  -3   48.40    3.10
  20  -6  -3   55.09    4.20
  20  -6  -3   40.60    3.70
  20   6  -3   53.39    3.70
  20   6  -3   49.80    4.70
  20   6  -3   54.59    4.20
  18  -6  -3   -0.60    1.00
  18  -6  -3    2.40    1.60
  18  -6  -3    2.20    1.40
  18   6  -3    2.60    1.50
  18   6  -3    1.10    1.60
  18   6  -3    0.60    1.70
  16  -6  -3  175.58    8.70
  16  -6  -3  175.08    8.00
  16  -6  -3  174.18    8.70
  16   6  -3  154.48    9.10
  16   6  -3  172.18    8.70
  16   6  -3  190.28    8.40
  14  -6  -3   10.50    1.30
  14  -6  -3   10.50    1.70
  14  -6  -3   10.80    1.50
  14   6  -3   11.60    1.70
  14   6  -3   12.30    1.70
  14   6  -3    7.60    1.80
  12  -6  -3   78.89    4.20
  12  -6  -3   75.19    4.00
  12  -6  -3   71.39    3.70
 -12  -6   3   68.99    3.40
  12   6  -3   79.99    4.10
  12   6  -3   70.49    4.20
  12   6  -3   75.89    4.50
  10  -6  -3    9.20    1.20
  10  -6  -3    8.80    1.10
  10  -6  -3   10.50    1.30
  10   6  -3    8.50    1.50
  10   6  -3    7.00    1.30
 -10   6   3    9.50    1.10
  10   6  -3    7.70    1.30
   8  -6  -3   92.79    4.60
   8   6  -3   91.69    4.80
  -8   6   3   86.89    4.30
   8   6  -3   97.59    4.60
   8   6  -3   93.29    4.70
   6  -6  -3    2.20    0.70
   6  -6  -3    1.70    0.70
   6   6  -3    1.50    0.70
   6   6  -3   -0.40    0.70
   6   6  -3    1.40    0.80
  -6   6   3    0.20    0.50
   6   6  -3    1.50    0.80
   4  -6  -3  321.57   14.50
   4   6  -3  323.47   13.70
   4   6  -3  321.17   14.10
  -4   6   3  301.47   13.60
  -4   6   3  314.37   13.90
   4   6  -3  318.47   13.30
   4   6  -3  323.17   14.50
   2  -6  -3   32.00    1.80
  -2   6   3   28.10    1.70
   2   6  -3   28.80    1.80
  -2   6   3   29.10    1.80
   2   6  -3   31.10    1.90
   2   6  -3   27.50    1.60
   2   6  -3   28.60    2.00
  -2   6   3   30.90    1.90
   0   6   3  418.46   18.80
   0   6   3  421.86   18.00
   0   6  -3  409.26   18.20
   0   6  -3  411.36   17.10
   0   6   3  402.36   17.70
   0   6  -3  425.26   17.50
   2   6   3   21.70    1.50
  -2   6  -3   21.50    1.50
   2   6   3   22.30    1.60
   2   6   3   21.70    1.70
  -2   6  -3   23.30    1.80
   4  -6   3  262.37   12.50
   4   6   3  281.77   12.00
   4   6   3  275.57   12.80
  -4   6  -3  274.97   12.40
   4   6   3  285.57   11.50
   4   6   3  272.07   12.20
   6  -6   3   39.10    2.30
   6  -6   3   42.50    2.70
   6   6   3   42.10    2.50
   6   6   3   40.30    2.30
   6   6   3   43.70    2.80
   6   6   3   45.00    2.40
   6   6   3   41.30    2.40
   8  -6   3   41.90    2.90
   8  -6   3   44.30    2.70
   8   6   3   41.20    2.70
   8   6   3   47.00    2.60
   8   6   3   39.80    3.00
   8   6   3   41.10    2.40
   8   6   3   49.30    2.60
  10  -6   3    6.40    1.30
  10  -6   3    8.20    1.50
  10   6   3    4.20    1.10
  10   6   3    5.10    1.00
  10   6   3    5.50    1.10
  10   6   3    5.10    1.50
  10   6   3    4.90    1.10
  12  -6   3   61.89    3.90
  12  -6   3   60.09    3.70
  12   6   3   59.79    3.30
  12   6   3   55.79    3.30
  12   6   3   61.49    3.70
  12   6   3   56.69    4.10
  14  -6   3   31.10    2.80
  14  -6   3   25.70    2.70
  14  -6   3   22.80    2.10
  14   6   3   24.70    2.60
  14   6   3   28.00    2.30
  14   6   3   29.30    2.30
  14   6   3   22.70    2.90
  16  -6   3   71.59    4.70
  16  -6   3   69.29    4.80
  16  -6   3   70.79    4.10
  16   6   3   71.19    4.70
  16   6   3   72.09    5.40
  16   6   3   74.99    4.00
  18  -6   3   60.89    4.50
  18  -6   3   66.29    3.90
  18  -6   3   66.99    4.90
  18   6   3   60.19    4.50
  18   6   3   44.30    4.70
  20  -6   3   34.60    3.90
  20  -6   3   39.10    3.90
  20   6   3   41.40    3.90
  20   6   3   34.30    4.40
  22  -6   3   17.30    3.20
  22   6   3    7.50    2.80
  22   6   3   16.30    2.90
  24  -6   3   53.29    5.10
  24   6   3   45.30    4.70
  24   6   3   39.60    5.10
  26  -6   3   11.00    3.50
  26   6   3   17.80    4.00
  26   6   3   22.00    3.60
  28  -6   3   21.60    4.10
  28   6   3   14.30    3.80
  28   6   3   28.00    4.10
  29  -7  -3   -1.90    2.60
  29   7  -3   -1.70    2.60
  29   7  -3    3.90    2.80
  29   7  -3   -0.50    2.20
  27  -7  -3   -1.00    2.40
  27   7  -3    2.20    2.60
  27   7  -3    0.00    2.10
  27   7  -3    1.80    2.60
  25  -7  -3   -1.70    1.90
  25   7  -3    2.90    2.40
  25   7  -3    2.00    2.00
  25   7  -3   -1.50    2.00
  23  -7  -3   10.80    2.60
  23  -7  -3    3.10    1.90
  23   7  -3    4.20    2.00
  23   7  -3    6.60    2.30
  23   7  -3    3.40    2.30
  21  -7  -3    1.20    1.30
  21  -7  -3   -0.60    1.60
  21  -7  -3    2.10    2.00
  21   7  -3    1.90    1.70
  21   7  -3    1.00    2.00
  21   7  -3    2.30    1.80
  19  -7  -3   -0.20    1.10
  19  -7  -3    0.90    1.40
  19  -7  -3    1.60    1.60
  19   7  -3    1.20    1.60
  19   7  -3    0.70    1.90
  19   7  -3    0.40    1.70
  17  -7  -3    6.70    1.30
  17  -7  -3    3.70    1.60
  17  -7  -3    7.60    1.70
  17   7  -3    3.10    1.60
  17   7  -3    7.30    1.80
  17   7  -3    4.00    1.90
  15  -7  -3    1.40    1.30
  15  -7  -3    0.90    0.90
  15  -7  -3    1.30    1.10
  15   7  -3   -0.40    1.30
  15   7  -3   -1.00    1.10
  15   7  -3    0.00    1.50
  13  -7  -3    1.60    1.20
  13  -7  -3    0.10    0.80
  13  -7  -3    0.90    1.00
  13   7  -3    0.50    1.10
  13   7  -3    2.80    1.40
  13   7  -3    2.40    1.20
  11  -7  -3   33.00    2.50
 -11  -7   3   25.00    1.60
  11  -7  -3   33.80    2.20
  11  -7  -3   37.40    2.30
  11   7  -3   35.80    2.80
  11   7  -3   35.20    2.50
  11   7  -3   32.00    2.50
   9  -7  -3    2.30    0.80
   9  -7  -3    2.40    1.00
   9   7  -3    2.90    1.10
   9   7  -3    3.20    1.00
   9   7  -3    1.70    1.00
   9   7  -3    2.60    1.00
  -9   7   3    1.70    0.80
   7  -7  -3    8.30    1.00
   7   7  -3    6.20    1.20
   7   7  -3    7.20    1.10
  -7   7   3    7.20    0.90
   7   7  -3    7.30    1.20
   7   7  -3    6.40    1.20
   5  -7  -3   24.10    1.70
   5  -7  -3   20.40    1.60
   5   7  -3   24.10    1.90
   5   7  -3   22.50    1.80
   5   7  -3   23.60    2.00
  -5   7   3   23.00    1.60
   5   7  -3   23.00    1.60
   3  -7  -3   13.50    1.20
   3   7  -3   12.40    1.40
  -3   7   3   13.50    1.20
   3   7  -3   12.40    1.40
   3   7  -3   10.50    1.30
   3   7  -3   12.90    1.10
  -3   7   3   13.60    1.20
  -1   7   3  107.59    5.30
  -1   7   3  106.79    5.10
  -1   7   3  111.69    5.00
   1   7  -3  103.69    5.10
   1   7  -3  111.49    5.40
   1   7  -3  107.29    5.00
   1   7   3   14.00    1.30
  -1   7  -3   16.50    1.50
   1   7   3   13.10    1.20
  -1   7  -3   14.00    1.40
   1   7   3   14.50    1.30
  -1   7  -3   14.10    1.50
   3   7   3    9.00    1.00
   3   7   3    9.90    1.20
  -3   7  -3    8.20    1.20
   3   7   3    8.90    1.10
   3   7   3   10.30    1.20
  -3   7  -3    9.00    1.10
   5  -7   3    4.50    1.10
   5   7   3    4.90    1.00
   5   7   3    4.30    1.10
   5   7   3    4.30    0.90
   5   7   3    4.40    0.90
   7  -7   3    2.40    0.80
   7  -7   3    2.80    1.10
   7   7   3    2.00    0.80
   7   7   3    1.20    0.90
   7   7   3    0.40    1.00
   7   7   3    1.90    0.90
   7   7   3    1.20    0.90
   9  -7   3    6.10    1.10
   9  -7   3    4.50    1.40
   9   7   3    2.30    1.30
   9   7   3    5.70    1.20
   9   7   3    9.30    1.20
   9   7   3    6.10    1.10
   9   7   3    7.40    1.30
  11  -7   3    3.50    1.20
  11  -7   3    3.10    1.30
  11   7   3    4.30    1.60
  11   7   3    3.70    1.10
  11   7   3    4.80    1.10
  11   7   3    4.70    1.30
  11   7   3    4.30    1.20
  13  -7   3    1.80    1.40
  13  -7   3    1.40    1.20
  13   7   3    1.30    1.10
  13   7   3    0.80    1.00
  13   7   3    1.50    1.20
  13   7   3    0.90    1.50
  15  -7   3    0.50    1.10
  15  -7   3    0.20    1.50
  15   7   3   -0.80    1.70
  15   7   3    1.40    1.20
  15   7   3    1.50    1.60
  15   7   3    0.40    0.60
  17  -7   3   14.20    2.60
  17  -7   3   12.90    1.80
  17   7   3   12.00    2.80
  17   7   3   10.30    2.20
  19  -7   3    8.80    2.60
  19   7   3    9.20    2.80
  19   7   3   10.90    2.40
  21  -7   3    8.10    2.70
  21   7   3    6.20    2.30
  21   7   3    9.70    2.90
  23  -7   3    0.30    2.40
  23   7   3    1.40    2.60
  23   7   3    0.30    2.20
  25  -7   3   -0.60    2.60
  25   7   3    3.10    2.60
  25   7   3    8.00    3.10
  27  -7   3   -0.20    2.90
  27   7   3    0.30    2.70
  27   7   3   -0.90    2.60
  28  -8  -3   22.00    3.80
  28   8  -3   17.30    3.80
  28   8  -3   21.20    3.30
  28   8  -3   20.80    3.80
  26  -8  -3    5.70    2.60
  26   8  -3    2.80    2.30
  26   8  -3    3.30    2.60
  26   8  -3    4.30    2.50
  24  -8  -3   72.99    5.70
  24   8  -3   69.89    5.90
  24   8  -3   74.79    5.70
  24   8  -3   69.19    4.90
  22  -8  -3    0.10    1.90
  22   8  -3    3.30    2.20
  22   8  -3    0.30    1.80
  22   8  -3    0.40    2.00
  20  -8  -3   27.20    3.20
  20  -8  -3   20.70    2.20
  20   8  -3   22.80    3.00
  20   8  -3   22.50    3.40
  20   8  -3   21.80    2.80
  18  -8  -3   24.40    2.40
  18  -8  -3   21.20    2.80
  18  -8  -3   23.00    2.20
  18   8  -3   20.30    3.00
  18   8  -3   21.00    2.60
  18   8  -3   24.00    2.90
  16  -8  -3  255.87   11.30
  16  -8  -3  258.07   12.10
  16  -8  -3  263.47   12.10
  16   8  -3  206.68   12.50
  16   8  -3  253.87   11.60
  16   8  -3  264.87   12.10
  14  -8  -3    4.60    1.20
  14  -8  -3    3.70    1.10
  14  -8  -3    3.00    1.50
  14   8  -3    5.80    1.50
  14   8  -3    3.50    1.40
  14   8  -3    4.30    1.70
  12  -8  -3  187.48    8.60
  12  -8  -3  194.28    9.10
  12  -8  -3  189.58    9.00
  12   8  -3  184.68    8.90
  12   8  -3  184.98    9.10
  12   8  -3  192.38    9.60
  10  -8  -3    5.60    1.10
  10  -8  -3   10.10    1.50
  10   8  -3    6.60    1.40
  10   8  -3    7.60    1.40
  10   8  -3    8.20    1.50
  10   8  -3    6.50    1.40
   8  -8  -3   59.69    3.30
   8  -8  -3   57.29    3.10
   8   8  -3   57.59    3.30
   8   8  -3   58.09    3.40
  -8   8   3   56.39    3.10
   8   8  -3   55.99    3.40
   8   8  -3   55.69    3.50
   6  -8  -3    6.40    1.00
  -6   8   3    7.30    0.90
   6   8  -3    7.00    1.30
   6   8  -3    7.60    1.20
   6   8  -3    7.10    1.30
   6   8  -3    7.90    1.10
   4  -8  -3  109.09    5.50
   4   8  -3  113.69    5.70
  -4   8   3  114.19    5.30
  -4   8   3  114.49    5.40
   4   8  -3  116.49    5.50
   4   8  -3  112.89    5.40
   4   8  -3  115.99    5.40
  -2   8   3    6.10    1.00
  -2   8   3    5.40    0.90
   2   8  -3    5.20    1.10
   2   8  -3    7.50    1.30
   2   8  -3    4.60    0.60
  -2   8   3    4.30    0.80
   2   8  -3    4.90    1.10
   0   8   3   17.90    1.50
   0   8  -3   21.20    1.80
   0   8   3   19.20    1.60
   0   8   3   18.20    1.50
   0   8  -3   19.70    1.90
   0   8  -3   18.70    1.60
   2   8   3  111.19    5.40
   2   8   3  112.79    5.60
   2   8   3  118.49    5.30
  -2   8  -3  110.69    5.20
  -2   8  -3  110.49    5.60
   4   8   3  119.59    5.80
   4   8   3  125.29    6.10
   4   8   3  128.49    6.50
   4   8   3  132.79    5.90
  -4   8  -3  128.79    6.40
  -4   8  -3  136.39    5.90
   6  -8   3   67.19    3.90
   6   8   3   64.59    3.60
   6   8   3   64.59    3.60
   6   8   3   67.39    3.90
   6   8   3   65.19    3.40
   6   8   3   65.19    3.40
   8  -8   3   45.10    3.10
   8   8   3   40.00    3.10
   8   8   3   44.80    2.90
   8   8   3   46.70    2.80
   8   8   3   40.00    2.60
   8   8   3   46.00    2.60
  10  -8   3   40.00    3.10
  10   8   3   38.90    2.70
  10   8   3   34.30    3.10
  10   8   3   36.50    2.80
  10   8   3   34.80    2.40
  12  -8   3   83.59    4.80
  12   8   3   69.79    3.70
  12   8   3   69.99    4.30
  12   8   3   74.79    4.10
  12   8   3   69.19    3.80
  12   8   3   65.99    4.80
  14  -8   3   60.79    3.60
  14  -8   3   59.39    4.30
  14   8   3   61.79    3.70
  14   8   3   61.09    4.10
  14   8   3   56.39    4.70
  16  -8   3   96.49    5.00
  16  -8   3  102.49    6.00
  16   8   3   76.39    6.20
  16   8   3   82.89    5.50
  16   8   3   96.69    5.00
  18  -8   3   58.29    5.00
  18   8   3   61.09    4.60
  18   8   3   57.99    5.30
  20  -8   3   74.99    5.70
  20   8   3   79.99    5.30
  20   8   3   43.80    5.20
  22  -8   3    5.20    2.60
  22   8   3    6.10    2.40
  22   8   3    2.80    2.70
  24  -8   3   38.80    4.90
  24   8   3   26.30    3.80
  24   8   3   21.70    4.20
  26  -8   3   10.80    3.50
  26   8   3   17.00    3.50
  26   8   3    2.90    3.00
  29  -9  -3    4.00    3.00
  29   9  -3    8.60    2.80
  29   9  -3    2.40    2.90
  29   9  -3    0.00    2.80
  27  -9  -3    4.50    2.90
  27   9  -3    6.50    3.10
  27   9  -3   -3.50    2.20
  27   9  -3    0.10    2.80
  25  -9  -3   19.60    3.40
  25   9  -3    7.90    3.00
  25   9  -3   11.30    2.60
  25   9  -3   14.20    3.30
  23  -9  -3    6.70    2.50
  23   9  -3    4.90    2.30
  23   9  -3    4.80    2.70
  23   9  -3    4.00    2.50
  21  -9  -3   22.60    3.20
  21  -9  -3   22.60    2.40
  21   9  -3   30.80    3.60
  21   9  -3   22.50    2.90
  21   9  -3   12.10    2.80
  19  -9  -3    5.90    1.50
  19  -9  -3    7.30    2.20
  19   9  -3    5.50    1.90
  19   9  -3    5.30    2.20
  19   9  -3    7.90    2.10
  17  -9  -3   28.90    2.50
  17  -9  -3   30.70    3.20
  17   9  -3   29.80    3.60
  17   9  -3   30.60    3.00
  17   9  -3   32.20    3.20
  15  -9  -3   84.59    4.70
  15  -9  -3   92.99    5.40
  15   9  -3   98.69    5.40
  15   9  -3   78.39    5.60
  15   9  -3   96.69    5.30
  13  -9  -3   23.10    2.00
  13  -9  -3   20.60    2.30
  13   9  -3   21.10    2.40
  13   9  -3   17.50    2.30
  13   9  -3   20.30    2.50
  11  -9  -3   68.19    3.80
  11  -9  -3   73.29    4.20
  11   9  -3   65.29    4.00
  11   9  -3   67.89    4.30
  11   9  -3   72.39    4.40
  11   9  -3   74.39    4.20
   9  -9  -3    1.80    0.80
   9  -9  -3    1.70    1.10
   9   9  -3    3.90    1.30
   9   9  -3    3.40    1.30
   9   9  -3    2.40    1.10
   9   9  -3    0.80    1.10
   7  -9  -3    3.10    0.90
   7  -9  -3    2.80    1.00
  -7   9   3    3.10    0.90
   7   9  -3    4.50    1.20
   7   9  -3    3.60    1.00
   7   9  -3    4.50    1.20
   7   9  -3    2.60    1.20
   5  -9  -3    4.00    0.80
   5   9  -3    4.20    1.10
   5   9  -3    3.80    0.80
  -5   9   3    3.10    1.00
   5   9  -3    3.50    1.20
   5   9  -3    4.00    1.20
  -5   9   3    5.00    0.90
   3   9  -3    0.90    1.00
   3   9  -3    2.00    1.00
  -3   9   3    1.50    0.70
   3   9  -3    2.60    1.00
  -3   9   3    1.70    0.90
   3   9  -3    1.50    0.60
  -3   9   3    1.70    0.70
  -1   9   3   13.90    1.40
  -1   9   3   12.30    1.20
   1   9  -3   12.30    1.60
   1   9  -3   13.70    1.50
  -1   9   3   10.40    1.20
   1   9  -3   13.60    1.60
   1   9   3   80.59    4.10
  -1   9  -3   73.49    4.00
  -1   9  -3   73.89    4.10
   1   9   3   85.79    3.90
  -1   9  -3   78.19    4.30
   1   9   3   79.89    4.20
   3   9   3   97.79    4.60
  -3   9  -3   91.79    5.10
   3   9   3   88.39    5.00
   3   9   3   92.09    4.80
  -3   9  -3  105.39    4.70
   3   9   3  100.09    4.70
   5   9   3   40.30    2.60
  -5   9  -3   41.80    2.90
   5   9   3   39.60    2.60
  -5   9  -3   36.80    2.50
   5   9   3   37.40    2.70
   7  -9   3    9.90    1.70
   7   9   3    6.90    1.30
   7   9   3    7.00    1.40
   7   9   3    5.60    1.30
   7   9   3    6.80    1.60
   9  -9   3    8.80    1.80
   9   9   3   10.10    1.20
   9   9   3   13.80    1.60
   9   9   3   11.20    2.00
   9   9   3   12.50    1.70
   9   9   3   10.70    1.60
  11  -9   3   24.40    2.70
  11   9   3   17.70    1.70
  11   9   3   23.70    2.80
  11   9   3   26.30    2.20
  11   9   3   20.90    2.20
  11   9   3   22.80    2.40
  13  -9   3   39.20    3.80
  13   9   3   49.60    3.30
  13   9   3   46.00    4.30
  13   9   3   51.39    3.60
  13   9   3   43.30    3.20
  15  -9   3   37.80    3.70
  15  -9   3   41.60    3.00
  15   9   3   33.80    3.30
  15   9   3   35.30    4.10
  15   9   3   34.10    3.00
  17  -9   3   24.80    3.30
  17   9   3   29.00    3.10
  17   9   3   16.10    3.10
  19  -9   3    9.90    3.00
  19   9   3   11.10    3.10
  19   9   3    9.40    2.50
  21  -9   3    8.40    3.10
  21   9   3    4.80    2.90
  21   9   3    5.20    2.50
  23  -9   3   13.10    3.40
  23   9   3    7.20    3.10
  23   9   3    7.40    2.80
  25  -9   3    2.80    3.00
  25   9   3    1.30    2.70
  25   9   3   -1.30    2.80
  28 -10  -3   13.70    3.50
  28  10  -3    7.40    2.70
  28  10  -3    8.70    3.20
  28  10  -3    7.20    3.10
  26 -10  -3    1.60    2.50
  26  10  -3    4.60    2.50
  26  10  -3    0.80    2.50
  26  10  -3    5.80    2.90
  24 -10  -3   24.30    3.70
  24  10  -3   21.10    3.70
  24  10  -3   25.20    3.70
  24  10  -3   24.00    3.30
  22 -10  -3   -1.90    2.10
  22  10  -3    0.80    2.40
  22  10  -3   -1.40    2.10
  22  10  -3   -0.80    2.00
  20 -10  -3   18.00    2.30
  20 -10  -3   28.10    3.40
  20  10  -3   25.80    3.60
  20  10  -3   28.00    3.40
  20  10  -3   23.50    3.00
  18 -10  -3   -2.60    1.10
  18 -10  -3    0.80    1.80
  18  10  -3    0.10    2.00
  18  10  -3   -0.80    1.70
  18  10  -3   -0.60    1.70
  16 -10  -3    2.80    1.20
  16 -10  -3    5.60    1.90
  16  10  -3    3.30    1.70
  16  10  -3    3.50    1.90
  16  10  -3    4.30    2.00
  14 -10  -3   63.99    3.70
  14 -10  -3   58.39    4.20
  14  10  -3   61.29    4.30
  14  10  -3   59.39    4.20
  14  10  -3   62.79    4.50
  12 -10  -3    5.40    1.60
  12  10  -3    7.10    1.80
  12  10  -3    8.10    1.80
  12  10  -3    7.00    1.80
  10 -10  -3  118.69    6.30
  10  10  -3  128.29    6.50
  10  10  -3  117.39    6.40
  10  10  -3  119.39    6.00
  10  10  -3  122.39    6.30
   8 -10  -3   78.99    4.60
   8  10  -3   80.19    4.80
   8  10  -3   79.59    4.60
   8  10  -3   88.39    4.60
   8  10  -3   88.49    4.60
  -6  10   3  129.79    6.10
   6  10  -3  134.49    6.80
   6  10  -3  131.59    6.50
   6  10  -3  134.49    6.40
   6  10  -3  133.39    6.50
  -4  10   3  142.49    7.10
   4  10  -3  147.09    7.10
   4  10  -3  152.78    7.00
   4  10  -3  150.78    7.40
  -4  10   3  152.08    6.80
  -4  10   3  146.99    7.10
   2  10  -3   46.20    2.80
   2  10  -3   40.70    3.00
  -2  10   3   41.80    2.50
  -2  10   3   44.10    2.80
   2  10  -3   38.80    2.80
  -2  10   3   43.00    2.50
   0  10  -3   65.89    3.90
   0  10  -3   65.89    3.70
   0  10   3   60.59    3.50
   0  10  -3   66.79    3.60
   0  10   3   62.99    3.60
   2  10   3    5.70    1.20
   2  10   3    4.60    1.10
  -2  10  -3    3.20    1.10
  -2  10  -3    2.70    1.20
   2  10   3    1.10    0.50
   2  10   3    3.60    1.20
  -4  10  -3   86.59    4.80
   4  10   3   82.79    4.10
   4  10   3   83.89    4.40
  -4  10  -3   82.79    4.30
   4  10   3   87.99    4.70
   4  10   3   85.29    4.50
   6 -10   3    0.30    1.20
   6  10   3    0.30    1.10
   6  10   3    1.70    1.10
   6  10   3   -1.00    1.10
   6  10   3    0.90    0.80
   6  10   3   -1.10    1.10
   8 -10   3  110.99    6.00
   8  10   3  106.09    5.60
   8  10   3  108.69    5.10
   8  10   3  106.99    5.60
   8  10   3  101.29    6.00
   8  10   3  109.49    5.40
  10 -10   3   17.40    2.40
  10  10   3   15.00    2.00
  10  10   3   13.00    1.90
  10  10   3   15.80    2.40
  10  10   3   16.90    2.00
  12 -10   3   83.69    5.30
  12  10   3   71.29    5.50
  12  10   3   82.59    4.90
  12  10   3   84.39    4.60
  12  10   3   86.39    4.80
  14 -10   3    1.00    1.80
  14  10   3    2.40    2.10
  14  10   3    0.50    1.40
  14  10   3    1.20    1.60
  14  10   3    0.40    1.60
  16 -10   3   28.30    3.40
  16  10   3   27.70    2.90
  16  10   3   26.90    3.70
  16  10   3   27.00    3.20
  18 -10   3    3.20    2.30
  18  10   3    3.80    2.50
  18  10   3    3.20    2.00
  20 -10   3   -1.40    2.30
  20  10   3   -0.90    2.10
  20  10   3    3.60    2.70
  22 -10   3    7.70    3.30
  22  10   3    9.20    2.90
  22  10   3    3.00    2.90
  24 -10   3    3.00    2.90
  24  10   3   -5.00    2.70
  24  10   3   -1.90    2.40
  27 -11  -3    0.00    2.80
  27  11  -3   -0.30    2.70
  27  11  -3    1.00    2.50
  27  11  -3   -1.20    2.70
  25 -11  -3    9.50    3.10
  25  11  -3    6.30    2.90
  25  11  -3    6.40    2.70
  25  11  -3   10.70    3.30
  23 -11  -3   23.30    3.70
  23  11  -3   20.60    3.50
  23  11  -3   18.20    3.60
  23  11  -3   24.60    3.40
  21 -11  -3   12.40    3.00
  21  11  -3   11.60    2.60
  21  11  -3    8.90    2.90
  21  11  -3    8.60    2.70
  19 -11  -3    1.80    2.00
  19 -11  -3    1.90    1.40
  19  11  -3    0.70    1.90
  19  11  -3   -0.10    2.20
  19  11  -3    1.10    1.90
  17 -11  -3   13.20    1.90
  17 -11  -3    7.00    2.20
  17  11  -3   11.80    2.40
  17  11  -3    8.00    2.50
  17  11  -3   12.90    2.50
  15 -11  -3    0.60    1.70
  15 -11  -3    1.00    1.30
  15  11  -3    0.60    1.60
  15  11  -3   -1.00    1.70
  15  11  -3    2.10    1.80
  13 -11  -3   53.49    3.90
  13  11  -3   44.90    3.80
  13  11  -3   47.30    3.90
  13  11  -3   43.70    3.60
  11 -11  -3    1.70    1.50
  11  11  -3    5.50    1.70
  11  11  -3    2.80    1.50
  11  11  -3    4.10    1.70
  11  11  -3    2.30    1.50
   9 -11  -3  157.18    7.50
   9  11  -3  144.59    7.60
   9  11  -3  153.28    7.60
   9  11  -3  148.19    7.30
   9  11  -3  143.59    7.50
   7 -11  -3    3.40    1.30
   7  11  -3    2.30    1.40
   7  11  -3    4.80    1.50
   7  11  -3    2.70    1.40
   5  11  -3  175.48    8.70
   5  11  -3  183.88    8.60
   5  11  -3  186.88    9.10
  -5  11   3  197.08    8.80
   3  11  -3   38.10    2.70
  -3  11   3   26.20    1.90
   3  11  -3   35.40    2.60
   3  11  -3   32.00    2.70
  -3  11   3   32.70    2.50
   1  11  -3   45.20    3.10
   1  11  -3   46.60    3.30
  -1  11   3   45.00    2.60
  -1  11   3   42.70    3.00
   1  11  -3   44.10    3.10
  -1  11   3   49.40    2.80
  -1  11  -3   10.90    1.80
   1  11   3    8.90    1.50
  -1  11  -3   10.10    1.60
  -1  11  -3   11.10    1.60
   1  11   3    8.50    1.10
   1  11   3    8.80    1.30
   1  11   3    9.80    1.60
   3  11   3   51.59    3.30
  -3  11  -3   56.19    3.60
   3  11   3   47.20    3.20
   3  11   3   53.99    3.30
  -3  11  -3   52.69    3.20
   3  11   3   52.99    2.80
   5  11   3    8.30    1.60
   5  11   3    5.20    1.40
   5  11   3    8.50    1.70
  -5  11  -3    8.10    1.50
   5  11   3    7.30    1.00
  -5  11  -3    9.20    1.70
   5  11   3    9.50    1.70
   7 -11   3   23.50    2.60
   7  11   3   21.80    2.60
   7  11   3   23.00    2.30
   7  11   3   25.80    2.50
   7  11   3   24.40    2.30
   9 -11   3   -0.20    1.40
   9  11   3   -0.90    1.30
   9  11   3    0.30    1.30
   9  11   3    1.10    1.60
   9  11   3    0.50    1.30
  11 -11   3   27.20    3.10
  11  11   3   28.30    2.60
  11  11   3   19.00    2.90
  11  11   3   20.10    2.40
  11  11   3   22.50    2.50
  13 -11   3    7.40    2.20
  13  11   3    6.10    1.80
  13  11   3    2.50    1.70
  13  11   3    3.50    2.10
  13  11   3    8.00    1.90
  15 -11   3    6.50    2.40
  15  11   3    6.80    2.00
  15  11   3    5.60    2.00
  15  11   3    5.60    1.90
  15  11   3    7.20    2.40
  17 -11   3    2.00    2.10
  17  11   3    0.40    1.80
  17  11   3    2.90    1.80
  17  11   3   -1.90    2.20
  19 -11   3    3.20    2.70
  19  11   3    4.10    2.80
  19  11   3    3.10    2.30
  21 -11   3    2.30    2.80
  21  11   3    2.20    2.90
  21  11   3   -0.60    2.40
  23 -11   3    6.40    3.30
  23  11   3    3.30    2.70
  23  11   3   -1.90    2.80
  26 -12  -3    1.00    2.80
  26  12  -3    1.50    2.80
  26  12  -3    3.00    2.70
  26  12  -3    4.30    3.00
  24 -12  -3    0.50    2.70
  24  12  -3    4.00    3.00
  24  12  -3    1.60    2.50
  24  12  -3    2.60    2.80
  22 -12  -3   14.60    3.30
  22  12  -3   12.40    3.30
  22  12  -3   13.80    3.10
  22  12  -3   16.30    3.10
  20 -12  -3   38.40    4.10
  20  12  -3   21.20    3.60
  20  12  -3   27.90    3.60
  20  12  -3   31.20    3.70
  18 -12  -3    3.50    2.20
  18  12  -3    6.70    2.40
  18  12  -3    5.30    2.30
  18  12  -3    0.10    2.20
  16 -12  -3   13.00    2.50
  16 -12  -3   15.10    2.00
  16  12  -3   13.40    2.60
  16  12  -3   14.30    2.90
  16  12  -3   12.80    2.60
  14 -12  -3   32.20    3.40
  14  12  -3   33.10    3.40
  14  12  -3   32.70    3.40
  14  12  -3   32.60    3.40
  12 -12  -3   52.99    4.10
  12  12  -3   57.59    4.20
  12  12  -3   57.29    4.20
  12  12  -3   59.79    4.30
  10 -12  -3   14.60    2.20
  10  12  -3   16.00    2.30
  10  12  -3   17.00    2.30
  10  12  -3   15.20    2.30
   8 -12  -3    8.80    1.80
   8  12  -3   10.50    2.10
   8  12  -3   13.60    2.10
   8  12  -3   14.10    2.10
   6  12  -3    5.70    1.70
   6  12  -3    1.60    1.50
   6  12  -3    6.50    1.70
   4  12  -3   16.40    2.20
   4  12  -3   16.10    2.20
   4  12  -3   17.20    2.10
  -4  12   3   22.50    2.10
   2  12  -3    6.50    1.60
   2  12  -3   10.70    1.80
   2  12  -3    6.40    1.60
  -2  12   3    7.50    1.50
   0  12  -3   26.50    2.40
   0  12   3   25.00    2.50
   0  12   3   28.70    2.40
   0  12  -3   24.00    2.60
   0  12  -3   20.50    2.30
   2  12   3   14.40    1.90
  -2  12  -3   11.50    1.80
  -2  12  -3   15.30    2.10
   2  12   3   13.30    1.90
  -4  12  -3    1.30    1.30
   4  12   3    1.20    1.30
   4  12   3    3.90    1.40
   4  12   3    1.70    1.40
  -4  12  -3    2.60    1.50
   6  12   3    7.60    1.70
   6  12   3    9.80    1.80
   6  12   3    6.60    1.80
   6  12   3   10.70    1.90
  -6  12  -3    9.90    1.70
   8 -12   3    2.60    1.70
   8  12   3    2.50    1.60
   8  12   3    3.10    1.50
   8  12   3    4.50    1.70
   8  12   3    4.60    1.60
  10 -12   3    0.50    1.60
  10  12   3    0.40    1.80
  10  12   3    1.80    1.60
  10  12   3   -0.60    1.40
  10  12   3    2.40    1.50
  12 -12   3   12.70    2.50
  12  12   3   11.40    2.10
  12  12   3   10.00    2.10
  12  12   3   10.60    2.70
  12  12   3   11.40    2.20
  14 -12   3   18.50    3.10
  14  12   3   14.80    2.50
  14  12   3   14.50    2.40
  14  12   3   17.20    3.20
  14  12   3   16.10    2.40
  16 -12   3    7.30    2.60
  16  12   3    6.00    2.70
  16  12   3    2.90    2.00
  16  12   3    6.40    2.20
  18 -12   3   12.30    3.00
  18  12   3   16.50    2.90
  18  12   3   11.50    3.30
  20 -12   3   -1.40    2.70
  20  12   3   -1.10    2.20
  20  12   3    3.60    3.10
  22 -12   3   10.90    3.60
  22  12   3    7.60    2.80
  22  12   3    8.60    3.50
  25 -13  -3    4.70    3.10
  25  13  -3    6.70    3.10
  25  13  -3    3.70    3.00
  25  13  -3    5.00    3.00
  23 -13  -3    7.10    3.10
  23  13  -3    3.50    2.80
  23  13  -3    7.60    3.10
  23  13  -3    5.70    2.90
  21 -13  -3   18.20    3.50
  21  13  -3   15.20    3.20
  21  13  -3    6.60    2.90
  21  13  -3   18.80    3.50
  19 -13  -3   27.90    3.70
  19  13  -3   27.10    3.60
  19  13  -3   23.00    3.80
  19  13  -3   31.40    3.80
  17 -13  -3   22.40    3.20
  17  13  -3   20.90    3.10
  17  13  -3   20.40    3.10
  15 -13  -3    5.20    2.30
  15  13  -3    4.20    2.20
  15  13  -3    7.60    2.30
  13 -13  -3   66.69    4.80
  13  13  -3   66.59    4.80
  13  13  -3   64.39    4.60
  13  13  -3   64.29    4.70
  11 -13  -3    0.50    1.60
  11  13  -3   -2.90    1.50
  11  13  -3    3.90    2.00
  11  13  -3    1.40    1.80
   9 -13  -3   43.00    3.50
   9  13  -3   40.40    3.50
   9  13  -3   41.10    3.70
   9  13  -3   37.60    3.50
   7 -13  -3    2.90    1.50
   7  13  -3    4.30    1.70
   7  13  -3    4.90    1.90
   7  13  -3    5.70    1.90
   5  13  -3   23.00    2.60
  -5  13   3   19.10    2.20
   5  13  -3   23.10    2.60
   5  13  -3   22.70    2.70
   3  13  -3    4.30    1.60
   3  13  -3    0.90    1.50
   3  13  -3    2.10    1.50
  -3  13   3    0.70    1.30
  -1  13   3   72.39    4.30
   1  13  -3   72.39    4.40
   1  13  -3   67.09    4.40
   1  13  -3   75.79    4.70
  -1  13  -3    2.20    1.50
   1  13   3    3.40    1.50
  -1  13  -3    6.60    1.70
   1  13   3    2.00    1.40
  -1  13  -3    5.50    1.70
  -3  13  -3   33.60    3.30
   3  13   3   34.50    2.90
  -3  13  -3   37.40    3.00
   3  13   3   33.10    3.00
   5  13   3   -1.80    1.40
   5  13   3    0.10    1.40
  -5  13  -3    0.90    1.60
  -5  13  -3   -1.20    1.30
   5  13   3    1.40    1.50
   7 -13   3   21.50    2.80
   7  13   3   30.10    2.90
   7  13   3   28.10    2.70
  -7  13  -3   24.50    2.60
   7  13   3   30.00    2.90
   9 -13   3    6.20    2.10
   9  13   3    3.80    1.80
   9  13   3    6.30    2.20
  -9  13  -3    3.70    1.70
   9  13   3    7.80    2.00
   9  13   3    6.20    1.80
  11 -13   3   40.40    4.00
  11  13   3   44.20    3.50
  11  13   3   38.70    3.50
  11  13   3   31.70    3.80
  11  13   3   40.50    3.60
  13 -13   3   10.40    2.60
  13  13   3   10.30    2.40
  13  13   3   14.30    2.40
  13  13   3   16.70    2.60
  13  13   3   11.80    2.90
  15 -13   3   21.20    3.30
  15  13   3   19.40    2.80
  15  13   3   24.30    3.00
  15  13   3   23.60    3.10
  15  13   3   22.00    3.50
  17 -13   3    3.20    2.50
  17  13   3    2.80    2.20
  17  13   3    3.50    2.70
  17  13   3   -1.90    2.00
  19 -13   3   12.70    3.30
  19  13   3    9.30    3.20
  19  13   3    6.70    2.70
  21 -13   3   -0.70    2.90
  21  13   3    1.00    2.60
  21  13   3    0.90    2.90
  24 -14  -3   -1.50    2.90
  24  14  -3    2.90    3.10
  24  14  -3    6.20    3.00
  22 -14  -3    1.40    2.70
  22  14  -3    4.50    2.80
  22  14  -3    2.20    2.70
  20 -14  -3    7.30    2.90
  20  14  -3   -0.10    2.40
  20  14  -3    8.50    2.80
  18 -14  -3    6.70    2.60
  18  14  -3    7.70    2.70
  18  14  -3    8.30    2.70
  16 -14  -3    8.30    2.50
  16  14  -3    0.40    2.20
  16  14  -3    3.50    2.40
  14 -14  -3   -3.60    1.80
  14  14  -3    2.00    2.10
  14  14  -3   -0.70    2.10
  14  14  -3    1.80    2.10
  12 -14  -3    5.10    2.10
  12  14  -3    4.40    2.20
  12  14  -3    7.40    2.10
  12  14  -3    5.30    2.10
  10 -14  -3    7.60    2.00
  10  14  -3    3.30    2.00
  10  14  -3    4.90    2.00
  10  14  -3    5.60    2.10
   8 -14  -3   17.30    2.40
   8  14  -3   18.50    2.60
   8  14  -3   16.40    2.60
   8  14  -3   16.50    2.60
   6  14  -3    9.40    2.20
   6  14  -3    6.60    2.00
   6  14  -3    8.20    2.10
   4  14  -3   22.30    2.80
  -4  14   3   29.30    2.70
   4  14  -3   27.50    2.90
   4  14  -3   24.10    2.90
  -2  14   3    1.20    1.40
   2  14  -3    0.40    1.60
   2  14  -3    1.90    1.60
   2  14  -3    1.50    1.80
   0  14  -3    5.70    1.90
   0  14  -3    7.50    2.10
   0  14   3    9.60    1.80
   0  14  -3    6.40    1.80
   0  14   3    9.70    2.10
  -2  14  -3   52.99    4.00
   2  14   3   58.59    4.00
   2  14   3   59.19    4.10
  -2  14  -3   58.09    4.10
  -2  14  -3   63.29    4.40
  -4  14  -3   20.30    2.50
   4  14   3   20.30    2.70
  -4  14  -3   19.20    2.70
   4  14   3   26.20    2.60
   4  14   3   21.80    2.70
   6  14   3    5.60    1.80
   6  14   3    6.10    1.90
  -6  14  -3    6.60    1.90
   6  14   3    4.60    1.90
   8 -14   3   12.90    2.60
   8  14   3   11.90    2.30
   8  14   3   14.90    2.40
  -8  14  -3   17.20    2.40
   8  14   3   14.70    2.30
  10 -14   3   -1.20    1.80
  10  14   3   -0.90    1.70
  10  14   3   -2.40    1.70
  10  14   3    1.10    1.80
 -10  14  -3   -2.60    1.50
  12 -14   3    7.80    2.40
  12  14   3    6.10    2.10
  12  14   3    5.40    2.20
  12  14   3    5.40    2.20
  14 -14   3   18.10    3.30
  14  14   3   19.20    3.00
  14  14   3   19.70    3.00
  14  14   3   23.60    3.10
  16 -14   3   -2.80    2.40
  16  14   3    1.20    2.10
  16  14   3    1.00    2.20
  16  14   3   -1.60    2.50
  16  14   3   -2.50    1.90
  18 -14   3    3.40    2.70
  18  14   3    1.10    2.80
  18  14   3   -0.70    2.30
  20 -14   3    4.10    3.00
  20  14   3   -0.60    2.50
  20  14   3   -0.80    2.80
  21 -15  -3   23.80    3.90
  21  15  -3   11.40    3.40
  21  15  -3   22.00    3.70
  19 -15  -3   17.30    3.30
  19  15  -3   10.30    3.20
  19  15  -3   17.40    3.30
  17 -15  -3   18.30    3.20
  17  15  -3   14.00    3.10
  17  15  -3   13.80    3.10
  15 -15  -3   35.90    4.00
  15  15  -3   33.90    3.90
  15  15  -3   32.10    3.90
  13 -15  -3   23.30    3.10
  13  15  -3   21.70    3.10
  13  15  -3   20.40    3.10
  13  15  -3   17.80    3.10
  11 -15  -3   37.00    3.70
  11  15  -3   36.60    3.80
  11  15  -3   32.80    3.60
  11  15  -3   36.10    3.80
   9 -15  -3   10.40    2.20
   9  15  -3    5.60    2.20
   9  15  -3   10.00    2.40
   9  15  -3    8.40    2.40
   7 -15  -3    1.10    1.70
   7  15  -3    0.20    1.80
   7  15  -3   -0.30    1.80
   7  15  -3    1.50    1.90
   5  15  -3    2.40    1.90
  -5  15   3    3.20    1.70
   5  15  -3    4.20    2.00
   5  15  -3    1.30    1.90
   3  15  -3   10.80    2.40
   3  15  -3   10.10    2.30
  -3  15   3   10.00    2.00
   3  15  -3    9.20    2.20
   1  15  -3   33.40    3.20
   1  15  -3   29.20    3.30
  -1  15   3   31.90    3.00
   1  15  -3   23.50    2.90
  -1  15   3   29.10    3.00
  -1  15  -3    2.40    1.80
   1  15   3   -0.20    1.60
  -1  15  -3    4.60    2.00
  -1  15  -3   -0.80    1.60
   1  15   3    3.40    1.80
   3  15   3   13.70    2.30
   3  15   3   12.80    2.30
  -3  15  -3   12.70    2.40
  -3  15  -3   14.50    2.40
  -3  15  -3   13.40    2.30
   5  15   3   -0.60    1.60
   5  15   3   -0.30    1.80
  -5  15  -3   -0.80    1.60
   5  15   3    0.40    1.80
  -5  15  -3    1.70    1.90
   7 -15   3    5.30    2.20
  -7  15  -3    0.50    1.70
   7  15   3    3.90    2.10
   7  15   3    1.10    1.90
   7  15   3    0.10    1.70
   9 -15   3   13.10    2.70
  -9  15  -3   11.20    2.30
   9  15   3    9.80    2.40
   9  15   3   11.70    2.40
   9  15   3   10.10    2.20
  11 -15   3   13.80    3.00
  11  15   3   21.20    3.00
  11  15   3   20.90    2.90
 -11  15  -3   15.90    2.50
  11  15   3   18.70    2.90
  13 -15   3    2.30    2.50
  13  15   3    3.20    2.30
  13  15   3    2.50    2.20
  13  15   3    2.80    2.20
  15 -15   3   23.90    4.00
  15  15   3   22.00    3.30
  15  15   3   24.70    3.30
  15  15   3   28.40    3.50
  17 -15   3    0.30    2.70
  17  15   3    2.20    2.50
  17  15   3   -3.10    2.20
  19 -15   3   15.00    3.70
  19  15   3   22.10    3.60
  20  16  -3    7.00    3.20
  20  16  -3    4.10    2.90
  18  16  -3   15.40    3.30
  18  16  -3   14.80    3.40
  16  16  -3    5.80    2.80
  16  16  -3    7.20    2.70
  14 -16  -3    7.60    2.80
  14  16  -3    8.50    2.90
  14  16  -3    6.10    2.60
  14  16  -3    1.40    2.40
  12 -16  -3   12.80    2.70
  12  16  -3   12.60    2.80
  12  16  -3    9.70    2.80
  12  16  -3   15.70    3.00
  10 -16  -3   34.80    3.40
  10  16  -3   19.20    3.10
  10  16  -3   22.50    3.20
  10  16  -3   17.10    3.00
   8 -16  -3    5.00    2.10
   8  16  -3    3.70    2.30
   8  16  -3    0.20    2.00
   8  16  -3    1.80    2.00
   6  16  -3   21.90    3.10
   6  16  -3   27.40    3.30
   6  16  -3   27.80    3.30
   4  16  -3    2.40    2.10
   4  16  -3   -0.60    1.80
  -4  16   3    1.50    1.90
   4  16  -3    4.80    2.10
  -2  16   3   -0.90    1.70
   2  16  -3    1.50    1.90
   2  16  -3    1.40    2.00
  -2  16   3    4.30    2.00
   2  16  -3    2.20    2.10
   0  16   3    3.20    1.90
   0  16  -3    2.50    2.00
   0  16  -3    4.90    2.10
   0  16   3    4.70    2.00
   0  16  -3    1.20    1.70
   2  16   3    3.70    2.00
   2  16   3    7.50    2.10
  -2  16  -3    6.10    2.30
  -2  16  -3    6.30    2.10
  -2  16  -3    3.40    2.00
   4  16   3    6.00    2.20
  -4  16  -3   -0.50    1.90
   4  16   3    2.30    2.10
  -4  16  -3    3.20    1.80
  -4  16  -3    1.10    2.00
   4  16   3    5.80    2.00
   6 -16   3    0.20    2.00
   6  16   3    3.10    1.90
  -6  16  -3   -1.30    1.70
   6  16   3   -0.90    1.90
   6  16   3    1.60    2.00
   8 -16   3    7.10    2.50
  -8  16  -3    2.20    1.90
   8  16   3    1.50    2.00
   8  16   3   -2.20    1.90
   8  16   3   -1.10    2.00
  10 -16   3   -0.20    2.20
  10  16   3    1.20    2.20
  10  16   3    0.50    2.10
  10  16   3   -0.80    2.00
 -10  16  -3    0.80    1.90
  12 -16   3    6.90    2.90
  12  16   3    2.00    2.30
 -12  16  -3   -0.40    2.00
  12  16   3    2.00    2.40
  14 -16   3    4.20    2.90
  14  16   3   -0.60    2.50
  14  16   3    4.80    2.60
  16 -16   3    3.80    3.00
  16  16   3    6.30    2.80
  16  16   3    2.00    2.60
  18 -16   3    8.60    3.50
  19  17  -3    1.80    2.80
  19  17  -3    3.60    3.10
  17  17  -3    7.40    3.00
  17  17  -3    5.20    2.80
  15  17  -3   -0.20    2.60
  15  17  -3    1.50    2.40
  13  17  -3    0.70    2.40
  13  17  -3    2.10    2.60
  13  17  -3    1.40    2.60
  11  17  -3    4.70    2.40
  11  17  -3    3.50    2.40
  11  17  -3    3.50    2.50
   9  17  -3   18.90    3.10
   9  17  -3   16.80    3.20
   9  17  -3   19.60    3.10
   7  17  -3   -0.60    2.20
   7  17  -3    2.30    2.30
   7  17  -3    1.20    2.20
  -5  17   3   24.10    3.00
   5  17  -3   21.50    3.20
   5  17  -3   21.80    3.20
   5  17  -3   17.60    3.00
   3  17  -3    9.40    2.50
   3  17  -3    8.60    2.50
   3  17  -3   13.30    2.80
  -3  17   3    9.60    2.40
   1  17  -3    5.00    2.30
  -1  17   3    1.00    2.00
   1  17  -3   -2.40    1.80
   1  17  -3    3.70    2.20
   1  17   3    8.50    2.50
  -1  17  -3    7.90    2.40
  -1  17  -3    8.90    2.30
  -1  17  -3    6.60    2.50
  -3  17  -3    3.80    2.10
   3  17   3    5.50    2.30
  -3  17  -3   11.00    2.50
   3  17   3    5.20    2.40
  -3  17  -3    9.80    2.60
   5  17   3   14.90    2.80
  -5  17  -3   11.50    2.70
   5  17   3   10.10    2.60
  -5  17  -3   11.00    2.60
  -5  17  -3    9.40    2.30
   7 -17   3    6.20    2.60
   7  17   3    8.80    2.50
  -7  17  -3    5.50    2.30
   7  17   3    5.00    2.50
   9 -17   3   10.60    2.90
   9  17   3    5.50    2.60
  -9  17  -3   10.10    2.60
   9  17   3   10.90    2.80
  11 -17   3    5.70    2.70
 -11  17  -3    2.50    2.20
  11  17   3    2.50    2.50
  11  17   3    1.70    2.30
  13 -17   3    8.30    3.10
  13  17   3    4.90    2.60
  13  17   3    3.00    2.50
  15 -17   3    3.10    2.90
  15  17   3   -2.50    2.50
  15  17   3   -0.20    2.60
  16  18  -3    1.20    2.80
  16  18  -3    7.00    2.90
  14  18  -3   -0.20    2.60
  14  18  -3    3.60    2.80
  14  18  -3    4.10    2.60
  12  18  -3    3.50    2.70
  12  18  -3    4.70    2.60
  12  18  -3    5.20    2.80
  10  18  -3    0.70    2.40
  10  18  -3   -0.80    2.30
  10  18  -3    0.60    2.50
   8  18  -3    8.50    2.80
   8  18  -3    5.10    2.60
   8  18  -3    2.30    2.40
   6  18  -3   -2.50    2.30
  -6  18   3    2.20    2.20
   6  18  -3   -1.00    2.20
   6  18  -3    1.50    2.30
  -4  18   3   13.50    2.70
   4  18  -3   16.40    3.10
   4  18  -3    9.60    2.70
   4  18  -3   13.10    2.80
   2  18  -3   -1.40    2.20
   2  18  -3    1.80    2.40
  -2  18   3   -1.80    1.90
   2  18  -3    0.40    2.10
   0  18   3   26.70    3.30
   0  18  -3   26.80    3.60
   0  18  -3   29.00    3.50
  -2  18  -3    0.70    2.10
  -2  18  -3    1.60    2.10
   2  18   3   -0.60    2.00
  -2  18  -3    2.30    2.20
   2  18   3    2.80    2.20
   4  18   3    9.60    2.70
  -4  18  -3    7.70    2.30
  -4  18  -3    9.30    2.70
  -4  18  -3   16.90    3.00
   4  18   3    9.60    2.70
   6 -18   3    0.80    2.30
   6  18   3    1.40    2.30
  -6  18  -3   -3.20    2.10
   6  18   3   -0.60    2.30
  -6  18  -3   -2.00    1.90
   8 -18   3   18.50    3.30
   8  18   3   17.70    3.10
  -8  18  -3   11.70    2.70
   8  18   3   13.30    2.90
  10 -18   3    1.80    2.50
 -10  18  -3    3.10    2.30
  10  18   3   -0.30    2.40
  10  18   3    0.90    2.50
  12 -18   3    5.40    3.10
  12  18   3    3.00    2.70
  12  18   3    2.50    2.60
 -12  18  -3    0.80    2.40
  13  19  -3    5.70    3.20
  13  19  -3    1.90    2.90
  13  19  -3   -0.10    2.50
  11  19  -3    1.90    2.80
  11  19  -3    0.90    2.50
  11  19  -3    3.70    2.80
   9  19  -3    2.20    2.70
   9  19  -3   -0.30    2.60
   9  19  -3    4.40    2.60
   7  19  -3    4.00    2.70
   7  19  -3    2.70    2.50
   7  19  -3    4.60    2.70
  -7  19   3    8.80    2.60
  -5  19   3    3.40    2.30
   5  19  -3    3.20    2.60
   5  19  -3   -3.00    2.20
   5  19  -3    3.10    2.70
   3  19  -3    5.40    2.70
  -3  19   3    1.30    2.20
   3  19  -3   -2.20    2.10
   3  19  -3    5.80    2.70
  -1  19   3    1.00    2.20
   1  19  -3    2.90    2.50
   1  19  -3   -0.90    2.30
   1  19  -3   -0.70    2.30
  -1  19  -3    0.50    2.40
  -1  19  -3    0.30    2.10
   1  19   3   -0.20    2.30
   1  19   3    2.30    2.30
  -1  19  -3    0.60    2.30
  -3  19  -3    0.50    2.30
  -3  19  -3    0.70    2.50
  -3  19  -3   -0.90    2.10
   3  19   3    0.50    2.40
   3  19   3   -0.80    2.30
  -5  19  -3    2.60    2.40
   5  19   3    5.80    2.60
   5  19   3    2.40    2.40
  -5  19  -3   -0.40    2.10
   7 -19   3    0.40    2.70
  -7  19  -3   -1.00    2.00
  -7  19  -3   -3.40    2.10
   7  19   3   -0.40    2.50
   7  19   3    4.10    2.60
   9 -19   3    6.10    3.00
  -9  19  -3   -1.80    2.00
  -9  19  -3    0.70    2.40
   9  19   3    1.80    2.60
   9  19   3    4.60    2.70
  -8  20   3   16.30    3.20
   8  20  -3   16.20    3.40
   8  20  -3   20.40    3.60
   8  20  -3   14.90    3.50
   6  20  -3    1.30    2.60
  -6  20   3    3.60    2.50
   6  20  -3   -1.90    2.50
   6  20  -3    1.80    2.80
   4  20  -3   12.50    3.10
  -4  20   3    9.40    2.80
   4  20  -3   13.20    3.30
   4  20  -3   10.80    3.10
  -2  20   3    3.60    2.60
   2  20  -3   -3.30    2.40
   2  20  -3   -3.10    2.30
   2  20  -3   -0.10    2.40
   0  20   3    8.80    2.80
   0  20  -3    9.50    2.80
   0  20  -3   10.50    3.10
   0  20  -3   13.20    3.00
   0  20   3    6.20    2.70
  -2  20  -3    0.40    2.70
  -2  20  -3    0.20    2.50
  -2  20  -3   -0.40    2.30
   2  20   3    2.20    2.60
   2  20   3   -2.40    2.30
  -4  20  -3    9.70    2.90
  -4  20  -3    9.40    2.90
   4  20   3    5.80    2.80
   4  20   3    2.40    2.70
  -4  20  -3    9.40    2.80
   6 -20   3    1.00    2.60
  -6  20  -3    0.30    2.20
   6  20   3    3.50    2.80
  -6  20  -3    3.60    2.70
   6  20   3   -1.10    2.50
  32   0  -4   52.19    5.70
  32   0  -4   53.39    5.40
  30   0  -4    7.10    2.90
  30   0  -4    6.90    2.70
  28   0  -4   61.79    5.10
  28   0  -4   48.00    4.90
  28   0  -4   53.29    4.20
  26   0  -4   -0.60    2.00
  26   0  -4   -0.90    2.00
  26   0  -4    1.40    1.60
  24   0  -4   19.20    2.80
  24   0  -4    9.70    2.50
  24   0  -4   11.40    2.10
  22   0  -4    2.40    1.40
  22   0  -4    1.60    1.60
  22   0  -4    2.00    1.80
  20   0  -4   24.00    2.70
  20   0  -4   22.70    2.40
  20   0  -4   25.70    3.00
  18   0  -4   37.90    2.80
  18   0  -4   40.20    3.40
  18   0  -4   39.10    3.10
  16   0  -4  220.18   10.10
  16   0  -4  207.88    9.60
  16   0  -4  206.58   10.50
  14   0  -4    5.10    1.10
  14   0  -4    4.00    1.30
  14   0  -4    3.70    1.10
 -14   0   4    4.10    0.70
  12   0  -4 1531.35   66.39
 -12   0   4 1551.44   64.59
  12   0  -4 1538.85   64.09
  12   0  -4 1550.64   69.29
 -12   0   4 1540.45   64.59
  10   0  -4  745.63   32.60
  10   0  -4  775.32   34.10
 -10   0   4  760.52   31.60
  10   0  -4  729.83   31.50
   8   0  -4  113.79    5.50
   8   0  -4  122.09    5.80
   8   0  -4  118.99    5.40
   6   0  -4   88.29    4.50
   6   0  -4   93.89    4.30
   6   0  -4   88.09    4.20
   4   0  -4  996.00   43.10
   4   0  -4  935.41   41.10
   4   0  -4  950.30   39.80
   2   0  -4   64.49    3.30
   0   0   4 9980.90  426.56
   0   0  -4 9999.00  446.06
   2   0   4 7045.29  303.97
   2   0   4 6607.04  291.47
   4   0   4  351.16   15.50
   4   0   4  335.17   14.30
   4   0   4  323.87   14.80
   6   0   4  158.48    7.10
   6   0   4  154.48    7.50
   6   0   4  173.08    7.90
   8   0   4  387.56   17.40
   8   0   4  357.16   16.70
   8   0   4  382.06   16.20
  10   0   4   25.90    2.40
  10   0   4   25.90    2.20
  10   0   4   23.60    1.80
  12   0   4  612.94   28.20
  12   0   4  646.54   29.40
  12   0   4  654.53   27.30
  14   0   4  104.09    6.10
  14   0   4  104.39    5.30
  14   0   4  105.19    5.80
  16   0   4   24.20    2.90
  16   0   4   25.50    2.30
  16   0   4   24.40    2.70
  18   0   4    6.50    2.20
  18   0   4    6.20    1.50
  18   0   4    8.20    2.00
  20   0   4   24.10    3.60
  20   0   4   29.90    2.70
  20   0   4   31.30    3.40
  22   0   4    6.90    2.40
  22   0   4    2.30    2.40
  24   0   4   -1.20    2.20
  24   0   4    1.30    2.70
  26   0   4   48.20    4.90
  26   0   4   43.70    5.30
  28   0   4   18.50    4.10
  28   0   4   18.90    3.70
  31  -1  -4   -0.90    2.50
  31  -1  -4    0.80    2.70
  31   1  -4   -0.60    2.50
  31   1  -4    1.50    2.70
  29  -1  -4    0.50    2.40
  29  -1  -4   -0.20    2.20
  29   1  -4    0.60    1.90
  29   1  -4    2.10    2.30
  29   1  -4    0.10    2.40
  27  -1  -4    3.20    2.40
  27  -1  -4    0.30    2.00
  27   1  -4    3.70    2.30
  27   1  -4    0.90    2.10
  27   1  -4   -1.00    1.70
  25  -1  -4    0.70    2.00
  25  -1  -4    1.00    1.60
  25  -1  -4    1.20    2.00
  25   1  -4    0.90    1.60
  25   1  -4   -0.10    1.80
  25   1  -4    0.60    1.90
  23  -1  -4    0.60    1.40
  23  -1  -4   -3.10    1.60
  23  -1  -4   -1.30    1.50
  23   1  -4    1.40    1.50
  23   1  -4    0.80    1.60
  23   1  -4   -0.70    1.80
  21  -1  -4    3.50    1.80
  21  -1  -4    0.90    1.40
  21  -1  -4    1.30    1.70
  21   1  -4    3.20    1.70
  21   1  -4    1.40    1.70
  21   1  -4    4.40    1.50
  19  -1  -4    0.90    1.30
  19  -1  -4    2.30    1.20
  19  -1  -4    0.10    1.40
  19   1  -4    0.10    1.30
  19   1  -4    3.10    1.30
  19   1  -4    1.90    1.40
  17  -1  -4    1.90    1.10
  17  -1  -4    1.30    1.10
  17  -1  -4    0.00    1.10
  17   1  -4    0.60    1.30
  17   1  -4    1.00    1.10
  17   1  -4    3.90    1.10
 -15  -1   4    0.00    0.50
  15  -1  -4    1.40    1.10
  15  -1  -4    0.00    0.90
  15  -1  -4    2.10    1.00
  15   1  -4    0.50    1.00
  15   1  -4    1.40    1.10
  15   1  -4    1.10    0.90
 -15   1   4    0.90    0.60
 -13  -1   4    0.80    0.60
  13  -1  -4    0.30    0.90
 -13  -1   4   -0.30    0.40
  13  -1  -4   -0.40    0.80
  13  -1  -4    0.40    0.80
  13   1  -4    0.00    0.80
 -13   1   4    0.10    0.50
  13   1  -4   -0.80    0.80
  13   1  -4   -0.40    0.90
  11  -1  -4    1.00    0.80
  11  -1  -4    2.60    0.90
  11  -1  -4    1.40    0.80
 -11   1   4    1.80    0.50
 -11   1   4    0.80    0.60
  11   1  -4    1.20    0.90
  11   1  -4    1.10    0.80
  11   1  -4    1.50    0.80
   9  -1  -4    0.20    0.70
   9  -1  -4    1.30    0.70
   9  -1  -4    0.20    0.50
   9   1  -4    0.30    0.70
  -9   1   4    1.60    0.50
   9   1  -4    1.40    0.70
   9   1  -4    1.00    0.70
  -9   1   4    1.80    0.40
   7  -1  -4    1.10    0.50
   7  -1  -4    0.20    0.60
   7  -1  -4    0.70    0.60
   7   1  -4    0.60    0.50
   7   1  -4   -0.20    0.60
   7   1  -4   -0.70    0.50
   5  -1  -4    1.10    0.60
   5  -1  -4    2.90    0.50
   5  -1  -4    1.70    0.60
   5   1  -4    1.50    0.60
   5   1  -4    1.10    0.60
   3  -1  -4    0.20    0.50
   3   1  -4    0.90    0.40
   3   1  -4    0.10    0.50
   1  -1  -4    2.90    0.60
   1   1  -4    2.00    0.50
   1   1  -4    3.60    0.50
  -1  -1  -4    1.30    0.60
   1  -1   4    0.70    0.50
   1  -1   4    0.10    0.50
   1   1   4    2.10    0.70
   1   1   4    0.80    0.30
   1   1   4    1.80    0.50
  -1   1  -4    0.00    0.50
   3  -1   4    7.80    0.90
   3  -1   4    5.80    0.80
   3   1   4    8.70    0.70
   3   1   4    7.40    1.00
   3   1   4    8.80    0.90
   5  -1   4    0.60    0.60
   5  -1   4    0.20    0.60
   5   1   4    1.40    0.60
   5   1   4    0.90    0.70
   5   1   4    0.30    0.60
   7  -1   4    1.90    0.80
  -7  -1  -4    2.10    0.50
   7  -1   4    0.40    0.50
   7  -1   4    1.60    0.80
   7   1   4    1.90    0.80
   7   1   4    1.90    0.80
   7   1   4    1.50    0.70
   9  -1   4    2.10    1.00
   9  -1   4    0.60    0.60
   9  -1   4    1.10    0.90
   9   1   4    0.90    0.90
   9   1   4    1.30    0.80
   9   1   4    1.50    0.90
  11  -1   4    1.00    1.10
  11  -1   4    1.90    1.10
  11  -1   4   -0.30    0.70
  11   1   4    1.60    0.90
  11   1   4    2.60    1.10
  11   1   4   -0.30    1.00
  13  -1   4    3.80    1.40
  13  -1   4    1.50    0.90
  13  -1   4    1.40    1.20
  13   1   4    3.20    1.00
  13   1   4    0.70    1.30
  13   1   4    3.40    1.30
  15  -1   4    0.20    1.30
  15  -1   4   -0.40    1.00
  15  -1   4    1.20    1.50
  15   1   4    2.20    1.40
  15   1   4    1.40    1.10
  15   1   4    0.20    1.50
  17  -1   4    0.60    1.70
  17  -1   4    2.20    1.20
  17  -1   4    0.80    1.50
  17   1   4    0.00    1.50
  17   1   4   -0.10    1.10
  17   1   4   -1.40    1.60
  19  -1   4    0.40    1.20
  19  -1   4    2.20    2.10
  19  -1   4    0.10    1.70
  19   1   4    1.00    1.70
  19   1   4   -1.60    1.80
  19   1   4   -0.40    1.20
  21  -1   4    1.80    2.10
  21  -1   4    2.20    2.40
  21   1   4    1.80    1.90
  21   1   4    2.90    1.50
  21   1   4    2.40    2.30
  23  -1   4    0.50    2.40
  23  -1   4    1.00    2.10
  23   1   4    0.00    2.10
  23   1   4    0.10    2.30
  25  -1   4   -4.00    2.10
  25  -1   4   -0.60    2.60
  25   1   4    2.50    2.30
  25   1   4   -3.90    2.30
  27  -1   4   -0.40    2.80
  27  -1   4   -1.30    2.60
  27   1   4   -0.40    2.50
  27   1   4    4.00    3.10
  32  -2  -4   22.70    4.20
  32  -2  -4   28.00    4.20
  32   2  -4   22.70    4.00
  32   2  -4   19.40    3.90
  30  -2  -4   -2.60    2.50
  30  -2  -4    1.00    2.50
  30   2  -4    1.90    2.50
  30   2  -4    4.80    2.80
  30   2  -4    2.60    2.10
  28  -2  -4  118.79    7.50
  28  -2  -4  114.79    7.80
  28   2  -4  118.79    7.50
  28   2  -4  115.09    6.50
  28   2  -4  116.29    7.80
  26  -2  -4    0.70    2.00
  26  -2  -4    7.10    2.50
  26   2  -4    3.60    1.80
  26   2  -4    0.30    2.20
  26   2  -4    4.10    2.30
  24  -2  -4  129.39    7.10
  24  -2  -4  107.59    7.10
  24   2  -4  102.99    7.30
  24   2  -4  127.29    7.10
  24   2  -4  128.09    6.50
  22  -2  -4    3.90    1.90
  22  -2  -4    5.20    1.90
  22   2  -4    5.60    1.90
  22   2  -4    1.10    1.70
  22   2  -4    6.00    1.70
  20  -2  -4  193.28   10.50
  20  -2  -4  217.78   10.20
  20  -2  -4  215.48    9.70
  20   2  -4  218.48    9.70
  20   2  -4  207.68   10.20
  20   2  -4  180.28   10.60
  18  -2  -4    8.80    1.70
  18  -2  -4    9.40    1.60
  18  -2  -4    9.60    1.80
  18   2  -4   10.00    1.60
  18   2  -4    9.60    1.80
  18   2  -4   10.50    2.00
  16  -2  -4  236.78   11.20
  16  -2  -4  247.68   11.70
  16  -2  -4  241.58   10.80
  16   2  -4  227.18   11.80
  16   2  -4  232.68   11.20
  16   2  -4  241.48   10.80
  14  -2  -4   97.39    4.80
  14  -2  -4  100.09    5.20
 -14  -2   4   98.89    4.30
  14  -2  -4   92.69    5.00
 -14   2   4   94.59    4.50
  14   2  -4   93.99    5.00
  14   2  -4   88.89    5.30
  14   2  -4   91.59    4.80
 -12  -2   4  533.95   22.90
  12  -2  -4  519.25   23.10
  12  -2  -4  561.04   24.90
  12  -2  -4  535.15   23.90
  12   2  -4  562.24   23.90
  12   2  -4  543.65   25.00
 -12   2   4  547.75   23.10
  12   2  -4  557.04   23.20
  10  -2  -4    3.90    0.90
  10  -2  -4    6.30    1.10
  10  -2  -4    5.10    0.90
 -10   2   4    6.10    0.70
  10   2  -4    5.80    1.00
  10   2  -4   10.10    1.30
  10   2  -4    6.90    1.00
   8  -2  -4  972.10   43.60
   8  -2  -4  937.01   41.70
  -8   2   4  933.11   40.70
   8   2  -4  953.20   43.60
   8   2  -4 1007.60   40.40
  -8   2   4  994.00   40.70
   8   2  -4  990.40   41.80
   6  -2  -4   20.60    1.60
   6  -2  -4   20.60    1.30
  -6   2   4   20.60    1.20
   6   2  -4   21.80    1.60
   6   2  -4   20.40    1.40
  -6   2   4   22.60    1.20
   6   2  -4   22.40    1.50
   4  -2  -4  329.97   14.50
   4   2  -4  320.57   14.50
   4   2  -4  306.47   13.80
  -4   2   4  311.67   13.30
   4   2  -4  314.07   13.40
   2  -2  -4  146.29    6.90
   2   2  -4  152.08    6.90
  -2   2   4  144.59    6.30
   2   2  -4  143.49    6.60
   0  -2  -4 1181.28   52.99
   0   2   4 1215.18   52.99
   0   2  -4 1172.78   50.79
   0   2  -4 1200.68   52.89
   0   2   4 1150.68   49.60
  -2  -2  -4  392.56   15.70
   2  -2   4  384.86   17.00
   2  -2   4  366.96   16.30
   2   2   4  377.76   17.10
   2   2   4  362.66   16.20
   2   2   4  360.16   15.90
  -4  -2  -4   25.50    1.40
   4  -2   4   26.80    1.70
   4  -2   4   25.70    1.70
   4   2   4   25.10    1.60
   4   2   4   25.80    1.80
   4   2   4   24.70    1.70
   6  -2   4   38.50    2.20
   6  -2   4   35.80    2.20
   6   2   4   29.30    2.20
   6   2   4   37.90    2.10
   6   2   4   34.10    2.30
   8  -2   4   93.29    4.90
   8  -2   4   93.69    4.40
   8  -2   4   84.69    4.70
   8   2   4   91.59    4.80
   8   2   4   99.59    4.60
   8   2   4  100.99    5.10
  10  -2   4   67.39    3.30
  10  -2   4   64.39    3.80
  10  -2   4   62.29    3.70
  10   2   4   61.39    3.40
  10   2   4   69.09    4.00
  10   2   4   62.89    3.70
  12  -2   4   69.99    3.70
  12  -2   4   68.29    4.20
  12  -2   4   69.09    4.30
  12   2   4   74.79    4.50
  12   2   4   75.99    3.90
  12   2   4   64.89    4.10
  14  -2   4  217.58   10.70
  14  -2   4  242.58   10.10
  14  -2   4  221.58   11.20
  14   2   4  222.08   10.70
  14   2   4  217.48   10.10
  14   2   4  210.18   11.20
  16  -2   4   26.00    2.30
  16  -2   4   26.10    3.20
  16  -2   4   27.20    2.90
  16   2   4   25.60    3.30
  16   2   4   27.30    2.90
  16   2   4   29.60    2.50
  18  -2   4   69.69    5.00
  18  -2   4   67.39    4.10
  18  -2   4   64.09    5.10
  18   2   4   62.99    5.20
  18   2   4   69.69    4.10
  18   2   4   71.29    4.70
  20  -2   4   49.80    3.70
  20  -2   4   55.89    4.90
  20  -2   4   53.49    4.60
  20   2   4   64.39    4.60
  20   2   4   54.49    3.70
  20   2   4   47.00    5.00
  22  -2   4   38.10    4.00
  22  -2   4   26.30    3.80
  22   2   4   31.20    2.90
  22   2   4   36.80    3.90
  22   2   4   25.90    4.00
  24  -2   4   46.50    4.70
  24  -2   4   46.60    5.00
  24   2   4   40.60    5.00
  24   2   4   49.30    4.70
  26  -2   4    3.60    2.90
  26  -2   4    0.70    2.60
  26   2   4    0.10    2.70
  26   2   4    5.00    2.80
  28  -2   4   43.50    5.00
  28  -2   4   33.50    4.90
  28   2   4   34.70    4.50
  28   2   4   30.60    4.80
  31  -3  -4   -1.30    2.70
  31  -3  -4   -0.70    2.60
  31   3  -4    2.00    2.60
  31   3  -4    1.60    2.70
  29  -3  -4    0.00    2.40
  29  -3  -4   -4.50    2.30
  29   3  -4    2.70    2.40
  29   3  -4    1.30    1.90
  29   3  -4    1.70    2.50
  27  -3  -4   -2.00    2.00
  27  -3  -4    1.50    2.30
  27   3  -4    0.60    1.80
  27   3  -4    1.10    2.20
  27   3  -4    2.10    2.20
  25  -3  -4   -0.90    2.00
  25  -3  -4   -0.90    1.90
  25   3  -4    3.50    2.30
  25   3  -4    2.80    1.80
  25   3  -4    3.40    2.20
  23  -3  -4   -1.50    1.70
  23  -3  -4    2.80    1.80
  23   3  -4    0.20    1.80
  23   3  -4   -1.60    1.40
  23   3  -4    0.90    1.80
  21  -3  -4    1.60    1.70
  21  -3  -4    2.60    1.60
  21   3  -4    2.30    1.80
  21   3  -4    3.10    1.70
  21   3  -4    1.60    1.40
  19  -3  -4   -2.00    1.10
  19  -3  -4    1.90    1.40
  19   3  -4    2.10    1.40
  19   3  -4    2.00    1.50
  19   3  -4   -1.30    1.40
  17  -3  -4   -0.60    1.20
  17  -3  -4    1.70    1.20
  17   3  -4    1.30    1.40
  17   3  -4    3.70    1.30
  17   3  -4    0.90    1.10
  15  -3  -4    1.50    1.00
  15  -3  -4    1.50    0.60
  15  -3  -4    1.10    0.50
  15  -3  -4    1.00    1.10
 -15  -3   4    0.90    0.50
 -15   3   4    1.10    0.70
  15   3  -4    1.80    1.30
  15   3  -4    2.20    1.10
  15   3  -4    1.90    1.10
  13  -3  -4    3.10    0.50
  13  -3  -4    3.50    0.60
  13  -3  -4    4.40    1.10
 -13  -3   4    5.20    0.50
  13  -3  -4    4.60    1.10
 -13  -3   4    4.40    0.60
  13   3  -4    7.30    1.40
 -13   3   4    5.50    0.80
  13   3  -4    5.30    1.10
  13   3  -4    1.70    1.00
  11  -3  -4    0.60    0.80
  11  -3  -4    1.90    0.80
  11  -3  -4    0.80    0.40
  11   3  -4    1.30    0.90
  11   3  -4   -0.10    0.80
  11   3  -4    0.20    0.80
 -11   3   4    0.40    0.50
   9  -3  -4    1.60    0.70
   9  -3  -4    1.50    0.80
  -9   3   4    0.70    0.50
   9   3  -4    1.60    0.70
   9   3  -4    0.60    0.70
   9   3  -4    1.10    0.80
   7  -3  -4    7.50    0.90
   7  -3  -4    8.70    1.10
  -7   3   4    8.20    0.80
   7   3  -4   10.00    1.10
   7   3  -4   10.00    1.10
   7   3  -4    9.40    1.10
   5  -3  -4    1.20    0.60
   5   3  -4    3.50    0.70
   5   3  -4    2.00    0.70
  -5   3   4    2.60    0.50
   5   3  -4    3.80    0.80
   3  -3  -4   10.20    1.00
   3   3  -4    9.10    0.90
   3   3  -4    9.40    1.00
   3   3  -4    9.10    0.90
  -3   3   4   12.70    0.90
   1  -3  -4    1.40    0.40
   1  -3  -4    1.30    0.60
   1   3  -4    1.90    0.50
  -1   3   4    1.40    0.50
   1   3  -4    1.70    0.60
   1  -3   4    4.70    0.70
  -1  -3  -4    8.30    0.70
   1   3   4    7.90    0.80
  -1   3  -4    5.60    0.80
   1   3   4    5.10    0.90
  -1   3  -4    5.50    0.70
   3  -3   4    0.40    0.50
  -3  -3  -4    2.10    0.60
   3  -3   4    1.70    0.60
   3   3   4    1.00    0.60
   3   3   4    1.90    0.60
   3   3   4    0.90    0.70
   5  -3   4    5.20    0.80
   5  -3   4    5.20    0.90
   5   3   4    7.20    1.00
   5   3   4    5.80    1.00
   5   3   4    5.30    0.90
   7  -3   4    1.10    0.70
   7  -3   4    0.60    0.70
   7   3   4    0.00    0.70
   7   3   4    1.40    0.70
   7   3   4    2.00    0.90
   7   3   4    0.70    0.60
   9  -3   4    4.10    1.00
   9  -3   4    3.10    1.00
   9  -3   4    2.80    0.80
   9   3   4    2.00    0.90
   9   3   4    3.80    0.70
   9   3   4    3.60    1.20
   9   3   4    3.60    0.90
  11  -3   4    2.10    1.20
  11  -3   4    1.20    1.00
  11  -3   4    0.00    0.70
  11   3   4    1.40    1.00
  11   3   4    0.80    1.10
  11   3   4    1.00    0.90
  11   3   4    0.90    0.70
  13  -3   4    1.20    1.20
  13  -3   4    1.90    1.30
  13  -3   4    1.50    0.90
  13   3   4    0.80    1.30
  13   3   4    3.30    1.10
  13   3   4    1.80    1.30
  15  -3   4    2.10    1.00
  15  -3   4    0.40    1.30
  15  -3   4    0.30    1.50
  15   3   4    2.30    1.20
  15   3   4   -1.30    1.20
  15   3   4   -0.30    1.50
  17  -3   4   -2.20    1.50
  17  -3   4   -2.30    1.40
  17  -3   4    0.20    1.10
  17   3   4    1.60    1.50
  17   3   4   -0.90    1.60
  17   3   4    1.30    1.30
  19  -3   4    3.90    1.40
  19  -3   4    3.30    2.10
  19  -3   4    1.60    1.90
  19   3   4    0.20    1.80
  19   3   4   -0.10    2.00
  19   3   4    1.00    1.30
  21  -3   4   -0.20    2.00
  21  -3   4   -0.50    2.10
  21   3   4    0.40    1.40
  21   3   4    3.20    2.50
  21   3   4    1.70    1.90
  23  -3   4    1.60    2.40
  23  -3   4    1.90    2.30
  23   3   4    1.30    2.50
  23   3   4   -0.10    2.10
  25  -3   4    1.50    2.60
  25  -3   4   -0.60    2.40
  25   3   4    0.60    2.70
  25   3   4    3.60    2.50
  27  -3   4   -1.00    2.80
  27  -3   4    1.80    2.90
  27   3   4    1.70    2.50
  27   3   4    0.90    2.90
  30  -4  -4    1.00    2.60
  30  -4  -4   -3.20    2.50
  30   4  -4    3.70    2.90
  30   4  -4    1.00    2.10
  30   4  -4    1.50    2.40
  28  -4  -4   32.80    4.00
  28  -4  -4   29.00    3.90
  28   4  -4   32.10    4.20
  28   4  -4   30.90    3.40
  28   4  -4   25.40    3.90
  26  -4  -4   15.10    2.80
  26  -4  -4   14.10    3.00
  26   4  -4   17.10    3.40
  26   4  -4   15.30    3.00
  26   4  -4   22.70    2.90
  24  -4  -4   82.29    5.90
  24  -4  -4   99.19    5.90
  24   4  -4   69.59    5.90
  24   4  -4   96.69    5.40
  24   4  -4   86.39    5.80
  22  -4  -4   57.79    4.30
  22  -4  -4   52.49    4.20
  22   4  -4   47.30    3.70
  22   4  -4   53.99    4.20
  22   4  -4   44.20    4.50
  20  -4  -4  148.19    7.40
  20  -4  -4  129.79    7.50
  20   4  -4  146.59    7.50
  20   4  -4  121.59    7.70
  20   4  -4  136.69    6.90
  18  -4  -4    1.40    1.40
  18  -4  -4    3.70    1.40
  18   4  -4    1.00    1.50
  18   4  -4    0.80    1.30
  18   4  -4    0.40    1.20
  16  -4  -4  300.47   14.40
  16  -4  -4  311.97   13.10
  16  -4  -4  303.37   14.00
  16   4  -4  313.97   13.50
  16   4  -4  302.17   14.00
  16   4  -4  285.87   14.70
  14  -4  -4    1.70    1.00
  14  -4  -4    1.60    0.70
  14  -4  -4    0.40    1.00
 -14  -4   4    2.80    0.50
 -14  -4   4    2.20    0.50
  14   4  -4    0.50    1.10
  14   4  -4    1.80    1.10
  14   4  -4    1.80    1.00
 -14   4   4    1.80    0.70
  12  -4  -4  271.07   12.30
  12  -4  -4  264.77   11.60
  12  -4  -4  279.67   12.70
 -12   4   4  274.17   11.70
  12   4  -4  267.67   12.90
  12   4  -4  272.97   11.90
  12   4  -4  254.47   12.20
  10  -4  -4   11.00    1.00
  10  -4  -4   13.60    1.40
  10  -4  -4   13.70    1.10
 -10   4   4   15.20    1.20
  10   4  -4   15.20    1.50
  10   4  -4   12.80    1.40
  10   4  -4   12.40    1.50
   8  -4  -4  289.77   12.60
   8  -4  -4  289.27   12.10
   8  -4  -4  292.87   13.10
   8  -4  -4  292.17   12.10
   8   4  -4  277.07   13.20
   8   4  -4  270.97   12.70
  -8   4   4  292.47   12.20
   8   4  -4  264.47   12.30
   6  -4  -4  143.09    6.70
   6  -4  -4  153.48    7.10
   6  -4  -4  149.79    6.50
   6  -4  -4  150.28    6.50
   6   4  -4  150.78    6.70
   6   4  -4  152.28    6.90
   6   4  -4  145.89    7.10
  -6   4   4  149.59    6.60
   4  -4  -4  228.38   10.00
   4  -4  -4  236.38   10.80
  -4   4   4  230.18   10.10
   4   4  -4  233.18   10.40
   4   4  -4  234.88   10.10
   4   4  -4  239.98   10.80
   2  -4  -4  268.47   12.50
   2  -4  -4  265.47   11.60
  -2   4   4  263.97   11.70
   2   4  -4  270.57   12.00
   2   4  -4  277.57   11.60
   2   4  -4  281.27   12.40
   0  -4  -4   46.10    2.50
   0  -4  -4   45.70    2.20
   0   4   4   46.70    2.50
   0   4  -4   40.00    2.30
   0   4  -4   40.50    2.40
   0   4  -4   41.20    2.20
   0   4   4   46.10    2.30
   2  -4   4   45.30    2.50
   2   4   4   48.60    2.40
  -2   4  -4   48.00    2.70
   2   4   4   53.09    2.60
   2   4   4   50.99    2.80
   4  -4   4  155.68    7.40
   4  -4   4  154.28    7.30
   4   4   4  173.78    7.70
   4   4   4  151.38    7.00
   4   4   4  150.68    7.10
   6  -4   4  149.59    7.60
   6  -4   4  174.38    7.80
   6   4   4  160.38    7.30
   6   4   4  157.18    7.50
   6   4   4  164.28    7.10
   6   4   4  168.48    8.00
   8  -4   4  155.78    7.40
   8  -4   4  155.58    7.30
   8   4   4  149.69    7.20
   8   4   4  144.09    6.50
   8   4   4  147.69    7.60
   8   4   4  154.68    6.60
   8   4   4  150.28    7.00
  10  -4   4  256.37   11.90
  10  -4   4  266.37   12.30
  10  -4   4  255.17   11.20
  10   4   4  253.07   11.80
  10   4   4  257.87   11.00
  10   4   4  253.47   11.40
  10   4   4  257.67   12.50
  12  -4   4  193.38    9.40
  12  -4   4  193.98    8.50
  12  -4   4  188.08    9.20
  12   4   4  188.78    8.20
  12   4   4  182.28    9.60
  12   4   4  181.68    9.00
  12   4   4  183.08    8.60
  14  -4   4  128.49    6.80
  14  -4   4  129.19    6.20
  14  -4   4  127.69    7.00
  14   4   4  115.19    7.10
  14   4   4  127.69    6.70
  14   4   4  135.69    6.30
  16  -4   4  116.39    6.70
  16  -4   4  119.09    5.90
  16  -4   4  109.19    6.80
  16   4   4  124.69    6.60
  16   4   4  106.19    7.00
  16   4   4  129.99    6.00
  18  -4   4   38.40    3.80
  18  -4   4   31.90    3.70
  18  -4   4   40.20    3.00
  18   4   4   37.90    4.20
  18   4   4   46.60    3.90
  18   4   4   44.90    3.20
  20  -4   4    5.70    2.30
  20  -4   4    8.60    2.50
  20   4   4    3.70    1.60
  20   4   4    7.50    2.20
  20   4   4    5.50    2.40
  22  -4   4   11.30    2.90
  22  -4   4    7.60    2.70
  22   4   4    6.20    2.30
  22   4   4    9.40    2.80
  24  -4   4   34.80    4.40
  24  -4   4   49.30    5.00
  24   4   4   40.10    4.30
  24   4   4   28.50    4.40
  26  -4   4   10.60    3.10
  26  -4   4    2.60    2.90
  26   4   4    9.00    3.40
  26   4   4    2.80    2.60
  28   4   4    9.60    3.60
  31  -5  -4    2.60    2.90
  31  -5  -4    1.70    2.80
  31   5  -4   -0.70    2.40
  31   5  -4    4.70    3.10
  29  -5  -4   -1.80    2.30
  29  -5  -4   -2.80    2.40
  29   5  -4   -0.70    2.60
  29   5  -4   -3.00    2.40
  29   5  -4    0.40    2.10
  27  -5  -4    1.90    2.30
  27  -5  -4    0.80    2.10
  27   5  -4    3.20    2.00
  27   5  -4    3.20    2.50
  27   5  -4    2.70    2.30
  25  -5  -4    2.20    2.10
  25  -5  -4    3.30    2.10
  25   5  -4   -0.50    2.10
  25   5  -4    1.90    1.90
  25   5  -4    0.40    2.00
  23  -5  -4    1.00    1.70
  23  -5  -4    0.80    1.80
  23   5  -4   -1.90    1.50
  23   5  -4   -2.80    1.70
  23   5  -4    1.50    1.90
  21  -5  -4    1.80    1.60
  21  -5  -4   -1.20    1.50
  21   5  -4   -3.70    1.50
  21   5  -4   -0.50    1.70
  21   5  -4   -0.50    1.40
  19  -5  -4    5.20    1.70
  19  -5  -4    4.00    1.60
  19   5  -4    4.70    1.60
  19   5  -4    1.60    1.50
  19   5  -4    3.00    1.80
  17  -5  -4    0.60    1.20
  17  -5  -4    1.50    1.30
  17  -5  -4    1.00    0.90
  17   5  -4    2.10    1.40
  17   5  -4   -0.50    1.40
  17   5  -4    1.00    1.30
  15  -5  -4    0.90    1.10
  15  -5  -4   -0.60    1.00
  15  -5  -4    1.30    0.80
  15   5  -4    2.30    1.20
  15   5  -4    0.30    1.30
  15   5  -4    0.50    1.10
  13  -5  -4   10.10    1.50
  13  -5  -4    9.60    1.40
  13  -5  -4    9.80    1.10
  13   5  -4    7.80    1.40
 -13   5   4    8.40    1.10
  13   5  -4    9.20    1.50
  13   5  -4    9.80    1.70
  11  -5  -4    0.60    0.60
  11  -5  -4    0.90    0.50
  11  -5  -4    0.10    0.80
  11   5  -4   -0.20    0.80
 -11   5   4    0.20    0.60
  11   5  -4    0.80    0.90
  11   5  -4    0.60    0.90
   9  -5  -4    5.30    1.00
   9  -5  -4    2.10    0.80
   9   5  -4    2.70    0.90
   9   5  -4    4.20    1.00
  -9   5   4    2.80    0.70
   9   5  -4    3.90    1.00
   7  -5  -4   -0.40    0.20
   7  -5  -4    0.20    0.60
   7  -5  -4    0.90    0.70
  -7   5   4   -0.10    0.50
   7   5  -4    0.40    0.70
   7   5  -4    0.40    0.70
   7   5  -4    0.20    0.70
   5  -5  -4    3.10    0.60
   5  -5  -4    3.40    0.80
   5   5  -4    3.50    0.90
  -5   5   4    2.90    0.70
   5   5  -4    3.40    0.80
   5   5  -4    2.90    0.80
   5   5  -4    3.30    0.70
   3  -5  -4    0.30    0.60
   3   5  -4    1.60    0.70
  -3   5   4    0.00    0.50
   3   5  -4    0.50    0.60
   3   5  -4    1.00    0.50
   3   5  -4    0.90    0.60
   1  -5  -4    0.50    0.60
   1   5  -4    1.10    0.70
   1   5  -4    1.70    0.50
  -1   5   4    0.30    0.60
  -1   5   4    1.30    0.60
   1   5  -4    1.30    0.60
   1   5  -4    1.50    0.60
   1  -5   4    1.20    0.50
   1   5   4    1.80    0.70
  -1   5  -4    1.70    0.80
   1   5   4    1.20    0.70
  -1   5  -4    2.20    0.70
   1   5   4    1.40    0.60
  -1   5  -4    1.80    0.50
  -1   5  -4    2.60    0.70
   3  -5   4    1.00    0.50
  -3   5  -4    2.10    0.60
   3   5   4    0.80    0.70
   3   5   4    0.70    0.60
   3   5   4    1.10    0.80
  -3   5  -4    1.40    0.80
   5  -5   4    3.40    0.70
   5  -5   4    2.10    0.80
   5   5   4    2.70    0.70
   5   5   4    2.80    0.80
   5   5   4    2.40    0.90
   5   5   4    2.50    0.90
   7  -5   4    2.70    1.00
   7  -5   4    4.10    0.90
   7   5   4    3.90    0.80
   7   5   4    4.70    1.20
   7   5   4    3.10    0.90
   7   5   4    3.20    0.90
   7   5   4    5.50    0.90
   9  -5   4    0.90    1.00
   9  -5   4    0.90    0.90
   9   5   4   -0.60    0.60
   9   5   4   -0.80    0.80
   9   5   4    1.00    1.10
   9   5   4    0.80    0.90
   9   5   4    0.40    0.70
  11  -5   4   11.10    1.70
  11  -5   4    8.80    1.50
  11   5   4    9.70    1.20
  11   5   4    9.20    1.60
  11   5   4    8.20    1.30
  11   5   4    9.90    1.80
  13  -5   4    1.70    0.90
  13  -5   4   -1.40    1.20
  13  -5   4    0.00    1.30
  13   5   4    1.20    1.10
  13   5   4    0.10    0.90
  13   5   4   -0.40    1.40
  13   5   4    1.00    1.20
  15  -5   4    8.50    1.90
  15  -5   4    3.70    1.70
  15  -5   4    6.60    1.30
  15   5   4    6.50    2.00
  15   5   4    5.80    1.70
  15   5   4    6.00    1.40
  17  -5   4    2.70    1.90
  17  -5   4    2.20    1.80
  17  -5   4    1.40    1.20
  17   5   4    1.10    1.70
  17   5   4    0.80    1.20
  17   5   4    1.20    2.00
  19  -5   4    6.20    2.10
  19  -5   4    6.00    2.20
  19   5   4    5.60    2.40
  19   5   4    4.60    2.00
  19   5   4    5.20    1.60
  21  -5   4    0.10    2.00
  21  -5   4   -3.00    1.90
  21   5   4    2.30    2.00
  21   5   4    0.20    2.30
  23  -5   4    0.90    2.30
  23  -5   4   -0.50    2.30
  23   5   4   -0.60    2.20
  23   5   4    1.20    2.50
  25  -5   4    2.60    2.60
  25   5   4    1.90    2.90
  25   5   4   -0.60    2.40
  27  -5   4    2.30    3.00
  27   5   4    0.00    3.00
  27   5   4    2.40    2.70
  30  -6  -4   19.60    3.60
  30  -6  -4   22.80    3.90
  30   6  -4   11.20    3.30
  30   6  -4   21.60    4.00
  30   6  -4   27.10    3.40
  28  -6  -4    0.00    2.40
  28  -6  -4   -2.10    2.20
  28   6  -4   -0.50    2.40
  28   6  -4   -0.60    2.50
  28   6  -4    3.00    2.10
  26  -6  -4    9.60    2.80
  26  -6  -4   10.40    2.60
  26   6  -4    9.30    2.80
  26   6  -4    7.90    2.30
  26   6  -4    5.50    2.50
  24  -6  -4   10.60    2.60
  24  -6  -4   13.40    2.60
  24   6  -4   12.80    2.40
  24   6  -4   14.10    2.80
  24   6  -4    9.70    2.60
  22  -6  -4   -0.10    1.70
  22  -6  -4   -0.70    1.70
  22   6  -4    1.30    1.80
  22   6  -4   -0.50    1.80
  22   6  -4    2.40    1.80
  20  -6  -4   97.39    5.70
  20  -6  -4   97.99    5.80
  20   6  -4  104.39    5.90
  20   6  -4   80.69    6.00
  20   6  -4   95.29    5.50
  18  -6  -4   81.29    5.10
  18  -6  -4   89.19    4.30
  18  -6  -4   89.59    5.00
  18   6  -4   81.09    4.90
  18   6  -4   85.29    5.20
  18   6  -4   71.89    5.30
  16  -6  -4    0.30    0.50
  16  -6  -4   -0.20    1.20
  16  -6  -4    1.60    1.30
  16   6  -4    1.90    1.40
  16   6  -4    2.40    1.30
  16   6  -4    0.50    1.40
  14  -6  -4  162.78    8.10
  14  -6  -4  158.08    8.00
  14   6  -4  162.48    8.10
  14   6  -4  174.58    7.90
  14   6  -4  166.08    8.60
  12  -6  -4  112.39    5.40
  12  -6  -4  104.69    5.50
  12  -6  -4  106.19    5.00
  12   6  -4   98.89    5.70
  12   6  -4  106.69    5.50
  12   6  -4  109.29    5.40
 -12   6   4  104.09    5.10
  10  -6  -4  203.18    9.50
  10  -6  -4  218.98   10.30
  10   6  -4  228.08   10.50
  10   6  -4  221.68   10.10
  10   6  -4  222.68    9.80
 -10   6   4  212.18    9.60
   8  -6  -4  171.18    8.20
   8  -6  -4  175.28    7.70
   8  -6  -4  178.68    8.00
   8   6  -4  177.38    8.40
   8   6  -4  171.18    8.20
   8   6  -4  169.18    7.90
  -8   6   4  167.08    7.70
   6  -6  -4   24.40    1.60
   6  -6  -4   21.80    1.70
   6   6  -4   21.30    1.80
   6   6  -4   20.20    1.70
  -6   6   4   22.90    1.60
   6   6  -4   24.20    1.60
   6   6  -4   18.40    1.80
   4  -6  -4  464.65   20.70
   4   6  -4  449.86   18.80
   4   6  -4  450.25   20.00
   4   6  -4  457.55   20.60
   4   6  -4  457.75   19.30
  -4   6   4  450.45   19.40
   2  -6  -4    9.50    1.10
   2   6  -4    8.40    1.10
   2   6  -4    6.10    1.10
  -2   6   4   10.40    0.90
  -2   6   4    8.70    1.00
  -2   6   4    8.20    1.10
   2   6  -4   11.50    1.00
   2   6  -4   12.40    1.20
   0   6  -4  233.78   11.10
   0   6  -4  249.08   10.30
   0   6   4  254.27   10.80
   0   6   4  247.48   10.70
   0   6  -4  226.08   11.10
   0   6  -4  252.77   10.60
   0   6   4  254.17   11.50
   2  -6   4   16.60    1.10
   2   6   4   15.10    1.50
  -2   6  -4   16.50    1.30
  -2   6  -4   17.90    1.40
  -2   6  -4   15.60    1.50
   2   6   4   13.70    1.30
   2   6   4   14.20    1.30
   4  -6   4  100.69    5.00
   4  -6   4  102.99    5.30
  -4   6  -4  110.69    4.70
   4   6   4  101.59    5.00
   4   6   4  103.39    4.80
   4   6   4  109.99    5.10
   4   6   4  107.69    5.40
   6  -6   4   26.80    2.20
   6  -6   4   27.20    1.70
   6   6   4   23.90    1.70
   6   6   4   28.80    2.20
   6   6   4   23.40    1.90
   6   6   4   26.60    1.90
   6   6   4   27.60    2.00
   8  -6   4    2.50    1.10
   8  -6   4    1.30    0.80
   8   6   4    2.50    0.90
   8   6   4    1.60    1.00
   8   6   4    1.60    0.90
   8   6   4    0.30    0.70
   8   6   4    0.30    1.10
  10  -6   4  186.68    9.20
  10  -6   4  182.98    9.20
  10   6   4  177.98    8.10
  10   6   4  187.08    8.90
  10   6   4  194.38    9.60
  10   6   4  195.88    8.70
  10   6   4  193.18    8.40
  12  -6   4  114.89    6.20
  12  -6   4  112.59    6.20
  12   6   4  114.69    6.60
  12   6   4  116.29    5.70
  12   6   4  116.29    5.50
  12   6   4  113.99    6.00
  14  -6   4   33.60    3.20
  14  -6   4   39.70    2.70
  14  -6   4   39.20    3.50
  14   6   4   38.50    3.20
  14   6   4   41.40    3.70
  14   6   4   39.10    2.80
  16  -6   4    2.00    1.60
  16  -6   4   -1.70    1.50
  16  -6   4    1.80    1.20
  16   6   4    2.50    1.90
  16   6   4   -1.80    1.10
  16   6   4   -0.50    1.50
  18  -6   4    9.60    1.70
  18  -6   4   11.10    2.50
  18  -6   4   10.40    2.30
  18   6   4    8.80    1.70
  18   6   4    9.30    2.30
  18   6   4   14.60    3.00
  20  -6   4   53.19    4.80
  20   6   4   57.59    4.60
  20   6   4   36.70    4.80
  22  -6   4   18.40    3.40
  22   6   4   27.30    3.50
  22   6   4   18.10    3.60
  24  -6   4   -0.30    2.60
  24   6   4   -2.50    2.60
  24   6   4    1.80    2.40
  26  -6   4    4.90    3.20
  26   6   4   10.30    3.00
  26   6   4    1.20    3.00
  29  -7  -4   -1.50    2.50
  29   7  -4    0.50    2.60
  29   7  -4    2.90    2.40
  29   7  -4    0.40    2.60
  27  -7  -4    0.90    2.30
  27   7  -4   -0.60    2.30
  27   7  -4   -0.10    2.00
  27   7  -4    4.60    2.50
  25  -7  -4    2.50    2.30
  25  -7  -4   -0.20    2.10
  25   7  -4    1.00    2.30
  25   7  -4    0.00    2.00
  25   7  -4    1.00    2.00
  23  -7  -4   -0.10    1.80
  23  -7  -4   -1.70    1.80
  23   7  -4    2.70    2.20
  23   7  -4   -0.10    2.00
  23   7  -4    1.90    1.80
  21  -7  -4    3.80    1.80
  21  -7  -4    1.00    1.70
  21   7  -4    1.80    1.70
  21   7  -4   -0.70    1.80
  21   7  -4    1.10    1.90
  19  -7  -4   -1.40    1.50
  19  -7  -4   -0.30    0.60
  19  -7  -4    1.00    1.50
  19   7  -4   -0.20    1.50
  19   7  -4    3.10    2.00
  19   7  -4    0.50    1.60
  17  -7  -4    1.60    1.30
  17  -7  -4    1.60    1.00
  17  -7  -4    0.60    1.50
  17   7  -4    0.70    1.70
  17   7  -4    3.00    1.40
  17   7  -4    1.90    1.50
  15  -7  -4    6.00    1.40
  15  -7  -4    7.00    1.20
  15  -7  -4    6.60    1.60
  15   7  -4    4.60    1.70
  15   7  -4    6.10    1.60
  15   7  -4    3.30    1.40
  13  -7  -4    3.50    1.10
  13  -7  -4    0.80    0.80
  13  -7  -4    0.30    1.00
  13   7  -4    0.30    1.20
 -13   7   4   -0.40    0.70
  13   7  -4   -0.60    1.10
  13   7  -4   -0.10    1.10
  11  -7  -4   -1.50    0.80
  11  -7  -4    1.20    0.70
  11  -7  -4    0.30    0.70
  11   7  -4    1.60    1.10
 -11   7   4    1.00    0.80
  11   7  -4    2.70    1.10
  11   7  -4    1.70    1.10
   9  -7  -4    0.40    0.90
   9  -7  -4   -1.50    0.70
  -9   7   4    0.60    0.70
   9   7  -4    0.80    1.00
   9   7  -4    0.60    0.90
   9   7  -4    1.10    1.00
   7  -7  -4    3.00    0.90
   7  -7  -4    5.30    1.00
   7   7  -4    3.00    0.80
   7   7  -4    4.40    1.10
   7   7  -4    3.80    1.10
   7   7  -4    3.30    1.00
  -7   7   4    2.80    0.80
   5  -7  -4    3.10    0.80
   5  -7  -4    0.70    0.70
  -5   7   4    1.00    0.60
   5   7  -4    2.20    0.90
   5   7  -4    2.50    0.90
   5   7  -4    1.90    0.70
   5   7  -4    2.30    0.90
   3  -7  -4   -1.00    0.60
   3   7  -4    0.10    0.80
  -3   7   4    0.30    0.60
  -3   7   4    0.50    0.60
   3   7  -4    0.00    0.80
   3   7  -4    0.10    0.80
   3   7  -4   -0.80    0.50
   1   7  -4    0.10    0.80
  -1   7   4    0.10    0.70
   1   7  -4    0.00    0.80
  -1   7   4    0.30    0.60
   1   7  -4   -1.00    0.70
   1   7  -4    0.10    0.40
  -1   7   4   -0.30    0.60
   1  -7   4    0.90    0.40
  -1   7  -4    1.80    0.90
  -1   7  -4    0.90    0.80
   1   7   4    2.10    0.80
  -1   7  -4    0.60    0.70
   1   7   4    2.50    0.80
   1   7   4    1.70    0.70
   3  -7   4    1.80    0.50
   3   7   4    2.70    0.80
   3   7   4    2.80    0.90
  -3   7  -4    1.30    1.00
   3   7   4    2.80    0.90
   3   7   4    3.10    0.80
  -3   7  -4    2.20    0.80
   5  -7   4    1.00    0.90
   5  -7   4    1.00    0.60
   5   7   4    0.80    0.90
  -5   7  -4    1.50    0.70
   5   7   4    1.20    0.80
   5   7   4   -0.10    0.70
   5   7   4    0.70    0.80
   7  -7   4    4.70    0.90
   7  -7   4    4.40    1.20
   7   7   4    4.40    1.00
   7   7   4    5.40    1.10
   7   7   4    5.20    1.30
   7   7   4    3.00    0.90
   7   7   4    5.10    1.10
   9  -7   4    1.80    1.20
   9  -7   4    0.00    0.80
   9   7   4    0.40    1.00
   9   7   4    1.30    1.30
   9   7   4    1.20    1.00
   9   7   4    0.20    0.90
   9   7   4    1.10    0.90
  11  -7   4    1.80    1.10
  11  -7   4    0.80    1.30
  11   7   4   -0.20    1.00
  11   7   4   -0.80    1.10
  11   7   4    2.80    1.10
  11   7   4    1.50    1.40
  11   7   4    2.00    1.10
  13  -7   4    2.00    1.40
  13   7   4    2.50    1.20
  13   7   4    3.80    1.70
  13   7   4   -0.60    1.20
  13   7   4    3.80    1.30
  15  -7   4    1.70    1.20
  15  -7   4    0.20    1.70
  15   7   4    1.30    1.20
  15   7   4    1.10    1.80
  15   7   4    0.40    1.50
  17  -7   4    3.30    1.30
  17  -7   4   -1.30    1.90
  17   7   4    1.80    2.20
  17   7   4    0.80    1.80
  19  -7   4    0.90    2.10
  19   7   4    0.40    1.90
  19   7   4    3.00    2.40
  21  -7   4    2.80    2.40
  21   7   4    1.20    2.50
  21   7   4   -0.40    2.00
  23  -7   4    0.50    2.40
  23   7   4    2.70    2.90
  23   7   4    3.10    2.40
  25  -7   4    2.20    3.00
  25   7   4   -1.60    2.40
  25   7   4   -2.10    2.70
  30  -8  -4    8.70    3.20
  30   8  -4    7.30    3.40
  30   8  -4    5.00    3.00
  30   8  -4    5.20    2.70
  28  -8  -4    3.20    2.70
  28   8  -4    1.70    2.20
  28   8  -4    3.40    2.80
  28   8  -4   -2.40    2.60
  26  -8  -4   10.70    2.90
  26   8  -4   13.30    3.20
  26   8  -4   11.70    3.20
  26   8  -4   18.90    3.10
  24  -8  -4    1.10    2.10
  24   8  -4    2.30    2.40
  24   8  -4    1.70    2.00
  24   8  -4   -1.20    2.20
  22  -8  -4   33.00    3.70
  22   8  -4   38.10    4.00
  22   8  -4   25.40    3.20
  22   8  -4   24.60    3.60
  20  -8  -4   10.80    2.30
  20  -8  -4    7.80    1.90
  20   8  -4    7.40    2.10
  20   8  -4   13.70    2.50
  20   8  -4    8.40    2.50
  18  -8  -4   20.10    1.90
  18  -8  -4   17.10    2.60
  18  -8  -4   23.10    2.40
  18   8  -4   12.10    2.50
  18   8  -4   18.90    2.50
  18   8  -4   19.70    2.60
  16  -8  -4   68.29    4.50
  16  -8  -4   66.09    3.70
  16  -8  -4   69.09    4.10
  16   8  -4   71.69    4.50
  16   8  -4   59.29    4.70
  16   8  -4   69.89    4.30
  14  -8  -4    3.50    1.40
  14  -8  -4    2.50    1.00
  14  -8  -4    3.90    1.20
  14   8  -4    2.80    1.40
  14   8  -4    4.70    1.60
  14   8  -4    4.00    1.40
  12  -8  -4    2.40    1.20
  12  -8  -4    3.60    1.10
  12  -8  -4    3.70    1.00
 -12   8   4    4.70    1.00
  12   8  -4    5.80    1.50
  12   8  -4    4.50    1.40
  12   8  -4    3.60    1.40
  10  -8  -4   23.90    1.90
  10   8  -4   23.90    2.30
  10   8  -4   17.60    2.00
 -10   8   4   20.50    1.80
  10   8  -4   23.00    2.10
   8  -8  -4   77.39    4.00
   8  -8  -4   74.99    4.00
   8   8  -4   72.99    4.00
  -8   8   4   68.89    3.70
   8   8  -4   74.49    4.10
   8   8  -4   76.09    4.10
   8   8  -4   78.99    4.30
   6  -8  -4  156.18    7.50
   6  -8  -4  166.98    7.30
   6   8  -4  154.48    7.50
   6   8  -4  150.38    7.40
   6   8  -4  147.09    7.20
   6   8  -4  152.98    7.10
  -6   8   4  157.58    7.10
   4  -8  -4   17.40    1.60
   4   8  -4   18.30    1.70
   4   8  -4   17.20    1.70
   4   8  -4   17.20    1.80
  -4   8   4   16.80    1.50
   4   8  -4   14.80    1.30
  -4   8   4   16.60    1.40
   2   8  -4   44.30    2.40
   2   8  -4   48.40    2.70
   2   8  -4   46.40    2.90
   2   8  -4   44.90    2.70
  -2   8   4   44.60    2.70
  -2   8   4   46.70    2.60
  -2   8   4   44.00    2.60
   0   8  -4   32.60    2.40
   0   8  -4   30.80    2.10
   0   8  -4   32.40    2.20
   0   8   4   32.60    2.00
   0   8   4   32.70    2.10
   0   8   4   32.80    2.20
  -2   8  -4   47.30    2.60
   2   8   4   39.10    2.70
  -2   8  -4   40.80    2.80
   2   8   4   39.70    2.50
  -2   8  -4   43.20    2.50
   2   8   4   43.50    2.50
   4   8   4   20.00    1.70
   4   8   4   18.90    1.90
   4   8   4   20.60    1.80
  -4   8  -4   18.60    2.00
   4   8   4   20.20    1.70
  -4   8  -4   21.80    1.70
   6  -8   4   70.79    4.20
   6   8   4   75.69    3.90
  -6   8  -4   73.29    3.60
   6   8   4   68.19    4.20
   6   8   4   74.19    3.80
   6   8   4   68.49    3.80
   6   8   4   68.19    3.70
   8  -8   4  145.39    7.10
   8   8   4  139.59    6.70
   8   8   4  134.69    6.50
   8   8   4  132.99    6.40
   8   8   4  135.59    7.20
   8   8   4  134.69    6.30
  10  -8   4    8.30    1.80
  10   8   4   10.80    1.50
  10   8   4    9.70    1.60
  10   8   4   11.60    2.00
  10   8   4   10.10    1.40
  10   8   4   11.80    1.60
  12  -8   4   18.00    2.40
  12   8   4   23.20    2.10
  12   8   4   15.90    1.80
  12   8   4   16.90    1.80
  12   8   4   16.40    2.50
  12   8   4   14.20    2.00
  14  -8   4    1.80    1.10
  14  -8   4    3.10    1.80
  14   8   4    3.50    1.90
  14   8   4    4.20    1.40
  14   8   4    2.70    1.50
  14   8   4    0.80    1.10
  16  -8   4    7.50    1.60
  16  -8   4   10.70    2.50
  16   8   4    3.30    2.20
  16   8   4    7.10    2.00
  18  -8   4   48.70    4.50
  18   8   4   30.20    4.00
  18   8   4   41.50    3.80
  20  -8   4    1.20    2.40
  20   8   4   -2.70    1.80
  20   8   4    3.80    2.60
  22  -8   4   14.00    3.20
  22   8   4   14.10    2.90
  22   8   4    9.00    3.40
  24  -8   4   11.90    3.50
  24   8   4    1.50    3.00
  24   8   4    5.10    2.70
  26  -8   4    1.40    3.00
  26   8   4    0.10    2.80
  26   8   4    5.30    2.80
  29  -9  -4   -0.90    2.70
  29   9  -4    0.80    2.80
  29   9  -4    1.60    2.90
  29   9  -4   -4.10    2.10
  27  -9  -4    1.40    2.60
  27   9  -4    2.30    2.70
  27   9  -4   -0.70    2.20
  27   9  -4    2.20    2.70
  25  -9  -4    5.60    2.60
  25   9  -4    2.60    2.60
  25   9  -4    0.40    2.30
  25   9  -4    1.50    2.10
  23  -9  -4    6.10    2.50
  23   9  -4    4.50    2.60
  23   9  -4    6.10    2.40
  23   9  -4    3.50    2.10
  21  -9  -4    5.00    2.20
  21   9  -4   -1.20    2.10
  21   9  -4    2.10    2.00
  21   9  -4    0.10    1.90
  19  -9  -4    1.90    1.30
  19  -9  -4    3.10    1.90
  19   9  -4    0.80    1.70
  19   9  -4    0.30    2.00
  19   9  -4    1.60    1.80
  17  -9  -4   -0.40    1.00
  17  -9  -4   -0.10    1.50
  17   9  -4    0.30    1.60
  17   9  -4    0.50    1.80
  17   9  -4    2.50    1.70
  15  -9  -4    8.20    1.40
  15  -9  -4    6.20    1.70
  15   9  -4    4.20    1.90
  15   9  -4    9.60    1.90
  15   9  -4    5.50    1.80
  13  -9  -4   11.70    1.50
  13  -9  -4    8.50    1.40
  13  -9  -4   11.20    1.90
  13   9  -4    7.50    1.70
  13   9  -4    9.70    1.80
  13   9  -4    9.90    2.00
  11  -9  -4    2.90    1.00
  11  -9  -4    2.30    1.20
  11   9  -4    0.70    1.20
  11   9  -4    2.10    1.40
 -11   9   4    1.20    0.90
  11   9  -4    0.70    1.20
   9  -9  -4    2.90    0.90
   9  -9  -4    0.60    0.60
   9   9  -4    1.50    1.20
   9   9  -4    2.60    1.10
  -9   9   4    0.70    0.80
   9   9  -4    3.30    1.30
   9   9  -4    2.40    1.20
   7  -9  -4    0.40    0.80
   7  -9  -4    1.10    1.00
   7   9  -4    0.60    1.10
   7   9  -4   -0.30    1.00
   7   9  -4    1.90    0.80
   7   9  -4    1.80    1.10
  -7   9   4    1.60    0.80
   5  -9  -4    2.40    0.80
   5   9  -4    2.50    1.10
   5   9  -4    2.80    1.10
   5   9  -4    1.90    1.10
   5   9  -4    1.90    0.70
  -5   9   4    2.10    0.80
  -3   9   4    0.50    0.80
   3   9  -4    0.90    0.60
  -3   9   4    0.50    0.70
   3   9  -4    1.40    1.00
   3   9  -4    1.40    1.00
  -3   9   4    1.20    0.80
   3   9  -4    1.50    1.00
  -1   9   4    2.80    0.90
  -1   9   4    2.80    0.90
  -1   9   4    3.10    0.90
   1   9  -4    2.20    1.00
   1   9  -4    2.90    1.00
   1   9  -4    2.50    1.10
  -1   9  -4    5.60    1.20
  -1   9  -4    7.60    1.30
   1   9   4    8.00    1.10
  -1   9  -4    9.20    1.40
   1   9   4    6.70    1.10
   1   9   4    6.30    1.20
  -3   9  -4    1.10    0.90
   3   9   4    0.80    0.80
   3   9   4    2.20    1.10
  -3   9  -4    0.20    0.90
   3   9   4    0.50    0.80
  -3   9  -4    0.60    1.00
   3   9   4    0.50    0.90
   5   9   4    2.40    1.10
   5   9   4    2.10    1.20
   5   9   4    3.50    1.00
   5   9   4    0.90    1.00
  -5   9  -4    3.00    1.00
   7  -9   4   -0.50    1.10
   7   9   4    1.20    1.20
  -7   9  -4    1.10    1.00
   7   9   4    0.40    1.00
   7   9   4    1.40    0.90
   7   9   4    0.70    1.00
   7   9   4    0.60    1.00
   9  -9   4    0.60    1.40
   9   9   4    0.00    1.40
   9   9   4    2.00    1.10
   9   9   4    0.50    1.00
   9   9   4    0.80    1.10
   9   9   4    2.40    1.20
  11  -9   4    0.00    1.40
  11   9   4    0.20    1.20
  11   9   4   -0.50    1.00
  11   9   4    0.60    1.10
  11   9   4   -0.30    1.20
  11   9   4   -0.10    1.60
  13  -9   4    2.10    1.70
  13   9   4    2.40    1.40
  13   9   4    2.20    1.50
  13   9   4    0.60    1.80
  13   9   4    1.70    1.40
  13   9   4    0.20    0.50
  15  -9   4    2.40    1.90
  15  -9   4    3.40    1.30
  15   9   4    1.30    1.70
  15   9   4    1.90    2.20
  17  -9   4   -0.40    2.00
  17   9   4    3.80    2.00
  17   9   4    3.40    2.40
  19  -9   4    2.30    2.50
  19   9   4    4.10    2.10
  19   9   4    0.30    2.50
  21  -9   4   -3.40    2.30
  21   9   4   -1.90    2.50
  21   9   4   -0.10    2.10
  23  -9   4    2.80    2.90
  23   9   4    1.90    2.90
  23   9   4    2.80    2.60
  25  -9   4    4.20    3.30
  25   9   4    3.20    2.80
  25   9   4   -1.40    2.90
  28 -10  -4    3.70    2.90
  28  10  -4   -1.30    2.60
  28  10  -4    1.20    3.00
  28  10  -4    4.00    2.70
  26 -10  -4   -0.30    2.50
  26  10  -4    4.80    2.70
  26  10  -4    0.00    2.60
  26  10  -4    0.60    2.40
  24 -10  -4   46.80    4.70
  24  10  -4   33.20    4.50
  24  10  -4   41.60    4.50
  24  10  -4   51.19    4.60
  22 -10  -4    0.10    2.20
  22  10  -4    6.30    2.40
  22  10  -4    1.70    2.10
  22  10  -4    5.90    2.60
  20 -10  -4   41.00    4.10
  20  10  -4   27.20    3.90
  20  10  -4   33.20    3.50
  20  10  -4   37.70    3.90
  18 -10  -4    3.50    2.00
  18 -10  -4    1.40    1.20
  18  10  -4   -1.60    1.90
  18  10  -4   -1.30    1.80
  18  10  -4    1.60    1.80
  16 -10  -4    8.00    2.00
  16 -10  -4    5.80    1.40
  16  10  -4    7.10    2.00
  16  10  -4    6.30    2.10
  16  10  -4    6.50    1.90
  14 -10  -4   61.79    4.20
  14 -10  -4   66.69    3.80
  14  10  -4   57.59    4.30
  14  10  -4   64.49    4.50
  14  10  -4   66.09    4.30
  12 -10  -4  149.19    7.60
  12  10  -4  157.48    8.00
  12  10  -4  140.09    7.50
  12  10  -4  156.08    7.80
  10  10  -4   24.70    2.60
 -10  10   4   28.60    2.20
  10  10  -4   24.10    2.60
  10  10  -4   29.60    2.50
  10  10  -4   30.30    2.70
   8 -10  -4    3.80    1.10
   8  10  -4    3.50    1.40
  -8  10   4    3.60    1.00
   8  10  -4    5.50    1.50
   8  10  -4    4.40    1.10
   8  10  -4    6.10    1.50
   6 -10  -4   51.29    3.10
   6 -10  -4   50.09    2.90
  -6  10   4   50.29    2.90
   6  10  -4   47.30    3.40
   6  10  -4   51.09    3.20
   6  10  -4   47.50    2.90
   6  10  -4   49.70    3.30
  -4  10   4  109.99    5.70
   4  10  -4  124.59    6.10
   4  10  -4  116.29    5.90
  -4  10   4  118.19    5.50
   4  10  -4  116.89    5.70
  -4  10   4  114.99    5.70
  -2  10   4    0.00    0.80
   2  10  -4    0.80    1.10
  -2  10   4    1.30    0.90
  -2  10   4    2.00    1.00
   2  10  -4    1.90    1.10
   2  10  -4    0.20    1.10
   0  10  -4  196.28    9.30
   0  10   4  192.48    9.70
   0  10   4  217.18    9.40
   0  10  -4  199.68    9.10
   0  10  -4  208.88    9.80
   0  10   4  210.18    9.20
  -2  10  -4   86.89    4.90
   2  10   4   98.29    4.90
   2  10   4   99.89    5.10
  -2  10  -4   96.29    4.80
   2  10   4   99.69    4.90
  -2  10  -4   94.99    5.20
   2  10   4   98.19    4.70
   4  10   4   51.69    3.20
   4  10   4   53.99    3.10
   4  10   4   54.69    3.20
   4  10   4   52.29    3.40
  -4  10  -4   55.69    3.60
  -4  10  -4   57.39    3.20
   6 -10   4   28.90    2.70
   6  10   4   31.40    2.20
   6  10   4   30.50    2.60
  -6  10  -4   28.80    2.40
   6  10   4   25.40    2.30
   6  10   4   28.90    2.40
   6  10   4   24.50    2.60
   8 -10   4   76.89    4.80
   8  10   4   78.99    4.10
  -8  10  -4   76.39    4.10
   8  10   4   72.89    3.90
   8  10   4   76.19    4.80
   8  10   4   78.79    4.30
   8  10   4   71.99    4.20
  10 -10   4    1.90    1.60
  10  10   4    1.10    1.30
  10  10   4    2.10    0.80
  10  10   4    2.60    1.40
  10  10   4   -0.60    1.60
  10  10   4    1.10    1.30
  12 -10   4   77.59    5.30
  12  10   4   81.89    4.90
  12  10   4   78.29    5.50
  12  10   4   88.69    4.80
  12  10   4   84.59    4.60
  14 -10   4    5.70    2.10
  14  10   4    6.90    1.80
  14  10   4    4.70    1.90
  14  10   4    4.30    1.70
  14  10   4    3.20    2.10
  16 -10   4    4.80    2.40
  16  10   4    2.00    2.40
  16  10   4    6.30    2.00
  18 -10   4   24.00    3.60
  18  10   4   19.30    3.50
  18  10   4   22.20    3.20
  20 -10   4   23.10    3.70
  20  10   4   16.40    3.60
  20  10   4   16.80    3.00
  22 -10   4   13.20    3.70
  22  10   4   12.10    3.50
  22  10   4   14.80    3.20
  24 -10   4    7.30    3.50
  24  10   4    0.60    3.00
  24  10   4    2.90    2.70
  27 -11  -4   -2.70    2.50
  27  11  -4    0.40    2.80
  27  11  -4    1.90    2.70
  27  11  -4   -1.50    2.50
  25 -11  -4   -1.40    2.40
  25  11  -4    1.30    2.40
  25  11  -4    0.80    2.70
  25  11  -4    2.40    2.60
  23 -11  -4    4.50    2.50
  23  11  -4    4.20    2.60
  23  11  -4    1.40    2.50
  23  11  -4    4.30    2.40
  21 -11  -4    8.00    2.60
  21  11  -4    5.20    2.30
  21  11  -4    0.60    2.40
  21  11  -4    7.30    2.60
  19 -11  -4    2.30    1.50
  19 -11  -4    3.60    2.10
  19  11  -4    0.90    2.20
  19  11  -4    5.50    2.20
  19  11  -4    3.70    2.00
  17 -11  -4    1.00    1.80
  17 -11  -4    4.50    1.50
  17  11  -4    1.90    2.00
  17  11  -4    1.30    2.00
  17  11  -4    3.50    2.00
  15 -11  -4    1.50    1.20
  15 -11  -4    2.50    1.70
  15  11  -4    3.20    1.90
  15  11  -4   -2.10    1.60
  15  11  -4    0.30    1.70
  13 -11  -4    0.70    1.60
  13  11  -4   -0.10    1.50
  13  11  -4    2.20    1.60
  13  11  -4   -1.20    1.50
  11 -11  -4    2.00    1.50
  11  11  -4    5.60    1.70
  11  11  -4    5.20    1.70
  11  11  -4    4.70    1.70
  11  11  -4    6.70    1.60
   9 -11  -4    0.10    0.50
   9  11  -4    1.40    1.40
   9  11  -4    3.70    1.50
   9  11  -4    2.30    1.50
   7 -11  -4    7.50    1.30
   7  11  -4    7.10    1.70
   7  11  -4    6.00    1.60
   7  11  -4    6.50    1.60
  -7  11   4    9.30    1.30
   5  11  -4    3.80    1.60
  -5  11   4    4.90    1.30
   5  11  -4    5.00    1.40
  -5  11   4    2.80    1.00
   5  11  -4    3.80    1.40
  -3  11   4   12.70    1.60
   3  11  -4   15.80    1.90
  -3  11   4   13.90    1.50
  -3  11   4   16.90    1.50
   3  11  -4   13.70    1.90
   3  11  -4   12.70    2.00
  -1  11   4    3.30    1.00
   1  11  -4    3.60    1.30
  -1  11   4    2.00    0.90
  -1  11   4    2.30    1.20
   1  11  -4    4.20    1.30
   1  11  -4    2.90    1.40
  -1  11  -4   10.20    1.60
  -1  11  -4    9.50    1.60
   1  11   4   11.20    1.50
  -1  11  -4    8.90    1.80
   1  11   4    9.20    1.40
   1  11   4   11.00    1.30
   3  11   4    1.60    1.20
   3  11   4    0.40    1.10
  -3  11  -4   -0.30    1.00
   3  11   4   -0.80    0.80
  -3  11  -4    4.10    1.30
   3  11   4   -0.60    1.20
  -3  11  -4    0.80    1.30
  -5  11  -4    6.80    1.70
  -5  11  -4    6.50    1.40
   5  11   4    4.00    1.30
   5  11   4    5.70    1.50
   5  11   4    5.70    1.50
   7 -11   4    0.90    1.40
   7  11   4    2.60    1.40
   7  11   4    0.20    1.20
  -7  11  -4    1.00    1.20
   7  11   4    0.40    1.30
   7  11   4    1.60    1.00
   7  11   4    0.10    1.40
   9 -11   4    5.50    1.90
   9  11   4    5.00    1.50
   9  11   4    5.70    1.60
   9  11   4    4.70    1.90
  -9  11  -4    5.40    1.50
   9  11   4    4.00    1.60
  11 -11   4    2.20    1.90
  11  11   4    1.80    1.50
  11  11   4    0.90    1.40
  11  11   4    2.20    1.50
  11  11   4   -0.90    1.70
  13 -11   4    6.30    2.30
  13  11   4    1.00    2.00
  13  11   4    3.20    1.70
  13  11   4    4.20    1.70
  13  11   4    5.50    1.80
  15 -11   4    1.10    2.10
  15  11   4   -0.50    1.80
  15  11   4    2.60    2.30
  15  11   4    2.10    1.70
  17 -11   4    2.50    2.20
  17  11   4    1.40    2.00
  17  11   4   -3.50    2.20
  19 -11   4   -2.60    2.40
  19  11   4    2.20    2.80
  19  11   4   -1.30    2.20
  21 -11   4    1.10    2.70
  21  11   4    1.30    2.90
  21  11   4   -3.10    2.20
  23 -11   4   -2.90    2.80
  23  11   4   -2.10    3.00
  23  11   4    1.70    2.70
  26 -12  -4    2.60    2.90
  26  12  -4    1.80    2.90
  26  12  -4   -0.10    2.80
  26  12  -4   -0.40    2.70
  24 -12  -4   17.60    3.60
  24  12  -4   32.20    4.30
  24  12  -4   22.10    3.60
  24  12  -4   16.30    3.60
  22 -12  -4    3.40    2.60
  22  12  -4    2.20    2.50
  22  12  -4    1.30    2.40
  22  12  -4    6.10    2.70
  20 -12  -4  101.79    6.60
  20  12  -4   73.19    6.50
  20  12  -4  102.39    6.40
  20  12  -4  115.79    6.80
  18 -12  -4   -1.00    1.40
  18 -12  -4    0.50    2.00
  18  12  -4    1.40    2.10
  18  12  -4    1.70    2.10
  18  12  -4    0.50    2.00
  16 -12  -4  211.88   10.10
  16 -12  -4  210.58   10.80
  16  12  -4  215.58   10.70
  16  12  -4  220.48   11.00
  16  12  -4  217.58   11.30
  14 -12  -4    9.60    2.30
  14 -12  -4   12.10    1.80
  14  12  -4    9.60    2.20
  14  12  -4   13.70    2.50
  12 -12  -4   59.09    4.10
  12  12  -4   50.79    4.20
  12  12  -4   50.99    4.00
  12  12  -4   51.89    4.10
  10 -12  -4  137.79    7.30
  10  12  -4  145.99    7.50
  10  12  -4  137.49    7.40
  10  12  -4  141.69    7.20
   8  12  -4   75.49    4.60
   8  12  -4   72.59    4.60
   8  12  -4   72.69    4.70
   6  12  -4   26.00    2.70
   6  12  -4   22.80    2.50
   6  12  -4   27.20    2.70
  -6  12   4   22.10    1.90
   4  12  -4   84.19    4.80
   4  12  -4   94.59    5.20
  -4  12   4   84.69    4.40
   4  12  -4   86.89    5.00
  -4  12   4   89.09    4.80
   2  12  -4   63.19    4.10
   2  12  -4   59.89    3.90
  -2  12   4   57.49    3.30
   2  12  -4   61.79    3.90
  -2  12   4   65.29    3.70
   0  12   4    0.00    1.10
   0  12  -4    1.40    1.30
   0  12  -4   -0.70    1.40
   0  12   4    0.10    0.40
   0  12  -4    2.50    1.40
   2  12   4    1.00    1.20
  -2  12  -4    1.40    1.30
   2  12   4    0.70    0.90
   2  12   4    0.40    1.30
  -2  12  -4   -0.70    1.20
  -2  12  -4   -0.40    1.40
   2  12   4    1.30    1.20
  -4  12  -4  138.19    7.20
   4  12   4  139.79    6.90
   4  12   4  137.39    7.10
   4  12   4  131.99    6.60
  -4  12  -4  138.89    6.70
   6 -12   4   38.00    3.50
  -6  12  -4   41.40    3.10
   6  12   4   44.60    3.20
   6  12   4   42.40    3.20
   6  12   4   43.90    3.50
   6  12   4   40.20    3.40
   8 -12   4    0.10    1.60
   8  12   4    3.30    1.50
  -8  12  -4    2.00    1.40
   8  12   4    3.20    1.60
   8  12   4    3.60    1.80
   8  12   4    2.50    1.50
  10 -12   4   62.89    4.70
  10  12   4   62.89    4.20
  10  12   4   65.79    4.20
 -10  12  -4   69.69    4.00
  10  12   4   53.59    4.60
  10  12   4   64.89    4.20
  12 -12   4    3.60    2.20
  12  12   4    2.60    1.70
  12  12   4    1.20    1.60
  12  12   4    2.00    2.10
  12  12   4    3.70    1.80
  14 -12   4   22.90    3.30
  14  12   4   25.50    3.70
  14  12   4   25.80    3.00
  14  12   4   18.40    2.60
  14  12   4   27.30    3.00
  16 -12   4   37.20    4.30
  16  12   4   37.80    4.70
  16  12   4   45.10    4.00
  18 -12   4   35.40    4.20
  18  12   4   32.60    4.40
  18  12   4   34.30    3.80
  20 -12   4   20.20    3.90
  20  12   4   20.70    3.30
  20  12   4   10.00    3.50
  22 -12   4   13.80    3.90
  22  12   4   10.90    3.10
  22  12   4    9.60    3.60
  25 -13  -4    1.50    2.80
  25  13  -4    0.60    2.80
  25  13  -4    3.40    2.90
  25  13  -4    6.90    3.10
  23 -13  -4   -1.00    2.60
  23  13  -4    6.70    3.00
  23  13  -4    0.60    2.40
  23  13  -4    1.50    2.70
  21 -13  -4    2.10    2.50
  21  13  -4    4.60    2.90
  21  13  -4    3.30    2.40
  21  13  -4    6.30    2.80
  19 -13  -4    3.10    2.30
  19  13  -4    5.30    2.60
  19  13  -4    6.20    2.60
  17 -13  -4    5.90    2.30
  17  13  -4    8.70    2.50
  17  13  -4    6.90    2.50
  15 -13  -4    8.90    1.80
  15 -13  -4    4.40    2.10
  15  13  -4   12.50    2.50
  15  13  -4    8.60    2.40
  13 -13  -4    2.00    1.90
  13  13  -4    1.40    1.90
  13  13  -4    3.40    1.90
  11 -13  -4   14.90    2.40
  11  13  -4   12.30    2.40
  11  13  -4   15.40    2.50
  11  13  -4   16.10    2.60
   9 -13  -4    7.30    1.70
   9  13  -4    5.80    2.00
   9  13  -4    5.50    2.00
   9  13  -4    6.00    2.00
   7  13  -4   14.30    2.30
   7  13  -4   14.80    2.40
   7  13  -4    8.80    2.10
   5  13  -4    5.60    1.80
  -5  13   4    5.20    1.50
   5  13  -4    7.10    1.90
   5  13  -4    6.70    1.90
   3  13  -4   13.20    2.30
  -3  13   4   16.80    2.00
   3  13  -4   19.00    2.50
   3  13  -4   18.60    2.40
   1  13  -4    2.70    1.50
  -1  13   4    3.80    1.40
   1  13  -4    2.00    1.50
   1  13  -4    5.10    1.80
  -1  13  -4    6.30    1.80
   1  13   4    5.70    1.80
   1  13   4    5.10    1.60
  -1  13  -4    6.20    1.90
  -1  13  -4    3.30    1.60
  -3  13  -4    9.70    1.90
   3  13   4    6.70    1.60
  -3  13  -4    9.70    2.00
   3  13   4    7.00    1.80
  -3  13  -4    6.50    1.80
   5  13   4   14.70    2.20
  -5  13  -4   14.40    2.10
  -5  13  -4   12.00    2.20
   5  13   4   12.80    2.00
   5  13   4   11.80    2.10
   7 -13   4    4.10    1.90
   7  13   4    2.00    1.80
   7  13   4    4.40    1.70
  -7  13  -4    1.10    1.50
   7  13   4    2.00    1.70
   7  13   4    4.40    1.70
   9 -13   4   14.30    2.60
   9  13   4    4.90    1.90
   9  13   4    6.60    1.90
   9  13   4    7.80    2.30
   9  13   4   11.20    2.20
  -9  13  -4   10.50    2.00
  11 -13   4    2.10    1.90
  11  13   4    5.40    1.90
  11  13   4    3.10    1.90
 -11  13  -4    1.80    1.60
  11  13   4    4.50    1.80
  11  13   4    2.30    2.10
  13 -13   4    5.30    2.50
  13  13   4    4.80    2.10
  13  13   4   -1.50    1.80
  13  13   4    1.60    1.80
  13  13   4    3.10    2.40
  15 -13   4   -5.30    1.90
  15  13   4    0.30    2.00
  15  13   4   -2.50    2.50
  15  13   4    1.80    2.00
  17 -13   4    4.30    2.80
  17  13   4    5.30    2.90
  17  13   4    4.50    2.40
  19 -13   4   -1.20    2.60
  19  13   4   -3.00    2.20
  19  13   4   -1.20    2.70
  21 -13   4    7.40    3.30
  21  13   4    1.90    3.10
  21  13   4    1.80    2.60
  24  14  -4   19.40    4.00
  24  14  -4   13.70    3.50
  22  14  -4    0.70    2.80
  22  14  -4   -1.10    2.50
  20  14  -4    4.50    2.60
  20  14  -4    3.70    2.60
  18  14  -4    2.10    2.50
  18  14  -4    1.50    2.30
  16 -14  -4   15.30    3.00
  16  14  -4   18.50    3.20
  16  14  -4   20.50    3.10
  14 -14  -4    8.40    2.40
  14  14  -4   13.10    2.70
  14  14  -4   11.90    2.50
  12 -14  -4    8.80    2.40
  12  14  -4   12.00    2.60
  12  14  -4    8.40    2.40
  12  14  -4   14.90    2.70
  10 -14  -4   45.50    3.80
  10  14  -4   47.50    4.10
  10  14  -4   45.80    4.00
  10  14  -4   41.40    3.90
   8 -14  -4  300.17   14.00
   8  14  -4  289.87   13.90
   8  14  -4  307.37   13.60
   8  14  -4  297.27   14.30
   6  14  -4   23.40    2.90
   6  14  -4   20.20    2.80
   6  14  -4   26.60    3.00
   4  14  -4  260.07   12.40
   4  14  -4  258.07   11.70
   4  14  -4  241.58   11.90
   2  14  -4  104.39    5.90
   2  14  -4  111.19    6.10
   2  14  -4  107.69    6.40
   0  14  -4   26.50    2.80
   0  14   4   26.80    2.80
   0  14  -4   21.60    2.80
   0  14  -4   23.80    2.70
   2  14   4    4.10    1.70
  -2  14  -4    2.30    1.70
  -2  14  -4   -1.00    1.70
  -2  14  -4    1.30    1.50
   4  14   4  215.58    9.90
   4  14   4  195.68    9.40
  -4  14  -4  188.78    9.40
  -4  14  -4  200.28    9.60
  -4  14  -4  194.38   10.10
   6 -14   4   50.19    4.40
   6  14   4   51.49    4.00
  -6  14  -4   55.39    3.90
   6  14   4   48.00    3.90
   6  14   4   51.19    4.10
   8 -14   4   91.09    6.20
  -8  14  -4  106.19    5.60
   8  14   4   92.99    5.80
   8  14   4  107.19    6.10
   8  14   4   97.09    5.60
  10 -14   4   30.80    3.50
 -10  14  -4   26.70    2.90
  10  14   4   27.10    3.10
  10  14   4   28.60    3.20
  10  14   4   26.00    3.00
  12 -14   4   14.60    3.10
  12  14   4   17.20    2.70
  12  14   4   10.60    2.60
  14 -14   4    0.20    2.30
  14  14   4    2.70    2.60
  14  14   4    0.40    2.10
  14  14   4    0.60    2.10
  16 -14   4   19.80    3.80
  16  14   4   21.90    4.00
  18 -14   4   -0.50    2.50
  18  14   4    0.30    2.80
  20 -14   4   -0.50    3.10
  20  14   4    4.50    3.20
  21  15  -4    4.90    3.00
  21  15  -4    1.30    2.70
  19  15  -4    1.90    2.50
  19  15  -4    2.70    2.80
  17  15  -4   10.80    2.90
  17  15  -4    7.80    2.80
  15  15  -4    3.80    2.30
  15  15  -4    9.70    2.80
  13  15  -4    7.50    2.50
  13  15  -4   12.20    2.80
  13  15  -4   11.20    2.70
  11  15  -4    9.60    2.50
  11  15  -4    8.80    2.40
  11  15  -4    8.40    2.40
   9  15  -4    2.90    2.10
   9  15  -4    2.70    2.10
   9  15  -4    3.60    2.10
   7  15  -4    3.90    2.00
   7  15  -4    7.10    2.30
   7  15  -4    6.00    2.20
   5  15  -4    4.20    2.10
   5  15  -4    1.10    1.80
   5  15  -4    0.50    1.90
   3  15  -4    6.90    2.20
   3  15  -4    3.80    1.90
   3  15  -4    4.60    2.00
   1  15  -4    0.30    1.60
   1  15  -4    3.00    1.90
   1  15  -4    2.40    1.80
  -1  15   4    1.20    1.80
  -1  15  -4   11.10    2.40
  -1  15  -4    9.50    2.20
  -1  15  -4    6.90    1.90
   1  15   4    9.90    2.20
  -3  15  -4    1.50    1.70
   3  15   4    1.80    1.80
  -3  15  -4   -0.80    1.70
  -3  15  -4    0.20    1.80
  -5  15  -4    8.60    2.00
  -5  15  -4    6.00    2.00
   5  15   4    8.00    2.20
   5  15   4    6.40    2.20
  -5  15  -4   11.60    2.50
   7 -15   4    1.30    1.90
  -7  15  -4    0.30    1.70
   7  15   4    1.60    1.90
   7  15   4    3.50    1.90
   9 -15   4    5.40    2.40
   9  15   4    8.70    2.30
   9  15   4    5.80    2.20
  -9  15  -4    7.20    2.10
  11 -15   4   -0.70    2.20
  11  15   4    0.60    2.10
  11  15   4    4.50    2.20
 -11  15  -4   -0.30    1.90
  13 -15   4   10.00    2.90
  13  15   4   11.60    2.60
  13  15   4    8.60    2.60
  15 -15   4    2.80    2.70
  15  15   4    2.10    2.30
  15  15   4    1.10    2.50
  17 -15   4    9.00    3.40
  20  16  -4   12.70    3.40
  20  16  -4    8.70    3.10
  18  16  -4   -1.10    2.40
  18  16  -4    3.50    2.80
  16  16  -4   36.30    4.20
  16  16  -4   33.70    4.10
  14  16  -4    2.80    2.40
  14  16  -4   -1.30    2.20
  12  16  -4   21.30    3.30
  12  16  -4   19.00    3.20
  12  16  -4   21.20    3.30
  10  16  -4    0.80    2.20
  10  16  -4    2.70    2.20
  10  16  -4    2.30    2.30
   8  16  -4   15.90    2.90
   8  16  -4   22.50    3.20
   8  16  -4   19.30    3.10
   6  16  -4    0.90    2.00
   6  16  -4    1.70    2.10
   6  16  -4    1.30    2.10
   4  16  -4   34.00    3.60
   4  16  -4   27.10    3.50
   4  16  -4   30.30    3.50
  -2  16   4    5.00    2.10
   2  16  -4   13.30    2.70
   2  16  -4    9.00    2.40
   2  16  -4    7.80    2.20
   0  16  -4   28.40    3.40
   0  16   4   20.30    2.80
   0  16  -4   30.00    3.30
   0  16  -4   24.00    3.00
  -2  16  -4   -0.30    1.90
   2  16   4   -2.40    1.80
  -2  16  -4   -2.30    1.50
  -2  16  -4    0.40    2.10
  -4  16  -4   23.20    2.90
   4  16   4   14.10    2.80
  -4  16  -4   27.10    3.30
  -4  16  -4   20.50    2.80
   4  16   4   25.40    3.10
   6 -16   4   11.20    2.80
   6  16   4   10.80    2.50
   6  16   4    9.80    2.50
  -6  16  -4   14.70    2.60
  -6  16  -4    6.60    2.20
   8 -16   4   25.00    3.40
   8  16   4   17.70    2.90
   8  16   4   18.40    3.10
  -8  16  -4   19.40    2.80
  10 -16   4    3.70    2.40
 -10  16  -4    2.10    2.10
  10  16   4    5.80    2.30
  10  16   4    4.40    2.40
  12 -16   4   18.70    3.40
  12  16   4   14.60    3.00
  12  16   4   17.80    3.00
  14 -16   4    6.50    2.90
  14  16   4    4.90    2.70
  14  16   4   -1.10    2.30
  16 -16   4   11.80    3.50
  19  17  -4   -1.70    3.00
  19  17  -4   -5.30    2.50
  17  17  -4    3.40    3.10
  17  17  -4    2.00    2.60
  15  17  -4    2.80    2.60
  15  17  -4    1.40    2.60
  13  17  -4   -0.10    2.30
  13  17  -4   -1.30    2.40
  13  17  -4    0.60    2.50
  11  17  -4    1.50    2.30
  11  17  -4    1.70    2.40
  11  17  -4   -1.40    2.30
   9  17  -4    0.50    2.20
   9  17  -4    6.70    2.60
   9  17  -4    7.70    2.60
   7  17  -4   10.50    2.70
   7  17  -4    3.40    2.30
   7  17  -4    7.10    2.60
   5  17  -4    0.90    2.20
   5  17  -4    5.40    2.50
   5  17  -4    1.30    2.20
   3  17  -4   14.90    2.80
  -3  17   4    8.30    2.30
   3  17  -4    6.60    2.50
   3  17  -4    5.20    2.30
   1  17  -4    1.80    2.20
  -1  17   4    0.50    2.00
   1  17  -4    2.60    2.10
   1  17  -4    4.50    2.20
  -1  17  -4    9.20    2.40
  -1  17  -4    4.70    2.10
  -1  17  -4    6.80    2.40
   1  17   4    7.20    2.30
  -3  17  -4    3.80    2.10
  -3  17  -4   -1.60    1.70
   3  17   4   -0.10    2.00
   3  17   4   -1.20    2.00
  -3  17  -4    0.70    2.20
   5  17   4    3.90    2.30
   5  17   4   11.10    2.60
  -5  17  -4    8.00    2.40
  -5  17  -4    3.50    2.10
   7 -17   4    2.60    2.30
   7  17   4    1.20    2.30
  -7  17  -4    2.70    2.30
   7  17   4    2.30    2.30
  -7  17  -4    1.70    2.00
   9 -17   4    5.90    2.70
   9  17   4    3.10    2.30
   9  17   4    4.90    2.50
  -9  17  -4    7.20    2.50
  11 -17   4    1.60    2.60
  11  17   4   -0.70    2.30
  11  17   4    2.60    2.50
  13 -17   4    4.40    3.00
  13  17   4    8.10    2.90
  13  17   4    3.70    2.60
  15 -17   4    1.70    3.10
  15  17   4   -1.90    2.30
  15  17   4    1.30    2.80
  16  18  -4   15.50    3.60
  16  18  -4   17.10    3.70
  14  18  -4    1.60    2.80
  14  18  -4    4.40    2.60
  14  18  -4    6.60    3.00
  12  18  -4   11.10    3.20
  12  18  -4    5.40    3.00
  12  18  -4    9.50    3.00
  10  18  -4    0.20    2.40
  10  18  -4    4.90    2.60
  10  18  -4    4.50    2.50
   8  18  -4    9.60    2.90
   8  18  -4    7.60    2.70
   8  18  -4    6.30    2.60
   6  18  -4    3.20    2.50
   6  18  -4    0.00    2.40
   6  18  -4   -1.60    2.10
  -4  18   4    4.70    2.30
   4  18  -4    3.50    2.40
   4  18  -4    3.90    2.40
   4  18  -4    4.80    2.50
  -2  18   4   -1.60    2.00
   2  18  -4   -2.30    2.10
   2  18  -4    2.70    2.30
   2  18  -4    2.30    2.20
   0  18  -4    9.30    2.60
   0  18  -4    6.00    2.40
   0  18   4    1.70    2.30
   0  18  -4    8.10    2.50
  -2  18  -4    1.40    2.30
   2  18   4   -1.20    2.20
   2  18   4    0.90    2.30
  -2  18  -4    0.50    2.00
  -2  18  -4    4.80    2.40
   4  18   4    3.70    2.50
  -4  18  -4    5.40    2.50
  -4  18  -4    4.50    2.20
  -4  18  -4    3.10    2.30
   4  18   4    1.90    2.30
   6 -18   4   -1.40    2.30
   6  18   4    4.80    2.50
  -6  18  -4    2.00    2.10
   6  18   4    2.70    2.40
  -6  18  -4    5.60    2.50
   8 -18   4    0.10    2.60
   8  18   4   -0.80    2.30
  -8  18  -4    3.60    2.30
  -8  18  -4    0.90    2.30
   8  18   4    0.10    2.30
  10 -18   4   10.10    3.10
  10  18   4    8.70    2.80
  10  18   4    5.90    2.90
 -10  18  -4   10.30    2.70
  12 -18   4   -0.40    2.80
  12  18   4   -1.80    2.60
  12  18   4    0.10    2.60
  13  19  -4   -0.60    2.60
  13  19  -4   -3.40    2.70
  13  19  -4    2.80    3.00
  11  19  -4    9.40    2.90
  11  19  -4   -5.40    2.40
  11  19  -4    1.30    2.70
   9  19  -4    1.90    2.60
   9  19  -4   -2.60    2.50
   9  19  -4    1.10    2.70
   7  19  -4    4.40    2.70
   7  19  -4    0.00    2.50
   7  19  -4    2.70    2.60
  -7  19   4   -1.90    2.20
   5  19  -4    7.10    2.70
  -5  19   4   -1.50    2.10
   5  19  -4    3.50    2.70
   5  19  -4    2.60    2.50
   3  19  -4    4.00    2.50
  -3  19   4    1.60    2.30
   3  19  -4    3.50    2.50
   3  19  -4   -0.90    2.50
   1  19  -4   -2.30    2.30
   1  19  -4    6.20    2.60
   1  19  -4   -0.60    2.10
  -1  19   4    3.30    2.40
  -1  19  -4    2.50    2.50
  -1  19  -4   -3.30    2.00
   1  19   4   -0.90    2.20
  -1  19  -4    2.60    2.60
   1  19   4    3.50    2.40
   3  19   4    3.50    2.50
  -3  19  -4   -2.30    2.00
   3  19   4   -0.30    2.40
  -3  19  -4    0.00    2.30
  -3  19  -4    4.60    2.50
   5 -19   4    1.20    2.60
  -5  19  -4    0.50    2.30
   5  19   4    2.20    2.50
   5  19   4    3.90    2.60
  -5  19  -4    1.30    2.20
   7 -19   4    0.30    2.60
  -7  19  -4    2.80    2.20
  -7  19  -4   -0.90    2.40
   7  19   4    0.30    2.50
   7  19   4    1.00    2.70
   9 -19   4    3.10    2.90
  -9  19  -4   -1.10    2.30
   9  19   4    1.60    2.60
   9  19   4    2.20    2.70
   8  20  -4   -0.10    2.50
   8  20  -4   10.00    3.30
   8  20  -4    9.20    3.20
  -8  20   4    3.70    2.50
   6  20  -4    5.70    2.90
   6  20  -4   -0.40    2.50
  -6  20   4    4.60    2.60
   6  20  -4    6.30    2.90
   4  20  -4   -1.10    2.50
   4  20  -4   -1.70    2.50
  -4  20   4    2.00    2.40
   4  20  -4    5.30    2.90
   2  20  -4   -1.40    2.60
   2  20  -4    2.80    2.70
   2  20  -4   -0.30    2.40
  -2  20   4    0.60    2.40
   0  20   4    3.60    2.60
   0  20  -4    6.40    2.90
   0  20   4    5.00    2.70
   0  20  -4    1.30    2.60
   0  20  -4    1.60    2.50
   2  20   4    3.30    2.60
  -2  20  -4    7.70    3.00
  -2  20  -4   -0.80    2.30
  -2  20  -4   -0.50    2.50
   2  20   4   -0.90    2.60
  -4  20  -4    4.90    2.50
   4  20   4   -1.70    2.50
  -4  20  -4    1.60    2.40
   4  20   4    7.20    2.90
  32   0  -5   -4.10    2.50
  32   0  -5    3.70    2.70
  30   0  -5   -1.50    2.20
  30   0  -5    0.50    2.00
  30   0  -5    1.20    2.60
  28   0  -5    1.90    2.20
  28   0  -5   -1.90    2.20
  28   0  -5   -0.70    1.80
  26   0  -5   -1.30    1.60
  26   0  -5   -2.20    1.80
  26   0  -5    0.70    1.90
  24   0  -5   -2.10    1.40
  24   0  -5    0.40    1.70
  24   0  -5   -0.30    1.70
  22   0  -5   -0.10    1.60
  22   0  -5    0.90    1.50
  22   0  -5   -0.10    1.40
  20   0  -5   -0.40    1.20
  20   0  -5   -1.40    1.30
  20   0  -5   -0.80    1.20
  18   0  -5    0.40    1.20
 -18   0   5   -0.90    0.60
  18   0  -5   -0.90    1.20
  18   0  -5   -0.80    1.10
 -16   0   5    0.00    0.60
  16   0  -5   -0.50    0.90
  16   0  -5   -1.60    1.00
  16   0  -5    1.10    1.00
  14   0  -5    0.30    0.80
  14   0  -5   -0.60    0.80
 -14   0   5    0.00    0.50
  14   0  -5   -0.40    0.90
 -12   0   5    0.70    0.40
  12   0  -5    0.70    0.80
  12   0  -5    2.10    0.90
  12   0  -5    1.50    0.90
  10   0  -5    1.00    0.80
  10   0  -5    1.10    0.60
  10   0  -5   -1.00    0.70
   8   0  -5    1.40    0.70
   8   0  -5    0.80    0.70
   8   0  -5    1.60    0.50
   6   0  -5    1.20    0.70
   6   0  -5    2.40    0.70
   6   0  -5    0.90    0.50
   4   0  -5    0.50    0.60
   4   0  -5    1.50    0.40
   4   0  -5    0.60    0.60
   2   0  -5   -0.50    0.30
   2   0  -5    0.60    0.50
   0   0   5    0.80    0.30
   0   0  -5   -0.40    0.50
   2   0   5    0.00    0.60
   2   0   5    0.20    0.40
   4   0   5    0.20    0.60
   4   0   5    0.00    0.60
   4   0   5    0.30    0.40
   6   0   5    0.60    0.60
   6   0   5    0.10    0.70
   6   0   5   -1.30    0.60
   8   0   5    0.60    0.70
   8   0   5   -0.10    0.80
   8   0   5    0.90    0.80
  10   0   5   -1.10    0.90
  10   0   5    0.70    1.00
  10   0   5    0.20    0.70
  12   0   5    0.00    1.10
  12   0   5    1.40    1.10
  12   0   5   -0.10    0.90
  14   0   5   -1.50    0.90
  14   0   5   -0.80    1.30
  14   0   5    1.80    1.30
  16   0   5   -0.10    1.10
  16   0   5    0.80    1.50
  16   0   5    1.60    1.70
  18   0   5    2.80    1.80
  18   0   5    1.10    2.00
  18   0   5   -0.40    1.20
  20   0   5   -2.10    2.20
  20   0   5    2.00    2.00
  22   0   5    1.40    2.40
  22   0   5    0.00    2.00
  24   0   5    3.60    3.00
  24   0   5   -0.60    2.20
  26   0   5   -0.50    2.60
  26   0   5   -1.30    2.80
  31  -1  -5    5.40    2.80
  31  -1  -5    8.20    3.10
  31   1  -5    4.50    2.80
  31   1  -5    3.50    2.20
  31   1  -5   14.70    3.30
  29  -1  -5   16.70    3.20
  29  -1  -5   12.80    3.30
  29   1  -5   15.10    3.40
  29   1  -5   17.60    2.80
  29   1  -5   18.30    3.40
  27  -1  -5    0.40    2.30
  27  -1  -5    1.80    2.00
  27  -1  -5    1.50    1.80
  27   1  -5    1.10    2.20
  27   1  -5    1.30    1.80
  27   1  -5    3.40    2.30
  25  -1  -5   71.59    4.70
  25  -1  -5   56.19    5.20
  25  -1  -5   68.19    5.00
  25   1  -5   71.29    5.10
  25   1  -5   83.29    4.80
  25   1  -5   60.79    5.20
  23  -1  -5   57.19    3.80
  23  -1  -5   57.59    4.30
  23  -1  -5   47.10    4.30
  23   1  -5   52.99    3.80
  23   1  -5   47.60    4.60
  23   1  -5   46.40    4.10
  21  -1  -5  166.08    8.20
  21  -1  -5  162.08    7.70
  21  -1  -5  146.19    8.50
  21   1  -5  160.08    7.70
  21   1  -5  156.48    8.10
  21   1  -5  134.49    8.40
  19  -1  -5   48.40    3.80
  19  -1  -5   47.50    3.30
  19  -1  -5   47.50    3.50
  19   1  -5   49.30    3.30
  19   1  -5   51.49    3.60
  19   1  -5   44.40    3.80
 -17  -1   5  161.18    7.30
  17  -1  -5  153.78    7.70
  17  -1  -5  162.48    8.10
  17  -1  -5  168.98    8.50
  17   1  -5  169.18    7.80
  17   1  -5  164.98    8.60
  17   1  -5  158.78    8.00
 -17   1   5  170.18    7.40
  15  -1  -5   37.90    2.80
  15  -1  -5   42.50    2.80
  15  -1  -5   41.40    3.00
 -15  -1   5   42.80    2.20
  15   1  -5   39.80    2.80
  15   1  -5   41.80    2.80
 -15   1   5   46.20    2.30
  15   1  -5   43.10    3.10
  13  -1  -5  224.48   10.60
  13  -1  -5  219.98   10.10
  13  -1  -5  218.88    9.80
 -13  -1   5  220.28    9.30
  13   1  -5  211.18   10.60
  13   1  -5  206.28    9.80
  13   1  -5  227.78   10.10
 -13   1   5  219.98    9.50
  11  -1  -5   20.80    1.60
  11  -1  -5   24.90    1.90
  11  -1  -5   22.60    1.80
 -11   1   5   22.40    1.30
 -11   1   5   20.60    1.20
  11   1  -5   19.10    1.80
  11   1  -5   19.60    1.70
  11   1  -5   17.40    1.80
   9  -1  -5   71.89    3.60
   9  -1  -5   69.89    3.70
   9  -1  -5   71.89    3.90
   9   1  -5   75.79    3.70
   9   1  -5   78.39    4.00
   9   1  -5   75.09    3.80
   7  -1  -5    0.60    0.50
   7  -1  -5    2.30    0.70
   7  -1  -5    1.20    0.60
   7   1  -5    1.80    0.70
   7   1  -5    2.30    0.70
   5  -1  -5  213.18   10.00
   5  -1  -5  211.68    9.20
   5   1  -5  212.18    9.30
   5   1  -5  210.98    9.40
   5   1  -5  221.28   10.00
   3  -1  -5  131.29    6.10
   3   1  -5  120.29    5.60
   3   1  -5  125.19    5.60
   3   1  -5  126.99    6.10
   1  -1  -5   87.79    4.40
   1   1  -5   87.39    4.40
   1   1  -5   89.59    4.10
  -1  -1  -5   51.69    2.90
   1  -1   5   50.99    2.60
   1  -1   5   53.39    2.90
  -1   1  -5   54.39    2.90
   1   1   5   51.09    2.50
   1   1   5   53.39    2.90
   3  -1   5   97.59    4.80
   3  -1   5  103.69    5.10
   3   1   5  101.49    4.80
   3   1   5  106.39    4.60
   3   1   5  106.49    5.20
   5  -1   5    0.50    0.70
   5  -1   5    0.90    0.60
   5   1   5    1.00    0.60
   5   1   5    2.10    0.80
   5   1   5    1.90    0.70
   7  -1   5   96.49    4.80
   7  -1   5   90.19    4.60
   7  -1   5   90.59    4.20
   7   1   5   89.99    4.30
   7   1   5   89.29    4.80
   7   1   5   85.99    4.60
   9  -1   5    6.10    1.30
   9  -1   5    5.10    1.20
   9  -1   5    4.60    0.90
   9   1   5    6.10    1.20
   9   1   5    7.30    1.10
   9   1   5    5.70    1.30
  11  -1   5  303.87   13.30
  11  -1   5  308.17   14.50
  11  -1   5  291.67   13.90
  11   1   5  301.27   14.50
  11   1   5  313.37   13.40
  11   1   5  294.97   13.90
  13  -1   5    6.60    1.60
  13  -1   5    7.60    1.20
  13  -1   5    6.60    1.70
  13   1   5    5.00    1.20
  13   1   5    3.60    1.40
  13   1   5    3.50    1.50
  15  -1   5  196.88    9.50
  15  -1   5  181.58    9.90
  15  -1   5  196.98    8.90
  15   1   5  188.18    8.80
  15   1   5  187.48    9.40
  15   1   5  184.58   10.00
  17  -1   5    4.60    1.40
  17  -1   5   -1.10    1.80
  17  -1   5    0.80    1.50
  17   1   5    6.60    1.90
  17   1   5    5.30    1.50
  17   1   5    6.10    2.20
  19  -1   5  160.68    7.60
  19  -1   5  158.38    8.40
  19  -1   5  131.39    8.80
  19   1   5  152.88    7.50
  19   1   5  152.88    8.20
  19   1   5  142.09    8.90
  21  -1   5   -1.60    1.90
  21  -1   5   -3.80    2.00
  21   1   5   -4.20    2.20
  21   1   5    2.90    2.10
  23  -1   5   62.29    5.30
  23  -1   5   50.19    5.40
  23   1   5   55.79    5.70
  23   1   5   64.49    5.20
  25  -1   5    3.30    2.90
  25  -1   5    5.90    2.90
  25   1   5    5.50    3.30
  25   1   5    0.20    2.40
  27  -1   5   24.20    3.90
  27  -1   5   11.50    3.80
  27   1   5   14.30    3.50
  27   1   5   14.80    4.10
  32  -2  -5    3.00    2.90
  32  -2  -5   13.10    3.10
  32   2  -5   13.10    3.40
  32   2  -5   15.50    3.50
  32   2  -5    7.50    2.40
  30  -2  -5    1.50    2.40
  30  -2  -5   -3.50    2.40
  30   2  -5    1.20    2.50
  30   2  -5    2.40    2.60
  30   2  -5    5.30    2.30
  28  -2  -5    8.10    2.60
  28  -2  -5    4.00    2.70
  28   2  -5    8.80    2.70
  28   2  -5   10.10    2.30
  28   2  -5    7.80    2.60
  26  -2  -5    7.40    2.60
  26  -2  -5    5.00    2.20
  26   2  -5    3.00    2.10
  26   2  -5    5.50    2.30
  26   2  -5    7.50    2.10
  24  -2  -5   50.79    4.40
  24  -2  -5   39.40    4.20
  24   2  -5   49.60    4.20
  24   2  -5   41.20    3.50
  24   2  -5   32.80    3.90
  22  -2  -5    4.80    1.70
  22  -2  -5    4.30    1.90
  22   2  -5    3.10    1.60
  22   2  -5    0.00    1.60
  22   2  -5   -0.20    1.70
  20  -2  -5  125.09    6.50
  20  -2  -5  119.39    6.20
  20  -2  -5  123.39    6.80
  20   2  -5  126.39    6.20
  20   2  -5  104.59    6.80
  20   2  -5  115.69    6.50
  18  -2  -5   -0.60    1.20
  18  -2  -5    1.30    1.40
  18  -2  -5    2.70    1.30
  18   2  -5    3.20    1.30
  18   2  -5    2.30    1.30
  18   2  -5    3.90    1.50
 -16  -2   5   63.29    3.00
  16  -2  -5   63.39    3.70
  16  -2  -5   60.69    3.90
  16  -2  -5   57.19    3.70
  16   2  -5   59.19    3.70
  16   2  -5   58.49    4.00
  16   2  -5   67.59    3.80
 -16   2   5   62.49    3.20
 -14  -2   5    1.20    0.40
  14  -2  -5    1.70    1.00
  14  -2  -5    0.60    1.00
  14  -2  -5    0.70    0.90
 -14  -2   5    1.50    0.40
 -14   2   5    1.30    0.60
  14   2  -5    1.50    1.10
  14   2  -5    1.10    0.90
  14   2  -5    1.20    0.90
  12  -2  -5  102.39    5.20
  12  -2  -5  109.39    5.50
  12  -2  -5   99.59    5.20
  12   2  -5  102.19    5.20
 -12   2   5  107.29    4.80
  12   2  -5  109.99    5.60
  12   2  -5  104.49    5.20
  10  -2  -5    6.50    1.10
  10  -2  -5   10.00    1.10
  10  -2  -5    7.60    1.10
 -10   2   5    9.40    0.90
  10   2  -5    8.60    1.20
 -10   2   5    9.90    0.80
  10   2  -5    8.80    1.30
  10   2  -5    7.70    1.10
   8  -2  -5   10.10    0.90
   8  -2  -5    9.20    1.20
   8   2  -5    8.80    1.00
  -8   2   5   10.10    0.80
   8   2  -5    9.20    1.10
   8   2  -5    9.40    1.20
  -8   2   5    9.60    0.80
   6  -2  -5   11.20    1.20
   6   2  -5   12.50    1.10
   6   2  -5   12.10    1.20
   6   2  -5   10.00    1.10
  -6   2   5   11.50    0.70
   4  -2  -5   34.10    2.10
   4   2  -5   30.10    1.90
   4   2  -5   33.10    2.00
   2  -2  -5   94.49    4.80
  -2   2   5   91.69    4.10
   2   2  -5  101.19    4.40
   2   2  -5   97.09    4.70
   0  -2  -5   45.90    2.70
   0   2  -5   49.99    2.60
   0   2  -5   48.70    2.50
   0   2   5   47.00    2.70
   0   2   5   48.00    2.30
   2  -2   5    1.90    0.70
   2  -2   5    1.10    0.50
   2   2   5    1.40    0.70
   2   2   5    0.80    0.50
   2   2   5    1.90    0.60
   4  -2   5   24.20    1.80
   4  -2   5   23.40    1.70
   4   2   5   26.20    1.60
   4   2   5   24.90    1.70
   4   2   5   28.60    1.90
  -6  -2  -5    0.80    0.40
   6  -2   5    0.10    0.70
   6  -2   5    2.30    0.80
   6   2   5    1.00    0.70
   6   2   5    2.30    0.80
   6   2   5    0.50    0.80
   8  -2   5   10.50    1.00
   8  -2   5   11.00    1.40
   8  -2   5    9.90    1.40
   8   2   5    8.70    1.30
   8   2   5   11.40    1.50
   8   2   5   12.50    1.30
  10  -2   5   80.99    4.60
  10  -2   5   78.99    4.00
  10  -2   5   79.99    4.50
  10   2   5   83.89    4.50
  10   2   5   85.79    4.80
  10   2   5   80.19    4.20
  12  -2   5   55.69    3.60
  12  -2   5   50.29    3.50
  12  -2   5   49.10    2.90
  12   2   5   47.00    3.40
  12   2   5   52.19    3.10
  12   2   5   48.70    3.60
  14  -2   5   45.90    3.60
  14  -2   5   47.30    3.00
  14  -2   5   44.00    3.60
  14   2   5   49.70    3.60
  14   2   5   46.70    3.10
  14   2   5   44.90    3.70
  16  -2   5    2.10    1.60
  16  -2   5    1.60    1.10
  16  -2   5    5.10    2.00
  16   2   5    5.10    2.00
  16   2   5    1.50    1.30
  16   2   5    4.00    1.70
  18  -2   5   41.80    3.90
  18  -2   5   34.00    3.90
  18  -2   5   35.90    3.00
  18   2   5   36.70    2.90
  18   2   5   33.90    3.40
  18   2   5   34.30    4.00
  20  -2   5   30.70    3.70
  20  -2   5   39.00    4.40
  20   2   5   32.50    3.00
  20   2   5   40.10    3.90
  20   2   5   33.90    4.20
  22  -2   5    7.40    2.50
  22  -2   5    4.70    2.70
  22   2   5    6.10    2.90
  22   2   5    7.40    2.50
  24  -2   5    3.50    2.80
  24  -2   5    2.10    2.30
  24   2   5   -0.40    2.40
  24   2   5    1.20    2.70
  26  -2   5   -0.40    2.40
  26  -2   5    2.30    3.00
  26   2   5    2.40    2.50
  26   2   5   -1.40    2.80
  31  -3  -5   17.60    3.70
  31  -3  -5   21.40    3.60
  31   3  -5   15.40    3.30
  31   3  -5   13.80    3.50
  31   3  -5   14.50    2.80
  29  -3  -5   14.00    3.20
  29  -3  -5   11.50    3.10
  29   3  -5    9.70    3.00
  29   3  -5   12.40    2.60
  29   3  -5   18.10    3.30
  27  -3  -5   20.40    3.20
  27  -3  -5   18.40    3.20
  27   3  -5   21.00    3.30
  27   3  -5   22.70    2.90
  27   3  -5   18.90    3.30
  25  -3  -5    4.50    2.20
  25  -3  -5    2.80    2.20
  25   3  -5    4.00    2.10
  25   3  -5    4.30    2.20
  25   3  -5    4.30    1.80
  23  -3  -5    0.20    1.90
  23  -3  -5    1.30    1.80
  23   3  -5    4.60    2.00
  23   3  -5    5.30    1.80
  23   3  -5    0.90    1.80
  21  -3  -5    1.40    1.60
  21  -3  -5    1.40    1.50
  21   3  -5    0.90    1.40
  21   3  -5   -0.70    1.50
  21   3  -5   -0.40    1.70
  19  -3  -5    2.80    1.60
  19  -3  -5    4.20    1.50
  19   3  -5    8.70    1.70
  19   3  -5    5.60    1.80
  19   3  -5    8.10    1.80
  17  -3  -5   36.80    3.00
  17  -3  -5   38.60    2.90
 -17  -3   5   37.20    2.10
  17   3  -5   38.50    3.20
  17   3  -5   36.50    3.00
 -17   3   5   34.90    2.30
  17   3  -5   44.30    3.00
 -15  -3   5    1.00    0.40
  15  -3  -5    0.90    1.10
  15  -3  -5    1.40    1.00
 -15   3   5    0.90    0.70
  15   3  -5    1.90    1.10
  15   3  -5    1.10    1.10
  15   3  -5    0.90    1.00
  13  -3  -5  123.99    6.10
  13  -3  -5  125.19    6.40
  13   3  -5  123.69    6.10
  13   3  -5  124.59    6.20
 -13   3   5  128.39    5.70
  13   3  -5  126.09    6.60
  11  -3  -5   21.70    1.90
  11  -3  -5   22.40    1.80
  11   3  -5   21.80    1.90
  11   3  -5   19.20    1.80
 -11   3   5   21.50    1.50
  11   3  -5   24.30    2.00
   9  -3  -5  337.47   15.90
   9  -3  -5  370.96   16.70
   9   3  -5  363.56   15.60
   9   3  -5  368.86   16.00
   9   3  -5  360.26   16.70
  -9   3   5  373.86   15.50
   7  -3  -5   12.70    1.10
   7  -3  -5   14.30    1.40
   7   3  -5   14.10    1.30
   7   3  -5   14.40    1.40
   7   3  -5   12.10    1.30
  -7   3   5   13.30    1.00
  -7   3   5   12.10    1.00
   5  -3  -5  365.56   16.50
   5   3  -5  354.66   15.20
  -5   3   5  349.77   15.20
   5   3  -5  366.86   16.40
   5   3  -5  356.26   15.70
   3  -3  -5   10.70    1.20
  -3   3   5   12.20    1.00
   3   3  -5   13.10    1.20
   3   3  -5   12.70    1.20
   3   3  -5   14.00    1.20
   1  -3  -5  439.86   20.20
  -1   3   5  435.76   18.70
   1   3  -5  450.05   18.50
   1   3  -5  432.66   19.30
   1   3  -5  454.05   20.10
   1  -3   5    3.40    0.70
  -1   3  -5    5.00    0.70
   1   3   5    3.80    0.80
  -1   3  -5    5.10    0.80
   1   3   5    4.00    0.70
  -3  -3  -5  447.16   18.40
   3  -3   5  436.66   19.80
   3  -3   5  417.36   19.10
   3   3   5  448.26   20.00
   3   3   5  440.06   18.60
   3   3   5  424.16   18.90
   5  -3   5   58.19    3.20
  -5  -3  -5   65.99    2.90
   5  -3   5   57.29    3.20
   5   3   5   53.89    3.10
   5   3   5   58.09    3.10
   5   3   5   56.39    3.40
   7  -3   5  417.26   18.30
   7  -3   5  386.06   17.70
   7   3   5  394.96   18.50
   7   3   5  382.06   17.50
   7   3   5  402.76   17.20
   9  -3   5  110.19    5.70
   9  -3   5  108.89    5.60
   9  -3   5  106.09    5.10
   9   3   5  109.59    4.90
   9   3   5  115.99    6.00
   9   3   5  113.09    5.30
   9   3   5  102.49    5.50
  11  -3   5   22.00    1.80
  11  -3   5   15.30    2.00
  11  -3   5   21.40    2.20
  11   3   5   22.90    2.00
  11   3   5   22.20    2.20
  11   3   5   23.20    2.50
  13  -3   5   25.60    2.10
  13  -3   5   25.80    2.70
  13  -3   5   24.00    2.60
  13   3   5   29.10    2.30
  13   3   5   28.20    2.60
  13   3   5   23.60    2.70
  15  -3   5   15.80    2.40
  15  -3   5   22.20    2.10
  15  -3   5   18.10    2.60
  15   3   5   20.60    2.80
  15   3   5   26.00    2.30
  15   3   5   18.20    2.40
  17  -3   5    4.30    2.20
  17  -3   5    3.30    1.20
  17  -3   5    2.50    1.80
  17   3   5    2.30    1.70
  17   3   5    1.40    1.40
  17   3   5    1.70    1.90
  19  -3   5    3.50    2.40
  19  -3   5    3.60    2.10
  19   3   5    6.10    1.70
  19   3   5    0.20    2.10
  19   3   5    2.90    1.90
  21  -3   5    7.70    2.90
  21  -3   5    6.30    2.50
  21   3   5    8.40    2.80
  21   3   5    7.10    2.40
  23  -3   5   15.80    3.40
  23  -3   5   13.50    3.10
  23   3   5   12.00    3.30
  23   3   5   10.00    2.80
  25  -3   5    3.60    2.90
  25  -3   5    4.10    2.70
  25   3   5    2.90    2.90
  25   3   5    1.90    2.50
  27  -3   5   19.10    4.10
  27  -3   5   25.50    4.10
  27   3   5   15.70    4.20
  27   3   5   30.80    4.00
  32  -4  -5   19.50    3.70
  32  -4  -5   11.10    3.40
  32   4  -5   15.10    3.00
  32   4  -5   23.40    3.90
  32   4  -5   16.40    3.50
  30  -4  -5    5.50    2.80
  30  -4  -5    3.30    2.80
  30   4  -5    7.30    2.90
  30   4  -5    5.50    2.40
  30   4  -5    7.00    2.80
  28  -4  -5   35.10    4.10
  28  -4  -5   22.00    3.60
  28   4  -5   16.30    3.30
  28   4  -5   35.40    3.60
  28   4  -5   37.10    4.10
  26  -4  -5   -2.90    2.00
  26  -4  -5   -1.30    1.80
  26   4  -5    1.00    2.00
  26   4  -5   -0.40    1.80
  26   4  -5    0.40    2.00
  24  -4  -5   25.00    3.10
  24  -4  -5   35.00    3.60
  24   4  -5   30.80    3.10
  24   4  -5   20.50    3.30
  24   4  -5   35.40    3.70
  22  -4  -5    0.10    1.70
  22  -4  -5    1.30    1.60
  22   4  -5    1.20    1.60
  22   4  -5    0.60    1.80
  22   4  -5   -1.10    1.50
  20  -4  -5   29.00    3.10
  20  -4  -5   32.90    3.00
  20   4  -5   21.20    2.50
  20   4  -5   23.00    3.10
  20   4  -5   27.30    3.00
  18  -4  -5   22.30    2.40
  18  -4  -5   21.50    2.40
  18   4  -5   27.90    2.60
  18   4  -5   26.60    2.70
  18   4  -5   21.60    2.60
 -16  -4   5   47.60    2.40
  16  -4  -5   53.09    3.40
  16  -4  -5   48.40    3.40
  16   4  -5   49.20    3.70
 -16   4   5   48.70    2.80
  16   4  -5   55.29    3.50
  16   4  -5   51.89    3.40
  14  -4  -5   41.00    2.60
  14  -4  -5   33.90    2.60
 -14   4   5   35.80    2.20
  14   4  -5   36.30    2.70
  14   4  -5   33.10    2.90
  14   4  -5   32.20    2.60
  12  -4  -5   50.79    3.00
  12   4  -5   45.60    2.90
  12   4  -5   45.50    3.10
  12   4  -5   44.00    2.90
 -12   4   5   48.10    2.60
  10  -4  -5   90.69    4.80
  10  -4  -5  100.39    4.60
  10   4  -5   91.29    4.90
  10   4  -5   91.79    4.70
  10   4  -5   94.09    4.70
 -10   4   5   89.29    4.30
   8  -4  -5  125.69    5.90
   8  -4  -5  131.19    6.30
   8   4  -5  127.89    6.10
   8   4  -5  129.89    6.30
  -8   4   5  131.39    5.80
   8   4  -5  124.39    6.00
   6  -4  -5  218.18    9.90
   6   4  -5  212.88    9.30
  -6   4   5  204.18    9.10
   6   4  -5  209.28    9.50
   6   4  -5  206.98    9.80
   4  -4  -5  134.69    6.50
   4   4  -5  132.09    6.00
   4   4  -5  131.89    6.40
  -4   4   5  135.39    5.90
   4   4  -5  131.09    6.20
   2  -4  -5  101.29    4.90
  -2   4   5   98.39    4.40
   2   4  -5   90.49    4.60
   2   4  -5   97.39    4.40
   2   4  -5   93.49    4.70
   0  -4  -5   83.29    4.50
   0   4  -5   88.39    4.30
   0   4  -5   87.09    4.00
   0   4   5   87.49    4.10
   0   4  -5   86.89    4.30
   0   4   5   88.09    4.50
   2  -4   5   21.00    1.40
  -2  -4  -5   19.40    1.30
   2   4   5   20.50    1.50
  -2   4  -5   18.30    1.60
   2   4   5   20.50    1.70
   2   4   5   19.00    1.30
   4  -4   5  207.88    9.50
   4  -4   5  192.78    9.30
   4   4   5  210.88    9.00
   4   4   5  203.98    9.70
   4   4   5  198.68    9.10
   6  -4   5   37.10    2.40
   6  -4   5   41.10    2.60
   6   4   5   38.80    2.40
   6   4   5   42.60    2.50
   6   4   5   40.80    2.70
   6   4   5   39.10    2.10
   8  -4   5  167.48    8.20
   8  -4   5  169.68    8.10
   8   4   5  178.38    8.50
   8   4   5  156.28    7.70
   8   4   5  172.48    7.40
   8   4   5  169.48    8.00
  10  -4   5    1.30    1.00
  10  -4   5    3.20    1.20
  10  -4   5    1.80    0.80
  10   4   5    1.60    1.20
  10   4   5    1.90    0.70
  10   4   5    2.20    1.10
  10   4   5    2.00    1.10
  12  -4   5   50.89    3.50
  12  -4   5   54.69    2.90
  12  -4   5   48.50    3.60
  12   4   5   50.99    3.20
  12   4   5   48.60    3.70
  12   4   5   47.40    3.40
  14  -4   5    0.70    1.00
  14  -4   5   -0.20    1.40
  14  -4   5    1.10    1.40
  14   4   5    1.90    1.60
  14   4   5    4.10    1.50
  14   4   5    0.00    1.20
  16  -4   5    6.90    1.40
  16  -4   5    5.50    2.00
  16  -4   5    9.60    2.20
  16   4   5    8.30    2.00
  16   4   5    5.70    1.60
  16   4   5    6.70    2.20
  18  -4   5    4.80    2.20
  18  -4   5    4.00    2.00
  18  -4   5    2.80    1.40
  18   4   5    5.60    2.00
  18   4   5    6.70    2.50
  18   4   5    1.00    1.40
  20  -4   5    1.90    2.20
  20  -4   5   -0.80    2.00
  20   4   5    0.40    2.30
  20   4   5    0.00    1.40
  20   4   5   -1.10    1.90
  22  -4   5    7.80    2.80
  22  -4   5    7.70    2.80
  22   4   5    6.90    3.00
  22   4   5    6.60    2.50
  24  -4   5   -2.90    2.30
  24  -4   5    2.90    2.80
  24   4   5    1.30    2.80
  24   4   5    2.00    2.30
  26  -4   5    9.20    3.20
  26  -4   5   14.50    3.60
  26   4   5   11.10    3.00
  26   4   5    9.90    3.70
  31  -5  -5    1.50    2.60
  31  -5  -5   -0.60    2.60
  31   5  -5    1.20    2.80
  31   5  -5    2.60    2.30
  31   5  -5    2.50    2.70
  29  -5  -5   30.90    4.20
  29  -5  -5   37.00    4.30
  29   5  -5   19.20    3.70
  29   5  -5   36.40    3.80
  29   5  -5   32.40    4.30
  27  -5  -5    3.40    2.20
  27  -5  -5    4.80    2.50
  27   5  -5    6.30    2.20
  27   5  -5    2.40    2.40
  27   5  -5   -0.40    2.30
  25  -5  -5   13.90    2.80
  25  -5  -5   15.80    2.90
  25   5  -5    9.70    2.40
  25   5  -5   13.20    2.90
  25   5  -5   11.20    2.90
  23  -5  -5    4.10    2.00
  23  -5  -5    4.70    2.10
  23   5  -5    1.70    2.00
  23   5  -5    0.30    2.00
  23   5  -5    0.40    1.60
  21  -5  -5   31.00    3.20
  21  -5  -5   38.30    3.50
  21   5  -5   37.60    3.30
  21   5  -5   41.20    3.70
  21   5  -5   29.60    3.60
  19  -5  -5    8.80    1.80
  19  -5  -5    6.90    1.80
  19   5  -5    6.40    1.80
  19   5  -5    8.50    1.80
  19   5  -5    4.30    1.80
  17  -5  -5   41.30    3.00
  17  -5  -5   33.60    3.00
  17   5  -5   31.20    3.20
  17   5  -5   35.10    3.00
  17   5  -5   38.10    3.10
 -17   5   5   37.70    2.40
  15  -5  -5    7.80    0.90
  15  -5  -5   11.60    1.70
  15  -5  -5   11.90    1.70
  15   5  -5    6.80    1.60
 -15   5   5    9.20    1.20
  15   5  -5    9.50    1.60
  15   5  -5   11.70    1.70
  13  -5  -5   59.99    2.90
  13  -5  -5   61.89    3.60
  13   5  -5   59.09    3.60
 -13   5   5   54.79    3.10
  13   5  -5   60.39    3.80
  13   5  -5   60.99    3.60
  11  -5  -5   60.19    3.50
  11  -5  -5   62.59    2.90
  11  -5  -5   63.59    3.40
  11   5  -5   53.79    3.40
 -11   5   5   59.99    3.10
  11   5  -5   61.39    3.50
  11   5  -5   62.29    3.60
   9  -5  -5   62.39    3.20
   9  -5  -5   58.59    2.90
   9  -5  -5   60.99    2.90
   9  -5  -5   61.79    3.40
   9   5  -5   59.99    3.40
  -9   5   5   63.29    3.10
   9   5  -5   55.89    3.40
   9   5  -5   60.19    3.40
   7  -5  -5   61.99    3.40
   7  -5  -5   59.49    3.10
   7  -5  -5   58.39    2.90
   7  -5  -5   63.59    2.90
   7   5  -5   63.19    3.40
   7   5  -5   61.19    3.30
  -7   5   5   64.39    3.10
   7   5  -5   58.49    3.30
   5  -5  -5    1.90    0.50
   5  -5  -5    1.80    0.50
   5  -5  -5    2.30    0.80
  -5   5   5    2.90    0.70
   5   5  -5    1.80    0.80
   5   5  -5    2.20    0.80
   5   5  -5    0.40    0.60
   3  -5  -5   12.20    1.30
   3  -5  -5   12.70    1.00
   3   5  -5   13.20    1.20
   3   5  -5   15.60    1.30
  -3   5   5   13.80    1.20
   3   5  -5   13.10    1.20
   3   5  -5   12.80    1.30
   1  -5  -5   59.39    3.40
   1   5  -5   65.49    3.20
  -1   5   5   61.29    3.50
   1   5  -5   60.29    3.30
   1   5  -5   69.19    3.10
  -1   5   5   63.29    3.20
   1   5  -5   65.19    3.30
   1  -5   5    4.10    0.70
   1   5   5    6.50    0.90
  -1   5  -5    4.70    0.70
   1   5   5    6.00    1.00
  -1   5  -5    5.60    1.00
  -1   5  -5    8.00    0.90
  -1   5  -5    6.60    0.80
   3  -5   5   44.10    2.60
   3   5   5   50.79    2.70
  -3   5  -5   49.99    2.40
   3   5   5   45.90    2.90
   3   5   5   48.80    2.50
   5  -5   5   14.00    1.60
   5  -5   5   14.90    1.30
   5   5   5   13.90    1.40
  -5   5  -5   15.30    1.20
   5   5   5   16.70    1.30
   5   5   5   14.80    1.70
   5   5   5   15.00    1.30
   7  -5   5    4.40    1.20
   7  -5   5    3.80    0.90
   7   5   5    4.30    1.30
   7   5   5    4.80    0.90
   7   5   5    3.30    1.00
   7   5   5    4.80    1.00
   7   5   5    4.10    0.80
   9  -5   5   13.60    1.90
   9  -5   5   17.00    1.70
   9   5   5   17.30    1.80
   9   5   5   16.20    1.40
   9   5   5   12.40    1.80
   9   5   5   16.20    1.30
   9   5   5   12.70    1.60
  11  -5   5    8.80    1.70
  11  -5   5    7.50    1.50
  11   5   5    6.70    1.70
  11   5   5   12.00    1.50
  11   5   5    7.70    1.50
  13  -5   5   41.30    3.30
  13  -5   5   39.40    3.50
  13  -5   5   45.50    2.80
  13   5   5   42.70    3.00
  13   5   5   43.90    3.70
  13   5   5   42.20    3.20
  15  -5   5   65.29    3.90
  15  -5   5   64.19    4.70
  15  -5   5   75.59    4.80
  15   5   5   68.59    4.50
  15   5   5   73.19    4.10
  15   5   5   59.89    4.80
  17  -5   5    4.30    1.40
  17  -5   5    4.20    2.00
  17  -5   5    2.90    2.10
  17   5   5    1.80    1.70
  17   5   5    0.00    1.90
  17   5   5    2.10    1.40
  19  -5   5   32.10    3.60
  19  -5   5   32.60    3.70
  19   5   5   26.30    2.60
  19   5   5   34.70    3.50
  19   5   5   24.20    3.70
  21  -5   5   -1.80    2.10
  21  -5   5   -0.50    2.20
  21   5   5   -1.40    2.30
  21   5   5    2.50    2.10
  23  -5   5   23.30    3.80
  23   5   5   21.80    3.30
  23   5   5   11.20    3.40
  25  -5   5   10.40    3.40
  25   5   5    2.80    3.10
  25   5   5    1.40    2.60
  30  -6  -5    0.50    2.50
  30  -6  -5   -1.40    2.30
  30   6  -5    0.60    2.50
  30   6  -5    2.20    2.30
  30   6  -5    2.20    2.60
  28  -6  -5   74.69    5.90
  28  -6  -5   84.59    6.10
  28   6  -5   70.99    5.30
  28   6  -5   71.39    6.10
  26  -6  -5   -1.70    2.10
  26  -6  -5    3.80    2.30
  26   6  -5   -0.30    2.20
  26   6  -5    0.70    1.90
  26   6  -5    2.50    2.30
  24  -6  -5   65.89    4.80
  24  -6  -5   60.29    4.60
  24   6  -5   45.20    4.80
  24   6  -5   59.99    4.50
  24   6  -5   55.59    4.90
  22  -6  -5    0.50    1.80
  22  -6  -5    2.30    1.80
  22   6  -5    0.70    1.70
  22   6  -5   -0.60    1.80
  22   6  -5    1.90    2.10
  20  -6  -5   41.20    3.60
  20  -6  -5   47.30    3.80
  20   6  -5   51.89    4.00
  20   6  -5   43.20    3.60
  20   6  -5   44.80    4.30
  18  -6  -5    8.20    1.80
  18  -6  -5    7.00    1.70
  18   6  -5    6.00    1.90
  18   6  -5    6.40    1.90
  18   6  -5    5.70    1.70
  16  -6  -5  178.98    8.50
  16  -6  -5  165.38    7.60
  16  -6  -5  165.38    8.30
 -16   6   5  173.78    7.70
  16   6  -5  163.88    8.30
  16   6  -5  155.38    8.00
  16   6  -5  162.68    8.80
  14  -6  -5   24.90    1.80
  14  -6  -5   24.40    2.30
  14  -6  -5   23.90    2.20
  14   6  -5   26.30    2.50
  14   6  -5   24.10    2.60
 -14   6   5   24.60    1.90
  14   6  -5   23.90    2.40
  12  -6  -5  200.78    9.20
  12  -6  -5  199.28    9.60
  12  -6  -5  196.48    8.70
  12   6  -5  204.58    9.80
  12   6  -5  195.48    9.40
  12   6  -5  194.58    9.10
 -12   6   5  197.58    8.90
  10  -6  -5   17.60    1.30
  10  -6  -5   17.80    1.60
  10  -6  -5   16.00    1.60
  10   6  -5   14.90    1.70
  10   6  -5   16.30    1.80
  10   6  -5   13.80    1.70
 -10   6   5   15.40    1.40
   8  -6  -5  195.38    8.70
   8  -6  -5  205.38    9.00
   8  -6  -5  200.88    9.50
   8   6  -5  195.58    9.30
   8   6  -5  207.88    9.60
  -8   6   5  197.38    8.90
   8   6  -5  200.08    9.00
   6  -6  -5    1.40    0.80
   6   6  -5    1.00    0.70
   6   6  -5    1.00    0.80
   6   6  -5    2.60    0.90
  -6   6   5    1.80    0.70
   4  -6  -5   99.89    5.20
   4   6  -5  106.19    5.00
   4   6  -5  104.39    5.10
   4   6  -5  100.49    5.10
  -4   6   5  105.69    4.90
   4   6  -5  103.69    4.80
   2  -6  -5  130.49    6.70
   2   6  -5  136.79    6.50
  -2   6   5  139.69    6.30
   2   6  -5  144.09    6.20
  -2   6   5  139.09    6.80
   2   6  -5  142.99    6.30
   2   6  -5  136.59    6.60
   0   6   5   91.89    4.60
   0   6  -5   90.39    4.20
   0   6  -5   83.19    4.20
   0   6  -5   81.39    4.40
   0   6  -5   87.69    4.10
   0   6   5   88.99    4.20
   2  -6   5   82.69    4.20
  -2   6  -5   89.19    4.10
  -2   6  -5   80.49    4.40
   2   6   5   89.19    4.10
   2   6   5   90.09    4.30
   2   6   5   86.89    4.60
  -2   6  -5   89.79    4.00
   4  -6   5  110.29    5.30
   4  -6   5  113.29    5.60
   4   6   5  104.79    5.20
   4   6   5  106.89    4.90
   4   6   5  114.39    5.30
   4   6   5  110.29    5.70
  -4   6  -5  107.19    5.00
  -4   6  -5  112.19    4.90
   6  -6   5   42.10    2.60
   6  -6   5   43.70    3.00
   6   6   5   49.10    2.60
   6   6   5   46.30    2.50
   6   6   5   44.80    3.10
   6   6   5   47.00    2.80
  -6   6  -5   45.80    2.40
   6   6   5   46.20    2.70
   8  -6   5   57.19    3.50
   8  -6   5   50.49    3.00
   8   6   5   51.59    3.50
   8   6   5   49.90    3.10
   8   6   5   51.29    3.10
   8   6   5   48.30    2.70
  -8   6  -5   58.99    2.70
   8   6   5   48.20    2.80
  10  -6   5    4.90    1.50
  10  -6   5    5.30    1.20
  10   6   5    5.90    1.60
  10   6   5    3.10    1.00
  10   6   5    4.50    1.00
  10   6   5    1.80    1.10
  10   6   5    5.00    1.30
  12  -6   5   14.40    2.20
  12  -6   5   15.90    2.00
  12   6   5   12.40    1.90
  12   6   5   19.60    1.90
  12   6   5   13.00    2.30
  14  -6   5   49.00    3.90
  14  -6   5   43.60    3.60
  14  -6   5   47.20    3.00
  14   6   5   45.70    3.20
  14   6   5   41.30    4.00
  14   6   5   50.89    3.60
  16  -6   5   35.50    2.80
  16  -6   5   41.00    3.80
  16  -6   5   30.90    3.40
  16   6   5   23.80    3.50
  16   6   5   40.00    3.50
  16   6   5   34.10    2.80
  18  -6   5   14.20    2.80
  18   6   5   13.60    3.00
  18   6   5   16.50    2.70
  18   6   5   17.10    2.10
  20  -6   5   10.30    2.90
  20   6   5    8.50    2.90
  20   6   5    9.80    2.50
  22  -6   5   13.00    3.30
  22   6   5    1.70    2.70
  22   6   5    5.10    2.50
  24  -6   5   20.00    3.70
  24   6   5   11.50    3.70
  24   6   5   20.70    3.50
  26  -6   5    2.50    3.00
  26   6   5    2.80    2.70
  26   6   5    1.40    3.20
  29  -7  -5    6.20    2.80
  29   7  -5    6.90    2.90
  29   7  -5   -1.40    2.30
  29   7  -5   -1.10    2.20
  27  -7  -5    9.80    2.80
  27  -7  -5   12.50    2.90
  27   7  -5   12.70    3.10
  27   7  -5   10.20    2.90
  27   7  -5   13.90    2.90
  25  -7  -5    9.00    2.60
  25  -7  -5    7.50    2.50
  25   7  -5    9.20    2.50
  25   7  -5    3.60    2.30
  25   7  -5    9.70    2.80
  23  -7  -5    2.90    2.00
  23  -7  -5    2.60    1.90
  23   7  -5    3.60    2.00
  23   7  -5    4.60    2.30
  23   7  -5    2.90    2.20
  21  -7  -5   53.79    4.40
  21  -7  -5   45.80    3.80
  21   7  -5   47.10    4.20
  21   7  -5   46.40    3.80
  21   7  -5   40.30    4.30
  19  -7  -5   33.00    3.10
  19  -7  -5   35.20    3.40
  19   7  -5   34.90    3.30
  19   7  -5   33.50    3.70
  19   7  -5   35.20    3.60
  17  -7  -5   13.60    2.00
  17  -7  -5   13.00    2.10
  17   7  -5   13.60    2.30
  17   7  -5   12.20    2.10
  17   7  -5   12.10    2.10
  15  -7  -5    8.80    1.70
  15  -7  -5    6.50    1.50
  15  -7  -5    7.10    1.10
 -15   7   5    6.40    1.20
  15   7  -5    4.70    1.50
  15   7  -5    7.10    1.70
  15   7  -5    7.80    1.80
  13  -7  -5    4.60    1.30
  13  -7  -5    5.70    1.00
  13   7  -5    2.50    1.30
  13   7  -5    4.40    1.50
  13   7  -5    4.50    1.40
 -13   7   5    6.70    1.10
  11  -7  -5   12.40    1.50
  11  -7  -5    7.50    1.30
 -11   7   5   10.90    1.20
  11   7  -5   12.00    1.60
  11   7  -5    8.70    1.50
  11   7  -5    8.70    1.50
   9  -7  -5    3.50    0.80
   9  -7  -5    5.60    1.00
   9  -7  -5    6.30    1.10
   9   7  -5    6.20    1.30
  -9   7   5    7.10    1.00
   9   7  -5    5.80    1.10
   9   7  -5    3.80    1.20
   7  -7  -5   35.50    2.30
   7  -7  -5   36.40    2.20
   7   7  -5   37.00    2.40
  -7   7   5   32.10    2.20
   7   7  -5   37.60    2.30
   7   7  -5   32.40    2.50
   5  -7  -5   13.80    1.20
   5  -7  -5   11.60    1.30
   5   7  -5   12.70    1.20
  -5   7   5   11.30    1.20
   5   7  -5   10.40    1.40
   5   7  -5   13.40    1.60
   5   7  -5   14.90    1.50
   3  -7  -5    1.90    0.80
   3   7  -5    2.70    0.90
  -3   7   5    4.20    0.70
   3   7  -5    4.50    1.00
   3   7  -5    4.40    1.00
   3   7  -5    3.80    0.70
  -3   7   5    4.10    0.90
  -1   7   5    1.20    0.70
   1   7  -5   -0.80    0.70
  -1   7   5    0.70    0.80
  -1   7   5    1.00    0.60
   1   7  -5    1.10    0.80
   1   7  -5    0.50    0.90
   1   7  -5    0.80    0.50
   1  -7   5    2.00    0.50
  -1   7  -5    1.80    0.90
   1   7   5    1.50    0.70
  -1   7  -5   -1.00    0.60
  -1   7  -5    1.30    0.70
   1   7   5    2.00    0.90
   1   7   5    1.60    0.80
   3  -7   5   12.40    1.10
   3   7   5   16.90    1.40
   3   7   5   12.80    1.50
   3   7   5   11.90    1.40
  -3   7  -5    9.40    1.40
  -3   7  -5   15.70    1.40
  -3   7  -5   15.50    1.40
   5  -7   5   14.80    1.80
   5  -7   5   18.00    1.40
   5   7   5   16.90    1.70
  -5   7  -5   18.80    1.50
   5   7   5   18.50    1.60
  -5   7  -5   20.90    1.60
   5   7   5   18.50    1.90
   5   7   5   18.40    1.60
   7  -7   5    0.80    1.00
   7  -7   5    0.00    0.70
   7   7   5    1.60    0.90
   7   7   5    1.70    1.00
   7   7   5    0.40    1.10
  -7   7  -5    1.80    0.80
   7   7   5    0.40    0.90
   7   7   5    0.40    0.80
   9  -7   5   28.90    2.20
   9  -7   5   29.20    2.80
   9   7   5   33.80    2.40
   9   7   5   29.30    2.10
   9   7   5   27.20    2.00
   9   7   5   28.10    2.80
   9   7   5   26.60    2.30
  11  -7   5   19.30    2.40
  11   7   5   13.30    1.90
  11   7   5   20.10    1.80
  11   7   5   18.10    1.90
  11   7   5   12.90    2.20
  13  -7   5    0.70    1.60
  13   7   5    2.60    1.30
  13   7   5   -1.10    1.50
  13   7   5   -1.20    1.30
  15  -7   5   -1.40    1.50
  15  -7   5    0.30    1.10
  15   7   5   -0.30    1.30
  15   7   5    0.80    1.90
  15   7   5    1.70    1.60
  17  -7   5    1.30    2.00
  17   7   5    0.20    2.00
  17   7   5    2.80    1.50
  17   7   5    1.00    1.70
  19  -7   5    0.90    2.40
  19   7   5    0.30    2.30
  19   7   5    0.80    1.90
  21  -7   5    7.10    2.80
  21   7   5    3.90    2.80
  21   7   5    9.00    2.60
  23  -7   5   -1.00    2.50
  23   7   5   -1.30    2.20
  23   7   5    3.20    2.90
  25  -7   5    2.00    3.20
  25   7   5    1.00    2.60
  25   7   5    1.50    2.90
  30  -8  -5    0.50    2.80
  30   8  -5    0.60    2.80
  30   8  -5    1.00    2.50
  30   8  -5    2.10    3.10
  28  -8  -5   28.60    4.00
  28   8  -5   18.20    3.30
  28   8  -5   11.60    3.40
  28   8  -5   28.30    4.00
  26  -8  -5    6.10    2.70
  26   8  -5    2.80    2.50
  26   8  -5    3.50    2.30
  26   8  -5    6.40    2.80
  24  -8  -5   68.39    5.20
  24   8  -5   71.59    5.50
  24   8  -5   45.10    5.00
  24   8  -5   67.29    4.90
  22  -8  -5   21.40    2.80
  22  -8  -5   18.20    2.90
  22   8  -5   17.70    3.10
  22   8  -5   16.70    2.70
  22   8  -5   15.40    2.80
  20  -8  -5  171.88    8.70
  20  -8  -5  162.48    8.70
  20   8  -5  170.68    8.50
  20   8  -5  152.68    9.20
  20   8  -5  164.18    8.80
  18  -8  -5    9.50    2.00
  18  -8  -5    8.70    1.80
  18   8  -5   12.80    2.30
  18   8  -5   11.20    2.40
  18   8  -5   12.90    2.20
  16  -8  -5  145.09    7.40
  16  -8  -5  166.78    8.20
  16  -8  -5  167.48    8.20
  16   8  -5  169.78    8.40
  16   8  -5  164.28    8.70
  16   8  -5  158.98    8.10
  14  -8  -5    1.70    1.20
  14  -8  -5    1.30    0.80
  14  -8  -5    1.10    0.90
  14   8  -5    0.10    1.30
  14   8  -5    3.00    1.50
 -14   8   5    1.50    1.00
  14   8  -5    3.10    1.40
  12  -8  -5  111.19    5.30
  12  -8  -5  110.69    5.80
  12  -8  -5  115.89    5.80
  12   8  -5  111.69    5.80
  12   8  -5  109.69    6.00
 -12   8   5  111.99    5.40
  12   8  -5  113.39    6.10
  10  -8  -5   13.00    1.30
  10  -8  -5   12.50    1.50
  10  -8  -5   13.90    1.60
  10   8  -5    9.00    1.60
 -10   8   5   12.70    1.40
  10   8  -5   13.70    1.60
  10   8  -5   12.40    1.80
   8  -8  -5   40.30    2.60
   8  -8  -5   41.30    2.50
  -8   8   5   40.20    2.50
   8   8  -5   39.70    2.90
   8   8  -5   35.70    2.50
   8   8  -5   38.60    2.80
   6  -8  -5    1.20    0.90
   6  -8  -5    2.30    0.80
   6   8  -5    1.10    1.00
   6   8  -5    2.90    1.10
   6   8  -5    1.10    1.00
   6   8  -5    2.30    0.80
  -6   8   5    2.10    0.80
   4  -8  -5  114.69    5.70
   4   8  -5  112.49    5.30
   4   8  -5  108.79    5.50
   4   8  -5  117.49    5.50
  -4   8   5  111.29    5.30
  -4   8   5  110.39    5.20
   4   8  -5  110.79    5.70
   2   8  -5   14.90    1.70
  -2   8   5   16.80    1.60
   2   8  -5   20.10    1.70
  -2   8   5   16.50    1.40
   2   8  -5   15.30    1.30
   2   8  -5   16.40    1.60
  -2   8   5   17.40    1.50
   0   8   5  102.19    4.60
   0   8  -5   98.89    4.80
   0   8   5   92.19    4.70
   0   8   5   92.89    5.00
   0   8  -5   98.89    4.70
   0   8  -5   95.89    5.10
   0   8  -5   98.49    4.60
   2  -8   5   24.00    1.40
   2   8   5   19.90    1.80
  -2   8  -5   21.40    1.80
  -2   8  -5   21.90    2.10
   2   8   5   25.50    2.10
   2   8   5   20.20    1.70
  -2   8  -5   23.10    1.80
   4   8   5   10.20    1.40
   4   8   5    9.70    1.30
   4   8   5    7.30    1.40
  -4   8  -5   13.20    1.40
  -4   8  -5   10.80    1.30
  -4   8  -5   12.90    1.60
   4   8   5    9.80    1.40
   6  -8   5   32.50    2.80
  -6   8  -5   37.40    2.20
   6   8   5   31.40    2.30
   6   8   5   30.80    2.70
   6   8   5   34.90    2.30
   6   8   5   34.00    2.40
   8  -8   5    1.20    1.30
   8   8   5    1.70    1.00
  -8   8  -5    3.00    1.00
   8   8   5    3.70    1.20
   8   8   5    2.90    1.10
   8   8   5    2.60    1.40
   8   8   5    2.50    1.10
  10  -8   5   19.30    2.40
  10   8   5   24.30    2.10
  10   8   5   19.70    1.90
  10   8   5   22.90    2.70
  10   8   5   19.70    2.00
  10   8   5   18.20    2.10
  12  -8   5   42.30    3.70
  12   8   5   45.50    3.00
  12   8   5   38.10    3.10
  12   8   5   33.10    3.50
  12   8   5   36.60    2.90
  14  -8   5   30.20    2.50
  14  -8   5   32.10    3.30
  14   8   5   25.10    3.40
  14   8   5   33.30    2.70
  14   8   5   29.10    2.90
  16  -8   5   39.80    3.10
  16  -8   5   44.80    4.10
  16   8   5   37.90    3.10
  16   8   5   39.60    3.70
  16   8   5   32.30    4.00
  18  -8   5   25.90    3.70
  18   8   5   13.20    3.20
  18   8   5   19.40    2.80
  20  -8   5    8.10    2.90
  20   8   5    9.30    2.50
  20   8   5    8.10    3.00
  22  -8   5   13.60    3.30
  22   8   5   11.70    2.90
  22   8   5    9.00    3.30
  24  -8   5   20.00    4.10
  24   8   5   18.70    4.10
  24   8   5   23.90    3.60
  29  -9  -5    4.20    2.80
  29   9  -5    0.40    2.50
  29   9  -5   -5.20    2.70
  29   9  -5    1.10    2.70
  27  -9  -5    4.40    2.70
  27   9  -5    2.00    2.30
  27   9  -5   -0.90    2.50
  27   9  -5    2.20    2.70
  25  -9  -5   11.20    2.80
  25   9  -5    2.00    2.50
  25   9  -5    9.40    2.80
  25   9  -5    0.80    2.20
  23  -9  -5   -0.90    2.10
  23   9  -5    2.50    2.30
  23   9  -5    2.80    2.00
  23   9  -5    0.20    2.20
  21  -9  -5   69.39    5.10
  21   9  -5   70.69    4.90
  21   9  -5   67.89    5.10
  21   9  -5   54.49    5.20
  19  -9  -5   50.79    4.10
  19   9  -5   44.00    3.90
  19   9  -5   46.50    4.20
  19   9  -5   44.10    4.30
  17  -9  -5    3.80    1.00
  17  -9  -5    3.50    1.70
  17   9  -5    4.30    1.90
  17   9  -5   10.00    2.20
  17   9  -5    5.20    1.80
  15  -9  -5  130.79    6.80
  15  -9  -5  134.09    6.90
  15  -9  -5  122.39    6.20
  15   9  -5  129.59    6.90
  15   9  -5  132.59    7.10
  15   9  -5  134.59    7.30
  13  -9  -5    4.20    1.20
  13  -9  -5    3.20    1.00
 -13   9   5    2.00    1.00
  13   9  -5    1.90    1.40
  13   9  -5    3.10    1.50
  13   9  -5    4.40    1.50
  11  -9  -5  101.29    5.30
  11  -9  -5  101.39    5.30
  11  -9  -5   96.29    5.00
  11   9  -5  108.69    5.60
 -11   9   5   93.39    5.00
  11   9  -5  106.89    5.50
  11   9  -5  105.39    5.60
   9  -9  -5    3.30    1.20
   9  -9  -5    2.10    1.00
   9   9  -5    2.60    1.00
   9   9  -5    2.30    1.30
   9   9  -5    2.40    1.20
  -9   9   5    5.40    1.10
   7  -9  -5   40.60    2.60
   7  -9  -5   43.50    2.60
   7   9  -5   40.70    3.10
   7   9  -5   37.40    2.90
   7   9  -5   40.00    2.60
   7   9  -5   43.20    2.90
  -7   9   5   37.50    2.50
   5  -9  -5    7.00    1.20
   5   9  -5    5.20    1.40
   5   9  -5    9.10    1.10
  -5   9   5    7.80    1.10
   5   9  -5   12.80    1.70
   5   9  -5    6.50    1.40
   3   9  -5   23.30    2.00
  -3   9   5   20.20    1.80
   3   9  -5   19.20    1.90
   3   9  -5   19.60    1.50
  -3   9   5   20.40    1.70
   3   9  -5   21.40    2.10
  -3   9   5   22.10    1.80
  -1   9   5   24.90    2.00
  -1   9   5   26.00    1.80
   1   9  -5   22.50    2.00
   1   9  -5   25.20    2.10
  -1   9   5   25.50    2.00
   1   9  -5   21.90    2.20
  -1   9  -5   16.50    1.70
   1   9   5   12.10    1.60
   1   9   5   12.20    1.40
  -1   9  -5   13.90    1.70
   1   9   5   13.80    1.40
  -1   9  -5    9.90    1.40
   3   9   5    9.00    1.40
  -3   9  -5    8.50    1.30
   3   9   5    9.90    1.30
   3   9   5   11.40    1.50
   3   9   5    7.90    1.40
  -3   9  -5    7.30    1.50
  -3   9  -5    9.20    1.30
   5  -9   5    3.90    1.40
   5   9   5    5.80    1.10
   5   9   5    6.40    1.20
   5   9   5    3.20    1.10
  -5   9  -5    8.20    1.30
   5   9   5    5.00    1.40
  -5   9  -5    4.90    1.20
   7  -9   5    0.40    1.20
   7   9   5    0.10    1.00
   7   9   5    0.60    1.00
   7   9   5    1.80    1.30
  -7   9  -5    0.40    1.00
   7   9   5    2.60    1.10
   7   9   5   -0.60    1.00
   9  -9   5    1.30    1.40
   9   9   5    0.50    1.10
   9   9   5    1.30    1.20
   9   9   5    1.50    1.10
  -9   9  -5    0.20    1.10
   9   9   5    2.50    1.20
   9   9   5    1.10    1.50
  11  -9   5   17.90    2.50
  11   9   5   18.70    2.20
  11   9   5   15.20    2.00
  11   9   5   15.80    2.50
  11   9   5   17.50    1.90
  11   9   5   16.00    1.90
  13  -9   5    1.70    1.80
  13   9   5    2.60    1.90
  13   9   5    2.60    1.40
  13   9   5    1.80    1.50
  15  -9   5   36.00    2.90
  15  -9   5   38.20    3.90
  15   9   5   34.40    3.30
  15   9   5   29.00    3.70
  17  -9   5    0.80    2.20
  17   9   5    1.90    1.90
  17   9   5    1.10    2.40
  19  -9   5    1.90    2.30
  19   9   5    6.60    2.30
  19   9   5    3.40    2.80
  21  -9   5    1.80    2.80
  21   9   5    3.00    2.50
  21   9   5    0.20    2.80
  23  -9   5   29.50    4.60
  23   9   5   33.30    4.10
  23   9   5   19.40    4.10
  28 -10  -5   22.20    3.90
  28  10  -5   26.90    3.90
  28  10  -5   22.00    4.00
  28  10  -5   13.90    3.60
  26 -10  -5    6.20    2.70
  26  10  -5    3.10    2.60
  26  10  -5    2.70    2.80
  26  10  -5    1.60    2.80
  24 -10  -5   14.20    3.10
  24  10  -5    9.90    2.80
  24  10  -5   14.80    3.20
  24  10  -5   11.50    3.00
  22 -10  -5    0.20    2.10
  22  10  -5    1.10    2.10
  22  10  -5   -0.10    2.10
  22  10  -5   -0.70    2.20
  20 -10  -5    5.90    2.30
  20  10  -5    5.80    2.50
  20  10  -5    0.10    1.90
  20  10  -5    5.10    2.20
  18 -10  -5    4.70    2.00
  18  10  -5    2.60    2.00
  18  10  -5    1.70    2.00
  18  10  -5    0.90    1.80
  16 -10  -5   28.10    2.40
  16 -10  -5   26.00    2.90
  16  10  -5   29.20    3.10
  16  10  -5   29.20    3.10
  16  10  -5   26.00    3.10
  14 -10  -5   34.80    3.20
  14 -10  -5   55.49    3.20
  14  10  -5   60.39    4.00
  14  10  -5   53.19    4.00
  14  10  -5   55.09    3.90
  12 -10  -5   38.20    2.60
  12 -10  -5   34.20    2.90
  12  10  -5   38.50    3.00
 -12  10   5   35.20    2.60
  12  10  -5   38.90    3.40
  12  10  -5   35.80    3.30
  10 -10  -5   30.50    2.40
  10 -10  -5   33.80    2.70
 -10  10   5   33.60    2.40
  10  10  -5   34.30    3.00
  10  10  -5   34.10    3.00
  10  10  -5   29.80    2.60
   8 -10  -5   87.69    4.60
   8 -10  -5   84.09    4.50
   8  10  -5   84.49    4.70
   8  10  -5   81.19    4.50
   8  10  -5   84.79    4.80
   8  10  -5   81.19    4.90
  -8  10   5   86.79    4.40
   6 -10  -5   43.80    2.70
   6 -10  -5   39.50    2.60
  -6  10   5   39.80    2.60
   6  10  -5   40.50    2.90
   6  10  -5   37.50    3.10
   6  10  -5   37.00    2.90
   4  10  -5   88.69    4.80
  -4  10   5   87.59    4.70
   4  10  -5   92.09    4.70
   4  10  -5   89.89    5.00
  -4  10   5   85.19    4.50
  -4  10   5   94.29    4.60
  -2  10   5    8.20    1.20
  -2  10   5    6.10    1.20
  -2  10   5   10.50    1.30
   2  10  -5    7.40    1.40
   2  10  -5    7.80    1.50
   2  10  -5    6.60    1.50
   0  10   5   35.60    2.30
   0  10   5   32.80    2.50
   0  10  -5   36.50    2.90
   0  10  -5   31.40    2.50
   0  10  -5   31.50    2.50
   0  10   5   35.10    2.40
   2  10   5    6.40    1.40
  -2  10  -5    8.90    1.70
  -2  10  -5    7.80    1.40
  -2  10  -5    6.70    1.30
   2  10   5    7.90    1.30
   2  10   5    7.40    1.30
  -4  10  -5  117.79    5.80
   4  10   5  114.29    5.90
  -4  10  -5  121.49    5.70
  -4  10  -5  116.49    6.30
   4  10   5  120.39    6.30
   4  10   5  123.89    5.80
   4  10   5  120.69    5.80
   6 -10   5    2.10    1.40
   6  10   5    1.10    1.20
  -6  10  -5    0.60    1.10
   6  10   5    2.60    1.20
   6  10   5    0.70    1.40
   6  10   5    0.90    1.20
   6  10   5    0.60    1.00
   8 -10   5   71.79    4.70
   8  10   5   80.49    4.30
   8  10   5   74.89    4.10
   8  10   5   70.59    4.20
   8  10   5   73.59    4.00
  -8  10  -5   70.69    3.90
   8  10   5   64.19    4.60
  10 -10   5    1.70    1.60
  10  10   5    1.60    1.20
  10  10   5    1.10    1.30
  10  10   5   -0.10    1.40
  10  10   5   -1.60    1.40
  10  10   5    0.70    1.40
  12 -10   5   40.50    3.80
  12  10   5   35.80    3.90
  12  10   5   37.90    3.10
  12  10   5   34.30    2.80
  12  10   5   41.00    3.30
  14 -10   5    5.20    2.10
  14  10   5    4.80    1.90
  14  10   5    3.90    2.30
  16 -10   5   29.40    3.60
  16  10   5   39.20    3.50
  16  10   5   18.10    3.30
  18 -10   5    0.90    2.50
  18  10   5    1.60    2.60
  18  10   5   -3.00    1.80
  20 -10   5    5.00    2.90
  20  10   5    4.50    3.00
  20  10   5    7.10    2.60
  22 -10   5   -2.30    2.60
  22  10   5   -2.70    2.40
  22  10   5   -2.30    2.80
  27  11  -5   15.90    3.40
  27  11  -5   13.90    3.40
  27  11  -5    6.50    3.00
  25 -11  -5    5.00    2.80
  25  11  -5    5.80    2.90
  25  11  -5    1.00    2.40
  25  11  -5    5.50    2.90
  23 -11  -5    3.80    2.50
  23  11  -5    4.10    2.50
  23  11  -5    6.40    2.80
  23  11  -5    3.60    2.60
  21 -11  -5    7.90    2.50
  21  11  -5    1.30    2.10
  21  11  -5    4.90    2.50
  21  11  -5    4.10    2.20
  19 -11  -5    6.40    2.30
  19  11  -5    5.50    2.30
  19  11  -5    6.60    2.30
  19  11  -5    3.90    2.20
  17 -11  -5    1.50    1.80
  17 -11  -5    0.60    1.20
  17  11  -5   -2.30    1.70
  17  11  -5   -1.30    1.70
  17  11  -5    1.70    1.90
  15 -11  -5    0.50    1.20
  15 -11  -5    1.80    1.80
  15  11  -5    3.40    1.80
  15  11  -5    2.10    1.80
  15  11  -5    4.10    1.80
  13 -11  -5   30.10    2.60
  13  11  -5   29.60    2.90
  13  11  -5   25.60    2.90
  13  11  -5   34.10    3.20
  11 -11  -5    3.80    1.50
  11  11  -5    3.70    1.60
 -11  11   5   -0.30    1.00
  11  11  -5    1.20    1.60
  11  11  -5    1.50    1.30
   9 -11  -5   41.10    3.20
   9  11  -5   47.60    3.50
  -9  11   5   44.00    2.90
   9  11  -5   45.90    3.60
   9  11  -5   39.50    3.30
   7 -11  -5   24.50    2.20
   7  11  -5   20.50    2.50
   7  11  -5   22.90    2.40
  -7  11   5   21.80    1.90
   7  11  -5   18.50    2.30
   5  11  -5   73.79    4.00
   5  11  -5   59.19    4.10
  -5  11   5   65.19    3.60
  -5  11   5   64.29    3.70
   5  11  -5   61.99    4.00
  -5  11   5   63.79    3.60
   3  11  -5   28.80    2.80
  -3  11   5   32.70    2.40
  -3  11   5   33.60    2.40
  -3  11   5   30.40    2.40
   3  11  -5   35.80    2.80
   3  11  -5   36.70    2.80
   1  11  -5   56.99    3.90
  -1  11   5   60.79    3.40
  -1  11   5   57.19    3.50
   1  11  -5   54.79    3.50
  -1  11   5   59.79    3.40
   1  11  -5   59.09    3.60
   1  11   5   26.30    2.40
   1  11   5   26.40    2.30
  -1  11  -5   33.10    2.50
   1  11   5   25.30    2.20
  -1  11  -5   33.20    2.50
  -1  11  -5   27.90    2.80
  -3  11  -5   42.70    3.00
   3  11   5   43.90    2.80
   3  11   5   45.00    3.10
  -3  11  -5   48.80    3.10
   3  11   5   38.60    3.00
   3  11   5   40.60    2.90
  -3  11  -5   43.30    3.30
   5  11   5   20.60    2.20
  -5  11  -5   16.10    2.10
   5  11   5   24.00    2.00
   5  11   5   20.10    2.40
   5  11   5   22.50    2.10
  -5  11  -5   26.00    2.30
   7 -11   5   57.39    4.10
   7  11   5   53.09    3.30
  -7  11  -5   54.89    3.40
   7  11   5   52.79    3.50
   7  11   5   49.40    3.50
   7  11   5   56.69    3.70
   7  11   5   48.70    3.80
   9 -11   5   12.60    2.30
   9  11   5   12.00    1.60
   9  11   5   12.10    1.90
   9  11   5   12.60    2.00
  -9  11  -5   12.80    1.80
   9  11   5   14.10    2.00
   9  11   5    8.80    2.10
  11 -11   5   30.40    3.50
  11  11   5   33.80    3.70
  11  11   5   30.80    3.00
  11  11   5   35.40    2.90
  11  11   5   36.60    3.10
  13 -11   5   15.30    2.90
  13  11   5   16.40    2.50
  13  11   5   17.40    2.40
  13  11   5   12.00    2.70
  15 -11   5   24.30    3.40
  15  11   5   13.60    3.00
  15  11   5   19.80    2.70
  17 -11   5    8.60    2.70
  17  11   5    3.70    2.80
  17  11   5    7.80    2.50
  19 -11   5   10.40    3.20
  19  11   5    3.70    2.50
  19  11   5    3.10    2.90
  21 -11   5   -1.10    2.80
  21  11   5   -0.20    2.90
  21  11   5   -2.50    2.40
  26  12  -5    3.50    3.00
  26  12  -5   -0.90    2.50
  26  12  -5    3.30    2.90
  24  12  -5   18.30    3.30
  24  12  -5   10.30    3.30
  24  12  -5   18.90    3.60
  22  12  -5    0.70    2.40
  22  12  -5    1.00    2.30
  22  12  -5    3.00    2.50
  20  12  -5    4.50    2.50
  20  12  -5    6.40    2.60
  20  12  -5    9.80    2.70
  18  12  -5   -1.40    2.00
  18  12  -5    3.10    2.10
  18  12  -5    2.40    2.10
  16 -12  -5   27.40    2.50
  16  12  -5   23.70    3.10
  16  12  -5   30.60    3.40
  16  12  -5   22.60    3.40
  14 -12  -5    6.50    1.50
  14  12  -5    5.30    2.10
  14  12  -5    5.60    2.00
  12  12  -5    5.70    2.00
  12  12  -5    6.90    2.10
 -10  12   5    0.70    1.00
  10  12  -5    0.50    1.50
  10  12  -5    1.00    1.70
  10  12  -5   -1.50    1.50
  -8  12   5    0.40    1.00
   8  12  -5    2.60    1.70
   8  12  -5    1.80    1.60
   8  12  -5   -0.70    1.40
   6  12  -5   -0.40    1.40
  -6  12   5   -0.10    0.90
   6  12  -5    1.60    1.50
   6  12  -5    0.10    1.40
   4  12  -5    0.90    1.40
   4  12  -5    0.20    1.30
   4  12  -5    1.10    1.40
  -4  12   5   -0.10    0.90
   2  12  -5    4.50    1.60
   2  12  -5    2.00    1.50
   2  12  -5    0.40    1.30
  -2  12   5    3.50    1.10
   0  12   5    6.80    1.40
   0  12  -5    5.10    1.70
   0  12  -5    9.50    1.70
   0  12  -5    8.70    1.70
   0  12   5    6.60    1.20
  -2  12  -5   -0.10    1.20
   2  12   5   -1.00    0.90
  -2  12  -5   -0.10    1.20
  -2  12  -5   -0.80    1.40
   2  12   5   -0.50    1.30
   2  12   5    0.00    1.20
   4  12   5    6.00    1.60
   4  12   5    4.90    1.60
  -4  12  -5    5.50    1.70
   4  12   5    5.60    1.30
  -4  12  -5    7.60    1.60
  -4  12  -5    4.20    1.40
   6 -12   5    5.20    1.80
  -6  12  -5    5.20    1.50
   6  12   5    2.80    1.60
   6  12   5    6.70    1.80
  -6  12  -5    2.90    1.40
   6  12   5    4.80    1.00
   6  12   5    4.60    1.60
   8 -12   5   31.10    3.30
  -8  12  -5   33.70    2.80
   8  12   5   38.20    3.20
   8  12   5   32.80    2.90
   8  12   5   28.20    3.10
  10 -12   5   -2.00    1.70
  10  12   5    1.20    1.60
  10  12   5   -0.50    1.60
  10  12   5   -0.30    1.70
  12 -12   5   21.70    3.30
  12  12   5   17.30    3.00
  12  12   5   20.20    2.60
  12  12   5   22.30    2.60
  14 -12   5    2.60    2.20
  14  12   5    2.20    2.40
  16 -12   5    7.40    2.60
  16  12   5    4.00    2.70
  18 -12   5    2.00    2.70
  18  12   5   -4.40    2.70
  20 -12   5    6.50    3.20
  20  12   5    4.50    3.20
  25  13  -5   10.50    3.20
  25  13  -5   18.40    3.70
  25  13  -5    6.30    3.20
  23  13  -5   17.30    3.40
  23  13  -5    7.00    2.90
  21  13  -5    2.00    2.50
  21  13  -5    0.00    2.30
  19  13  -5    6.50    2.60
  19  13  -5    3.10    2.50
  17 -13  -5   25.60    2.50
  17  13  -5   19.60    3.10
  17  13  -5   26.00    3.50
  15 -13  -5    7.60    1.70
  15  13  -5   10.00    2.50
  15  13  -5   12.10    2.60
  13  13  -5   27.90    3.30
  13  13  -5   29.00    3.30
  11  13  -5    1.50    1.80
  11  13  -5    4.10    2.10
  11  13  -5   -0.90    1.70
   9  13  -5   33.70    3.30
   9  13  -5   33.10    3.40
   9  13  -5   35.10    3.40
  -7  13   5    0.20    1.10
   7  13  -5    0.50    1.60
   7  13  -5    3.60    1.70
   7  13  -5    3.90    1.80
   5  13  -5   30.40    3.20
  -5  13   5   28.40    2.40
   5  13  -5   30.20    3.00
   5  13  -5   31.70    3.00
  -3  13   5   17.80    1.90
   3  13  -5   22.90    2.60
   3  13  -5   18.60    2.40
   3  13  -5   22.30    2.80
  -1  13   5   28.20    2.30
   1  13  -5   28.00    2.80
   1  13  -5   27.80    2.90
   1  13  -5   22.40    2.60
  -1  13  -5   18.20    2.50
  -1  13  -5   20.00    2.40
  -1  13  -5   22.50    2.50
   1  13   5   21.00    2.50
   3  13   5   51.19    3.70
  -3  13  -5   52.89    3.70
  -3  13  -5   56.29    4.10
  -3  13  -5   47.10    3.60
   5  13   5   10.00    2.00
  -5  13  -5    7.50    1.70
  -5  13  -5    6.80    2.00
  -5  13  -5    8.60    1.90
   5  13   5    5.40    1.80
   7 -13   5   37.20    3.70
   7  13   5   40.50    3.50
  -7  13  -5   39.00    3.30
   7  13   5   40.20    3.60
  -7  13  -5   41.80    3.30
   7  13   5   39.70    3.40
   9 -13   5   18.50    2.90
   9  13   5   19.20    2.60
   9  13   5   15.90    2.80
  -9  13  -5   23.60    2.60
   9  13   5   23.10    2.70
  11 -13   5   17.70    3.00
  11  13   5   22.90    2.80
  11  13   5   21.70    2.70
  11  13   5   24.70    3.40
  13 -13   5    9.60    2.80
  13  13   5    8.50    2.80
  13  13   5    7.80    2.30
  15 -13   5   27.60    4.10
  15  13   5   24.10    3.90
  17 -13   5   -0.70    2.60
  17  13   5   -1.30    2.60
  19 -13   5   10.10    3.30
  19  13   5   14.60    3.80
  24  14  -5    1.20    3.10
  24  14  -5   -0.80    2.70
  22  14  -5   -0.60    2.60
  22  14  -5   -0.80    2.50
  20  14  -5    6.30    2.80
  20  14  -5    1.10    2.60
  18  14  -5   -3.60    2.20
  18  14  -5   -1.00    2.10
  16  14  -5    4.10    2.40
  16  14  -5    5.40    2.40
  14 -14  -5    9.00    1.90
  14  14  -5    8.90    2.40
  14  14  -5    4.90    2.30
  12  14  -5   13.60    2.70
  12  14  -5   10.70    2.50
  12  14  -5   16.20    2.80
  10  14  -5    3.30    2.00
  10  14  -5    0.80    1.90
  10  14  -5    5.00    2.20
   8  14  -5    1.80    1.90
   8  14  -5    2.30    1.90
   8  14  -5    2.90    2.00
   6  14  -5   28.50    3.30
   6  14  -5   36.20    3.50
   6  14  -5   35.00    3.50
   4  14  -5    4.50    1.90
   4  14  -5    3.30    1.90
   4  14  -5    1.70    1.70
   2  14  -5   46.10    3.70
   2  14  -5   34.50    3.50
   2  14  -5   47.50    4.00
   0  14   5   34.30    3.10
   0  14  -5   28.70    3.00
   0  14  -5   21.00    2.90
   0  14  -5   22.40    2.80
  -2  14  -5    1.40    1.60
  -2  14  -5    3.80    1.80
   2  14   5    2.70    1.80
  -2  14  -5    2.40    1.90
  -4  14  -5   10.40    2.40
  -4  14  -5   13.10    2.30
   4  14   5    7.00    2.00
  -4  14  -5   10.40    2.00
   6 -14   5   21.50    3.00
  -6  14  -5   15.40    2.30
   6  14   5   22.10    2.80
   6  14   5   19.80    2.80
  -6  14  -5   21.30    2.50
   8 -14   5    2.10    2.00
   8  14   5    1.20    1.90
  -8  14  -5    2.10    1.80
   8  14   5    2.50    1.80
  -8  14  -5    0.10    1.60
  10 -14   5    2.50    2.30
  10  14   5    2.30    1.90
  10  14   5    3.00    1.90
  12 -14   5   10.80    2.90
  12  14   5    6.60    2.30
  12  14   5    6.50    2.60
  12  14   5    7.10    2.20
  14 -14   5   -2.30    2.30
  14  14   5    2.10    2.80
  16 -14   5    2.60    2.70
  16  14   5    1.10    2.70
  18 -14   5    0.30    2.90
  18  14   5    0.10    2.90
  21  15  -5   14.40    3.40
  21  15  -5   15.40    3.40
  19  15  -5    2.20    2.70
  19  15  -5    6.30    2.70
  17  15  -5   16.80    3.30
  17  15  -5   28.80    3.70
  15  15  -5   25.10    3.50
  15  15  -5   32.00    4.00
  13  15  -5   19.10    3.10
  13  15  -5   19.70    3.10
  11  15  -5   25.60    3.30
  11  15  -5   24.50    3.30
  11  15  -5   21.40    3.20
   9  15  -5   20.80    3.10
   9  15  -5   13.20    2.70
   9  15  -5   24.00    3.20
   7  15  -5    2.60    1.90
   7  15  -5    1.00    1.80
   7  15  -5    0.90    1.90
   5  15  -5   -0.90    1.90
   5  15  -5   -0.90    1.70
   5  15  -5    0.00    1.80
   3  15  -5    4.10    1.90
   3  15  -5    6.70    2.30
   3  15  -5    6.80    2.10
   1  15  -5    7.80    2.20
   1  15  -5   11.00    2.40
  -1  15   5    5.50    2.00
   1  15  -5   10.10    2.20
  -1  15  -5    5.20    1.90
  -1  15  -5   -0.80    1.60
   1  15   5    4.00    1.90
  -1  15  -5    2.70    1.90
  -3  15  -5   12.90    2.50
  -3  15  -5    9.50    2.20
   3  15   5   13.70    2.30
  -3  15  -5    7.20    1.90
  -5  15  -5    2.20    1.70
  -5  15  -5    1.50    1.90
   5  15   5    4.10    2.00
   5  15   5    1.90    1.90
   7 -15   5   -1.10    1.90
   7  15   5    1.40    1.90
  -7  15  -5    2.30    1.90
  -7  15  -5    1.90    1.90
   7  15   5    1.70    1.90
   9 -15   5    2.00    2.20
   9  15   5   -0.90    2.00
   9  15   5    0.80    2.10
  11 -15   5   29.90    3.90
  11  15   5   31.20    3.40
  11  15   5   35.00    3.70
  13 -15   5    3.60    2.60
  13  15   5    0.60    2.20
  15 -15   5   22.70    3.90
  17 -15   5    4.40    3.20
  20  16  -5    5.20    2.80
  20  16  -5    2.40    2.90
  18  16  -5   -1.70    2.50
  18  16  -5    1.50    2.70
  16  16  -5   18.30    3.60
  16  16  -5   21.90    3.50
  14  16  -5   -1.70    2.30
  14  16  -5   -0.90    2.30
  12  16  -5    4.80    2.50
  12  16  -5    5.00    2.40
  12  16  -5    5.30    2.50
  10  16  -5   -1.10    2.20
  10  16  -5   -0.30    2.20
  10  16  -5    1.10    2.10
   8  16  -5   -1.70    2.00
   8  16  -5   -1.50    2.00
   8  16  -5    0.90    2.10
   6  16  -5    1.10    2.00
   6  16  -5    1.20    2.10
   6  16  -5    1.50    2.10
   4  16  -5   -1.10    1.90
   4  16  -5    1.40    2.10
   4  16  -5   -0.30    2.00
   2  16  -5    6.10    2.40
   2  16  -5    6.10    2.40
  -2  16   5    7.80    2.20
   2  16  -5    9.40    2.30
   0  16  -5    3.80    1.90
   0  16  -5    0.90    1.90
   0  16  -5    4.10    2.20
   0  16   5    2.50    2.00
  -2  16  -5    2.10    1.80
   2  16   5    3.20    2.10
  -2  16  -5    3.80    2.30
  -2  16  -5    1.70    2.00
   4  16   5    0.00    2.00
  -4  16  -5   -0.10    1.80
  -4  16  -5    1.20    1.90
  -4  16  -5    0.80    2.10
   4  16   5    0.40    2.00
   6 -16   5    6.80    2.40
  -6  16  -5    6.50    2.20
   6  16   5    5.00    2.20
   6  16   5   11.70    2.60
  -6  16  -5    9.70    2.40
   8 -16   5    2.90    2.40
   8  16   5    0.30    2.10
   8  16   5   -1.70    2.00
  -8  16  -5   -1.50    2.00
  10 -16   5   14.60    3.30
  10  16   5   13.50    2.80
  10  16   5   16.60    3.00
  12 -16   5   -0.90    2.60
  12  16   5    0.60    2.20
  12  16   5    0.60    2.30
  14 -16   5   14.40    3.50
  16 -16   5   -2.20    2.70
  17  17  -5    9.40    3.30
  17  17  -5    9.90    3.10
  15  17  -5    6.00    3.00
  15  17  -5    4.80    2.70
  13  17  -5    9.70    2.90
  13  17  -5    9.80    3.00
  13  17  -5   12.30    3.20
  11  17  -5    0.40    2.30
  11  17  -5    1.60    2.50
  11  17  -5   -0.10    2.40
   9  17  -5   19.40    3.40
   9  17  -5   16.40    3.20
   9  17  -5   19.00    3.20
   7  17  -5   -1.80    2.10
   7  17  -5    0.10    2.10
   7  17  -5    2.80    2.40
   5  17  -5   20.10    3.20
   5  17  -5   22.80    3.40
   5  17  -5   23.60    3.40
  -3  17   5    3.70    2.20
   3  17  -5    2.60    2.30
   3  17  -5   -0.80    2.00
   3  17  -5    1.60    2.20
   1  17  -5   24.00    3.40
   1  17  -5   18.00    2.90
   1  17  -5   22.20    3.10
  -1  17   5   23.00    3.10
  -1  17  -5    1.90    2.00
  -1  17  -5    4.80    2.40
  -1  17  -5   -1.40    2.00
   1  17   5   -2.20    2.00
  -3  17  -5   22.70    3.00
  -3  17  -5   20.90    3.30
  -3  17  -5   16.70    2.80
   3  17   5   17.10    2.90
  -5  17  -5    4.40    2.30
  -5  17  -5    3.80    2.10
   5  17   5    3.40    2.30
   5  17   5    4.70    2.40
   7 -17   5    9.50    2.90
  -7  17  -5   10.50    2.40
   7  17   5    8.00    2.60
   7  17   5    5.20    2.50
  -7  17  -5   12.00    2.70
   9 -17   5   -1.00    2.40
   9  17   5    2.90    2.40
   9  17   5    0.60    2.30
  11 -17   5    5.70    2.90
  11  17   5    5.80    2.70
  11  17   5    7.40    2.80
  13 -17   5   -2.00    2.80
  13  17   5    0.70    2.60
  16  18  -5   -1.00    3.00
  16  18  -5   -3.60    2.60
  14  18  -5    8.60    3.20
  14  18  -5    6.50    2.90
  12  18  -5    5.70    3.00
  12  18  -5    4.60    2.80
  12  18  -5    3.00    2.80
  10  18  -5    5.40    2.70
  10  18  -5    1.70    2.60
  10  18  -5    1.40    2.50
   8  18  -5    9.20    2.90
   8  18  -5   10.30    3.00
   8  18  -5    6.40    2.80
   6  18  -5    1.40    2.60
   6  18  -5    2.90    2.50
   6  18  -5    8.00    2.70
   4  18  -5   -2.60    2.20
   4  18  -5    0.10    2.50
  -4  18   5   -1.00    2.10
   4  18  -5   -0.20    2.30
   2  18  -5    1.10    2.20
   2  18  -5    6.40    2.70
  -2  18   5    2.90    2.30
   2  18  -5    3.30    2.40
   0  18   5    6.50    2.50
   0  18  -5    5.60    2.50
   0  18  -5    6.90    2.40
   0  18  -5    8.20    2.80
  -2  18  -5   11.90    2.60
  -2  18  -5   16.60    3.10
  -2  18  -5   15.00    3.00
   2  18   5    7.40    2.60
  -4  18  -5    0.30    2.00
  -4  18  -5    5.00    2.60
   4  18   5    5.30    2.50
  -4  18  -5    4.50    2.40
   4  18   5   -1.20    2.30
   6 -18   5    4.90    2.70
  -6  18  -5    2.70    2.20
   6  18   5    1.50    2.30
  -6  18  -5    2.20    2.20
   6  18   5    4.40    2.50
   8 -18   5    4.60    3.00
   8  18   5    1.70    2.40
   8  18   5    1.60    2.60
  -8  18  -5    1.50    2.40
  10 -18   5    4.60    2.70
  10  18   5    4.10    2.60
  10  18   5   -2.60    2.30
  11  19  -5    8.80    2.90
  11  19  -5    8.80    3.30
  11  19  -5   10.30    3.30
   9  19  -5    4.10    2.70
   9  19  -5    1.00    2.60
   9  19  -5    2.50    2.70
   7  19  -5   -2.00    2.50
   7  19  -5   -4.30    2.30
   7  19  -5   -1.10    2.60
   5  19  -5    4.20    2.60
  -5  19   5    5.80    2.50
   5  19  -5    1.30    2.60
   5  19  -5    8.70    2.90
  -3  19   5   -1.00    2.20
   3  19  -5   -1.90    2.30
   3  19  -5    5.10    2.80
   3  19  -5   -3.60    2.30
   1  19  -5    1.10    2.40
   1  19  -5   -0.40    2.50
  -1  19   5   -0.60    2.30
   1  19  -5    0.60    2.40
   1  19   5    0.20    2.40
  -1  19  -5    0.60    2.40
  -1  19  -5   -0.20    2.50
  -1  19  -5    0.20    2.10
   3  19   5    3.40    2.60
  -3  19  -5    4.30    2.40
  -3  19  -5    1.80    2.40
   3  19   5    2.00    2.50
  -3  19  -5    2.00    2.50
   5 -19   5    5.80    2.90
  -5  19  -5    1.60    2.40
   5  19   5    2.60    2.60
   5  19   5    1.00    2.60
  -5  19  -5   -0.30    2.10
   7 -19   5    2.40    2.70
   7  19   5   -0.70    2.60
  -7  19  -5   -0.10    2.40
   7  19   5    3.90    2.80
   6  20  -5    8.20    3.10
  -6  20   5    7.90    2.70
   6  20  -5    7.10    3.10
   6  20  -5   10.80    3.30
   4  20  -5    1.20    2.70
  -4  20   5    3.70    2.50
   4  20  -5    0.90    2.40
   4  20  -5    2.20    2.80
   2  20  -5    7.80    2.90
   2  20  -5    0.50    2.50
  -2  20   5    0.60    2.50
   2  20  -5    0.80    2.70
   0  20  -5    1.60    2.50
   0  20  -5    4.90    2.90
   0  20   5   -2.00    2.40
   0  20  -5    5.20    2.80
  -2  20  -5    4.80    2.70
   2  20   5    5.90    2.90
  -2  20  -5   11.40    3.10
   2  20   5    5.60    3.00
  -2  20  -5    2.90    2.80
  32   0  -6    1.10    2.70
  32   0  -6    3.80    2.80
  30   0  -6   -1.90    2.20
  30   0  -6   -3.40    2.10
  30   0  -6    1.50    2.00
  28   0  -6    3.20    1.90
  28   0  -6    1.00    2.00
  28   0  -6    1.60    2.30
  26   0  -6    1.10    1.80
  26   0  -6    2.10    1.80
  26   0  -6    0.10    2.00
  24   0  -6    4.90    1.90
  24   0  -6    7.80    2.00
  24   0  -6    1.10    1.90
  22   0  -6    1.00    1.60
  22   0  -6    1.50    1.50
  22   0  -6   -1.30    1.60
  20   0  -6    7.90    2.00
 -20   0   6   10.10    1.20
  20   0  -6   10.20    1.80
  20   0  -6    8.30    1.90
  18   0  -6    1.10    1.20
  18   0  -6    1.40    1.20
  18   0  -6    1.10    1.30
 -18   0   6    1.90    0.70
  16   0  -6   22.60    2.30
  16   0  -6   17.70    1.90
  16   0  -6   20.60    2.00
 -16   0   6   16.20    1.30
 -14   0   6   11.70    0.90
  14   0  -6    8.30    1.40
  14   0  -6    9.80    1.50
  14   0  -6   13.10    1.50
 -14   0   6   12.80    1.00
  12   0  -6    2.30    1.00
  12   0  -6    4.40    1.10
  12   0  -6    2.60    0.80
  10   0  -6    4.10    1.00
  10   0  -6    2.40    0.90
  10   0  -6    3.10    0.70
   8   0  -6    2.50    0.80
   8   0  -6    2.90    0.80
   8   0  -6    1.10    0.60
   6   0  -6    7.80    1.10
   6   0  -6   11.00    1.30
   6   0  -6    8.60    0.80
   4   0  -6    0.40    0.40
   4   0  -6   -0.50    0.50
   4   0  -6    0.00    0.60
   2   0  -6   11.10    0.90
   2   0  -6   14.90    1.40
   2   0  -6   14.10    1.10
   0   0  -6    0.00    0.50
   0   0   6   -0.20    0.40
   2   0   6   24.20    1.50
   2   0   6   22.60    1.80
   4   0   6   18.60    1.10
   4   0   6   18.30    1.50
   4   0   6   19.70    1.70
   6   0   6    3.60    1.00
   6   0   6    3.40    0.90
   6   0   6    4.50    0.80
   8   0   6    6.60    1.20
   8   0   6    6.40    1.30
   8   0   6    7.70    1.00
  10   0   6    1.50    1.10
  10   0   6   -0.20    1.00
  10   0   6    0.60    0.80
  12   0   6    4.00    1.40
  12   0   6    2.30    1.00
  12   0   6    5.20    1.60
  14   0   6    1.40    1.50
  14   0   6    0.70    1.40
  14   0   6    1.40    1.10
  16   0   6   -1.70    1.70
  16   0   6    1.70    1.30
  16   0   6    2.70    1.60
  18   0   6    2.40    1.80
  18   0   6    4.40    2.30
  20   0   6   -3.50    2.10
  20   0   6    0.50    1.90
  22   0   6    6.50    2.50
  22   0   6   -1.60    2.50
  24   0   6   -1.20    2.20
  24   0   6    2.90    3.10
  26   0   6   -2.80    3.00
  26   0   6    5.50    2.80
  31  -1  -6    0.60    2.40
  31  -1  -6   -2.00    2.50
  31   1  -6    2.90    2.60
  31   1  -6    1.20    2.50
  31   1  -6    0.10    2.10
  29  -1  -6   -1.60    2.30
  29  -1  -6    4.90    2.50
  29   1  -6    1.20    2.30
  29   1  -6    1.90    2.40
  29   1  -6    0.00    1.80
  27  -1  -6   42.10    3.70
  27  -1  -6   23.60    3.60
  27  -1  -6   33.60    3.80
  27   1  -6   31.90    4.20
  27   1  -6   33.70    3.80
  27   1  -6   35.00    3.50
  25  -1  -6   -1.60    1.90
  25  -1  -6   -2.10    1.50
  25  -1  -6   -1.70    1.70
  25   1  -6    0.10    1.90
  25   1  -6    0.30    1.60
  25   1  -6    0.10    2.00
  23  -1  -6    4.90    1.80
  23  -1  -6    5.80    1.90
  23  -1  -6    5.20    2.10
  23   1  -6    4.10    1.90
  23   1  -6    3.20    1.60
  23   1  -6    0.60    1.90
  21  -1  -6    7.50    1.80
  21  -1  -6    5.30    1.90
  21  -1  -6   13.50    2.10
  21   1  -6   13.10    2.00
  21   1  -6    6.90    1.80
  21   1  -6    9.00    2.10
 -19  -1   6   19.30    1.60
  19  -1  -6   27.00    2.70
  19  -1  -6   17.40    2.20
  19  -1  -6   23.00    2.50
  19   1  -6   18.60    2.20
  19   1  -6   16.90    2.10
  19   1  -6   16.10    2.30
 -19   1   6   20.20    1.70
  17  -1  -6   58.19    3.90
  17  -1  -6   69.69    4.00
 -17  -1   6   68.89    3.30
  17  -1  -6   67.59    4.30
  17   1  -6   65.59    4.00
 -17   1   6   66.79    3.40
  17   1  -6   71.19    4.00
  17   1  -6   67.49    4.30
  15  -1  -6   76.89    4.60
  15  -1  -6   81.19    4.20
 -15  -1   6   72.89    3.50
  15  -1  -6   77.79    4.30
 -15   1   6   80.19    3.70
  15   1  -6   76.19    4.20
  15   1  -6   76.69    4.60
  15   1  -6   77.69    4.30
  13  -1  -6   95.79    5.20
  13  -1  -6   93.89    4.80
  13  -1  -6   91.69    4.80
  13   1  -6   95.29    4.90
 -13   1   6   99.79    4.30
 -13   1   6   95.69    4.40
  13   1  -6   90.79    5.20
  13   1  -6   97.09    4.80
  11  -1  -6    3.90    1.10
  11  -1  -6    3.60    0.90
  11  -1  -6    1.40    0.70
  11   1  -6    2.00    1.00
  11   1  -6    1.20    0.80
  11   1  -6    1.30    0.70
   9  -1  -6  387.56   17.40
   9  -1  -6  379.06   16.50
   9  -1  -6  377.26   16.20
   9   1  -6  371.66   17.40
   9   1  -6  369.46   16.20
   7  -1  -6   57.99    2.90
   7  -1  -6   54.69    2.70
   7  -1  -6   57.69    3.20
   7   1  -6   54.69    3.00
   7   1  -6   53.09    3.10
   7   1  -6   52.89    2.80
   5  -1  -6  112.09    5.40
   5  -1  -6  108.69    4.90
   5   1  -6  103.29    4.90
   5   1  -6  100.99    4.90
   5   1  -6  107.79    5.30
   3  -1  -6   22.60    1.60
   3   1  -6   21.20    1.40
   3   1  -6   20.10    1.30
   3   1  -6   21.60    1.60
   1  -1  -6  378.86   17.50
   1   1  -6  376.26   16.50
   1   1  -6  387.16   17.50
   1  -1   6  247.28   11.00
   1  -1   6  250.77   11.70
  -1  -1  -6  261.37   11.70
  -1   1  -6  240.38   11.60
   1   1   6  253.27   11.70
   1   1   6  243.28   10.90
   3  -1   6  855.11   38.80
   3  -1   6  898.21   40.50
   3   1   6  935.81   40.60
   3   1   6  931.11   37.80
   3   1   6  875.11   38.70
   5  -1   6   63.89    3.30
   5  -1   6   57.39    3.10
   5   1   6   56.79    2.90
   5   1   6   53.39    3.30
   5   1   6   50.79    3.10
   7  -1   6   45.90    2.40
   7  -1   6   46.50    3.00
   7  -1   6   43.30    2.80
   7   1   6   44.40    2.50
   7   1   6   47.90    3.10
   7   1   6   46.80    2.90
   9  -1   6  138.69    6.80
   9  -1   6  127.79    6.50
   9  -1   6  132.79    6.00
   9   1   6  121.49    6.40
   9   1   6  125.19    6.10
   9   1   6  125.59    6.80
  11  -1   6   15.10    2.00
  11  -1   6   16.50    2.00
  11  -1   6   16.80    1.60
  11   1   6   15.00    1.90
  11   1   6   16.50    2.10
  11   1   6   15.70    1.70
  13  -1   6    5.80    1.70
  13  -1   6    6.60    1.30
  13  -1   6    5.60    1.50
  13   1   6    5.80    1.80
  13   1   6    8.20    1.70
  13   1   6    4.00    1.20
  15  -1   6   13.40    2.40
  15  -1   6   16.10    1.90
  15  -1   6   19.50    2.50
  15   1   6   15.50    2.30
  15   1   6   14.00    1.80
  15   1   6   17.50    2.70
  17  -1   6    5.00    1.40
  17  -1   6    1.40    1.80
  17  -1   6    2.30    2.00
  17   1   6    5.70    1.50
  17   1   6    3.30    1.80
  17   1   6    0.70    2.00
  19  -1   6   12.60    2.60
  19  -1   6    8.60    2.70
  19   1   6    9.50    2.80
  19   1   6   11.60    2.50
  21  -1   6    7.60    2.80
  21  -1   6   13.80    2.90
  21   1   6    8.20    3.00
  21   1   6   16.60    2.90
  23  -1   6   17.30    3.20
  23  -1   6   10.90    3.40
  23   1   6   11.60    3.50
  23   1   6   16.80    3.00
  25  -1   6   12.40    3.30
  25  -1   6   13.10    3.70
  25   1   6   11.80    3.00
  25   1   6   10.40    3.60
  32  -2  -6    3.80    2.70
  32  -2  -6    0.70    2.70
  32   2  -6    1.60    2.70
  32   2  -6    2.10    2.80
  32   2  -6    1.10    2.20
  30  -2  -6   -0.60    2.40
  30  -2  -6    0.80    2.40
  30   2  -6    2.40    2.20
  30   2  -6    1.30    2.50
  30   2  -6    3.30    2.50
  28  -2  -6    4.90    2.40
  28  -2  -6    0.00    2.20
  28   2  -6    7.70    2.60
  28   2  -6    2.60    1.90
  28   2  -6    4.90    2.50
  26  -2  -6    3.90    2.20
  26  -2  -6    4.10    2.10
  26   2  -6   -1.00    2.00
  26   2  -6    2.90    2.10
  26   2  -6    2.30    1.90
  24  -2  -6    4.50    2.10
  24  -2  -6    0.50    1.70
  24   2  -6    0.40    1.60
  24   2  -6    2.70    1.90
  24   2  -6    0.00    1.80
  22  -2  -6    3.30    1.70
  22  -2  -6    1.90    1.50
  22  -2  -6    1.30    1.80
  22   2  -6    3.00    1.60
  22   2  -6    4.90    2.00
  22   2  -6    3.00    1.70
  20  -2  -6    1.30    1.50
  20  -2  -6    0.00    1.30
  20  -2  -6    2.20    1.40
  20   2  -6   -0.40    1.60
  20   2  -6   -0.90    1.20
  20   2  -6    0.80    1.40
 -20   2   6    1.40    0.90
  18  -2  -6    2.90    1.30
  18  -2  -6    2.70    1.40
 -18  -2   6    2.90    0.70
  18  -2  -6    2.00    1.30
  18   2  -6    3.00    1.40
  18   2  -6    3.00    1.40
  18   2  -6    1.60    1.20
 -18   2   6    3.60    0.90
  16  -2  -6    0.20    1.00
  16  -2  -6   -1.00    1.10
 -16  -2   6   -0.50    0.40
  16  -2  -6    0.40    1.00
  16   2  -6    1.40    1.20
 -16   2   6   -0.20    0.70
  16   2  -6    1.30    1.00
  16   2  -6    1.20    1.10
  14  -2  -6    0.60    0.80
  14  -2  -6    1.80    1.10
  14  -2  -6    1.10    0.90
  14   2  -6    1.10    1.00
  14   2  -6    1.80    1.10
  14   2  -6    0.60    0.90
 -14   2   6    1.70    0.60
  12  -2  -6    1.00    0.90
  12  -2  -6   -0.10    0.80
  12  -2  -6    0.60    0.70
  12   2  -6   -0.80    0.80
 -12   2   6    0.40    0.50
  12   2  -6   -0.10    0.70
  12   2  -6    0.60    0.90
  10  -2  -6    0.70    0.80
  10  -2  -6    1.20    0.70
  10  -2  -6    1.70    0.80
 -10   2   6   -0.70    0.40
  10   2  -6    0.60    0.80
 -10   2   6    1.90    0.50
  10   2  -6    1.40    0.90
  10   2  -6    0.90    0.70
   8  -2  -6   -0.20    0.70
   8  -2  -6    0.40    0.50
   8   2  -6   -0.60    0.70
   8   2  -6    0.30    0.60
   8   2  -6    1.10    0.80
   6  -2  -6    2.00    0.70
   6   2  -6   -0.60    0.60
   6   2  -6    1.00    0.70
   4  -2  -6    0.80    0.60
   4   2  -6    0.50    0.60
   4   2  -6    0.10    0.20
   4   2  -6   -0.60    0.50
   2  -2  -6    0.50    0.60
   2   2  -6    0.20    0.60
   2   2  -6    0.10    0.20
   2   2  -6    0.70    0.50
   0  -2  -6    1.10    0.70
   0   2  -6    2.50    0.70
   0   2   6    1.90    0.50
   0   2  -6    0.30    0.20
   0   2   6    1.40    0.80
   2  -2   6    0.40    0.60
   2  -2   6    0.30    0.50
   2   2   6    0.90    0.60
   2   2   6   -1.00    0.70
   4  -2   6    0.80    0.70
   4  -2   6    1.40    0.70
   4   2   6   -0.30    0.70
   4   2   6    0.70    0.60
   4   2   6    0.00    0.70
   6  -2   6   -0.50    0.70
   6  -2   6    0.10    0.70
   6   2   6   -0.40    0.60
   6   2   6    0.90    0.80
   6   2   6   -0.60    0.80
   8  -2   6    0.80    0.60
   8  -2   6   -0.70    0.80
   8  -2   6    0.50    0.80
   8   2   6   -0.70    0.90
   8   2   6   -1.10    0.70
   8   2   6    0.20    0.90
  10  -2   6    5.30    1.00
  10  -2   6    3.20    1.20
  10  -2   6    2.50    1.10
  10   2   6    5.30    1.30
  10   2   6    3.80    1.00
  10   2   6    2.30    1.30
  12  -2   6    1.70    1.30
  12  -2   6    0.30    0.80
  12  -2   6    0.10    1.20
  12   2   6    1.20    1.00
  12   2   6   -0.30    1.30
  12   2   6   -1.40    1.10
  14  -2   6    0.00    1.40
  14  -2   6    3.10    1.20
  14  -2   6    6.90    1.90
  14   2   6    3.10    1.60
  14   2   6    5.40    1.90
  14   2   6    5.20    1.40
  16  -2   6    1.80    1.80
  16  -2   6    0.20    1.10
  16  -2   6    0.30    1.60
  16   2   6    0.60    1.30
  16   2   6    0.30    1.50
  16   2   6    2.70    1.90
  18  -2   6    3.10    2.20
  18  -2   6    1.80    2.00
  18   2   6    2.90    1.90
  18   2   6    2.80    2.20
  18   2   6    2.70    1.50
  20  -2   6    2.20    2.10
  20  -2   6   -0.20    2.40
  20   2   6   -2.10    2.20
  20   2   6    2.00    1.90
  22  -2   6    0.10    2.50
  22  -2   6    2.10    2.30
  22   2   6    1.80    2.70
  22   2   6   -0.30    2.20
  24  -2   6   -1.10    2.40
  24  -2   6   -0.20    2.90
  24   2   6    0.90    2.90
  24   2   6   -1.00    2.30
  26  -2   6    0.00    2.70
  26  -2   6    5.10    3.10
  26   2   6    1.30    2.70
  26   2   6    1.40    3.20
  31  -3  -6   21.70    4.00
  31  -3  -6   33.30    4.20
  31   3  -6   30.50    3.60
  31   3  -6   36.00    4.50
  31   3  -6   25.20    4.20
  29  -3  -6   13.40    3.00
  29  -3  -6    8.60    3.00
  29   3  -6   14.00    3.10
  29   3  -6   12.60    2.70
  29   3  -6    9.10    3.00
  27  -3  -6   32.60    3.80
  27  -3  -6   26.80    3.70
  27   3  -6   33.80    3.90
  27   3  -6   26.00    3.90
  27   3  -6   33.50    3.40
  25  -3  -6   24.80    3.40
  25  -3  -6   23.20    3.10
  25   3  -6   23.70    3.20
  25   3  -6   23.80    3.00
  25   3  -6   22.00    3.50
  23  -3  -6    5.50    1.90
  23  -3  -6    2.50    1.90
  23   3  -6    1.30    1.80
  23   3  -6    1.50    1.60
  23   3  -6    2.00    1.80
  21  -3  -6   12.20    2.30
  21  -3  -6    8.00    1.90
  21   3  -6    8.80    2.00
  21   3  -6    6.00    1.90
  21   3  -6    9.30    1.90
 -19  -3   6   89.09    4.20
  19  -3  -6   88.99    5.10
  19  -3  -6   84.29    5.40
  19   3  -6   89.29    5.60
  19   3  -6   92.19    5.20
  19   3  -6   94.89    5.10
 -19   3   6   86.09    4.50
  17  -3  -6   50.99    3.40
  17  -3  -6   54.89    3.60
 -17  -3   6   47.70    2.50
  17   3  -6   48.50    3.40
  17   3  -6   48.80    3.40
 -17   3   6   52.99    2.90
  17   3  -6   55.39    3.80
  15  -3  -6   38.60    2.90
  15  -3  -6   42.30    3.10
  15   3  -6   49.20    3.10
  15   3  -6   47.10    3.00
  15   3  -6   45.40    3.30
 -15   3   6   45.70    2.50
  13  -3  -6  117.89    6.10
  13  -3  -6  125.29    6.50
  13   3  -6  127.89    6.20
  13   3  -6  124.49    6.20
  13   3  -6  130.29    6.60
 -13   3   6  128.89    5.70
  11  -3  -6  425.56   19.90
  11  -3  -6  417.16   18.90
  11   3  -6  443.26   19.10
  11   3  -6  437.46   20.00
 -11   3   6  436.26   18.40
  11   3  -6  434.16   18.60
   9  -3  -6  117.89    5.70
   9  -3  -6  125.99    6.20
  -9   3   6  118.89    5.50
   9   3  -6  123.39    5.90
   9   3  -6  118.59    5.80
  -9   3   6  129.89    5.60
   9   3  -6  129.09    6.20
   7  -3  -6  165.28    7.90
   7   3  -6  159.88    7.80
   7   3  -6  159.98    7.40
  -7   3   6  163.18    7.00
  -7   3   6  161.08    7.00
   7   3  -6  162.78    7.40
   5  -3  -6  138.59    6.70
   5   3  -6  129.99    6.30
   5   3  -6  136.89    6.60
  -5   3   6  136.19    5.90
   5   3  -6  136.39    6.20
   3  -3  -6   59.19    3.50
   3   3  -6   69.19    3.40
  -3   3   6   58.89    3.00
   3   3  -6   68.29    3.20
   3   3  -6   66.39    3.30
   1  -3  -6  101.29    5.30
   1   3  -6  102.59    5.00
   1   3  -6  112.89    4.80
  -1   3   6  109.49    4.80
   1   3  -6  102.69    5.20
   1  -3   6    9.10    1.10
   1   3   6   12.30    1.00
  -1   3  -6    8.10    1.00
  -1   3  -6    9.20    1.10
   1   3   6   11.50    1.30
   3  -3   6  193.58    8.80
   3  -3   6  180.48    8.40
   3   3   6  182.28    8.20
   3   3   6  179.28    8.20
   3   3   6  183.28    8.90
   5  -3   6   21.40    1.70
   5  -3   6   20.40    1.80
   5   3   6   17.80    1.60
   5   3   6   19.20    1.90
   5   3   6   20.60    1.70
   7  -3   6   24.00    2.00
   7  -3   6   25.90    2.10
  -7  -3  -6   26.00    1.50
   7   3   6   22.50    2.00
   7   3   6   24.40    1.90
   7   3   6   24.90    2.30
   9  -3   6    9.60    1.50
   9  -3   6   13.40    1.70
   9  -3   6   11.40    1.20
   9   3   6   14.60    1.50
   9   3   6   10.70    1.50
   9   3   6   15.30    2.00
  11  -3   6   73.99    4.30
  11  -3   6   63.79    3.60
  11  -3   6   69.69    4.20
  11   3   6   69.09    4.10
  11   3   6   67.59    4.40
  11   3   6   71.49    3.90
  13  -3   6    4.60    1.60
  13  -3   6    5.80    1.80
  13  -3   6    4.90    1.20
  13   3   6    7.90    1.50
  13   3   6    4.80    1.70
  13   3   6    7.20    1.60
  15  -3   6   13.80    1.80
  15  -3   6   15.10    2.50
  15  -3   6   13.70    2.30
  15   3   6   16.90    2.00
  15   3   6   15.30    2.60
  15   3   6   15.30    2.30
  17  -3   6    6.90    2.40
  17  -3   6   10.40    1.70
  17  -3   6    5.10    2.10
  17   3   6    7.50    1.70
  17   3   6    5.10    2.20
  17   3   6    3.50    1.90
  19  -3   6   10.90    2.80
  19  -3   6   10.70    2.70
  19   3   6    7.50    2.60
  19   3   6   12.80    2.50
  21  -3   6    4.70    2.60
  21  -3   6    9.60    2.90
  21   3   6    8.80    3.10
  21   3   6   10.80    2.70
  23  -3   6   -0.80    2.70
  23  -3   6    1.20    2.60
  23   3   6    4.10    3.00
  23   3   6    3.60    2.50
  25  -3   6   10.90    3.50
  25  -3   6   24.60    3.80
  25   3   6   11.50    3.80
  25   3   6   18.10    3.50
  32  -4  -6    4.10    2.80
  32  -4  -6    4.20    3.00
  32   4  -6    1.00    2.70
  32   4  -6   -0.10    2.30
  32   4  -6   -1.40    2.60
  30  -4  -6    6.70    2.80
  30  -4  -6    2.30    2.60
  30   4  -6    3.80    2.80
  30   4  -6    4.30    2.30
  30   4  -6    4.50    2.70
  28  -4  -6    1.50    2.30
  28  -4  -6    1.70    2.50
  28   4  -6   -1.90    2.20
  28   4  -6   -1.40    2.40
  28   4  -6   -0.10    2.00
  26  -4  -6    1.80    2.20
  26  -4  -6    2.90    2.20
  26   4  -6    6.20    2.20
  26   4  -6    2.60    2.30
  26   4  -6    1.20    2.20
  24  -4  -6    1.90    1.80
  24  -4  -6   -0.10    1.80
  24   4  -6    0.70    2.00
  24   4  -6   -0.60    1.50
  24   4  -6    0.20    2.00
  22  -4  -6    1.60    1.60
  22  -4  -6    1.20    1.80
  22   4  -6    1.30    1.70
  22   4  -6    0.50    1.70
  22   4  -6    0.40    1.60
  20  -4  -6   -1.80    1.40
  20  -4  -6    0.20    1.30
  20   4  -6    1.40    1.40
  20   4  -6   -1.80    1.30
  20   4  -6   -1.00    1.50
  18  -4  -6    7.80    1.60
  18  -4  -6    8.90    1.80
  18   4  -6    8.70    1.80
  18   4  -6   10.30    2.10
  18   4  -6   10.00    1.80
 -18   4   6   10.50    1.40
  16  -4  -6    0.70    1.10
  16  -4  -6    0.90    1.20
  16   4  -6    2.00    1.30
 -16   4   6    1.30    0.80
  16   4  -6    1.50    1.20
  16   4  -6    0.60    1.20
  14  -4  -6   -0.40    0.70
  14  -4  -6    0.10    1.00
  14   4  -6   -0.70    1.10
  14   4  -6    0.50    1.00
 -14   4   6   -0.60    0.60
  14   4  -6   -0.90    1.00
  12  -4  -6   11.90    1.40
  12  -4  -6   10.60    1.50
  12   4  -6    7.60    1.40
 -12   4   6    9.50    1.00
  12   4  -6    6.60    1.30
  12   4  -6    7.60    1.30
  10  -4  -6    6.50    1.10
  10  -4  -6    4.20    0.90
  10   4  -6    7.20    1.20
  10   4  -6    7.30    1.20
  10   4  -6    6.30    1.10
 -10   4   6    6.70    0.90
   8  -4  -6    6.20    1.10
   8   4  -6    5.70    1.10
   8   4  -6    6.20    1.10
   8   4  -6    4.60    1.00
  -8   4   6    6.10    0.80
   6  -4  -6   11.60    1.40
   6   4  -6   13.40    1.30
   6   4  -6   13.30    1.30
   6   4  -6   12.90    1.40
  -6   4   6   15.00    1.20
   4  -4  -6    3.00    0.90
   4   4  -6    5.10    0.90
   4   4  -6    2.40    0.70
  -4   4   6    3.90    0.70
   4   4  -6    2.40    0.70
   2  -4  -6    5.90    1.00
   2   4  -6    7.60    1.00
   2   4  -6    6.00    0.90
  -2   4   6    7.20    0.90
   2   4  -6    5.60    0.90
   0  -4  -6    0.20    0.70
   0   4  -6    0.80    0.70
   0   4  -6   -0.30    0.60
   0   4  -6    0.00    0.50
   0   4   6    0.90    0.80
   0   4   6    0.70    0.70
  -2  -4  -6    6.20    0.60
   2  -4   6    6.40    0.90
   2   4   6    5.90    1.00
   2   4   6    5.90    1.10
   4  -4   6    1.30    0.80
  -4  -4  -6    1.80    0.50
   4  -4   6    1.10    0.70
   4   4   6    1.40    0.70
   4   4   6    2.30    0.90
   4   4   6    2.00    0.90
   6  -4   6   15.30    1.50
   6  -4   6   13.20    1.60
   6   4   6   14.20    1.70
   6   4   6   12.90    1.40
   6   4   6   13.60    1.20
   6   4   6   12.00    1.40
   8  -4   6    0.70    0.90
   8  -4   6    0.40    1.00
   8   4   6    0.20    0.90
   8   4   6    0.60    0.90
   8   4   6    0.10    1.10
  10  -4   6    7.50    1.50
  10  -4   6    5.90    1.50
  10  -4   6    8.30    1.10
  10   4   6    5.60    1.30
  10   4   6    7.30    1.40
  10   4   6    6.40    1.60
  12  -4   6    1.10    1.30
  12  -4   6   -0.60    0.80
  12  -4   6    2.40    1.40
  12   4   6    1.00    1.40
  12   4   6    1.20    1.10
  12   4   6   -0.70    1.20
  14  -4   6    3.10    1.60
  14  -4   6    7.20    1.90
  14  -4   6    4.10    1.20
  14   4   6    3.10    1.60
  14   4   6    5.10    1.90
  14   4   6    4.80    1.40
  16  -4   6   -2.10    1.50
  16  -4   6    0.70    1.20
  16  -4   6    2.20    1.90
  16   4   6   -3.00    1.30
  16   4   6    2.20    2.00
  16   4   6    0.70    1.30
  18  -4   6    4.90    2.20
  18  -4   6    2.90    2.20
  18   4   6    3.80    1.70
  18   4   6    1.10    2.20
  18   4   6    4.90    2.00
  20  -4   6    0.20    2.10
  20  -4   6   -0.60    2.20
  20   4   6   -2.70    2.20
  20   4   6    2.60    2.10
  22  -4   6    3.50    2.60
  22  -4   6   -0.80    2.40
  22   4   6   -0.70    2.10
  22   4   6   -3.90    2.40
  24  -4   6   -2.40    2.50
  24  -4   6    2.30    2.80
  24   4   6    4.50    2.70
  24   4   6   -0.50    2.70
  26  -4   6    0.80    2.80
  26   4   6    3.40    2.60
  26   4   6   -0.40    3.10
  31  -5  -6    5.20    2.90
  31  -5  -6    3.40    2.80
  31   5  -6    2.00    2.90
  31   5  -6    7.00    3.00
  31   5  -6    2.40    2.40
  29  -5  -6   62.09    5.40
  29  -5  -6   67.09    5.70
  29   5  -6   66.29    5.10
  29   5  -6   66.99    5.80
  29   5  -6   45.80    5.60
  27  -5  -6    7.10    2.60
  27  -5  -6    5.60    2.40
  27   5  -6    2.70    2.00
  27   5  -6    3.80    2.50
  27   5  -6    3.20    2.60
  25  -5  -6  170.58    9.10
  25  -5  -6  176.08    8.80
  25   5  -6  152.78    8.30
  25   5  -6  168.98    8.90
  25   5  -6  122.79    9.10
  23  -5  -6   28.10    3.30
  23  -5  -6   27.90    3.20
  23   5  -6   21.10    3.30
  23   5  -6   31.00    3.10
  23   5  -6   28.50    3.40
  21  -5  -6   83.59    5.00
  21  -5  -6   77.19    5.00
  21   5  -6   81.79    5.10
  21   5  -6   70.29    4.60
  21   5  -6   64.69    5.20
  19  -5  -6  260.47   12.20
  19  -5  -6  256.67   12.60
  19   5  -6  264.77   12.30
 -19   5   6  249.78   11.50
  19   5  -6  252.47   13.00
  19   5  -6  253.67   11.90
  17  -5  -6  469.15   21.20
  17  -5  -6  478.05   22.10
  17   5  -6  475.65   21.40
  17   5  -6  460.15   22.40
 -17   5   6  470.75   20.50
  17   5  -6  489.65   20.70
  15  -5  -6   39.90    2.90
  15   5  -6   38.40    3.10
 -15   5   6   36.30    2.40
  15   5  -6   38.70    3.00
  15   5  -6   36.50    2.90
  13  -5  -6   95.99    5.10
  13  -5  -6   96.99    5.40
  13   5  -6  103.39    5.30
  13   5  -6  108.09    5.30
 -13   5   6  101.59    4.80
  13   5  -6  100.79    5.50
  11  -5  -6   18.80    1.60
  11  -5  -6   16.00    1.70
  11   5  -6   12.90    1.70
  11   5  -6   13.10    1.60
 -11   5   6   13.00    1.30
  11   5  -6   15.10    1.70
   9  -5  -6   92.19    4.80
   9  -5  -6   83.99    4.30
   9   5  -6   84.49    4.60
   9   5  -6   91.79    4.60
   9   5  -6   90.29    4.80
  -9   5   6   98.09    4.30
   7  -5  -6   59.79    3.60
   7   5  -6   65.89    3.50
   7   5  -6   69.69    3.60
   7   5  -6   68.49    3.60
  -7   5   6   62.99    3.30
   5  -5  -6  700.13   31.20
   5   5  -6  660.73   29.90
   5   5  -6  697.43   31.10
  -5   5   6  687.13   29.10
   5   5  -6  691.83   28.90
   3  -5  -6   26.00    1.90
   3   5  -6   24.80    1.70
  -3   5   6   21.80    1.70
   3   5  -6   25.60    1.70
   3   5  -6   25.00    1.90
   1  -5  -6  283.97   13.20
  -1   5   6  280.07   13.20
   1   5  -6  280.27   12.70
   1   5  -6  289.97   12.10
  -1   5   6  277.87   12.30
   1   5  -6  279.07   13.00
  -1  -5  -6   47.70    2.20
   1  -5   6   37.90    2.40
  -1   5  -6   41.30    2.40
  -1   5  -6   44.30    2.30
  -1   5  -6   42.50    2.30
   1   5   6   44.70    2.50
   1   5   6   41.90    2.70
  -1   5  -6   38.30    2.50
   3  -5   6   92.29    4.70
   3  -5   6   91.99    4.80
   3   5   6   96.69    5.00
   3   5   6   98.59    4.60
   3   5   6   87.99    4.40
  -3   5  -6   93.89    4.30
   5  -5   6   27.90    2.00
   5  -5   6   26.50    2.20
   5   5   6   32.90    2.20
   5   5   6   30.80    2.00
   5   5   6   33.00    1.80
  -5   5  -6   28.50    1.70
   5   5   6   32.90    2.50
   7  -5   6  365.76   16.50
   7  -5   6  374.96   16.80
   7   5   6  354.76   17.10
   7   5   6  359.36   14.90
   7   5   6  352.26   16.10
   7   5   6  376.56   15.40
   7   5   6  358.86   15.90
   9  -5   6  138.29    7.30
   9  -5   6  147.39    7.40
   9   5   6  147.39    7.00
   9   5   6  144.29    7.70
   9   5   6  149.39    7.10
  11  -5   6  125.89    6.60
  11  -5   6  124.59    5.90
  11  -5   6  124.39    6.60
  11   5   6  127.59    6.40
  11   5   6  120.29    6.90
  11   5   6  124.49    6.20
  13  -5   6   25.30    2.00
  13  -5   6   20.50    2.50
  13  -5   6   23.10    2.70
  13   5   6   22.60    2.20
  13   5   6   20.80    2.70
  13   5   6   20.00    2.30
  15  -5   6  174.38    8.80
  15  -5   6  161.68    8.80
  15  -5   6  173.78    7.90
  15   5   6  145.89    9.00
  15   5   6  152.28    8.30
  15   5   6  169.98    8.00
  17  -5   6    0.20    1.90
  17  -5   6   -1.80    1.80
  17   5   6    0.60    2.10
  17   5   6    1.30    1.50
  17   5   6    0.50    1.60
  19  -5   6  276.47   13.20
  19  -5   6  253.77   13.40
  19   5   6  210.98   13.60
  19   5   6  289.47   12.90
  21  -5   6   18.40    3.40
  21   5   6   14.00    3.50
  21   5   6   19.60    3.10
  23  -5   6   12.80    3.50
  23   5   6    0.70    2.80
  23   5   6    7.30    2.70
  25  -5   6    2.00    2.90
  25   5   6   -0.30    2.90
  25   5   6   -2.80    2.30
  30  -6  -6    0.80    2.60
  30  -6  -6    1.40    2.50
  30   6  -6    4.10    2.30
  30   6  -6    0.00    2.60
  30   6  -6   -1.00    2.60
  28  -6  -6   -2.80    2.20
  28  -6  -6    2.00    2.20
  28   6  -6   -1.40    2.50
  28   6  -6    2.70    2.60
  28   6  -6    0.70    2.10
  26  -6  -6   -0.40    2.10
  26  -6  -6    2.10    2.20
  26   6  -6   -0.10    1.90
  26   6  -6    0.10    2.10
  26   6  -6    3.60    2.40
  24  -6  -6    2.60    2.00
  24  -6  -6    1.70    2.00
  24   6  -6    0.10    2.00
  24   6  -6    0.10    1.80
  24   6  -6   -3.40    1.80
  22  -6  -6    1.30    1.80
  22  -6  -6    2.30    1.80
  22   6  -6   -1.20    1.70
  22   6  -6    1.80    1.90
  22   6  -6    1.50    1.70
  20  -6  -6    1.30    1.50
  20  -6  -6    2.70    1.70
  20   6  -6    3.10    1.80
  20   6  -6    0.60    1.50
  20   6  -6   -1.60    1.50
  18  -6  -6   10.40    1.90
  18  -6  -6   10.10    1.90
  18   6  -6   11.50    2.10
  18   6  -6   15.90    2.20
 -18   6   6   10.10    1.50
  18   6  -6   14.50    2.40
  16  -6  -6    5.00    1.40
  16  -6  -6    0.70    0.70
  16   6  -6    3.90    1.60
 -16   6   6    4.90    1.10
  16   6  -6    6.90    1.70
  16   6  -6    4.10    1.50
  14  -6  -6    8.50    1.50
  14  -6  -6   10.90    1.60
  14   6  -6   12.90    1.80
  14   6  -6   14.40    2.00
 -14   6   6   11.40    1.30
  14   6  -6   10.50    1.70
  12  -6  -6    5.90    1.30
  12  -6  -6    3.50    1.10
  12  -6  -6    3.40    0.60
  12   6  -6    5.10    1.30
  12   6  -6    3.60    1.20
  12   6  -6    5.60    1.30
 -12   6   6    4.00    0.90
  10  -6  -6   15.30    1.20
  10  -6  -6   16.80    1.80
  10  -6  -6   20.00    1.70
  10  -6  -6   17.70    1.30
  10   6  -6   20.90    2.00
  10   6  -6   20.50    2.00
 -10   6   6   19.00    1.60
  10   6  -6   17.80    1.80
   8  -6  -6    0.40    0.90
   8  -6  -6    0.00    0.50
   8  -6  -6   -0.50    0.50
   8   6  -6    1.20    0.90
   8   6  -6   -0.60    0.80
  -8   6   6    0.20    0.70
   8   6  -6   -0.30    0.80
   6  -6  -6   17.10    1.10
   6  -6  -6   12.20    1.50
   6   6  -6   16.50    1.50
   6   6  -6   15.70    1.70
   6   6  -6   15.80    1.60
  -6   6   6   15.30    1.40
   4  -6  -6    8.30    1.20
   4   6  -6    4.20    1.00
   4   6  -6    3.40    0.90
   4   6  -6    8.00    1.10
  -4   6   6    4.70    0.90
   2  -6  -6    9.20    1.20
   2   6  -6    8.60    1.20
  -2   6   6    9.50    1.30
  -2   6   6    8.80    1.10
   2   6  -6    8.10    1.00
   2   6  -6    7.80    1.20
   2   6  -6    9.80    1.20
   0   6  -6    6.80    0.90
   0   6  -6    7.20    1.00
   0   6   6    8.10    1.20
   0   6   6    6.60    1.10
   0   6  -6    6.30    1.10
   0   6  -6    6.60    1.00
   2  -6   6    6.10    0.90
   2   6   6    5.30    0.80
   2   6   6    7.40    1.30
  -2   6  -6    4.40    1.00
  -2   6  -6    5.70    0.90
   2   6   6    7.50    1.20
  -2   6  -6    6.90    0.90
   4  -6   6    1.00    0.90
   4  -6   6    0.90    0.60
  -4   6  -6    1.10    0.70
   4   6   6    0.90    0.90
  -4   6  -6    0.50    0.60
   4   6   6    0.40    0.70
   4   6   6    0.40    0.70
   4   6   6    2.20    1.00
   6  -6   6    3.60    1.10
   6  -6   6    4.40    1.00
   6   6   6    4.80    1.00
   6   6   6    3.20    1.30
  -6   6  -6    5.70    0.80
  -6   6  -6    4.40    0.80
   6   6   6    4.50    1.10
   6   6   6    4.70    0.90
   8  -6   6    1.10    0.90
   8  -6   6   -0.90    1.00
   8   6   6    2.60    0.80
   8   6   6    2.90    0.90
   8   6   6   -0.90    0.90
   8   6   6    1.40    1.10
   8   6   6    0.30    1.20
  10  -6   6    0.90    1.20
  10  -6   6    0.90    1.10
  10   6   6    1.20    1.10
  10   6   6    1.50    1.10
  10   6   6   -0.10    1.30
  12  -6   6    0.00    0.90
  12  -6   6   -1.30    1.20
  12  -6   6    0.40    1.50
  12   6   6    1.20    1.20
  12   6   6    1.90    1.40
  12   6   6    0.40    1.60
  14  -6   6    1.00    1.60
  14  -6   6    2.20    1.60
  14  -6   6    1.40    1.10
  14   6   6    1.10    1.50
  14   6   6   -0.90    1.70
  14   6   6    1.50    1.40
  16  -6   6    0.30    1.20
  16  -6   6    1.70    2.00
  16   6   6    2.50    2.00
  16   6   6    0.30    1.40
  16   6   6    0.40    1.70
  18  -6   6   -2.40    2.10
  18   6   6    2.40    1.90
  18   6   6    1.80    1.60
  18   6   6    2.50    2.30
  20  -6   6    5.20    2.50
  20   6   6    2.00    2.20
  20   6   6    3.30    2.60
  22  -6   6    3.10    2.50
  22   6   6    4.00    2.90
  22   6   6    1.20    2.40
  24  -6   6    1.80    2.90
  24   6   6   -2.40    2.90
  24   6   6    1.90    2.50
  29  -7  -6    5.40    2.70
  29   7  -6    4.50    2.90
  29   7  -6    4.30    2.50
  29   7  -6    9.70    3.10
  27  -7  -6   58.79    5.10
  27  -7  -6   62.39    5.20
  27   7  -6   49.70    5.30
  27   7  -6   66.79    5.30
  27   7  -6   57.19    5.50
  25  -7  -6   15.40    2.70
  25  -7  -6    7.40    2.50
  25   7  -6    6.70    2.70
  25   7  -6   10.60    2.50
  25   7  -6    8.20    2.60
  23  -7  -6   23.90    3.00
  23  -7  -6   30.70    3.50
  23   7  -6   25.50    3.30
  23   7  -6   33.60    3.40
  23   7  -6   20.90    3.30
  21  -7  -6   15.60    2.50
  21  -7  -6   21.50    2.90
  21   7  -6   15.60    2.70
  21   7  -6   19.40    2.80
  21   7  -6   17.50    2.70
  19  -7  -6    5.00    1.60
  19  -7  -6    1.20    1.60
  19   7  -6    5.70    2.10
  19   7  -6    3.10    1.70
  19   7  -6    6.20    1.90
  17  -7  -6   95.89    5.60
  17  -7  -6   98.09    5.50
  17   7  -6  100.99    6.00
 -17   7   6   94.79    5.00
  17   7  -6   97.89    5.70
  17   7  -6  105.39    5.70
  15  -7  -6   39.70    2.90
  15  -7  -6   38.20    3.00
  15   7  -6   42.20    3.30
  15   7  -6   39.70    3.10
  15   7  -6   37.00    3.20
 -15   7   6   41.50    2.70
  13  -7  -6  217.48   10.30
  13  -7  -6  228.58    9.70
  13  -7  -6  222.88   10.70
 -13   7   6  213.78    9.90
  13   7  -6  225.48   10.60
  13   7  -6  213.38   10.20
  13   7  -6  225.38   10.90
  11  -7  -6    3.10    0.80
  11  -7  -6    3.30    1.10
  11  -7  -6    3.70    1.10
  11   7  -6    1.50    1.20
 -11   7   6    3.80    0.90
  11   7  -6    4.50    1.30
  11   7  -6    3.60    1.10
   9  -7  -6  340.77   14.00
   9  -7  -6  319.47   14.40
   9  -7  -6  321.07   15.20
  -9   7   6  309.07   14.20
   9   7  -6  323.87   14.30
   9   7  -6  331.77   14.80
   9   7  -6  328.97   15.20
   7  -7  -6   16.30    1.70
   7  -7  -6   17.90    1.40
  -7   7   6   18.70    1.60
   7   7  -6   21.50    2.00
   7   7  -6   17.40    1.90
   7   7  -6   20.20    1.80
   5  -7  -6  261.17   12.10
  -5   7   6  254.47   11.30
   5   7  -6  259.37   11.90
   5   7  -6  250.87   11.70
   5   7  -6  250.37   11.30
   3  -7  -6  127.49    6.40
  -3   7   6  120.99    5.90
   3   7  -6  126.99    6.30
   3   7  -6  128.69    6.20
   3   7  -6  127.69    6.00
   3   7  -6  133.59    5.90
   1   7  -6  518.65   23.30
   1   7  -6  520.65   23.90
   1   7  -6  527.25   22.40
  -1   7   6  534.55   24.20
  -1   7   6  539.25   22.70
   1   7  -6  527.95   21.80
   1  -7   6   56.89    3.10
   1   7   6   61.09    3.30
  -1   7  -6   62.99    3.20
   1   7   6   60.69    3.00
  -1   7  -6   60.79    3.10
   1   7   6   56.39    3.50
  -1   7  -6   53.89    3.40
   3  -7   6  404.76   19.00
   3   7   6  434.16   18.20
  -3   7  -6  424.36   18.70
  -3   7  -6  423.86   17.30
   3   7   6  425.36   18.30
  -3   7  -6  413.86   17.70
   3   7   6  399.56   19.40
   5  -7   6   19.90    2.10
   5  -7   6   18.50    1.60
   5   7   6   18.90    1.90
   5   7   6   18.00    1.60
   5   7   6   20.90    1.70
   5   7   6   17.40    2.00
  -5   7  -6   19.30    1.60
  -5   7  -6   22.20    1.60
   7  -7   6  202.38    9.80
   7  -7   6  190.78    9.60
   7   7   6  222.58    9.10
   7   7   6  198.08    9.30
   7   7   6  211.38    8.80
   7   7   6  189.78   10.10
   7   7   6  206.58    9.40
   9  -7   6   81.49    4.60
   9  -7   6   88.49    4.90
   9   7   6   73.79    4.90
   9   7   6   81.09    4.10
   9   7   6   76.09    4.40
   9   7   6   79.49    4.40
  11  -7   6  104.49    5.90
  11   7   6  100.69    5.30
  11   7   6  104.99    5.40
  11   7   6   90.89    5.90
  13  -7   6   30.50    3.20
  13  -7   6   27.90    2.40
  13   7   6   29.00    2.90
  13   7   6   29.60    2.70
  13   7   6   30.10    3.50
  15  -7   6   63.09    3.80
  15  -7   6   71.39    5.00
  15   7   6   64.59    4.40
  15   7   6   56.99    4.00
  15   7   6   54.99    4.80
  17  -7   6    1.60    2.20
  17   7   6    3.00    2.40
  17   7   6    3.60    1.60
  17   7   6    0.30    1.80
  19  -7   6    9.90    2.90
  19   7   6   10.70    2.50
  19   7   6    6.30    2.80
  21  -7   6    1.70    2.40
  21   7   6   -0.50    2.60
  21   7   6    2.40    2.30
  23  -7   6   -2.90    2.50
  23   7   6   -0.70    2.80
  23   7   6   -2.10    2.30
  30  -8  -6    3.00    2.80
  30   8  -6    2.70    2.90
  30   8  -6    3.20    3.00
  30   8  -6    0.50    2.60
  28  -8  -6    4.90    2.70
  28   8  -6    3.40    2.80
  28   8  -6   -1.40    2.30
  28   8  -6    3.80    2.80
  26  -8  -6    4.90    2.50
  26   8  -6    8.40    2.60
  26   8  -6    9.30    2.80
  26   8  -6    4.10    2.50
  24  -8  -6    0.60    2.10
  24   8  -6    0.10    2.00
  24   8  -6    1.00    2.00
  24   8  -6    3.40    2.40
  22  -8  -6   12.30    2.50
  22  -8  -6    5.60    2.00
  22   8  -6    8.10    2.60
  22   8  -6    7.30    2.30
  22   8  -6    7.80    2.30
  20  -8  -6    1.30    1.70
  20  -8  -6    0.00    1.50
  20   8  -6   -0.90    1.80
  20   8  -6   -1.00    1.70
  20   8  -6    2.70    1.80
  18  -8  -6   10.60    2.00
  18  -8  -6    9.10    1.90
  18   8  -6    9.10    2.20
  18   8  -6   11.10    2.10
  18   8  -6    8.50    2.10
  16  -8  -6    0.40    0.60
  16  -8  -6    1.60    1.40
  16   8  -6    1.50    1.60
  16   8  -6    3.00    1.60
  16   8  -6    1.20    1.50
 -16   8   6    1.80    1.10
  14  -8  -6   17.00    2.10
  14  -8  -6   18.70    2.10
  14   8  -6   20.80    2.40
  14   8  -6   19.10    2.40
  14   8  -6   17.70    2.30
 -14   8   6   19.30    1.90
  12  -8  -6   -0.10    1.00
  12  -8  -6    1.30    1.10
  12  -8  -6    1.50    0.80
 -12   8   6    1.40    0.90
  12   8  -6    0.60    1.10
  12   8  -6    1.60    1.40
  12   8  -6   -0.50    1.20
  10  -8  -6   14.90    1.30
  10  -8  -6   15.10    1.70
  10  -8  -6   14.70    1.60
  10   8  -6   12.50    1.80
 -10   8   6   14.10    1.50
  10   8  -6   12.30    1.90
  10   8  -6   13.50    1.60
   8  -8  -6    5.30    0.90
   8  -8  -6    4.20    1.00
   8  -8  -6    3.60    1.10
   8   8  -6    3.00    1.30
   8   8  -6    3.30    1.20
  -8   8   6    3.70    0.90
   8   8  -6    3.60    1.00
   6  -8  -6    6.80    1.20
   6   8  -6   12.00    1.60
   6   8  -6    9.80    1.40
   6   8  -6    6.70    1.40
   6   8  -6    7.10    1.10
  -6   8   6    7.10    1.10
   4  -8  -6    0.70    0.90
   4   8  -6    1.80    0.90
   4   8  -6    2.20    0.80
   4   8  -6    2.80    1.10
   4   8  -6    2.70    1.10
  -4   8   6    3.50    0.90
   2   8  -6   16.40    1.60
   2   8  -6   15.30    1.40
  -2   8   6   13.70    1.50
  -2   8   6   17.20    1.80
   2   8  -6   14.40    1.80
   2   8  -6   18.90    1.70
   0   8  -6    8.20    1.20
   0   8  -6    6.50    1.30
   0   8  -6    8.00    1.20
   0   8   6    6.10    1.10
   0   8   6    6.40    1.20
   0   8  -6    7.60    0.90
   2   8   6   12.70    1.60
  -2   8  -6   12.60    1.40
  -2   8  -6   11.50    1.30
   2   8   6   10.60    1.20
  -2   8  -6    9.70    1.60
   2   8   6   10.50    1.40
   4  -8   6   11.20    1.80
  -4   8  -6   13.80    1.40
  -4   8  -6   12.10    1.40
   4   8   6   11.30    1.50
   4   8   6   12.00    1.50
   4   8   6   13.00    1.70
   4   8   6   13.70    1.40
   6  -8   6    4.20    1.40
   6   8   6    1.50    1.00
  -6   8  -6    3.30    1.00
   6   8   6    3.50    1.40
  -6   8  -6    2.70    0.90
   6   8   6    2.20    1.20
   6   8   6    2.80    1.10
   8  -8   6    8.40    1.90
   8   8   6    8.30    1.40
   8   8   6    9.40    1.50
   8   8   6   13.80    1.80
   8   8   6   11.60    1.50
   8   8   6    8.90    1.80
  10  -8   6    5.60    1.70
  10   8   6    5.00    1.50
  10   8   6    5.30    1.80
  10   8   6    2.90    1.40
  12  -8   6    8.40    2.10
  12   8   6    8.90    2.20
  12   8   6    5.30    1.60
  12   8   6    6.60    1.70
  14  -8   6    5.60    2.10
  14  -8   6    6.80    1.40
  14   8   6    2.50    2.00
  14   8   6    6.50    1.90
  14   8   6    5.40    1.60
  16  -8   6   10.70    2.50
  16   8   6    6.00    1.80
  16   8   6    7.80    2.10
  16   8   6   10.80    2.70
  18  -8   6    3.00    2.40
  18   8   6    2.10    2.40
  18   8   6    3.40    2.10
  20  -8   6    0.50    2.50
  20   8   6   -2.20    2.50
  20   8   6    2.30    2.20
  22  -8   6    4.00    2.80
  22   8   6    3.30    2.40
  22   8   6   -2.10    2.70
  24  -8   6    5.10    3.10
  24   8   6    4.30    3.30
  24   8   6    2.30    2.50
  29   9  -6   32.90    4.20
  29   9  -6   21.40    4.10
  29   9  -6   26.60    4.30
  27  -9  -6   35.20    4.40
  27   9  -6   19.50    3.90
  27   9  -6   25.80    3.70
  27   9  -6   33.20    4.30
  25  -9  -6   49.40    4.70
  25   9  -6   57.59    4.80
  25   9  -6   48.50    4.80
  25   9  -6   34.40    4.50
  23  -9  -6    4.70    2.30
  23   9  -6    3.30    2.30
  23   9  -6   -0.40    2.20
  23   9  -6    0.60    2.00
  21  -9  -6   87.29    5.60
  21   9  -6   83.59    5.80
  21   9  -6   70.49    5.90
  21   9  -6   80.99    5.50
  19  -9  -6    0.90    1.70
  19   9  -6    2.60    1.80
  19   9  -6   -1.90    1.80
  19   9  -6    0.40    1.80
  17  -9  -6   29.20    2.70
  17   9  -6   29.60    3.10
  17   9  -6   28.00    3.10
  17   9  -6   22.70    3.00
  15  -9  -6  104.19    5.70
  15  -9  -6  103.89    5.60
  15   9  -6  102.19    5.90
  15   9  -6  101.09    5.90
 -15   9   6   94.19    5.20
  15   9  -6  101.39    5.80
  13  -9  -6  229.38   10.80
  13  -9  -6  233.88   10.30
  13  -9  -6  230.78   11.10
  13   9  -6  237.98   11.40
  13   9  -6  230.78   11.10
 -13   9   6  210.88   10.40
  13   9  -6  238.08   10.90
  11  -9  -6   36.80    2.70
  11  -9  -6   33.90    2.60
  11   9  -6   30.50    3.00
  11   9  -6   38.50    2.80
 -11   9   6   31.50    2.40
  11   9  -6   33.40    3.00
   9  -9  -6  239.68   11.00
   9  -9  -6  231.18   10.50
   9  -9  -6  209.08   10.10
   9   9  -6  236.78   10.90
   9   9  -6  233.58   10.60
   9   9  -6  231.78   11.00
  -9   9   6  225.68   10.30
   7  -9  -6   13.20    1.60
   7  -9  -6   16.80    1.60
  -7   9   6   10.90    1.40
   7   9  -6   11.30    1.40
   7   9  -6    9.10    1.60
   7   9  -6   10.50    1.70
   7   9  -6   13.80    1.90
   5  -9  -6  137.89    6.60
   5  -9  -6  133.09    6.20
   5   9  -6  123.09    6.10
  -5   9   6  131.79    6.10
   5   9  -6  127.19    6.30
   5   9  -6  119.19    6.30
   5   9  -6  126.09    6.60
   3   9  -6    2.70    1.20
   3   9  -6    1.30    1.00
  -3   9   6    1.30    0.90
   3   9  -6    2.10    0.70
  -3   9   6    0.50    1.00
   3   9  -6    2.10    1.10
  -1   9   6  302.77   12.70
  -1   9   6  275.27   13.50
   1   9  -6  281.27   12.60
   1   9  -6  289.47   13.20
   1   9  -6  283.37   12.30
  -1   9  -6    4.10    1.10
   1   9   6    5.90    1.30
  -1   9  -6    3.40    1.10
   1   9   6    5.50    1.20
  -1   9  -6    2.00    1.20
   3   9   6  307.57   13.40
   3   9   6  291.37   14.30
   3   9   6  291.97   12.80
  -3   9  -6  305.67   12.80
   3   9   6  301.87   13.30
  -3   9  -6  298.07   13.10
  -3   9  -6  302.57   13.90
   5  -9   6    4.20    1.40
   5   9   6    6.70    1.50
  -5   9  -6    3.60    1.10
   5   9   6    5.20    1.30
  -5   9  -6    4.90    1.10
   5   9   6    3.80    1.20
   5   9   6    3.60    1.10
   7  -9   6  120.99    6.40
   7   9   6  113.99    6.50
   7   9   6  120.39    5.90
   7   9   6  117.79    5.80
   7   9   6  111.39    5.80
   7   9   6  114.99    5.60
   9  -9   6   -0.70    1.40
   9   9   6    0.50    1.50
   9   9   6   -0.20    1.10
   9   9   6   -0.80    1.20
   9   9   6    1.20    1.10
   9   9   6    0.60    1.20
  11  -9   6  129.39    7.30
  11   9   6  133.19    6.80
  11   9   6  121.69    7.40
  11   9   6  137.39    6.70
  13  -9   6    2.00    2.00
  13   9   6    3.60    1.50
  13   9   6    3.40    1.70
  13   9   6    1.80    2.00
  15  -9   6  105.59    6.60
  15   9   6  106.89    5.70
  15   9   6   99.29    6.90
  15   9   6  104.59    6.10
  17  -9   6   24.10    3.60
  17   9   6   29.00    3.30
  17   9   6   21.90    3.70
  19  -9   6   11.30    3.10
  19   9   6    9.20    2.60
  19   9   6    7.10    3.10
  21  -9   6    4.60    2.90
  21   9   6    1.30    2.90
  21   9   6    3.60    2.60
  23  -9   6   47.70    5.20
  23   9   6   32.30    5.10
  28  10  -6    1.50    2.70
  28  10  -6    3.20    3.00
  28  10  -6    1.40    2.90
  26  10  -6    0.90    2.70
  26  10  -6    3.10    2.60
  26  10  -6    5.10    2.80
  24  10  -6   -3.10    2.20
  24  10  -6    0.60    2.40
  24  10  -6    1.70    2.30
  22  10  -6    3.70    2.30
  22  10  -6    5.40    2.60
  22  10  -6   -0.30    2.20
  20  10  -6    2.70    2.20
  20  10  -6   -1.00    2.00
  20  10  -6    5.60    2.20
  18  10  -6    1.30    1.90
  18  10  -6    2.50    1.90
  18  10  -6    1.30    1.80
  16  10  -6    1.50    1.60
  16  10  -6    4.40    1.90
  16  10  -6   -0.70    1.60
  14  10  -6    9.80    2.10
 -14  10   6    5.30    1.40
  14  10  -6    7.30    2.00
  14  10  -6    5.50    1.70
  12 -10  -6    3.00    1.00
  12 -10  -6    3.50    1.30
  12  10  -6    2.80    1.30
 -12  10   6    2.70    1.20
  12  10  -6    1.10    1.40
  12  10  -6    3.50    1.60
  10 -10  -6    6.40    1.40
  10 -10  -6    6.30    1.20
  10  10  -6    5.70    1.30
  10  10  -6    7.50    1.70
  10  10  -6    3.20    1.60
 -10  10   6    5.80    1.20
   8 -10  -6    7.80    1.40
   8  10  -6    5.90    1.50
   8  10  -6    8.40    1.80
   8  10  -6    7.60    1.30
   8  10  -6    7.90    1.60
  -8  10   6    6.50    1.20
   6 -10  -6    5.90    1.30
   6  10  -6    6.70    1.60
   6  10  -6    6.00    1.50
   6  10  -6    7.00    1.50
  -6  10   6    9.20    1.40
  -4  10   6    4.10    1.10
  -4  10   6    7.00    1.30
   4  10  -6    8.20    1.60
   4  10  -6    6.10    1.60
   4  10  -6    5.20    1.40
   2  10  -6    6.60    1.40
  -2  10   6    7.80    1.40
   2  10  -6    9.20    1.50
  -2  10   6    5.20    1.20
   2  10  -6    5.30    1.50
   0  10   6    7.10    1.30
   0  10  -6    4.60    1.40
   0  10  -6    4.10    1.20
   0  10  -6    4.50    1.30
   0  10   6    5.80    1.30
  -2  10  -6    6.30    1.30
   2  10   6    4.20    1.30
   2  10   6    7.00    1.30
  -2  10  -6    4.70    1.30
  -2  10  -6    5.90    1.60
   4  10   6    5.90    1.50
  -4  10  -6    4.80    1.30
  -4  10  -6    5.30    1.60
   4  10   6    6.10    1.40
   4  10   6    3.30    1.30
  -4  10  -6    5.10    1.30
   6 -10   6   10.10    1.90
   6  10   6    7.50    1.50
  -6  10  -6    9.60    1.40
   6  10   6    9.40    1.60
   6  10   6    6.90    1.70
  -6  10  -6   10.40    1.60
   8 -10   6    9.30    2.00
   8  10   6   10.60    1.60
   8  10   6    8.60    1.60
   8  10   6    7.70    1.60
   8  10   6   10.50    2.00
  10 -10   6    3.20    1.90
  10  10   6    2.80    1.30
  10  10   6    4.70    2.00
  10  10   6    2.90    1.50
  12 -10   6    7.20    2.30
  12  10   6    3.70    2.10
  12  10   6    6.10    1.50
  14 -10   6    0.80    2.00
  14  10   6    3.50    2.30
  16 -10   6    1.00    2.10
  16  10   6    3.50    2.40
  18 -10   6   -0.90    2.40
  18  10   6   -1.00    2.40
  20 -10   6    3.10    2.80
  20  10   6    3.80    2.90
  22 -10   6   -5.00    2.70
  22  10   6    1.60    3.10
  27  11  -6    5.90    3.30
  27  11  -6    7.40    2.90
  27  11  -6    3.90    3.00
  25  11  -6   30.10    4.00
  25  11  -6   16.00    3.60
  25  11  -6   23.00    3.90
  23  11  -6   13.20    3.20
  23  11  -6    8.00    2.90
  23  11  -6   14.40    3.00
  21  11  -6   42.00    4.30
  21  11  -6   34.70    4.00
  21  11  -6   36.80    4.30
  19  11  -6   37.70    4.00
  19  11  -6   32.20    3.70
  19  11  -6   39.60    4.00
  17  11  -6    8.50    2.30
  17  11  -6    9.30    2.20
  17  11  -6    6.00    2.30
  15  11  -6   63.69    4.70
  15  11  -6   62.99    4.50
  15  11  -6   65.69    4.60
  13 -11  -6   49.50    3.10
 -13  11   6   46.00    3.10
  13  11  -6   45.40    3.50
  13  11  -6   41.00    3.90
  13  11  -6   45.10    3.80
  11 -11  -6   72.89    4.00
  11  11  -6   67.89    4.60
 -11  11   6   66.89    3.90
  11  11  -6   71.19    4.60
   9  11  -6   20.30    2.50
  -9  11   6   17.10    1.80
   9  11  -6   18.60    2.40
   9  11  -6   16.00    2.30
  -7  11   6   69.29    4.00
   7  11  -6   65.09    4.40
   7  11  -6   75.89    4.40
   7  11  -6   83.29    4.70
   5  11  -6   42.60    3.40
  -5  11   6   34.80    2.70
  -5  11   6   40.70    2.80
   5  11  -6   43.60    3.10
   5  11  -6   38.20    3.10
  -3  11   6   27.30    2.20
   3  11  -6   23.60    2.40
  -3  11   6   22.10    2.10
   3  11  -6   21.30    2.30
   3  11  -6   24.40    2.60
   1  11  -6   27.40    2.50
  -1  11   6   22.50    2.10
   1  11  -6   25.00    2.60
  -1  11   6   25.70    2.30
   1  11  -6   25.30    2.40
  -1  11  -6    3.90    1.30
   1  11   6    4.70    1.40
  -1  11  -6    3.50    1.40
   1  11   6    3.20    1.20
  -1  11  -6    3.90    1.50
  -3  11  -6   23.90    2.60
   3  11   6   27.10    2.30
   3  11   6   22.70    2.30
   3  11   6   25.90    2.50
  -3  11  -6   24.30    2.30
  -3  11  -6   26.10    2.40
   5 -11   6   12.10    2.10
   5  11   6    9.80    1.70
  -5  11  -6    8.50    1.50
   5  11   6   11.60    1.60
   5  11   6   11.60    2.00
  -5  11  -6   11.10    1.70
   7 -11   6   10.80    2.20
   7  11   6   15.00    1.80
   7  11   6   19.50    2.50
   7  11   6   14.70    2.10
   7  11   6   14.00    2.00
   9 -11   6   18.90    2.70
   9  11   6   14.90    2.10
   9  11   6   19.50    2.20
   9  11   6   19.30    2.00
   9  11   6   12.00    2.40
  11 -11   6    8.80    2.40
  11  11   6    3.20    2.10
  13 -11   6   -0.10    1.90
  13  11   6    1.80    2.20
  15 -11   6   25.10    3.50
  15  11   6   24.90    3.70
  17 -11   6    3.90    2.60
  17  11   6    2.40    2.70
  19 -11   6   17.10    3.70
  19  11   6   11.50    3.50
  21 -11   6    0.90    2.80
  21  11   6    4.00    3.20
  26  12  -6   -1.20    2.70
  26  12  -6   -1.50    2.60
  26  12  -6   -2.30    2.60
  24  12  -6    3.90    2.90
  24  12  -6   -0.90    2.60
  24  12  -6    5.90    2.70
  22  12  -6    1.40    2.40
  22  12  -6    4.80    2.70
  22  12  -6    5.20    2.60
  20  12  -6   -1.80    2.00
  20  12  -6    2.30    2.30
  20  12  -6   -0.40    2.30
  18  12  -6    5.60    2.20
  18  12  -6   -0.50    2.10
  18  12  -6    1.90    2.00
  16  12  -6   -1.00    1.90
  16  12  -6    1.30    2.00
  14 -12  -6    6.00    1.50
  14  12  -6    4.00    2.00
  14  12  -6    7.30    2.10
  12 -12  -6    3.50    1.30
  12  12  -6    2.80    1.80
 -12  12   6    2.60    1.30
  12  12  -6    5.80    1.90
  10  12  -6    2.40    1.80
  10  12  -6    2.30    1.70
  10  12  -6    4.50    1.80
 -10  12   6    2.40    1.20
   8  12  -6    3.70    1.70
   8  12  -6    1.20    1.50
  -8  12   6    2.40    1.10
   8  12  -6    1.30    1.60
   6  12  -6    8.00    1.80
   6  12  -6    6.40    1.70
   6  12  -6    7.70    1.90
  -6  12   6    3.50    1.20
   4  12  -6    2.20    1.50
   4  12  -6    0.80    1.60
  -4  12   6    2.50    1.20
   4  12  -6    1.80    1.50
   2  12  -6    8.60    2.00
   2  12  -6    7.70    1.70
  -2  12   6    3.10    1.30
   2  12  -6    5.20    1.60
  -2  12   6    6.30    1.30
   0  12  -6    5.60    1.60
   0  12  -6    3.30    1.60
   0  12   6    4.70    1.40
   0  12   6    5.00    1.30
   0  12  -6    4.90    1.50
   2  12   6    3.80    1.20
  -2  12  -6    2.80    1.40
   2  12   6    3.90    1.50
  -2  12  -6    2.30    1.70
   2  12   6    0.70    1.40
  -2  12  -6    1.40    1.30
  -4  12  -6    0.80    1.50
   4  12   6    1.30    1.40
  -4  12  -6   -0.40    1.20
  -4  12  -6    0.90    1.30
   4  12   6    1.60    1.50
   4  12   6    0.80    1.10
   6 -12   6    3.00    1.80
   6  12   6    2.60    1.50
   6  12   6    3.90    1.60
   6  12   6    2.80    1.70
   6  12   6    3.50    1.30
  -6  12  -6    1.90    1.50
  -6  12  -6    2.70    1.40
   8 -12   6   -0.30    1.70
   8  12   6    0.80    1.30
   8  12   6    3.00    1.80
   8  12   6   -0.80    1.50
   8  12   6    1.70    1.60
  10 -12   6   -2.30    1.80
  10  12   6   -0.10    1.60
  10  12   6   -0.30    1.80
  10  12   6    0.70    1.70
  12 -12   6    2.30    2.20
  12  12   6    0.40    2.10
  14 -12   6    1.00    2.20
  14  12   6    0.70    2.30
  16 -12   6    1.00    2.40
  16  12   6   -0.50    2.50
  18 -12   6    3.10    2.70
  18  12   6   -0.40    2.80
  20 -12   6    3.00    3.00
  20  12   6    0.80    3.00
  25  13  -6   12.40    3.40
  25  13  -6    9.10    3.30
  23  13  -6    3.00    2.90
  23  13  -6    2.70    2.50
  21  13  -6    0.40    2.40
  21  13  -6    1.80    2.40
  19  13  -6    9.20    2.80
  19  13  -6    9.20    2.70
  17  13  -6    0.20    2.10
  17  13  -6   -0.60    2.10
  15  13  -6    5.20    2.20
  15  13  -6    8.90    2.50
  13 -13  -6   28.40    2.50
  13  13  -6   26.20    3.30
  13  13  -6   19.10    3.00
  11  13  -6   13.00    2.50
  11  13  -6   18.60    2.80
 -11  13   6   15.10    1.80
   9  13  -6   21.30    2.80
   9  13  -6   28.00    3.10
   9  13  -6   20.50    2.90
  -9  13   6   25.70    2.30
   7  13  -6   22.90    2.80
  -7  13   6   22.50    2.10
   7  13  -6   22.00    2.90
   7  13  -6   21.00    2.70
  -5  13   6   15.90    1.80
   5  13  -6   14.90    2.50
   5  13  -6   18.00    2.40
   5  13  -6   17.10    2.40
   3  13  -6   12.20    2.30
   3  13  -6    8.70    1.90
   3  13  -6   11.40    2.10
  -3  13   6   10.50    1.60
  -1  13   6  131.29    6.40
   1  13  -6  131.29    7.10
   1  13  -6  113.19    6.70
   1  13  -6  137.39    6.60
   1  13   6    2.50    1.20
  -1  13  -6    1.80    1.50
  -1  13  -6    1.50    1.70
  -1  13  -6    2.50    1.50
   1  13   6    1.30    1.60
   3  13   6   81.89    4.50
  -3  13  -6   78.29    5.20
   3  13   6   78.39    4.70
  -3  13  -6   84.19    4.80
  -3  13  -6   82.69    4.80
   5 -13   6    2.40    1.80
   5  13   6    2.20    1.60
  -5  13  -6    7.70    1.80
  -5  13  -6    4.60    1.60
   5  13   6    2.50    1.60
   7 -13   6    2.20    1.90
   7  13   6    1.30    1.70
   7  13   6    1.20    1.70
   7  13   6   -2.30    1.60
   9 -13   6    7.80    2.40
   9  13   6   10.30    2.20
   9  13   6    5.20    2.20
   9  13   6    7.70    2.10
  11 -13   6    8.10    2.50
  11  13   6   12.00    2.30
  11  13   6    9.60    2.60
  13 -13   6    5.70    2.50
  13  13   6    6.90    2.70
  15 -13   6    9.20    2.90
  15  13   6    2.90    2.60
  17 -13   6    4.10    2.80
  17  13   6    2.90    3.00
  19 -13   6    8.40    3.20
  19  13   6    1.90    3.30
  24  14  -6   -0.80    2.80
  24  14  -6   -1.40    2.70
  22  14  -6   -0.20    2.60
  22  14  -6    4.00    2.70
  20  14  -6    0.30    2.40
  20  14  -6    6.30    2.70
  18  14  -6   -1.60    2.20
  18  14  -6   -0.90    2.10
  16  14  -6   -3.80    2.00
  16  14  -6    0.60    2.20
  14  14  -6    2.80    2.20
  14  14  -6   -0.80    2.00
  12  14  -6   -1.40    2.00
  12  14  -6    6.70    2.30
  10  14  -6   -0.40    1.90
  10  14  -6   -2.80    1.70
  10  14  -6    0.30    2.00
   8  14  -6    0.00    1.90
   8  14  -6   -0.30    1.80
   8  14  -6   -0.30    1.80
  -8  14   6    1.00    1.20
   6  14  -6    3.30    1.80
   6  14  -6   -1.30    1.70
  -6  14   6    1.90    1.20
   6  14  -6    1.50    1.80
  -4  14   6    1.70    1.20
   4  14  -6   -0.90    1.60
   4  14  -6    1.30    1.90
   4  14  -6    0.50    1.60
   2  14  -6    3.00    1.90
  -2  14   6   -0.40    1.10
   2  14  -6    1.50    1.60
   2  14  -6    1.90    1.70
   0  14  -6    1.60    1.70
   0  14   6    2.30    1.70
   0  14  -6    2.00    1.90
   0  14  -6    1.70    1.60
  -2  14  -6   -1.30    1.40
  -2  14  -6    1.40    1.70
   2  14   6   -0.20    1.60
  -2  14  -6    2.20    1.80
   4  14   6    3.80    1.90
  -4  14  -6    7.70    2.20
  -4  14  -6    6.60    1.90
  -4  14  -6    5.20    1.90
   6 -14   6   -0.80    1.80
  -6  14  -6    4.40    1.90
  -6  14  -6    1.30    1.60
   6  14   6    2.70    1.90
   6  14   6    4.10    1.90
   8 -14   6   -1.20    2.10
   8  14   6    4.50    1.90
   8  14   6   -1.70    1.70
  10 -14   6    0.70    2.10
  10  14   6   -1.90    1.90
  10  14   6   -0.80    1.90
  10  14   6    1.80    2.00
  12 -14   6    3.90    2.60
  12  14   6    2.50    2.40
  14 -14   6   -1.90    2.40
  14  14   6   -2.00    2.50
  16 -14   6   -1.40    2.70
  16  14   6    4.50    3.20
  18 -14   6   -4.90    2.80
  18  14   6   -1.40    2.90
  21  15  -6   -1.40    2.50
  21  15  -6   -1.80    2.60
  19  15  -6    7.00    2.90
  19  15  -6   -0.20    2.50
  17  15  -6    9.00    2.90
  17  15  -6    5.90    2.90
  15  15  -6    0.20    2.30
  15  15  -6    4.60    2.40
  13  15  -6    0.10    2.20
  13  15  -6    2.10    2.20
  11  15  -6   -2.00    1.90
  11  15  -6    0.50    2.10
  11  15  -6    3.90    2.40
   9  15  -6    3.20    2.20
   9  15  -6   -2.70    1.80
   9  15  -6    3.50    2.10
   7  15  -6    4.70    2.10
   7  15  -6    5.00    2.20
   7  15  -6    5.50    2.30
   5  15  -6   30.20    3.50
   5  15  -6   29.00    3.30
   5  15  -6   30.40    3.40
   3  15  -6   14.60    2.70
   3  15  -6    9.00    2.30
   3  15  -6   13.50    2.50
   1  15  -6    5.40    2.10
   1  15  -6    6.10    2.20
   1  15  -6    3.30    2.00
  -1  15  -6    2.00    1.70
   1  15   6   -1.80    1.80
  -1  15  -6    2.70    1.90
  -1  15  -6    1.60    1.90
  -3  15  -6    1.40    1.80
  -3  15  -6    1.00    1.70
   3  15   6    0.00    1.80
  -3  15  -6    5.50    2.20
   5 -15   6    2.80    2.20
   5  15   6   -0.60    1.80
  -5  15  -6    1.50    1.90
   5  15   6    5.10    2.00
  -5  15  -6    0.00    1.60
   7 -15   6   16.30    3.00
   7  15   6   13.60    2.40
   7  15   6   16.20    2.70
   9 -15   6    8.10    2.50
   9  15   6    5.10    2.20
   9  15   6    5.10    2.20
  11 -15   6    1.70    2.30
  11  15   6    0.20    2.00
  13 -15   6   -1.80    2.60
  15 -15   6   -3.60    2.40
  20  16  -6   -2.10    2.70
  20  16  -6   -0.80    2.80
  18  16  -6    0.90    2.80
  18  16  -6   -0.30    2.40
  16  16  -6    5.20    2.80
  16  16  -6   -0.10    2.40
  14  16  -6   -1.70    2.30
  14  16  -6    2.30    2.40
  12  16  -6    2.40    2.30
  12  16  -6   -1.60    2.10
  10  16  -6    0.10    2.10
  10  16  -6   -1.30    2.30
  10  16  -6   -0.40    2.10
   8  16  -6    0.40    2.10
   8  16  -6    0.70    2.10
   8  16  -6    4.40    2.40
   6  16  -6   -1.30    2.00
   6  16  -6    2.10    2.20
   6  16  -6    0.30    2.00
   4  16  -6   -2.10    1.90
   4  16  -6   -0.40    1.90
   4  16  -6   -1.70    1.90
   2  16  -6    0.20    1.90
   2  16  -6    2.60    2.10
   2  16  -6    2.40    2.10
   0  16   6    1.60    2.00
   0  16  -6    0.30    2.00
   0  16  -6   -1.30    1.70
   0  16  -6    0.50    2.00
   2  16   6    0.30    2.00
  -2  16  -6   -1.10    1.60
  -2  16  -6    0.40    2.00
  -2  16  -6   -0.70    1.90
  -4  16  -6    1.90    1.90
   4  16   6   -3.30    1.90
  -4  16  -6   -1.80    1.80
  -4  16  -6    3.10    2.30
   6 -16   6   -1.40    2.10
   6  16   6    0.50    2.10
  -6  16  -6   -1.70    1.90
   6  16   6   -0.70    2.00
   8 -16   6   -4.60    2.00
   8  16   6   -1.50    2.00
   8  16   6    0.70    2.10
  10 -16   6   -0.60    2.30
  10  16   6    0.60    2.20
  10  16   6    0.40    2.20
  12 -16   6   -0.30    2.70
  14 -16   6   -3.80    2.60
  17  17  -6    3.00    2.90
  17  17  -6    2.50    2.70
  15  17  -6    2.40    2.90
  15  17  -6    2.10    2.60
  13  17  -6    4.10    2.70
  13  17  -6    6.50    2.70
  11  17  -6   -0.70    2.30
  11  17  -6   -0.80    2.30
  11  17  -6    1.80    2.50
   9  17  -6   11.50    2.80
   9  17  -6   10.80    2.90
   9  17  -6   18.80    3.20
   7  17  -6    1.60    2.20
   7  17  -6    0.60    2.30
   7  17  -6    0.40    2.20
   5  17  -6    9.70    2.60
   5  17  -6   14.10    3.00
   5  17  -6   12.80    2.80
   3  17  -6   -0.10    2.30
  -3  17   6    6.10    2.20
   3  17  -6    0.00    2.10
   3  17  -6   -1.30    1.90
  -1  17   6   19.20    3.00
   1  17  -6   24.00    3.20
   1  17  -6   27.40    3.50
   1  17  -6   21.00    3.10
  -1  17  -6   -2.40    2.10
   1  17   6   -0.10    2.10
  -1  17  -6    0.60    2.00
  -1  17  -6    2.70    2.20
  -3  17  -6   27.90    3.40
  -3  17  -6   20.20    3.40
   3  17   6   22.40    3.10
  -3  17  -6   22.00    3.20
   5 -17   6    4.00    2.70
  -5  17  -6    1.60    2.00
   5  17   6   -1.30    2.10
  -5  17  -6    1.30    2.10
   5  17   6   -0.30    2.20
   7 -17   6    2.40    2.50
   7  17   6   -1.30    2.20
   7  17   6    6.40    2.40
   9 -17   6    6.60    2.70
   9  17   6    2.70    2.30
   9  17   6    4.40    2.50
  11 -17   6    2.30    2.90
  11  17   6   -1.70    2.40
  14  18  -6   -0.90    2.80
  14  18  -6    2.20    2.70
  12  18  -6    2.90    2.60
  12  18  -6    0.50    2.70
  12  18  -6    0.10    2.60
  10  18  -6    3.00    2.80
  10  18  -6    4.60    2.70
  10  18  -6    2.10    2.70
   8  18  -6   -1.10    2.30
   8  18  -6    4.30    2.70
   8  18  -6    3.20    2.40
   6  18  -6    0.30    2.50
   6  18  -6   -0.90    2.30
   6  18  -6    3.60    2.50
   4  18  -6    1.50    2.30
   4  18  -6   -1.10    2.20
   4  18  -6    1.40    2.50
  -4  18   6    0.70    2.20
   2  18  -6    2.50    2.40
   2  18  -6    2.30    2.40
  -2  18   6    5.80    2.50
   2  18  -6    6.60    2.70
   0  18  -6    2.80    2.60
   0  18   6    2.60    2.30
   0  18  -6    4.30    2.50
   0  18  -6    0.50    2.20
   2  18   6    4.40    2.50
  -2  18  -6    3.50    2.30
  -2  18  -6    2.80    2.50
  -2  18  -6    4.30    2.50
   4  18   6    2.60    2.40
  -4  18  -6    0.70    2.10
   4  18   6    2.70    2.40
  -4  18  -6    3.00    2.40
   6 -18   6    0.10    2.40
  -6  18  -6    0.90    2.40
   6  18   6    2.90    2.60
   6  18   6    2.20    2.40
   8 -18   6   -1.30    2.70
   8  18   6    4.00    2.60
   8  18   6    2.00    2.50
  11  19  -6   15.60    3.60
  11  19  -6   10.20    3.50
  11  19  -6    8.10    3.20
   9  19  -6    6.40    3.10
   9  19  -6    5.90    2.90
   9  19  -6   14.20    3.30
   7  19  -6   -1.30    2.30
   7  19  -6    3.90    2.90
   7  19  -6    5.40    2.80
   5  19  -6    8.60    2.90
   5  19  -6    7.20    2.80
   5  19  -6    7.80    3.00
  -5  19   6    8.20    2.60
   3  19  -6   -0.30    2.30
   3  19  -6   -0.40    2.50
  -3  19   6    3.50    2.50
   3  19  -6    1.00    2.50
   1  19  -6   -1.10    2.50
   1  19  -6    0.30    2.60
  -1  19   6   -1.90    2.20
   1  19  -6   -1.00    2.10
  -1  19  -6    1.10    2.40
   1  19   6    0.30    2.40
  -1  19  -6   -1.80    2.20
  -1  19  -6    1.20    2.60
  -3  19  -6    1.60    2.30
  -3  19  -6    4.60    2.70
   3  19   6    2.10    2.70
  -3  19  -6    0.00    2.50
   3  19   6   -3.60    2.40
   5 -19   6    4.50    2.80
  -5  19  -6    1.50    2.50
   5  19   6   -0.10    2.30
   5  19   6    3.80    2.60
  32   0  -7    1.70    2.70
  32   0  -7   -1.00    2.60
  30   0  -7   -0.40    2.30
  30   0  -7    1.30    2.10
  30   0  -7    0.70    2.40
  28   0  -7    0.20    2.20
  28   0  -7   -3.00    1.70
  28   0  -7    0.30    2.10
  26   0  -7   -2.30    1.90
  26   0  -7    0.40    1.70
  26   0  -7   -0.70    1.80
  24   0  -7    4.10    1.80
  24   0  -7    0.90    1.70
  24   0  -7    0.10    1.80
  22   0  -7    0.40    1.70
  22   0  -7    1.40    1.50
 -22   0   7    0.10    0.90
  22   0  -7    0.60    1.50
 -20   0   7   -1.00    0.70
  20   0  -7    0.60    1.40
  20   0  -7    0.90    1.30
  20   0  -7    0.00    1.30
 -18   0   7    1.40    0.70
  18   0  -7   -0.20    1.20
  18   0  -7    0.70    1.20
  18   0  -7    1.40    1.20
  16   0  -7    1.50    1.10
  16   0  -7   -0.40    0.90
  16   0  -7   -1.30    1.10
 -16   0   7    0.70    0.50
  14   0  -7   -0.30    0.90
  14   0  -7    0.20    0.80
  14   0  -7    0.80    1.00
  12   0  -7   -0.80    0.80
  12   0  -7    2.00    1.00
  12   0  -7    0.30    0.40
  10   0  -7    0.00    0.80
  10   0  -7    1.40    0.60
  10   0  -7    1.30    0.80
   8   0  -7    1.00    0.50
   8   0  -7    1.90    0.80
   8   0  -7    0.50    0.80
   6   0  -7    1.20    0.70
   6   0  -7    0.30    0.60
   6   0  -7    0.60    0.50
   4   0  -7    1.60    0.40
   4   0  -7    1.60    0.60
   4   0  -7    0.60    0.70
   2   0  -7    1.00    0.70
   2   0  -7   -0.20    0.50
   0   0  -7    0.20    0.60
   0   0   7   -0.70    0.40
   2   0   7    0.90    0.60
   2   0   7   -0.60    0.70
   4   0   7   -0.40    0.60
   4   0   7    0.40    0.80
   4   0   7    0.60    0.40
   6   0   7    0.60    0.90
   6   0   7    0.10    0.60
   6   0   7    1.00    0.80
   8   0   7    0.40    0.90
   8   0   7    0.10    1.00
   8   0   7   -0.10    0.70
  10   0   7    0.40    1.10
  10   0   7   -0.60    1.10
  10   0   7    0.70    0.80
  12   0   7    1.00    1.40
  12   0   7   -0.20    1.20
  12   0   7    2.00    1.10
  14   0   7    0.90    1.40
  14   0   7    1.20    1.70
  14   0   7    0.60    1.10
  16   0   7    0.00    1.80
  16   0   7    2.90    1.40
  16   0   7    2.00    1.70
  18   0   7    1.90    1.90
  18   0   7    0.90    2.20
  20   0   7   -1.70    1.90
  20   0   7    0.80    2.50
  22   0   7   -0.90    2.30
  22   0   7    2.70    2.90
  24   0   7   -1.90    2.90
  24   0   7    0.00    2.30
  31  -1  -7    9.80    2.90
  31  -1  -7    3.70    2.80
  31   1  -7    9.30    3.10
  31   1  -7    8.80    2.60
  31   1  -7   12.40    3.20
  29  -1  -7   29.80    4.10
  29  -1  -7   42.20    4.30
  29   1  -7   37.80    3.70
  29   1  -7   26.10    3.80
  29   1  -7   39.30    4.20
  27  -1  -7   18.40    2.90
  27  -1  -7   16.30    2.70
  27  -1  -7   24.50    3.50
  27   1  -7   20.10    3.00
  27   1  -7   19.20    2.70
  27   1  -7   11.50    2.80
  25  -1  -7   66.39    4.80
  25  -1  -7   63.09    5.20
  25  -1  -7   68.39    4.60
  25   1  -7   59.39    5.20
  25   1  -7   77.09    5.10
  25   1  -7   66.99    4.60
  23  -1  -7   27.90    3.00
  23  -1  -7   28.80    2.90
  23  -1  -7   21.90    3.00
  23   1  -7   19.30    2.90
  23   1  -7   25.80    3.10
  23   1  -7   22.70    2.70
  21  -1  -7  193.18    9.50
  21  -1  -7  188.08    9.20
  21  -1  -7  186.58   10.00
 -21  -1   7  187.18    8.60
  21   1  -7  195.48    9.50
  21   1  -7  192.38    9.20
  21   1  -7  182.68   10.00
 -21   1   7  198.28    8.70
  19  -1  -7   34.00    2.80
  19  -1  -7   28.60    3.00
  19  -1  -7   33.30    2.90
 -19  -1   7   34.90    2.10
  19   1  -7   36.30    2.90
 -19   1   7   32.90    2.20
  19   1  -7   35.10    2.90
  19   1  -7   31.30    3.10
  17  -1  -7  169.68    8.60
  17  -1  -7  188.88    8.80
 -17  -1   7  176.68    7.90
  17  -1  -7  186.28    9.30
 -17   1   7  190.58    8.10
  17   1  -7  180.08    8.60
  17   1  -7  186.28    8.80
  17   1  -7  176.08    9.30
  15  -1  -7   46.60    3.30
  15  -1  -7   47.50    3.10
  15  -1  -7   48.80    3.00
  15   1  -7   47.70    3.00
  15   1  -7   50.39    3.20
 -15   1   7   47.60    2.40
  15   1  -7   42.10    3.30
  13  -1  -7  124.69    6.20
  13  -1  -7  128.19    6.30
  13  -1  -7  135.59    6.80
  13   1  -7  134.49    6.80
  13   1  -7  132.39    6.40
 -13   1   7  132.39    5.70
  13   1  -7  135.89    6.40
 -13   1   7  130.49    5.80
  11  -1  -7    7.30    1.00
  11  -1  -7    4.20    1.10
  11  -1  -7    5.60    1.10
  11   1  -7    4.70    1.10
  11   1  -7    5.10    1.20
   9  -1  -7  162.18    7.70
   9  -1  -7  162.48    7.20
   9  -1  -7  153.58    7.10
   9   1  -7  154.08    7.70
   9   1  -7  151.08    7.20
   9   1  -7  157.68    7.20
   7  -1  -7    3.80    0.90
   7  -1  -7    1.50    0.70
   7   1  -7    1.70    0.80
   7   1  -7    1.90    0.60
   7   1  -7    1.80    0.80
   5  -1  -7  196.58    9.00
   5  -1  -7  193.68    8.20
   5   1  -7  179.88    8.30
   5   1  -7  181.08    8.20
   5   1  -7  180.28    8.90
   3  -1  -7   49.40    2.90
   3   1  -7   49.99    2.50
   3   1  -7   48.40    2.90
   3   1  -7   46.80    2.50
   1  -1  -7   66.99    3.70
   1   1  -7   68.19    3.10
   1   1  -7   62.89    3.60
  -1  -1  -7   14.70    1.50
   1  -1   7   16.30    1.60
   1  -1   7   14.80    1.30
  -1   1  -7   18.30    1.70
   1   1   7   14.20    1.20
   1   1   7   15.30    1.50
   3  -1   7   37.90    2.50
   3  -1   7   36.50    2.30
   3   1   7   37.00    2.30
   3   1   7   41.90    2.00
   3   1   7   41.60    2.60
   5  -1   7    0.70    0.80
   5  -1   7    1.40    0.70
   5   1   7   -0.30    0.70
   5   1   7    1.80    0.70
   5   1   7    1.10    0.90
   7  -1   7   92.49    5.00
   7  -1   7   99.19    4.50
   7  -1   7   97.89    5.30
   7   1   7   96.09    5.00
   7   1   7   97.29    5.30
   7   1   7   98.99    4.70
   9  -1   7    2.10    1.20
   9  -1   7    0.30    0.70
   9  -1   7    0.50    1.10
   9   1   7    1.70    1.20
   9   1   7    0.70    0.80
   9   1   7    1.10    1.00
  11  -1   7   85.09    4.70
  11  -1   7   69.79    4.70
  11  -1   7   81.49    4.10
  11   1   7   86.49    4.30
  11   1   7   68.59    4.70
  11   1   7   77.99    4.60
  13  -1   7   12.10    2.10
  13  -1   7   14.90    1.70
  13  -1   7   14.60    2.20
  13   1   7   14.30    2.30
  13   1   7   11.60    2.00
  13   1   7   14.30    1.80
  15  -1   7  133.89    6.40
  15  -1   7  123.29    7.00
  15  -1   7  120.89    7.30
  15   1   7  130.09    7.00
  15   1   7  115.09    7.30
  15   1   7  130.29    6.40
  17  -1   7    1.40    1.80
  17  -1   7   -0.80    1.90
  17   1   7   -3.30    1.50
  17   1   7   -1.40    1.90
  19  -1   7   23.50    3.30
  19  -1   7   20.80    3.60
  19   1   7   27.60    3.30
  19   1   7   20.90    3.70
  21  -1   7    2.40    2.80
  21  -1   7    2.80    2.30
  21   1   7    0.80    2.70
  21   1   7    0.80    2.20
  23  -1   7   15.20    3.20
  23  -1   7   21.20    4.00
  23   1   7   16.80    3.20
  23   1   7   17.00    3.90
  25  -1   7    5.70    3.00
  25  -1   7    1.90    3.30
  25   1   7    5.70    2.90
  25   1   7   -2.40    3.00
  32  -2  -7    0.60    2.60
  32  -2  -7   -1.70    2.40
  32   2  -7    4.60    2.30
  32   2  -7   -2.00    2.50
  32   2  -7    0.90    2.40
  30  -2  -7   10.70    3.10
  30  -2  -7   14.60    3.30
  30   2  -7   10.10    2.50
  30   2  -7    8.20    3.00
  30   2  -7   12.90    3.10
  28  -2  -7    9.90    2.90
  28  -2  -7   13.60    2.80
  28   2  -7   10.40    2.80
  28   2  -7   14.70    2.70
  28   2  -7   10.80    2.90
  26  -2  -7   10.40    2.70
  26  -2  -7    8.50    2.30
  26   2  -7    0.80    2.10
  26   2  -7    5.50    2.20
  26   2  -7    5.60    2.10
  24  -2  -7   20.40    3.00
  24  -2  -7   19.70    2.80
  24   2  -7   17.00    3.00
  24   2  -7   25.80    3.10
  24   2  -7   25.10    2.80
  22  -2  -7   49.80    4.00
  22  -2  -7   48.60    3.70
  22  -2  -7   46.60    3.80
  22   2  -7   41.30    3.70
 -22   2   7   50.69    3.00
  22   2  -7   44.30    3.60
  22   2  -7   43.50    4.00
  20  -2  -7  128.89    7.30
  20  -2  -7  126.59    6.80
  20  -2  -7  127.09    6.90
 -20  -2   7  136.29    6.10
  20   2  -7  133.59    6.80
 -20   2   7  136.39    6.30
  20   2  -7  122.19    7.40
  20   2  -7  137.79    7.00
  18  -2  -7   13.50    1.90
  18  -2  -7   11.30    1.70
  18  -2  -7   11.50    2.00
  18   2  -7   11.50    2.00
  18   2  -7   12.30    1.80
  18   2  -7    9.70    1.70
 -18   2   7   11.40    1.30
  16  -2  -7  103.29    5.50
  16  -2  -7   98.69    5.80
  16  -2  -7  108.69    5.50
  16   2  -7  108.49    5.60
 -16   2   7  109.59    5.00
  16   2  -7  108.19    6.00
  16   2  -7  104.49    5.50
  14  -2  -7   30.50    2.20
  14  -2  -7   28.50    2.50
  14  -2  -7   26.00    2.40
  14   2  -7   32.10    2.50
  14   2  -7   28.50    2.60
  14   2  -7   29.70    2.30
 -14   2   7   29.20    1.80
  12  -2  -7    8.30    1.10
  12  -2  -7    7.00    1.30
  12  -2  -7    7.20    1.30
  12   2  -7    5.90    1.20
  12   2  -7    7.50    1.10
  12   2  -7    4.90    1.20
 -12   2   7    6.80    0.80
 -12   2   7    8.60    0.80
  10  -2  -7    1.50    0.60
  10  -2  -7    0.90    0.80
  10   2  -7   -0.30    0.80
  10   2  -7   -0.50    0.80
  10   2  -7    0.80    0.70
   8  -2  -7    7.50    1.20
   8   2  -7    7.00    1.10
   8   2  -7    8.00    1.20
   6  -2  -7   23.90    1.80
   6   2  -7   22.00    1.80
   6   2  -7   18.00    1.40
   6   2  -7   18.70    1.70
   4  -2  -7   79.89    4.20
   4   2  -7   73.49    3.70
   4   2  -7   77.69    4.10
   4   2  -7   76.19    3.70
   2  -2  -7  102.89    5.30
   2   2  -7  102.99    4.70
   2   2  -7  105.39    5.20
   2   2  -7   97.29    4.80
   0  -2  -7    1.00    0.70
   0   2   7    0.40    0.40
   0   2   7    0.00    0.80
   0   2  -7    0.80    0.70
   2  -2   7   30.70    2.00
   2  -2   7   38.20    2.30
   2   2   7   32.80    1.80
   2   2   7   33.00    2.40
   2   2   7   31.70    1.90
   4  -2   7   11.90    1.30
   4  -2   7   11.60    1.40
   4   2   7   11.90    1.10
   4   2   7   16.50    1.70
   4   2   7    9.50    1.20
   6  -2   7   20.30    1.90
   6  -2   7   23.70    2.10
   6   2   7   25.60    2.00
   6   2   7   23.40    1.80
   6   2   7   20.60    2.10
   8  -2   7    8.40    1.40
   8  -2   7    2.70    1.10
   8  -2   7    5.80    0.90
   8   2   7    5.00    1.10
   8   2   7    4.90    1.30
   8   2   7    5.50    1.20
  10  -2   7   43.10    3.10
  10  -2   7   32.80    2.90
  10  -2   7   35.10    2.40
  10   2   7   41.40    2.60
  10   2   7   37.10    3.10
  10   2   7   40.30    2.90
  12  -2   7    1.60    1.40
  12  -2   7    0.40    1.00
  12  -2   7    0.20    1.40
  12   2   7    0.50    1.30
  12   2   7   -0.10    1.40
  12   2   7    0.90    1.10
  14  -2   7  140.59    6.90
  14  -2   7  131.09    7.70
  14  -2   7  149.09    7.70
  14   2   7  128.09    7.90
  14   2   7  148.89    7.00
  14   2   7  147.49    7.50
  16  -2   7   46.50    4.00
  16  -2   7   42.20    4.10
  16  -2   7   42.00    3.00
  16   2   7   31.40    3.70
  16   2   7   40.60    3.70
  16   2   7   38.40    3.10
  18  -2   7    4.70    2.40
  18  -2   7   -0.60    1.90
  18   2   7    4.10    2.10
  18   2   7    4.80    2.40
  20  -2   7    0.80    2.50
  20  -2   7    0.80    2.00
  20   2   7    0.10    2.40
  20   2   7    1.10    2.00
  22  -2   7   17.10    3.30
  22  -2   7   17.00    3.70
  22   2   7   16.70    3.20
  22   2   7   11.40    3.50
  24  -2   7   -1.20    2.90
  24  -2   7    1.80    2.60
  24   2   7    7.70    3.40
  24   2   7   -1.80    2.40
  31  -3  -7   39.90    4.40
  31  -3  -7   26.70    4.40
  31   3  -7   35.60    4.50
  31   3  -7   37.90    4.00
  31   3  -7   37.10    4.80
  29  -3  -7   22.20    3.40
  29  -3  -7   11.60    3.10
  29   3  -7   18.20    3.40
  29   3  -7   10.50    2.90
  29   3  -7   12.00    2.70
  27  -3  -7   18.80    3.00
  27  -3  -7   23.50    3.40
  27   3  -7   23.30    3.50
  27   3  -7   12.90    3.00
  27   3  -7   22.50    2.90
  25  -3  -7    9.20    2.30
  25  -3  -7   11.50    2.70
  25   3  -7    6.50    2.40
  25   3  -7    9.50    2.20
  25   3  -7    8.80    2.40
  23  -3  -7   20.10    2.80
  23  -3  -7   15.10    2.40
  23   3  -7   14.10    2.70
  23   3  -7   21.10    2.80
  23   3  -7   10.80    2.20
  21  -3  -7   -0.20    1.30
  21  -3  -7   -0.20    1.60
  21   3  -7    1.60    1.60
  21   3  -7   -0.60    1.30
 -21   3   7    1.20    1.00
  21   3  -7   -1.40    1.50
  19  -3  -7    5.40    1.60
  19  -3  -7    4.80    1.60
 -19   3   7    4.80    1.10
  19   3  -7    2.00    1.40
  19   3  -7    3.70    1.70
  19   3  -7    5.20    1.60
  17  -3  -7   50.19    3.60
  17  -3  -7   46.40    3.30
  17   3  -7   52.49    3.50
  17   3  -7   52.19    3.50
 -17   3   7   50.49    2.90
  17   3  -7   49.99    3.70
  15  -3  -7    4.20    1.10
  15  -3  -7    5.80    1.40
  15   3  -7    6.50    1.30
  15   3  -7    7.40    1.60
  15   3  -7    6.20    1.50
 -15   3   7    6.70    1.00
  13  -3  -7  180.98    9.00
  13  -3  -7  172.68    8.40
  13   3  -7  178.58    8.50
  13   3  -7  176.88    8.50
 -13   3   7  209.38    8.10
  13   3  -7  170.68    9.00
  11  -3  -7    1.60    0.90
  11  -3  -7    1.40    0.70
 -11   3   7    1.20    0.50
  11   3  -7    0.90    0.90
  11   3  -7    2.20    1.00
  11   3  -7    1.00    0.80
   9  -3  -7  112.49    5.70
  -9   3   7  111.59    4.90
   9   3  -7  105.39    5.70
   9   3  -7  121.39    5.50
  -9   3   7  106.49    4.90
   9   3  -7  107.79    5.40
   7  -3  -7   18.30    1.80
  -7   3   7   19.50    1.20
   7   3  -7   22.10    1.90
  -7   3   7   17.90    1.20
   7   3  -7   18.70    1.70
   7   3  -7   17.40    1.50
   5  -3  -7  156.68    7.80
   5   3  -7  160.98    7.20
  -5   3   7  158.28    6.90
   5   3  -7  165.78    7.80
   5   3  -7  155.48    7.30
   3  -3  -7   52.49    3.00
   3   3  -7   48.70    2.60
   3   3  -7   48.50    2.80
   3   3  -7   44.30    2.60
  -3   3   7   48.30    2.40
   1  -3  -7  254.87   11.90
   1   3  -7  250.27   11.70
  -1   3   7  245.78   10.80
   1   3  -7  249.97   10.70
   1   3  -7  252.97   11.20
   1  -3   7    9.30    1.10
   1  -3   7    7.40    1.10
   1   3   7    7.80    0.90
  -1   3  -7    8.70    1.20
   1   3   7    7.30    1.20
   3  -3   7  253.27   12.00
   3  -3   7  248.48   11.50
   3   3   7  243.78   11.30
   3   3   7  265.87   12.20
   3   3   7  262.47   11.10
   5  -3   7   44.80    2.90
   5  -3   7   50.39    2.90
   5   3   7   45.90    3.10
   5   3   7   45.50    2.70
   5   3   7   47.70    2.70
   7  -3   7  126.89    6.40
   7  -3   7  123.59    6.50
   7   3   7  125.49    6.20
   7   3   7  128.89    6.10
   7   3   7  128.29    6.70
   9  -3   7    8.40    1.50
   9  -3   7    8.40    1.10
   9  -3   7    7.90    1.50
   9   3   7    9.80    1.40
   9   3   7    6.80    1.60
   9   3   7    9.50    1.50
  11  -3   7   14.40    1.50
  11  -3   7   15.50    2.10
  11  -3   7   11.30    1.90
  11   3   7   16.30    1.80
  11   3   7   13.30    1.90
  11   3   7   14.40    2.20
  13  -3   7   38.70    3.50
  13  -3   7   38.30    2.70
  13  -3   7   38.60    3.30
  13   3   7   39.60    3.00
  13   3   7   37.00    3.20
  13   3   7   36.00    3.50
  15  -3   7    0.20    1.20
  15  -3   7    1.70    1.70
  15  -3   7    1.10    1.70
  15   3   7    2.90    1.70
  15   3   7    2.40    1.40
  15   3   7    5.50    2.10
  17  -3   7    0.70    2.00
  17  -3   7    3.30    2.10
  17   3   7    0.50    2.10
  17   3   7    2.20    1.90
  19  -3   7   28.50    3.80
  19  -3   7   27.20    3.60
  19   3   7   28.30    4.00
  19   3   7   28.30    3.40
  21  -3   7    1.40    2.30
  21  -3   7    1.20    2.70
  21   3   7    1.40    2.20
  21   3   7   -1.10    2.50
  23  -3   7   -4.90    2.50
  23  -3   7   -0.60    2.40
  23   3   7    0.60    2.90
  23   3   7    4.00    2.50
  25  -3   7   -4.10    2.90
  25  -3   7    0.10    2.70
  25   3   7   -4.60    2.90
  25   3   7    0.00    2.60
  32  -4  -7   23.40    4.20
  30  -4  -7    1.20    2.40
  30  -4  -7    0.60    2.60
  30   4  -7    1.80    2.50
  30   4  -7    1.70    2.50
  30   4  -7    4.60    2.40
  28  -4  -7   34.70    4.00
  28  -4  -7   27.40    3.70
  28   4  -7   32.70    3.90
  28   4  -7   30.20    3.50
  28   4  -7   23.20    3.60
  26  -4  -7    6.60    2.40
  26  -4  -7    4.20    2.20
  26   4  -7    9.40    2.40
  26   4  -7    7.80    2.40
  26   4  -7   10.40    2.60
  24  -4  -7   10.10    2.30
  24  -4  -7    9.80    2.50
  24   4  -7    7.40    2.20
  24   4  -7    6.60    2.00
  24   4  -7    6.80    2.40
  22  -4  -7    1.30    1.60
  22  -4  -7    1.80    1.70
  22   4  -7    0.60    1.70
  22   4  -7    1.60    1.60
  22   4  -7    0.50    1.60
  20  -4  -7    1.50    1.40
  20  -4  -7    0.80    1.60
  20   4  -7    1.40    1.50
 -20   4   7   -0.10    0.90
  20   4  -7    1.10    1.70
  20   4  -7    1.30    1.50
  18  -4  -7   11.60    2.00
  18  -4  -7   10.90    1.80
  18   4  -7   12.70    2.00
  18   4  -7    7.50    1.90
  18   4  -7   10.20    1.90
 -18   4   7   11.10    1.40
  16  -4  -7    9.00    1.70
  16  -4  -7    9.70    1.50
  16   4  -7    7.90    1.60
  16   4  -7    9.10    1.80
  16   4  -7   10.90    1.70
 -16   4   7   12.00    1.30
  14  -4  -7  101.79    5.40
  14  -4  -7   92.79    5.00
  14   4  -7   95.69    5.50
 -14   4   7  106.49    4.80
  14   4  -7   98.49    5.20
  14   4  -7   99.29    5.30
  12  -4  -7   26.00    2.00
  12  -4  -7   29.80    2.40
  12   4  -7   30.50    2.30
  12   4  -7   28.30    2.40
 -12   4   7   29.90    1.90
  12   4  -7   26.60    2.50
  10  -4  -7   74.89    3.80
  10  -4  -7   78.89    4.30
 -10   4   7   78.59    3.70
  10   4  -7   77.09    4.20
  10   4  -7   77.89    4.10
  10   4  -7   77.29    4.30
   8  -4  -7   43.10    2.80
  -8   4   7   43.50    2.40
   8   4  -7   45.90    2.70
   8   4  -7   45.90    2.90
   8   4  -7   44.80    2.80
   6  -4  -7   69.69    3.80
   6   4  -7   68.89    3.80
  -6   4   7   67.19    3.30
   6   4  -7   66.89    3.60
   6   4  -7   68.09    3.60
   4  -4  -7   60.99    3.50
   4   4  -7   61.49    3.40
   4   4  -7   63.89    3.20
  -4   4   7   62.39    3.00
   4   4  -7   59.89    3.30
   2  -4  -7  272.27   12.50
   2   4  -7  264.47   12.30
   2   4  -7  255.17   11.80
  -2   4   7  262.87   11.40
   2   4  -7  262.27   11.40
   0  -4  -7  138.99    7.00
   0   4  -7  140.29    6.20
   0   4   7  144.79    6.40
   0   4   7  132.89    6.90
   0   4  -7  137.69    6.80
   0   4  -7  138.99    6.60
   2  -4   7   29.90    2.20
   2  -4   7   35.70    2.30
   2   4   7   36.70    2.20
  -2   4  -7   33.90    1.90
   2   4   7   33.10    2.50
   4  -4   7  284.87   13.20
   4  -4   7  269.77   12.70
   4   4   7  286.17   12.40
   4   4   7  282.87   12.50
   4   4   7  281.57   13.40
   6  -4   7   28.20    2.10
   6  -4   7   20.80    2.10
   6   4   7   27.70    2.00
   6   4   7   28.80    2.10
   6   4   7   26.70    2.40
   8  -4   7  161.48    8.00
   8  -4   7  163.48    7.90
   8   4   7  157.78    7.50
   8   4   7  154.48    8.20
   8   4   7  156.78    7.60
  10  -4   7    2.00    0.80
  10  -4   7    0.40    1.10
  10  -4   7   -0.10    1.10
  10   4   7    2.10    1.20
  10   4   7    2.70    1.50
  10   4   7    0.70    1.10
  12  -4   7   38.70    2.60
  12  -4   7   36.70    3.30
  12  -4   7   33.90    3.10
  12   4   7   36.30    3.10
  12   4   7   38.50    3.50
  12   4   7   39.60    2.90
  14  -4   7    6.40    2.00
  14  -4   7    3.00    1.80
  14  -4   7    6.90    1.40
  14   4   7    2.50    1.70
  14   4   7    3.20    1.50
  14   4   7    8.10    2.10
  16  -4   7   12.40    2.50
  16  -4   7   11.50    1.80
  16  -4   7   13.10    2.50
  16   4   7   10.80    2.00
  16   4   7   10.20    2.50
  16   4   7   11.60    2.30
  18  -4   7   21.60    3.20
  18  -4   7   18.10    3.10
  18   4   7   24.10    3.60
  18   4   7   17.40    2.90
  20  -4   7    5.80    2.70
  20  -4   7    8.20    2.80
  20   4   7    8.00    2.40
  20   4   7    6.00    2.90
  22  -4   7    5.90    3.00
  22  -4   7    6.20    2.80
  22   4   7    1.40    2.90
  22   4   7    3.80    2.40
  24  -4   7    1.50    2.80
  24   4   7    2.10    3.10
  24   4   7    2.60    2.50
  31  -5  -7   -1.30    2.50
  31  -5  -7   -2.40    2.50
  31   5  -7    3.70    3.10
  31   5  -7   -2.90    2.20
  31   5  -7    0.80    2.40
  29  -5  -7    4.70    2.70
  29  -5  -7   10.50    2.80
  29   5  -7    6.20    2.80
  29   5  -7    7.40    2.50
  29   5  -7    4.40    2.80
  27  -5  -7    1.60    2.10
  27  -5  -7   -0.50    2.10
  27   5  -7   -1.70    2.00
  27   5  -7   -0.80    1.90
  27   5  -7    0.20    2.20
  25  -5  -7   32.60    3.70
  25  -5  -7   33.70    3.70
  25   5  -7   29.50    3.60
  25   5  -7   23.60    3.10
  25   5  -7   27.00    3.70
  23  -5  -7    3.90    1.90
  23  -5  -7    9.50    2.30
  23   5  -7   10.70    2.40
  23   5  -7    6.90    2.20
  23   5  -7   10.00    2.20
  21  -5  -7   28.90    3.00
  21  -5  -7   29.40    3.20
  21   5  -7   23.40    3.00
  21   5  -7   31.90    3.20
 -21   5   7   29.70    2.40
  21   5  -7   25.60    2.90
  19  -5  -7   23.50    2.60
  19  -5  -7   19.80    2.40
  19   5  -7   22.90    2.90
 -19   5   7   22.50    2.00
  19   5  -7   25.10    2.80
  19   5  -7   19.60    2.50
  17  -5  -7   14.10    2.10
  17   5  -7   17.90    2.40
  17   5  -7   16.20    2.10
  17   5  -7   15.60    2.10
 -17   5   7   15.40    1.60
  15  -5  -7   42.50    3.00
  15  -5  -7   37.90    2.70
  15   5  -7   37.20    3.10
  15   5  -7   32.50    2.80
  15   5  -7   38.00    2.90
 -15   5   7   41.70    2.50
  13  -5  -7   31.10    2.60
  13  -5  -7   34.30    2.40
  13   5  -7   34.50    2.80
 -13   5   7   38.60    2.30
  13   5  -7   37.50    2.70
  13   5  -7   31.20    2.70
  11  -5  -7   29.90    2.10
  11  -5  -7   33.20    2.50
  11   5  -7   36.40    2.60
  11   5  -7   33.60    2.60
  11   5  -7   33.40    2.50
 -11   5   7   35.30    2.10
   9  -5  -7   32.20    2.50
   9   5  -7   34.70    2.40
   9   5  -7   34.00    2.40
  -9   5   7   34.00    2.10
   9   5  -7   32.30    2.40
   7  -5  -7   30.60    2.30
  -7   5   7   32.80    2.00
   7   5  -7   30.90    2.20
   7   5  -7   33.10    2.30
   7   5  -7   34.50    2.30
   5  -5  -7    7.80    1.30
   5   5  -7    9.00    1.20
   5   5  -7    8.90    1.20
   5   5  -7    9.70    1.20
  -5   5   7    9.20    1.10
   3  -5  -7   24.60    2.00
   3   5  -7   21.70    1.80
  -3   5   7   23.90    1.70
   3   5  -7   23.10    1.80
   3   5  -7   25.00    1.80
   1  -5  -7   10.50    1.40
   1   5  -7   10.30    1.20
  -1   5   7   10.00    1.40
   1   5  -7   12.60    1.20
  -1   5   7   13.50    1.30
   1   5  -7   14.60    1.50
   1  -5   7    2.90    0.80
  -1   5  -7    1.70    0.80
   1   5   7    1.70    1.00
   1   5   7    2.90    0.90
  -1   5  -7    3.60    0.90
  -1   5  -7    2.20    0.70
   3  -5   7   12.50    1.40
   3  -5   7   15.90    1.70
   3   5   7   14.80    1.50
  -3   5  -7   15.20    1.20
   3   5   7   16.60    1.30
   3   5   7   16.40    1.80
   5  -5   7    6.70    1.40
   5  -5   7    6.60    1.10
   5   5   7    5.60    1.20
   5   5   7    5.50    0.90
   5   5   7    5.60    1.00
   5   5   7    4.80    1.30
   7  -5   7    5.10    1.10
   7  -5   7    5.10    1.30
   7   5   7    3.40    1.30
   7   5   7    7.00    1.30
   7   5   7    4.70    1.10
   9  -5   7    1.10    1.10
   9  -5   7    0.90    1.20
   9   5   7    4.40    1.20
   9   5   7    0.30    1.10
   9   5   7    0.20    1.30
  11  -5   7   43.60    3.50
  11  -5   7   38.20    3.10
  11  -5   7   40.30    2.60
  11   5   7   45.80    3.20
  11   5   7   41.30    3.00
  11   5   7   44.80    3.60
  13  -5   7    9.50    2.00
  13  -5   7    6.30    1.90
  13  -5   7    6.00    1.30
  13   5   7   11.30    1.80
  13   5   7    7.20    2.00
  13   5   7   10.00    1.90
  15  -5   7    4.80    1.90
  15  -5   7    6.80    1.50
  15  -5   7    8.50    2.20
  15   5   7    2.50    1.80
  15   5   7    3.40    2.10
  15   5   7    4.50    1.60
  17  -5   7    1.00    2.10
  17  -5   7    1.00    2.10
  17   5   7    1.50    1.80
  17   5   7   -0.30    2.00
  19  -5   7   13.70    3.00
  19  -5   7    9.90    2.80
  19   5   7   12.40    2.60
  19   5   7   14.70    3.30
  21  -5   7    1.10    2.40
  21   5   7    1.60    2.20
  21   5   7    4.20    2.90
  23  -5   7    8.50    3.20
  23   5   7   -0.40    2.90
  23   5   7    9.80    2.90
  30  -6  -7   -0.20    2.50
  30  -6  -7   -0.30    2.60
  30   6  -7   -1.00    2.50
  30   6  -7    1.00    2.30
  30   6  -7   -1.20    2.80
  28  -6  -7   10.70    2.90
  28  -6  -7   13.30    3.10
  28   6  -7   14.20    2.90
  28   6  -7   10.40    3.10
  28   6  -7    6.20    2.80
  26  -6  -7   11.90    2.70
  26  -6  -7   19.00    3.00
  26   6  -7   13.60    2.70
  26   6  -7    8.50    2.80
  26   6  -7   10.20    3.00
  24  -6  -7   45.70    4.00
  24  -6  -7   40.60    4.00
  24   6  -7   42.40    3.90
  24   6  -7   46.60    4.30
  24   6  -7   28.20    3.90
  22  -6  -7   12.10    2.30
  22  -6  -7    4.50    1.80
  22   6  -7   10.60    2.30
  22   6  -7    6.40    2.20
  22   6  -7    8.00    2.10
  20  -6  -7   38.90    3.40
  20  -6  -7   42.70    3.70
  20   6  -7   44.80    3.70
  20   6  -7   39.30    4.00
 -20   6   7   39.70    2.90
  20   6  -7   46.00    3.70
  18  -6  -7    0.30    0.50
  18  -6  -7    1.40    1.50
  18   6  -7    3.90    1.70
 -18   6   7    2.80    1.10
  18   6  -7    2.80    1.70
  18   6  -7    1.50    1.60
  16  -6  -7  107.09    5.90
  16  -6  -7  100.59    5.60
  16   6  -7  109.19    5.90
 -16   6   7  107.79    5.30
  16   6  -7  114.59    5.90
  16   6  -7  105.09    6.10
  14  -6  -7   50.59    3.40
  14  -6  -7   53.59    3.20
  14   6  -7   50.09    3.50
  14   6  -7   53.29    3.60
  14   6  -7   52.29    3.50
 -14   6   7   49.10    3.00
  12  -6  -7  150.78    7.50
  12  -6  -7  149.99    7.90
  12   6  -7  166.18    8.10
  12   6  -7  165.88    7.80
  12   6  -7  162.38    7.70
 -12   6   7  160.68    7.30
  10  -6  -7   38.00    2.60
  10   6  -7   32.80    2.60
  10   6  -7   37.50    2.60
  10   6  -7   31.50    2.60
 -10   6   7   37.50    2.30
   8  -6  -7  111.59    5.80
   8   6  -7  112.09    5.50
  -8   6   7  112.69    5.30
   8   6  -7  109.59    5.70
   8   6  -7  112.09    5.60
   6  -6  -7    1.00    0.90
   6   6  -7    0.70    0.80
   6   6  -7    1.20    0.80
   6   6  -7    0.90    0.80
  -6   6   7    0.80    0.70
   4  -6  -7  103.69    5.60
   4   6  -7  106.09    5.40
   4   6  -7  111.59    5.20
  -4   6   7  104.59    5.10
   4   6  -7  112.79    5.40
   2  -6  -7   66.29    3.60
   2   6  -7   60.69    3.20
   2   6  -7   57.39    3.40
  -2   6   7   54.89    3.50
   2   6  -7   57.49    3.30
  -2   6   7   61.59    3.20
   0   6   7   70.59    3.70
   0   6   7   69.99    4.00
   0   6  -7   69.89    3.50
   0   6  -7   70.29    3.50
   0   6  -7   71.49    3.70
   0   6  -7   67.49    3.80
   2  -6   7   99.79    5.30
  -2   6  -7  104.89    5.40
  -2   6  -7  103.19    4.80
   2   6   7  109.99    5.20
  -2   6  -7  109.49    4.90
   2   6   7  107.49    5.70
   4  -6   7   55.29    3.00
   4  -6   7   52.29    3.30
   4   6   7   52.79    2.80
  -4   6  -7   53.79    2.70
  -4   6  -7   51.99    2.70
   4   6   7   46.90    3.40
   4   6   7   51.79    3.10
   6  -6   7   99.89    5.20
   6  -6   7   97.59    5.50
   6   6   7  103.59    5.70
   6   6   7  103.69    5.20
   6   6   7  102.29    5.00
   8  -6   7   16.50    2.10
   8  -6   7   18.10    1.90
   8   6   7   16.00    1.80
   8   6   7   17.00    1.80
   8   6   7   17.30    2.30
  10  -6   7   31.50    2.70
  10  -6   7   38.60    3.30
  10   6   7   34.10    2.80
  10   6   7   35.00    3.40
  10   6   7   35.70    2.80
  12  -6   7   98.39    5.50
  12  -6   7   87.39    5.20
  12  -6   7   92.99    4.60
  12   6   7   87.19    4.90
  12   6   7   76.59    5.50
  12   6   7   87.29    5.10
  14  -6   7    3.90    1.30
  14  -6   7    2.90    1.90
  14  -6   7    4.20    2.00
  14   6   7    0.30    1.50
  14   6   7    4.50    2.10
  14   6   7    6.00    1.70
  16  -6   7    8.60    2.50
  16   6   7    8.60    2.50
  16   6   7   10.00    2.20
  18  -6   7   48.90    4.70
  18   6   7   46.10    4.10
  18   6   7   40.40    4.80
  20  -6   7    4.50    2.50
  20   6   7    6.10    2.90
  20   6   7    5.70    2.40
  22  -6   7   18.80    3.80
  22   6   7   20.00    3.30
  22   6   7   12.00    3.70
  24  -6   7    6.30    3.20
  24   6   7    4.80    3.40
  24   6   7    6.80    2.80
  29  -7  -7   -1.40    2.30
  29   7  -7   -2.50    2.40
  29   7  -7   -1.20    2.60
  29   7  -7   -0.60    2.40
  27  -7  -7    3.80    2.40
  27  -7  -7    0.50    2.40
  27   7  -7   -1.50    2.20
  27   7  -7    2.30    2.30
  27   7  -7    3.50    2.70
  25  -7  -7   -1.70    1.90
  25  -7  -7    0.50    1.90
  25   7  -7    0.80    2.20
  25   7  -7    0.30    2.20
  25   7  -7   -0.70    2.00
  23  -7  -7    2.30    1.80
  23  -7  -7    0.30    1.80
  23   7  -7    4.30    2.30
  23   7  -7    3.10    2.00
  23   7  -7    1.50    2.00
  21  -7  -7    0.00    1.60
  21  -7  -7    1.20    1.70
  21   7  -7    2.80    2.00
  21   7  -7    3.10    1.90
  21   7  -7    2.60    1.90
  19  -7  -7   -1.40    1.40
  19  -7  -7    1.20    0.90
  19   7  -7   -1.50    1.40
  19   7  -7    0.50    1.70
 -19   7   7    0.20    1.10
  19   7  -7   -0.40    1.60
  17  -7  -7    1.40    1.40
  17  -7  -7   -1.10    1.20
 -17   7   7    0.40    1.00
  17   7  -7   -2.50    1.30
  17   7  -7    1.30    1.60
  17   7  -7    0.40    1.40
  15  -7  -7    3.70    1.40
  15  -7  -7    2.10    1.30
  15   7  -7    4.20    1.50
 -15   7   7    2.00    1.00
  15   7  -7    3.50    1.60
  15   7  -7    2.50    1.50
  13  -7  -7    6.70    1.40
  13  -7  -7    7.50    1.50
  13   7  -7    7.70    1.70
  13   7  -7    8.10    1.60
  13   7  -7    7.10    1.60
 -13   7   7    7.30    1.20
  11  -7  -7    8.80    1.50
  11   7  -7    8.60    1.60
  11   7  -7    7.70    1.50
  11   7  -7    6.60    1.50
 -11   7   7    9.50    1.20
   9  -7  -7    2.60    1.10
   9   7  -7    0.40    1.00
  -9   7   7    1.00    0.80
   9   7  -7    1.30    0.90
   9   7  -7    3.70    1.20
   7  -7  -7    1.60    1.00
   7  -7  -7    1.80    0.60
   7  -7  -7    0.20    0.50
  -7   7   7    1.10    0.80
   7   7  -7    1.30    0.90
   7   7  -7   -0.10    0.90
   7   7  -7    0.60    1.00
   5  -7  -7    0.50    0.50
   5  -7  -7    0.20    0.90
   5   7  -7    1.20    0.90
   5   7  -7    0.20    0.90
  -5   7   7   -0.10    0.70
   5   7  -7    0.30    0.80
   3  -7  -7   17.20    1.80
   3   7  -7   18.40    1.80
  -3   7   7   21.00    1.90
   3   7  -7   17.80    1.60
  -3   7   7   20.10    1.70
   3   7  -7   16.40    1.80
  -1   7   7    8.70    1.40
   1   7  -7   10.80    1.50
   1   7  -7   12.60    1.40
   1   7  -7   11.30    1.20
  -1   7   7   10.40    1.30
   1   7  -7   12.90    1.40
   1  -7   7   15.70    1.40
  -1   7  -7   16.40    1.50
   1   7   7   19.20    2.00
  -1   7  -7   11.40    1.60
  -1   7  -7   13.40    1.40
   1   7   7   20.40    1.80
   3  -7   7   12.90    1.30
   3   7   7   12.20    1.70
  -3   7  -7   14.10    1.40
   3   7   7   13.00    1.60
  -3   7  -7   14.40    1.40
   5  -7   7    8.70    1.60
   5  -7   7   13.80    1.40
   5   7   7   12.20    1.90
   5   7   7   16.90    1.50
   5   7   7   16.70    1.80
   7  -7   7   11.40    1.90
   7  -7   7    7.30    1.30
   7   7   7    8.60    1.70
   7   7   7    7.30    1.30
   7   7   7    5.40    1.20
   7   7   7    6.40    1.40
   9  -7   7    0.80    1.40
   9   7   7    1.50    1.10
   9   7   7    0.60    1.40
   9   7   7    1.20    1.30
  11  -7   7    2.00    1.60
  11   7   7   -0.30    1.30
  11   7   7    2.50    1.70
  11   7   7    2.90    1.40
  13  -7   7    7.40    1.40
  13  -7   7    4.00    1.90
  13   7   7    6.30    1.70
  13   7   7    6.90    2.20
  13   7   7    7.70    1.80
  15  -7   7    6.20    2.20
  15  -7   7    5.30    1.40
  15   7   7    1.00    2.10
  15   7   7    4.90    1.90
  15   7   7    5.30    1.70
  17  -7   7    1.40    2.20
  17   7   7    4.40    2.00
  17   7   7    3.70    2.50
  19  -7   7    3.60    2.60
  19   7   7    3.20    2.70
  19   7   7    6.40    2.30
  21  -7   7    2.00    2.50
  21   7   7    3.70    2.40
  21   7   7   -0.10    2.70
  23  -7   7    9.70    3.40
  23   7   7    0.30    3.10
  30   8  -7    9.20    3.00
  30   8  -7    6.60    2.90
  30   8  -7   11.30    3.40
  28   8  -7   17.50    3.70
  28   8  -7   19.70    3.60
  28   8  -7   20.00    3.30
  26   8  -7   25.00    3.40
  26   8  -7   13.80    3.30
  26   8  -7   21.20    3.70
  24  -8  -7   62.69    4.70
  24   8  -7   61.19    4.90
  24   8  -7   62.19    5.20
  24   8  -7   47.50    5.00
  22  -8  -7   16.20    2.60
  22   8  -7   15.10    2.90
  22   8  -7   16.20    2.70
  22   8  -7   17.60    2.90
  20  -8  -7   56.29    4.10
  20   8  -7   57.49    4.30
  20   8  -7   56.99    4.50
  20   8  -7   46.40    4.40
  18  -8  -7    6.30    1.80
  18   8  -7    7.00    2.10
  18   8  -7    8.20    2.00
  18   8  -7    7.70    2.00
 -18   8   7    7.80    1.50
  16  -8  -7  101.29    5.70
 -16   8   7   97.69    5.20
  16   8  -7  105.99    5.90
  16   8  -7   96.29    5.80
  16   8  -7  110.99    6.10
  14  -8  -7    9.40    1.70
  14   8  -7   11.00    2.00
  14   8  -7    8.10    1.80
  14   8  -7    9.40    1.80
 -14   8   7    9.80    1.40
  12  -8  -7   93.49    5.50
  12   8  -7  106.39    5.70
 -12   8   7  100.39    5.10
  12   8  -7  106.49    5.70
  12   8  -7  109.99    5.70
  10  -8  -7   20.00    2.00
  10   8  -7   18.90    2.20
  10   8  -7   18.30    2.00
  10   8  -7   14.80    2.10
 -10   8   7   21.60    1.90
   8  -8  -7   63.19    3.10
   8  -8  -7   60.39    3.70
   8   8  -7   61.89    3.70
   8   8  -7   61.79    3.60
   8   8  -7   61.79    3.80
  -8   8   7   60.29    3.40
   6  -8  -7   18.10    1.80
   6  -8  -7   16.10    1.30
  -6   8   7   15.00    1.60
   6   8  -7   16.20    1.90
   6   8  -7   15.40    1.60
   6   8  -7   17.10    2.00
   4  -8  -7   95.59    5.00
  -4   8   7   90.09    4.60
   4   8  -7   92.29    4.70
   4   8  -7   88.29    4.90
   4   8  -7   91.49    4.70
   4   8  -7   90.49    4.60
   2   8  -7   11.30    1.70
   2   8  -7   12.60    1.30
   2   8  -7    8.90    1.30
  -2   8   7   10.60    1.50
  -2   8   7    9.40    1.30
   2   8  -7   12.00    1.50
   0  -8   7   31.40    2.00
   0   8  -7   33.30    2.30
   0   8   7   31.40    2.40
   0   8  -7   34.60    2.30
   0   8   7   31.60    2.50
   0   8  -7   30.20    2.10
   0   8  -7   30.20    2.50
   2   8   7   34.30    2.50
  -2   8  -7   30.90    2.20
  -2   8  -7   35.30    2.30
   2   8   7   34.10    2.70
  -2   8  -7   33.90    2.70
   4  -8   7   18.40    2.20
  -4   8  -7   18.40    1.70
   4   8   7   20.30    2.10
  -4   8  -7   21.20    1.70
   4   8   7   18.50    2.20
   4   8   7   17.70    1.80
   6  -8   7   31.10    2.80
   6   8   7   26.50    2.40
   6   8   7   23.50    2.50
   6   8   7   28.40    2.10
   8  -8   7    1.20    1.50
   8   8   7   -0.20    1.40
   8   8   7    3.40    1.40
  10  -8   7   60.79    4.40
  10   8   7   65.49    3.90
  10   8   7   52.99    4.30
  12  -8   7   10.80    2.30
  12   8   7    5.60    2.10
  12   8   7    7.70    1.80
  14  -8   7   78.89    4.40
  14  -8   7   74.09    5.40
  14   8   7   63.89    5.50
  14   8   7   89.79    4.80
  16  -8   7   33.20    3.80
  16   8   7   20.10    3.50
  18  -8   7   56.69    5.20
  18   8   7   52.29    5.50
  20  -8   7   14.20    3.60
  20   8   7    4.10    2.90
  22  -8   7   21.60    3.90
  22   8   7   10.50    3.70
  29   9  -7    8.10    3.10
  29   9  -7    1.50    2.70
  29   9  -7    5.90    3.20
  27   9  -7    0.30    2.40
  27   9  -7   -2.90    2.30
  27   9  -7   -1.60    2.40
  25   9  -7   23.40    3.40
  25   9  -7   20.00    3.40
  25   9  -7   14.30    3.30
  23   9  -7   -0.20    2.10
  23   9  -7    2.80    2.30
  23   9  -7    3.80    2.30
  21   9  -7   31.60    3.60
  21   9  -7   20.40    3.30
  21   9  -7   27.60    3.40
  19  -9  -7    2.00    1.60
  19   9  -7   -1.10    1.60
  19   9  -7   -2.40    1.70
  19   9  -7    1.30    1.80
  17  -9  -7    2.60    1.50
 -17   9   7    1.70    1.20
  17   9  -7   -0.40    1.60
  17   9  -7    0.10    1.70
  17   9  -7    0.10    1.60
  15  -9  -7   18.70    2.20
 -15   9   7   16.90    1.90
  15   9  -7   25.60    2.70
  15   9  -7   15.60    2.40
  15   9  -7   20.30    2.70
  13  -9  -7   31.80    2.70
  13   9  -7   31.80    3.00
  13   9  -7   31.30    2.90
  13   9  -7   32.10    3.10
 -13   9   7   31.00    2.50
  11  -9  -7    2.40    1.30
  11   9  -7    7.30    1.60
  11   9  -7    4.80    1.60
 -11   9   7    4.70    1.20
  11   9  -7    6.40    1.50
   9  -9  -7   22.00    2.20
   9  -9  -7   23.30    1.70
  -9   9   7   19.90    1.90
   9   9  -7   20.80    2.20
   9   9  -7   19.50    2.00
   9   9  -7   21.90    2.50
   7  -9  -7    0.40    1.00
   7   9  -7    1.60    1.20
   7   9  -7    0.50    1.20
  -7   9   7   -1.00    0.90
   7   9  -7    0.70    0.90
   5  -9  -7    2.70    1.20
   5   9  -7    1.90    0.90
   5   9  -7    1.00    1.00
   5   9  -7    2.40    1.20
   5   9  -7    3.00    1.20
  -5   9   7    1.70    1.00
  -3   9   7    3.00    1.20
   3   9  -7    2.80    1.30
   3   9  -7    4.50    1.20
  -3   9   7    1.80    1.00
   3   9  -7    4.70    1.20
   1   9  -7    7.70    1.50
  -1   9   7    8.10    1.30
  -1   9   7    6.30    1.40
   1   9  -7    6.70    1.30
   1   9  -7    9.10    1.40
  -1   9  -7   23.90    2.50
   1   9   7   23.90    2.10
   1   9   7   29.50    2.50
  -1   9  -7   27.60    2.20
  -1   9  -7   26.80    2.20
   3   9   7    0.30    1.10
  -3   9  -7    2.40    1.30
   3   9   7   -0.20    1.10
  -3   9  -7    0.80    1.00
  -3   9  -7    0.90    1.00
   5  -9   7   38.40    3.20
   5   9   7   39.70    2.90
   5   9   7   36.80    2.50
   5   9   7   31.40    3.00
   7  -9   7    7.40    1.80
   7   9   7    9.70    2.00
   7   9   7    8.70    1.50
   7   9   7    9.10    1.70
   7   9   7   11.50    1.70
   9  -9   7   24.90    2.90
   9   9   7   25.40    2.40
   9   9   7   20.70    2.70
  11  -9   7   11.90    2.40
  11   9   7    6.40    2.10
  11   9   7    6.40    1.70
  13  -9   7   24.00    3.20
  13   9   7   18.10    3.00
  13   9   7   18.30    2.30
  15  -9   7    6.00    2.50
  15   9   7    7.10    2.60
  15   9   7    4.60    1.70
  17  -9   7   19.50    3.40
  17   9   7   16.70    3.50
  19  -9   7   -1.80    2.40
  19   9   7    2.50    2.70
  21  -9   7    0.50    2.80
  21   9   7   -0.90    2.80
  28  10  -7   12.10    3.60
  28  10  -7    9.50    3.10
  28  10  -7    9.30    3.30
  26  10  -7    0.90    2.50
  26  10  -7    3.80    2.60
  26  10  -7    1.30    2.70
  24  10  -7    4.90    2.50
  24  10  -7    3.70    2.50
  24  10  -7    2.60    2.50
  22  10  -7   18.60    3.20
  22  10  -7   14.60    3.00
  22  10  -7   21.80    3.30
  20  10  -7    6.20    2.30
  20  10  -7    7.00    2.40
  20  10  -7    8.10    2.40
  18  10  -7   27.30    3.20
  18  10  -7   32.20    3.50
  18  10  -7   29.40    3.30
  16  10  -7    7.20    2.10
 -16  10   7    7.60    1.50
  16  10  -7    9.30    2.10
  16  10  -7   12.90    2.30
  14 -10  -7   44.90    3.30
  14  10  -7   43.20    3.50
  14  10  -7   46.80    3.70
  14  10  -7   40.10    3.80
 -14  10   7   43.50    3.10
  12 -10  -7    2.60    1.30
  12  10  -7    0.90    1.60
  12  10  -7    0.90    1.30
  12  10  -7   -0.70    1.40
 -12  10   7    2.60    1.10
  10 -10  -7   57.69    3.70
  10 -10  -7   62.89    3.40
  10  10  -7   61.29    4.00
  10  10  -7   54.79    4.00
  10  10  -7   55.69    3.60
 -10  10   7   58.39    3.50
   8 -10  -7    9.80    1.60
   8  10  -7    7.60    1.80
  -8  10   7    8.30    1.40
   8  10  -7    6.80    1.70
   6 -10  -7  133.89    6.80
   6  10  -7  123.19    6.50
  -6  10   7  124.99    6.30
   6  10  -7  139.09    6.50
   6  10  -7  133.49    6.90
  -4  10   7   15.70    2.00
   4  10  -7   24.80    2.30
  -4  10   7   22.20    2.00
   4  10  -7   22.60    2.30
   4  10  -7   23.00    2.50
  -2  10   7   80.79    4.80
   2  10  -7   88.09    4.60
  -2  10   7   91.19    4.60
   2  10  -7   89.99    5.10
   2  10  -7   80.29    4.60
   0  10   7   30.80    2.50
   0  10  -7   35.20    2.60
   0  10   7   29.10    2.60
   0  10  -7   27.80    2.80
   0  10  -7   31.30    2.50
  -2  10  -7   22.20    2.00
  -2  10  -7   18.60    2.30
  -2  10  -7   19.40    2.00
   2  10   7   20.00    2.30
   2  10   7   22.50    2.10
  -4  10  -7   76.59    4.10
   4  10   7   64.59    4.60
  -4  10  -7   74.49    4.10
   4  10   7   79.79    4.30
   4  10   7   80.99    4.20
   6 -10   7   25.80    2.80
   6  10   7   27.60    2.40
   6  10   7   22.80    2.20
   6  10   7   23.30    2.70
   8 -10   7   87.89    5.40
   8  10   7   75.89    5.20
   8  10   7   82.69    4.70
   8  10   7   85.29    4.60
  10 -10   7   21.10    3.00
  10  10   7   17.50    2.20
  10  10   7   15.40    2.70
  12 -10   7   27.00    3.40
  12  10   7   25.30    2.50
  12  10   7   22.90    3.20
  14 -10   7   -0.50    2.20
  14  10   7   -0.10    2.20
  14  10   7    1.20    1.60
  16 -10   7   15.30    3.00
  16  10   7    9.20    2.90
  18 -10   7   -0.40    2.70
  18  10   7    1.60    2.80
  20 -10   7   -1.70    2.50
  20  10   7   -2.80    2.70
  27  11  -7    1.80    2.90
  27  11  -7   -0.10    2.70
  27  11  -7   -3.10    2.50
  25  11  -7    6.50    2.80
  25  11  -7    2.40    2.60
  25  11  -7    5.10    2.80
  23  11  -7    3.50    2.60
  23  11  -7   -1.10    2.20
  23  11  -7    1.30    2.40
  21  11  -7   31.10    3.80
  21  11  -7   21.40    3.40
  21  11  -7   25.10    3.50
  19  11  -7    1.60    2.10
  19  11  -7   -1.50    1.90
  19  11  -7    0.20    2.10
  17  11  -7   30.60    3.50
  17  11  -7   21.20    2.90
  17  11  -7   28.70    3.40
  15  11  -7    0.70    1.60
  15  11  -7    2.20    1.80
  15  11  -7    2.40    1.90
 -15  11   7    2.30    1.30
 -13  11   7   42.70    3.10
  13  11  -7   42.60    3.80
  13  11  -7   46.70    3.80
  11  11  -7    3.40    1.70
  11  11  -7    2.30    1.70
 -11  11   7    5.60    1.40
  -9  11   7   57.59    3.60
   9  11  -7   61.09    4.20
   9  11  -7   56.29    4.00
   7 -11  -7   10.10    1.70
   7  11  -7   11.00    1.80
  -7  11   7   10.60    1.50
   7  11  -7   10.00    2.00
   7  11  -7    9.10    2.00
  -5  11   7   88.59    5.00
   5  11  -7   85.79    5.00
   5  11  -7   93.49    5.10
  -5  11   7   91.89    4.80
   5  11  -7   87.39    5.40
   3  11  -7    4.80    1.50
   3  11  -7    4.40    1.70
  -3  11   7    5.20    1.30
   3  11  -7    2.80    1.40
  -3  11   7    3.10    1.30
   1  11  -7   48.70    3.70
   1  11  -7   52.29    3.30
   1  11  -7   48.20    3.30
  -1  11   7   51.79    3.30
  -1  11   7   43.00    3.30
   1  11   7    0.00    1.20
  -1  11  -7    1.30    1.50
  -1  11  -7   -1.10    1.10
   1  11   7    0.00    1.20
  -1  11  -7   -0.40    1.10
  -3  11  -7   43.70    3.60
  -3  11  -7   44.50    3.00
  -3  11  -7   34.90    2.90
   3  11   7   37.40    3.00
   3  11   7   42.10    3.00
   3  11   7   38.40    3.30
   5 -11   7    1.20    1.60
   5  11   7    0.00    1.30
   5  11   7    0.20    1.40
   5  11   7    1.00    1.40
   7 -11   7   22.60    2.80
   7  11   7   17.50    2.20
   7  11   7   23.50    2.30
   7  11   7   17.50    2.30
   7  11   7   16.50    2.50
   9 -11   7   -0.70    1.80
   9  11   7    0.50    1.40
   9  11   7    0.60    1.80
  11 -11   7   12.40    2.70
  11  11   7   16.10    2.10
  11  11   7   18.30    2.90
  13 -11   7    1.70    2.30
  13  11   7   -1.00    2.10
  15 -11   7    0.90    2.30
  15  11   7    4.40    2.60
  17 -11   7    0.90    2.60
  17  11   7   -2.30    2.50
  19 -11   7    1.30    2.90
  19  11   7    1.70    2.90
  26  12  -7    9.90    3.20
  26  12  -7    1.80    3.10
  26  12  -7    4.40    3.00
  24  12  -7    4.80    2.80
  24  12  -7    3.90    2.80
  24  12  -7    5.90    2.90
  22  12  -7   10.40    3.10
  22  12  -7    7.70    2.70
  22  12  -7    5.60    2.70
  20  12  -7    4.60    2.60
  20  12  -7    7.20    2.60
  20  12  -7    9.10    2.70
  18  12  -7   10.10    2.60
  18  12  -7   13.20    2.80
  16  12  -7    9.10    2.40
  16  12  -7    6.10    2.30
 -14  12   7   21.20    2.30
  14  12  -7   27.90    3.20
  14  12  -7   29.00    3.30
  12  12  -7    7.50    2.10
  12  12  -7    6.90    2.20
 -12  12   7    6.70    1.40
  10  12  -7   40.60    3.70
 -10  12   7   37.80    2.90
  10  12  -7   39.30    3.60
   8  12  -7   -1.80    1.60
   8  12  -7    1.50    1.50
  -8  12   7    1.30    1.20
   8  12  -7    3.10    1.60
   6  12  -7   10.00    2.00
   6  12  -7    9.10    2.00
   6  12  -7    9.70    2.10
  -6  12   7    6.40    1.50
  -4  12   7    2.30    1.20
   4  12  -7    2.20    1.70
   4  12  -7    4.50    1.60
  -4  12   7    5.20    1.60
   4  12  -7    3.80    1.50
  -2  12   7    0.30    1.20
   2  12  -7    0.60    1.30
   2  12  -7   -0.40    1.30
  -2  12   7    0.80    1.30
   2  12  -7   -1.40    1.50
   0  12  -7   12.80    1.90
   0  12   7   14.80    1.80
   0  12  -7   12.00    2.20
   0  12   7   11.00    1.80
   0  12  -7   12.80    2.00
   2  12   7   23.70    2.40
  -2  12  -7   18.80    2.30
  -2  12  -7   19.10    2.50
  -2  12  -7   15.20    2.10
   2  12   7   20.10    2.10
   2  12   7   15.30    2.20
   4  12   7    1.80    1.60
  -4  12  -7    0.80    1.40
  -4  12  -7    1.50    1.50
   4  12   7    2.20    1.50
   4  12   7    4.20    1.40
   6 -12   7    5.10    2.00
   6  12   7    4.10    1.70
   6  12   7    2.30    1.40
   6  12   7    3.60    1.70
   6  12   7    3.60    1.80
   8 -12   7   -0.80    1.90
   8  12   7   -0.70    1.70
   8  12   7    2.00    1.40
   8  12   7   -0.50    1.50
   8  12   7    1.20    1.80
  10 -12   7   -0.50    2.00
  10  12   7    0.20    1.90
  12 -12   7   -2.30    2.00
  12  12   7    3.10    2.20
  14 -12   7   19.40    3.40
  14  12   7   10.50    3.10
  16 -12   7    0.80    2.50
  16  12   7   -0.90    2.50
  18 -12   7   24.30    4.00
  18  12   7   12.90    3.60
  25  13  -7    5.10    3.20
  25  13  -7   10.20    3.40
  23  13  -7    5.10    2.90
  23  13  -7    7.40    3.10
  21  13  -7   12.00    3.10
  21  13  -7   10.70    3.00
  19  13  -7    0.20    2.30
  19  13  -7    4.60    2.50
  17  13  -7   30.10    3.80
  17  13  -7   34.00    3.90
  15  13  -7    2.00    2.00
  15  13  -7   -1.50    2.00
  13  13  -7   41.20    3.90
 -13  13   7   33.20    2.90
  13  13  -7   39.40    3.90
  11  13  -7    2.50    1.90
  11  13  -7    6.10    2.20
 -11  13   7    4.80    1.40
   9  13  -7   19.10    2.80
   9  13  -7   18.10    2.60
   9  13  -7   18.40    2.70
  -9  13   7   17.20    2.00
   7  13  -7    3.70    1.90
  -7  13   7    2.50    1.30
   7  13  -7    0.50    1.70
   7  13  -7    2.20    1.80
   5  13  -7   13.70    2.30
   5  13  -7   16.40    2.40
  -5  13   7   10.90    1.70
   5  13  -7   15.60    2.50
   3  13  -7   -1.40    1.60
   3  13  -7   -1.30    1.40
  -3  13   7    0.10    1.20
   3  13  -7    0.40    1.50
   1  13  -7   36.70    3.20
   1  13  -7   41.70    3.50
  -1  13   7   37.90    3.00
   1  13  -7   37.50    3.50
   1  13   7    0.90    1.20
  -1  13  -7    0.90    1.60
  -1  13  -7    1.90    1.80
  -1  13  -7    2.40    1.50
  -3  13  -7   27.10    2.80
   3  13   7   22.20    2.70
  -3  13  -7   29.60    2.90
  -3  13  -7   34.40    3.50
   3  13   7   30.50    2.90
   3  13   7   30.00    2.60
   5 -13   7    0.50    2.00
   5  13   7   -1.60    1.60
   5  13   7    2.80    1.40
   5  13   7    2.60    1.70
   7 -13   7   13.60    2.70
   7  13   7    8.80    2.20
   7  13   7   13.10    2.30
   7  13   7   11.20    2.10
   9 -13   7    0.30    2.00
   9  13   7    1.60    1.80
   9  13   7   -0.20    1.90
  11 -13   7   14.50    3.10
  11  13   7    6.50    2.50
  13 -13   7   -0.10    2.40
  13  13   7   -1.30    2.30
  15 -13   7   10.60    3.10
  15  13   7   11.60    3.30
  17 -13   7    5.30    3.00
  17  13   7    1.90    3.00
  22  14  -7    3.90    2.90
  22  14  -7   10.20    3.10
  20  14  -7    5.60    2.80
  20  14  -7    1.70    2.50
  18  14  -7   12.10    3.00
  18  14  -7    8.70    2.90
  16  14  -7    1.10    2.20
  16  14  -7    0.10    2.20
  14  14  -7   -1.60    2.10
  14  14  -7    4.00    2.30
  12  14  -7    0.70    2.10
  12  14  -7    3.50    2.20
 -12  14   7    1.70    1.40
  10  14  -7    7.40    2.30
  10  14  -7   12.70    2.60
 -10  14   7    5.60    1.60
   8  14  -7    3.10    1.90
   8  14  -7    4.10    2.10
  -8  14   7    5.80    1.50
   8  14  -7    0.70    1.80
   6  14  -7   -3.00    1.60
  -6  14   7    0.10    1.20
   6  14  -7   -1.00    1.70
   6  14  -7    2.30    1.80
  -4  14   7    9.40    1.70
   4  14  -7   12.20    2.40
   4  14  -7   17.30    2.70
   4  14  -7   16.10    2.50
   2  14  -7    6.70    2.00
  -2  14   7    9.00    1.70
   2  14  -7    5.00    1.90
   2  14  -7    9.50    2.20
   0  14  -7   -3.00    1.50
   0  14  -7    0.80    1.80
   0  14   7    0.80    1.30
   0  14  -7   -1.10    1.60
  -2  14  -7   28.20    2.90
  -2  14  -7   19.10    2.90
  -2  14  -7   24.60    2.90
   2  14   7   24.10    2.90
  -4  14  -7   41.10    3.50
   4  14   7   47.80    3.80
   6 -14   7    0.90    2.10
   6  14   7    3.00    1.90
   6  14   7    1.70    1.90
   8 -14   7    8.30    2.50
   8  14   7   10.60    2.30
   8  14   7    9.90    2.30
   8  14   7    5.70    2.40
  10 -14   7    0.20    2.20
  10  14   7   -2.00    2.10
  12 -14   7    4.10    2.50
  12  14   7   -1.30    2.20
  14 -14   7    6.90    2.90
  14  14   7    4.80    2.80
  16 -14   7   -2.00    2.80
  16  14   7    1.20    2.90
  21  15  -7   28.70    4.20
  21  15  -7   21.90    3.90
  19  15  -7    2.50    2.70
  19  15  -7   -2.40    2.50
  17  15  -7   20.50    3.50
  17  15  -7   17.80    3.30
  15  15  -7    7.80    2.70
  15  15  -7   16.30    3.10
  13  15  -7   22.00    3.40
  13  15  -7   30.40    3.60
  11  15  -7    5.90    2.40
  11  15  -7    4.50    2.30
   9  15  -7   21.80    3.20
   9  15  -7   24.20    3.30
   9  15  -7   22.80    3.20
   7  15  -7    2.10    2.00
   7  15  -7   -1.00    1.80
   7  15  -7    2.50    2.10
   5  15  -7   -1.20    1.70
   5  15  -7    2.00    2.00
   5  15  -7    2.20    2.10
   3  15  -7   20.60    2.80
   3  15  -7   13.80    2.70
   3  15  -7   17.80    2.70
   1  15  -7   14.30    2.50
   1  15  -7   12.00    2.30
   1  15  -7    9.80    2.60
  -1  15  -7    0.90    1.90
   1  15   7    3.10    2.00
  -1  15  -7    0.50    2.00
  -1  15  -7    0.40    1.80
  -3  15  -7    2.70    2.00
   3  15   7    8.20    2.30
  -3  15  -7    9.70    2.60
  -3  15  -7    6.00    2.00
   5 -15   7    8.00    2.70
   5  15   7   -0.30    2.00
   5  15   7    5.10    2.20
   7 -15   7    2.60    2.30
   7  15   7    2.30    2.10
   7  15   7    4.90    2.20
   9 -15   7    4.10    2.30
   9  15   7    0.70    2.10
  11 -15   7   16.20    3.20
  13 -15   7    3.90    2.90
  15 -15   7   10.20    3.50
  20  16  -7    8.60    3.30
  20  16  -7    9.00    3.10
  18  16  -7   -2.00    2.60
  18  16  -7    1.70    2.80
  16  16  -7   18.60    3.50
  16  16  -7   17.20    3.50
  14  16  -7    6.00    2.80
  14  16  -7   -0.70    2.20
  12  16  -7    7.70    2.60
  12  16  -7    8.40    2.70
  10  16  -7    2.60    2.50
  10  16  -7    6.80    2.40
  10  16  -7    6.30    2.50
   8  16  -7    7.90    2.60
   8  16  -7    4.50    2.40
   8  16  -7    8.40    2.80
   6  16  -7   20.00    3.00
   6  16  -7   14.70    2.80
   6  16  -7   16.90    3.20
   4  16  -7    8.70    2.40
   4  16  -7   12.50    2.60
   4  16  -7    5.80    2.50
   2  16  -7   11.90    2.80
   2  16  -7   14.40    2.80
   2  16  -7   15.50    2.80
   0  16  -7    1.70    2.10
   0  16  -7    0.60    1.90
   0  16   7    4.90    2.30
   0  16  -7    4.20    2.50
  -2  16  -7   -0.40    1.90
  -2  16  -7    4.40    2.30
   2  16   7    6.10    2.30
  -2  16  -7    3.70    2.20
   4  16   7    1.10    2.00
  -4  16  -7    0.60    2.00
   6 -16   7    3.30    2.50
   6  16   7    0.80    2.00
   6  16   7   -0.60    2.00
   8 -16   7   -0.90    2.30
   8  16   7    0.70    2.20
   8  16   7    2.70    2.30
  10 -16   7    0.70    2.60
  12 -16   7    0.90    2.80
  17  17  -7    0.30    2.70
  17  17  -7    4.60    3.20
  15  17  -7    5.00    2.80
  15  17  -7    2.50    2.90
  13  17  -7    0.80    2.60
  13  17  -7    1.20    2.50
  11  17  -7    0.60    2.60
  11  17  -7   -0.30    2.20
   9  17  -7   17.30    3.30
   9  17  -7    7.10    2.80
   9  17  -7   12.60    3.20
   7  17  -7    1.10    2.50
   7  17  -7   -0.60    2.30
   7  17  -7    0.80    2.20
   5  17  -7    9.40    2.80
   5  17  -7   10.80    2.70
   5  17  -7   15.80    3.10
   3  17  -7    0.70    2.30
   3  17  -7    1.00    2.20
   3  17  -7    2.60    2.10
   1  17  -7    6.20    2.50
   1  17  -7    9.20    2.60
   1  17  -7    3.70    2.20
  -1  17   7    6.10    2.40
  -1  17  -7    5.80    2.70
  -1  17  -7    4.20    2.40
   1  17   7    1.90    2.20
  -1  17  -7   -0.10    2.00
  -3  17  -7    3.60    2.50
  -3  17  -7    3.30    2.40
   3  17   7    4.60    2.30
  -3  17  -7    4.90    2.30
   5 -17   7    1.80    2.40
   5  17   7    4.40    2.40
   5  17   7   -0.50    2.30
   7 -17   7    5.40    2.80
   7  17   7    2.60    2.40
   7  17   7    5.20    2.50
   9 -17   7    2.80    2.80
   9  17   7    2.90    2.40
  14  18  -7   -0.80    2.60
  14  18  -7   -1.60    2.70
  12  18  -7   -2.70    2.60
  12  18  -7   -0.10    2.60
  10  18  -7   -0.60    2.70
  10  18  -7   -2.10    2.40
  10  18  -7   -3.40    2.30
   8  18  -7   10.80    2.90
   8  18  -7    7.90    2.90
   8  18  -7    8.10    2.90
   6  18  -7    0.50    2.60
   6  18  -7   -0.40    2.40
   6  18  -7    2.20    2.30
   4  18  -7    7.60    2.60
   4  18  -7   10.80    2.90
   4  18  -7   11.60    3.00
   2  18  -7    3.60    2.40
   2  18  -7   -0.30    2.20
  -2  18   7   -0.70    2.20
   2  18  -7    2.90    2.40
   0  18   7   15.10    2.90
   0  18  -7   14.50    3.20
   0  18  -7   16.00    3.10
   0  18  -7    9.50    2.80
  -2  18  -7    3.70    2.50
  -2  18  -7   -0.30    2.50
   2  18   7    5.60    2.60
  -2  18  -7    2.90    2.30
   4 -18   7    7.20    3.10
   4  18   7    3.90    2.60
   4  18   7    9.30    2.70
   6 -18   7    1.50    2.70
   6  18   7    3.20    2.50
   6  18   7    6.10    2.70
   9  19  -7    3.70    2.80
   9  19  -7    1.70    3.00
   9  19  -7   -1.60    2.50
   7  19  -7    2.20    2.50
   7  19  -7    3.50    2.70
   7  19  -7   -3.30    2.40
   5  19  -7    0.90    2.40
  -5  19   7    5.00    2.60
   5  19  -7   -1.10    2.50
   5  19  -7    1.90    2.70
   3  19  -7   -2.40    2.20
   3  19  -7    2.00    2.70
   3  19  -7    3.40    2.70
  -3  19   7   -1.30    2.40
   1  19  -7    3.30    2.60
   1  19  -7    2.80    2.50
  -1  19   7    1.50    2.40
   1  19  -7    1.20    2.60
  -1  19  -7    0.10    2.40
  -1  19  -7    1.10    2.60
   1  19   7   -0.50    2.40
  -1  19  -7    3.40    2.50
   3  19   7   -0.90    2.50
  -3  19  -7    4.60    2.70
   3  19   7   -1.70    2.50
  32   0  -8   55.29    5.20
  32   0  -8   40.50    4.90
  30   0  -8    0.50    2.20
  30   0  -8    3.70    2.50
  30   0  -8   -2.50    2.20
  28   0  -8   52.09    4.70
  28   0  -8   43.50    4.10
  28   0  -8   46.60    4.80
  26   0  -8    0.40    1.70
  26   0  -8    1.00    1.90
  26   0  -8   -0.20    1.90
  24   0  -8   14.00    2.70
 -24   0   8   16.80    1.80
  24   0  -8   16.80    2.60
  24   0  -8   19.40    2.60
  22   0  -8    4.90    1.90
  22   0  -8    7.60    1.90
 -22   0   8    6.90    1.20
  22   0  -8    6.30    1.80
 -20   0   8    1.80    0.90
  20   0  -8    3.30    1.50
  20   0  -8    4.30    1.60
  20   0  -8    2.90    1.60
  18   0  -8   58.09    3.70
  18   0  -8   55.19    4.00
  18   0  -8   56.39    3.60
  16   0  -8   51.09    3.40
  16   0  -8   48.30    3.20
  16   0  -8   55.89    3.60
  14   0  -8   92.19    5.10
  14   0  -8   89.09    4.80
  12   0  -8  543.25   24.00
  12   0  -8  566.84   25.40
  12   0  -8  541.15   23.50
  10   0  -8  934.11   42.40
  10   0  -8  928.81   39.20
  10   0  -8  945.01   40.30
   8   0  -8   23.80    1.90
   8   0  -8   26.00    2.10
   8   0  -8   26.40    1.60
   6   0  -8  257.67   11.70
   6   0  -8  274.87   11.70
   6   0  -8  271.47   12.70
   4   0  -8  179.18    8.00
   4   0  -8  182.48    8.80
   2   0  -8  321.27   14.80
  -2   0   8  312.77   13.80
   0   0  -8 2342.17  103.59
   0   0   8 2383.96  103.59
   0   0   8 2215.98   98.89
   2   0   8 1891.81   83.29
   2   0   8 1998.80   87.19
   4   0   8   60.99    2.80
   4   0   8   56.29    3.20
   4   0   8   59.39    3.60
   6   0   8  167.48    8.20
   6   0   8  175.48    8.80
   6   0   8  181.38    7.80
   8   0   8  158.18    8.00
   8   0   8  165.98    7.50
   8   0   8  170.08    8.50
  10   0   8   -0.30    1.20
  10   0   8    0.30    0.90
  10   0   8    1.50    1.30
  12   0   8  125.19    6.10
  12   0   8  117.39    6.90
  12   0   8  127.59    6.70
  14   0   8  109.29    6.80
  14   0   8  121.89    6.60
  14   0   8  115.09    5.90
  16   0   8   -0.90    1.90
  16   0   8   -0.20    1.70
  18   0   8   15.20    2.70
  18   0   8   19.00    3.30
  20   0   8   24.70    3.50
  20   0   8   13.80    3.30
  22   0   8   -3.20    2.70
  22   0   8    2.50    2.50
  24   0   8   -1.20    2.50
  24   0   8   -0.40    3.10
  31  -1  -8    4.00    2.80
  31  -1  -8    0.70    2.40
  31   1  -8   -3.00    2.00
  31   1  -8   -2.00    2.20
  31   1  -8   -1.60    2.30
  29  -1  -8   -1.20    2.20
  29  -1  -8    1.60    2.20
  29   1  -8   -2.90    2.00
  29   1  -8    0.90    2.30
  29   1  -8    2.10    2.10
  27  -1  -8   -2.80    2.00
  27  -1  -8   -3.70    1.70
  27  -1  -8    1.90    2.20
  27   1  -8   -1.00    2.00
  27   1  -8   -2.40    2.00
  27   1  -8    0.10    1.80
  25  -1  -8   -0.50    1.90
  25  -1  -8    1.90    1.80
  25  -1  -8    0.90    1.80
  25   1  -8    2.20    1.90
  25   1  -8    1.10    1.70
  25   1  -8    1.60    2.00
  23  -1  -8    2.90    1.70
  23  -1  -8    0.30    1.70
 -23  -1   8    0.20    0.90
  23  -1  -8   -0.80    1.50
 -23   1   8   -1.20    0.90
  23   1  -8   -2.60    1.60
  23   1  -8   -0.50    1.50
  23   1  -8   -1.50    1.60
  21  -1  -8    9.00    1.90
  21  -1  -8   10.50    1.90
  21  -1  -8    8.30    2.10
 -21   1   8    9.20    1.30
  21   1  -8    9.40    2.10
  21   1  -8   10.90    2.00
  21   1  -8   12.20    2.10
  19  -1  -8    1.60    1.50
  19  -1  -8    2.70    1.30
  19  -1  -8    2.40    1.40
  19   1  -8    4.00    1.60
  19   1  -8    2.50    1.30
 -19   1   8   -0.30    0.70
  19   1  -8    0.30    1.40
  17  -1  -8    0.40    1.20
  17  -1  -8    2.60    1.20
  17  -1  -8   -0.60    1.00
  17   1  -8    1.20    1.00
  17   1  -8   -0.10    1.20
 -17   1   8    0.90    0.60
  17   1  -8    1.70    1.20
  15  -1  -8    1.30    0.90
  15  -1  -8    2.00    1.10
  15  -1  -8   -1.30    1.00
  15   1  -8    0.50    1.10
 -15   1   8    1.00    0.50
  15   1  -8    1.80    0.90
  15   1  -8    0.70    1.10
  13  -1  -8   -0.60    0.90
  13  -1  -8    2.00    1.00
  13  -1  -8   -0.20    0.70
  13   1  -8    0.10    0.30
  13   1  -8    0.20    1.00
  13   1  -8    2.10    1.00
  11  -1  -8    1.70    0.90
  11  -1  -8    2.00    0.90
  11  -1  -8    1.80    0.70
  11   1  -8    0.90    0.90
  11   1  -8    1.30    0.70
  11   1  -8    1.60    1.00
   9  -1  -8   -0.60    0.70
   9  -1  -8    0.00    0.50
   9  -1  -8    0.70    0.80
   9   1  -8    1.70    0.90
   9   1  -8    0.70    0.80
   9   1  -8   -0.50    0.60
   7  -1  -8    4.80    1.00
   7  -1  -8    3.30    0.90
   7   1  -8    3.20    0.90
   7   1  -8    1.90    0.90
   7   1  -8    2.90    0.70
   5  -1  -8    3.90    1.00
   5   1  -8    2.40    0.60
   5   1  -8    2.40    0.90
   5   1  -8    4.30    0.90
   3  -1  -8    3.50    1.00
   3   1  -8    3.90    0.70
   3   1  -8    4.00    1.00
   3   1  -8    4.00    0.80
   1  -1  -8    6.10    1.10
  -1  -1   8    5.10    0.90
   1   1  -8    5.00    1.00
   1   1  -8    8.00    0.80
   1  -1   8    1.90    0.90
   1  -1   8    0.70    0.70
  -1  -1  -8    1.60    0.80
   1   1   8    1.10    0.90
   1   1   8    0.90    0.60
  -1   1  -8    2.00    0.90
   3  -1   8    4.60    1.10
   3  -1   8    3.60    0.90
   3   1   8    2.20    1.00
   3   1   8    3.30    0.60
   3   1   8    2.30    0.80
   5  -1   8    0.40    0.50
   5  -1   8    1.00    0.80
   5  -1   8    1.10    0.90
   5   1   8    1.00    0.80
   5   1   8    0.10    0.60
   5   1   8    0.90    1.00
   7  -1   8    3.30    1.10
   7  -1   8    2.10    0.70
   7  -1   8    0.80    1.10
   7   1   8    3.10    0.90
   7   1   8    2.20    1.10
   7   1   8    1.50    1.10
   9  -1   8    0.70    0.80
   9  -1   8    0.30    1.10
   9  -1   8   -0.90    1.10
   9   1   8    0.90    1.20
   9   1   8   -0.60    0.80
   9   1   8    0.20    1.10
  11  -1   8    0.80    0.90
  11  -1   8   -0.40    1.30
  11  -1   8    0.40    1.20
  11   1   8    1.20    1.10
  11   1   8   -0.30    1.40
  11   1   8   -0.30    1.20
  13  -1   8    3.30    1.70
  13  -1   8    0.20    1.60
  13  -1   8   -0.20    1.10
  13   1   8    1.70    1.50
  13   1   8    0.60    1.20
  13   1   8    3.70    1.80
  15  -1   8    1.00    1.20
  15  -1   8    0.80    1.70
  15  -1   8   -2.80    1.70
  15   1   8    3.60    1.40
  15   1   8   -0.40    1.60
  15   1   8    1.80    1.90
  17  -1   8    0.50    1.90
  17  -1   8   -1.00    1.90
  17   1   8   -0.80    2.00
  17   1   8   -2.60    1.70
  19  -1   8    1.40    2.40
  19  -1   8    0.50    2.00
  19   1   8   -3.70    2.30
  19   1   8    0.00    2.00
  21  -1   8   -1.80    2.50
  21  -1   8   -1.60    2.10
  21   1   8    1.60    2.30
  21   1   8   -7.50    2.20
  23  -1   8    7.40    2.90
  23  -1   8   -1.30    2.80
  23   1   8    7.00    2.70
  23   1   8   -1.30    2.90
  32  -2  -8    8.50    3.30
  32  -2  -8   20.40    3.60
  32   2  -8    6.50    3.00
  32   2  -8   11.10    3.30
  32   2  -8   16.80    3.00
  30  -2  -8   12.80    3.20
  30  -2  -8   13.30    3.00
  30   2  -8   16.10    3.30
  30   2  -8   18.60    3.00
  30   2  -8    8.40    2.90
  28  -2  -8   57.29    5.30
  28  -2  -8   74.99    5.30
  28   2  -8   49.90    5.40
  28   2  -8   71.39    4.90
  28   2  -8   62.89    5.40
  26  -2  -8   59.69    4.60
  26  -2  -8   57.19    4.80
  26   2  -8   52.99    4.60
  26   2  -8   56.49    4.40
  26   2  -8   45.00    4.70
  24  -2  -8  121.99    7.00
  24  -2  -8  124.19    7.40
  24   2  -8  118.69    6.80
  24   2  -8  136.39    7.20
  24   2  -8  118.19    7.50
  22  -2  -8   12.10    2.40
  22  -2  -8   10.30    2.10
  22   2  -8   17.10    2.70
  22   2  -8   17.60    2.40
  22   2  -8   16.30    2.40
 -22   2   8   17.20    1.80
  20  -2  -8  222.08   12.20
  20  -2  -8  241.88   11.60
  20  -2  -8  246.48   11.40
  20   2  -8  236.88   12.40
  20   2  -8  235.88   11.40
 -20   2   8  256.57   10.90
  20   2  -8  264.17   11.70
  18  -2  -8    7.60    1.80
  18  -2  -8    7.30    1.40
  18  -2  -8    6.00    1.50
  18   2  -8    7.50    1.50
 -18   2   8    8.50    1.10
  18   2  -8    8.20    1.70
  18   2  -8    4.50    1.70
  16  -2  -8  260.87   11.60
  16  -2  -8  251.67   11.60
  16  -2  -8  244.48   12.30
  16   2  -8  254.07   12.50
  16   2  -8  259.07   11.80
  16   2  -8  240.38   11.50
 -16   2   8  264.07   11.10
  14  -2  -8    3.00    1.20
  14  -2  -8    4.50    1.00
  14  -2  -8    3.40    1.20
  14   2  -8    0.90    1.10
  14   2  -8    1.10    0.90
 -14   2   8    2.20    0.60
  14   2  -8    0.80    1.10
  12  -2  -8  493.05   22.00
  12  -2  -8  512.05   23.30
  12   2  -8  493.75   23.30
 -12   2   8  508.25   21.30
  12   2  -8  504.45   21.70
  12   2  -8  516.95   22.20
  10  -2  -8   65.59    3.80
  10   2  -8   63.39    3.60
  10   2  -8   63.59    3.80
   8  -2  -8  418.06   18.80
   8   2  -8  407.86   17.80
   8   2  -8  395.46   17.40
   8   2  -8  398.16   18.80
   6  -2  -8    4.40    1.00
   6   2  -8    7.30    1.10
   6   2  -8    6.50    1.10
   6   2  -8    5.20    0.80
   4  -2  -8  108.59    5.60
   4   2  -8  105.49    5.00
   4   2  -8  102.79    5.50
   4   2  -8  110.19    5.00
   2  -2  -8    2.40    0.90
   2   2  -8    2.80    0.70
   2   2  -8    1.80    0.80
   2   2  -8    3.60    0.70
   0  -2   8  342.87   15.50
   0  -2  -8  356.06   16.40
   0   2   8  356.06   16.40
   0   2   8  344.47   14.90
   0   2  -8  350.76   16.30
   0   2  -8  356.06   14.80
   2  -2   8  369.46   16.50
   2  -2   8  390.46   17.40
   2   2   8  376.36   16.00
   2   2   8  356.66   16.40
   2   2   8  376.16   17.50
   4  -2   8    1.70    0.90
   4  -2   8    0.90    0.80
   4   2   8    1.50    0.80
   4   2   8    1.70    0.70
   4   2   8    2.70    1.10
   6  -2   8   62.99    3.70
   6  -2   8   70.79    4.00
   6   2   8   67.89    4.10
   6   2   8   64.99    3.50
   6   2   8   64.09    3.70
   8  -2   8   32.50    2.70
   8  -2   8   38.20    2.20
   8  -2   8   36.70    2.90
   8   2   8   36.40    2.50
   8   2   8   34.90    2.70
   8   2   8   41.70    3.10
  10  -2   8   69.39    4.50
  10  -2   8   70.09    3.70
  10  -2   8   67.09    4.30
  10   2   8   64.79    4.50
  10   2   8   74.69    4.30
  10   2   8   77.59    4.00
  12  -2   8   51.09    3.70
  12  -2   8   42.40    3.60
  12  -2   8   47.70    3.10
  12   2   8   43.30    3.80
  12   2   8   49.50    3.20
  12   2   8   55.49    3.70
  14  -2   8   66.29    3.90
  14  -2   8   65.99    4.60
  14  -2   8   62.49    4.70
  14   2   8   55.69    4.70
  14   2   8   67.39    4.10
  14   2   8   67.79    4.50
  16  -2   8    0.70    1.90
  16  -2   8    1.80    2.10
  16   2   8    4.20    2.00
  16   2   8    1.50    2.00
  18  -2   8   34.10    4.20
  18  -2   8   45.40    4.30
  18   2   8   30.60    4.20
  18   2   8   43.40    4.00
  20  -2   8    6.60    2.70
  20  -2   8    4.30    2.80
  20   2   8    1.20    2.70
  20   2   8    7.90    2.30
  22  -2   8   24.80    3.80
  22  -2   8   19.70    4.20
  22   2   8   24.80    4.40
  22   2   8   36.30    4.10
  24  -2   8   10.20    3.30
  24  -2   8    6.10    3.50
  24   2   8    6.30    3.50
  24   2   8   10.40    3.10
  31  -3  -8   -1.40    2.60
  31  -3  -8    0.80    2.50
  31   3  -8   -5.10    2.10
  31   3  -8    0.80    2.20
  31   3  -8    2.10    2.60
  29  -3  -8   -2.50    2.00
  29  -3  -8   -1.60    2.30
  29   3  -8    1.50    2.30
  29   3  -8    2.30    2.10
  29   3  -8    2.10    2.40
  27  -3  -8    1.80    2.00
  27  -3  -8   -0.70    2.20
  27   3  -8    3.30    2.10
  27   3  -8    0.50    2.20
  27   3  -8    0.40    2.10
  25  -3  -8    2.50    2.00
  25  -3  -8    0.30    1.70
  25   3  -8    0.50    1.90
  25   3  -8    2.40    1.80
  25   3  -8   -0.50    1.90
  23  -3  -8    0.30    1.50
  23  -3  -8    3.70    1.90
  23   3  -8    2.50    1.70
  23   3  -8    1.60    1.80
 -23   3   8   -0.10    1.10
  23   3  -8    1.60    1.70
  21  -3  -8    3.60    1.70
  21  -3  -8    2.30    1.50
 -21   3   8    1.80    1.10
  21   3  -8    0.00    1.60
  21   3  -8    2.80    1.60
  21   3  -8    3.60    1.60
  19  -3  -8    0.00    1.30
  19  -3  -8    0.60    1.10
  19   3  -8    0.30    1.20
  19   3  -8    1.40    1.50
  19   3  -8    1.40    1.30
 -19   3   8   -1.30    0.90
  17  -3  -8    0.40    1.00
  17  -3  -8    0.30    1.20
  17   3  -8    1.50    1.20
 -17   3   8    1.10    0.80
  17   3  -8    2.30    1.40
  17   3  -8    0.20    1.20
  15  -3  -8    0.60    1.20
  15  -3  -8    0.50    0.90
  15   3  -8    3.00    1.30
 -15   3   8    1.70    0.80
  15   3  -8    0.70    1.00
  15   3  -8    1.90    1.20
  13  -3  -8   -0.40    0.90
  13  -3  -8    0.00    0.70
  13   3  -8   -0.30    1.00
  13   3  -8    0.60    0.90
 -13   3   8    1.40    0.60
  13   3  -8   -0.70    1.00
  11  -3  -8    4.20    1.20
  11  -3  -8    5.90    0.90
 -11   3   8    3.80    0.70
  11   3  -8    3.90    1.00
  11   3  -8    4.60    1.20
  11   3  -8    3.00    1.10
   9  -3  -8   -0.90    0.80
  -9   3   8    1.60    0.50
   9   3  -8    2.00    1.00
  -9   3   8    0.10    0.50
   9   3  -8    0.50    0.70
   9   3  -8    1.40    0.90
   7  -3  -8   10.10    1.40
  -7   3   8   11.90    0.90
   7   3  -8   11.90    1.50
   7   3  -8    6.40    0.90
   7   3  -8    8.80    1.30
  -7   3   8   11.00    0.90
   5  -3  -8    2.20    0.90
   5   3  -8    0.60    0.70
   5   3  -8    2.00    0.90
  -5   3   8    1.70    0.50
   3  -3  -8    3.30    1.00
   3   3  -8    2.30    0.90
  -3   3   8    3.70    0.60
   3   3  -8    3.60    0.80
   1  -3  -8    2.40    0.90
   1   3  -8    2.60    0.70
  -1   3   8    2.80    1.00
  -1   3   8    2.50    0.60
   1   3  -8    1.90    0.80
   1   3  -8    2.60    0.70
   1  -3   8    2.50    0.80
   1  -3   8    2.80    0.90
   1   3   8    2.70    1.00
  -1   3  -8    2.40    0.90
   1   3   8    2.80    0.70
  -1   3  -8    2.80    0.60
   3  -3   8    0.40    0.80
   3  -3   8    0.70    0.80
   3   3   8    0.60    0.90
   3   3   8    1.00    0.70
   3   3   8    1.10    0.70
   5  -3   8    0.90    0.90
   5  -3   8    0.60    0.90
   5   3   8    0.80    0.80
   5   3   8    1.00    0.80
   5   3   8    0.50    1.00
   7  -3   8    0.70    1.10
   7  -3   8    1.70    1.10
   7   3   8    1.40    1.10
   7   3   8    2.50    1.00
   7   3   8    1.00    1.00
   9  -3   8    3.90    1.30
   9  -3   8    3.40    0.90
   9  -3   8    3.20    1.30
   9   3   8    4.00    1.50
   9   3   8    4.20    1.20
   9   3   8    4.20    1.30
  11  -3   8   -0.20    1.30
  11  -3   8   -0.60    1.40
  11  -3   8    2.80    1.00
  11   3   8    1.40    1.30
  11   3   8    1.60    1.50
  11   3   8    2.10    1.20
  13  -3   8   -0.70    1.50
  13  -3   8    1.90    1.60
  13  -3   8    3.00    1.20
  13   3   8    1.50    1.30
  13   3   8    1.20    1.70
  13   3   8    0.00    1.30
  15  -3   8   -0.70    1.70
  15  -3   8   -2.50    1.70
  15  -3   8    1.40    1.20
  15   3   8   -0.20    1.80
  15   3   8    1.50    1.60
  17  -3   8   -1.30    1.90
  17  -3   8   -0.70    1.80
  17   3   8    3.60    2.00
  17   3   8    0.80    2.10
  19  -3   8    3.90    2.40
  19  -3   8    0.50    2.40
  19   3   8   -1.70    2.00
  19   3   8   -2.90    2.20
  21  -3   8    1.60    2.40
  21  -3   8   -1.30    2.60
  21   3   8   -1.00    2.60
  21   3   8   -0.50    2.30
  23  -3   8    3.50    3.00
  23  -3   8    5.90    3.00
  23   3   8   -0.50    2.90
  23   3   8    0.50    2.50
  30  -4  -8    1.20    2.50
  30  -4  -8    1.70    2.30
  30   4  -8   -4.80    2.40
  30   4  -8   -0.90    2.30
  30   4  -8   -2.90    2.00
  28  -4  -8   36.90    4.20
  28  -4  -8   37.10    4.00
  28   4  -8   24.20    3.80
  28   4  -8   37.40    3.90
  28   4  -8   49.99    4.70
  26  -4  -8   14.30    2.90
  26  -4  -8   16.60    2.90
  26   4  -8   16.10    2.70
  26   4  -8   15.10    2.90
  26   4  -8   10.30    2.80
  24  -4  -8   13.70    2.50
  24  -4  -8   15.30    2.80
  24   4  -8   18.40    2.70
  24   4  -8   20.80    3.10
  24   4  -8   20.30    2.90
  22  -4  -8  118.89    7.00
  22  -4  -8  114.29    6.70
  22   4  -8  129.59    6.80
  22   4  -8  130.69    7.00
  22   4  -8  113.99    7.30
 -22   4   8  123.79    6.10
  20  -4  -8   58.89    4.30
  20  -4  -8   49.00    3.80
  20   4  -8   61.39    4.20
 -20   4   8   58.99    3.40
  20   4  -8   63.59    4.20
  20   4  -8   58.89    4.40
  18  -4  -8   17.40    2.10
  18  -4  -8   16.30    2.20
  18   4  -8   16.80    2.20
  18   4  -8   14.80    2.30
 -18   4   8   17.10    1.70
  18   4  -8   15.20    2.20
  16  -4  -8  134.39    7.00
  16  -4  -8  121.69    6.40
  16   4  -8  126.59    7.00
  16   4  -8  128.89    6.60
 -16   4   8  133.89    6.10
  16   4  -8  131.29    6.60
  14  -4  -8   26.70    2.50
  14  -4  -8   28.10    2.10
  14   4  -8   29.40    2.40
  14   4  -8   26.80    2.60
  14   4  -8   27.60    2.60
 -14   4   8   27.40    2.00
  12  -4  -8   48.60    2.70
  12  -4  -8   46.50    3.20
  12   4  -8   46.10    3.20
  12   4  -8   46.70    3.00
  12   4  -8   49.70    3.30
 -12   4   8   55.19    2.70
  10  -4  -8   70.89    4.10
 -10   4   8   71.69    3.40
  10   4  -8   71.49    4.10
  10   4  -8   63.79    3.70
  10   4  -8   69.79    3.90
   8  -4  -8   62.59    3.70
  -8   4   8   64.49    3.10
   8   4  -8   61.09    3.60
   8   4  -8   60.99    3.50
   8   4  -8   60.49    3.40
   6  -4  -8  133.59    6.90
   6   4  -8  139.09    6.90
   6   4  -8  136.49    6.50
   6   4  -8  134.89    6.40
  -6   4   8  140.79    6.10
   4  -4  -8  142.59    7.20
   4   4  -8  145.69    7.10
  -4   4   8  144.99    6.40
   4   4  -8  140.79    6.60
   4   4  -8  145.39    6.80
   2  -4  -8   37.00    2.60
  -2   4   8   37.70    2.20
   2   4  -8   36.50    2.30
   2   4  -8   36.50    2.50
   2   4  -8   36.70    2.20
   0  -4  -8    5.80    1.20
   0   4   8    4.60    0.90
   0   4  -8    4.20    0.80
   0   4  -8    3.60    0.90
   0   4  -8    2.50    0.90
   0   4   8    6.30    1.30
   2  -4   8    6.90    1.20
   2  -4   8    6.10    1.10
   2   4   8    7.60    1.10
  -2   4  -8    7.00    0.80
   2   4   8    7.10    1.40
   4  -4   8   83.99    4.70
   4  -4   8   88.69    4.80
   4   4   8   89.29    5.00
   4   4   8   90.89    4.40
   4   4   8   89.89    4.50
   6  -4   8   31.20    2.40
   6  -4   8   29.10    2.50
   6   4   8   32.40    2.80
   6   4   8   32.30    2.30
   6   4   8   31.90    2.40
   8  -4   8   13.60    1.80
   8  -4   8   13.90    1.90
   8   4   8   15.20    1.80
   8   4   8   14.70    2.10
   8   4   8   16.30    1.80
  10  -4   8  234.68   11.10
  10  -4   8  235.28   10.30
  10  -4   8  223.68   11.40
  10   4   8  241.08   10.70
  10   4   8  236.18   10.90
  10   4   8  214.88   11.60
  12  -4   8    7.10    1.90
  12  -4   8   10.40    1.90
  12  -4   8   11.20    1.50
  12   4   8    8.50    2.10
  12   4   8   10.20    1.90
  12   4   8   10.90    1.70
  14  -4   8  132.79    7.90
  14  -4   8  148.89    7.00
  14  -4   8  147.99    7.90
  14   4   8  153.68    7.30
  14   4   8  149.09    7.70
  14   4   8  126.49    8.10
  16  -4   8   17.50    2.90
  16  -4   8   17.30    2.90
  16   4   8   15.30    3.00
  16   4   8   19.50    2.80
  18  -4   8   38.90    4.20
  18  -4   8   30.40    4.00
  18   4   8   45.70    4.10
  18   4   8   31.70    4.30
  20  -4   8    2.30    2.60
  20  -4   8    0.10    2.50
  20   4   8   -0.60    2.50
  20   4   8    1.40    2.20
  22  -4   8    5.00    3.00
  22  -4   8    4.60    3.20
  22   4   8    4.10    3.10
  22   4   8    6.60    2.70
  31  -5  -8    0.50    2.70
  31   5  -8    0.60    2.80
  31   5  -8    4.20    3.00
  31   5  -8    0.50    2.30
  29  -5  -8   -4.70    2.10
  29   5  -8    4.40    2.80
  29   5  -8    1.70    2.30
  29   5  -8   -0.30    2.30
  27  -5  -8    2.60    2.30
  27   5  -8    3.60    2.50
  27   5  -8   -3.70    2.00
  27   5  -8   -0.20    2.00
  25  -5  -8   -1.00    2.00
  25  -5  -8   -2.20    1.80
  25   5  -8    1.00    2.20
  25   5  -8    2.10    2.00
  25   5  -8    1.30    1.90
  23  -5  -8    1.80    1.70
  23  -5  -8    1.80    1.80
  23   5  -8   -1.10    1.80
  23   5  -8    0.70    1.80
  23   5  -8    0.00    1.70
  21  -5  -8    2.80    1.80
  21  -5  -8    0.30    1.50
  21   5  -8   -1.30    1.60
  21   5  -8    1.40    1.60
 -21   5   8    0.80    1.20
  21   5  -8    2.60    1.70
  19  -5  -8    0.80    1.40
  19  -5  -8    3.20    1.40
  19   5  -8    0.90    1.40
  19   5  -8    0.80    1.60
  19   5  -8    1.00    1.40
 -19   5   8    1.50    1.00
  17  -5  -8   -1.50    1.20
  17  -5  -8   -0.40    1.10
 -17   5   8    0.30    0.90
  17   5  -8    0.10    1.40
  17   5  -8    0.70    1.30
  17   5  -8    1.50    1.40
  15  -5  -8    2.30    1.30
 -15   5   8    0.60    0.80
  15   5  -8    0.00    1.20
  15   5  -8    0.80    1.30
  15   5  -8    1.80    1.30
  13  -5  -8    3.90    1.30
 -13   5   8    4.10    1.00
  13   5  -8    3.80    1.20
  13   5  -8    3.20    1.30
  13   5  -8    4.10    1.30
  11  -5  -8    2.00    1.10
  11   5  -8   -0.20    0.90
  11   5  -8    0.70    1.00
  11   5  -8    1.30    1.10
 -11   5   8    0.20    0.70
   9  -5  -8   -0.50    0.80
   9   5  -8   -0.10    0.80
   9   5  -8    0.60    0.90
   9   5  -8   -0.60    0.80
  -9   5   8   -0.40    0.60
   7  -5  -8   -0.10    0.90
   7   5  -8    1.70    0.90
  -7   5   8    1.70    0.70
   7   5  -8    0.80    0.90
   7   5  -8    2.20    0.90
   5  -5  -8   -0.60    0.80
   5   5  -8    1.30    0.80
   5   5  -8    0.10    0.70
  -5   5   8    0.50    0.70
   5   5  -8    0.50    0.80
   3  -5  -8    0.80    0.90
   3   5  -8    1.80    0.80
  -3   5   8    0.60    0.70
   3   5  -8    2.10    0.90
   3   5  -8    1.80    0.80
   1  -5  -8    2.20    1.00
  -1   5   8    0.90    1.00
  -1   5   8   -0.60    0.70
   1   5  -8    0.90    0.70
   1   5  -8    1.90    0.80
   1   5  -8   -0.90    0.70
   1  -5   8   -0.80    0.70
  -1   5  -8    0.60    0.80
  -1   5  -8    0.30    0.80
   1   5   8   -0.60    0.80
  -1   5  -8   -0.90    0.50
   1   5   8    0.70    1.00
   3  -5   8    0.40    0.80
   3  -5   8    0.60    0.90
   3   5   8    0.30    1.00
   3   5   8    1.00    0.90
   5  -5   8    2.20    1.00
   5  -5   8    0.60    1.00
   5   5   8    0.30    1.20
   5   5   8    0.20    1.00
   7  -5   8    0.50    1.00
   7  -5   8    0.50    1.20
   7   5   8    1.90    1.10
   7   5   8    0.70    1.20
   9  -5   8    1.70    1.40
   9  -5   8    2.80    1.30
   9   5   8    4.00    1.40
   9   5   8    1.40    1.40
   9   5   8    2.40    1.20
  11  -5   8    8.30    1.90
  11  -5   8    8.50    1.30
  11  -5   8    7.40    1.70
  11   5   8    7.10    2.00
  11   5   8    4.60    1.50
  11   5   8    8.60    1.70
  13  -5   8    3.50    2.00
  13  -5   8    1.40    1.50
  13  -5   8    0.30    1.10
  13   5   8    0.90    1.80
  13   5   8    0.40    1.40
  13   5   8    2.00    1.60
  15  -5   8    4.00    2.00
  15  -5   8    5.30    1.50
  15  -5   8    4.10    2.00
  15   5   8    5.70    1.90
  15   5   8    1.20    2.00
  17  -5   8   -2.60    2.00
  17  -5   8    1.10    2.10
  17   5   8    4.70    2.00
  17   5   8   -1.20    2.00
  19  -5   8    4.10    2.50
  19   5   8    4.40    2.20
  19   5   8    2.30    2.60
  21  -5   8    0.80    2.70
  21   5   8   -1.50    2.70
  23  -5   8    0.00    2.90
  23   5   8   -5.00    2.60
  30  -6  -8    7.90    3.00
  30   6  -8    4.70    2.90
  30   6  -8    8.30    2.80
  30   6  -8    3.00    2.80
  28  -6  -8   12.80    3.00
  28   6  -8    9.30    3.00
  28   6  -8   15.10    2.90
  28   6  -8    5.00    2.70
  26  -6  -8   11.50    2.60
  26   6  -8    8.30    2.50
  26   6  -8    2.20    2.40
  26   6  -8    7.60    2.60
  24  -6  -8    2.60    2.00
  24   6  -8    5.70    2.20
  24   6  -8    1.90    2.20
  24   6  -8    3.60    2.10
  22  -6  -8    3.40    1.90
  22   6  -8    3.40    2.20
  22   6  -8    5.60    2.10
  22   6  -8    4.70    1.90
  20  -6  -8   40.00    3.70
  20   6  -8   45.00    4.10
  20   6  -8   47.10    3.80
  20   6  -8   45.40    3.80
 -20   6   8   50.59    3.20
  18  -6  -8   42.10    3.40
 -18   6   8   39.60    2.80
  18   6  -8   41.20    3.50
  18   6  -8   47.30    3.60
  18   6  -8   34.60    3.50
  16  -6  -8   42.30    3.10
 -16   6   8   38.70    2.60
  16   6  -8   35.70    3.10
  16   6  -8   34.10    3.20
  16   6  -8   37.20    3.30
  14  -6  -8   49.00    3.50
  14   6  -8   49.40    3.40
 -14   6   8   52.99    3.10
  14   6  -8   50.89    3.60
  14   6  -8   49.00    3.60
  12  -6  -8    7.70    1.40
 -12   6   8    7.60    1.20
  12   6  -8    6.50    1.40
  12   6  -8    6.20    1.50
  12   6  -8    9.50    1.50
  10  -6  -8   61.79    3.80
  10   6  -8   64.19    3.80
  10   6  -8   65.09    3.80
  10   6  -8   64.89    3.80
   8  -6  -8  124.39    6.40
  -8   6   8  121.39    5.80
   8   6  -8  123.09    6.30
   8   6  -8  125.69    6.20
   8   6  -8  117.99    6.00
   6  -6  -8    3.00    1.10
   6   6  -8    2.00    0.90
   6   6  -8    0.70    0.90
   6   6  -8    2.20    0.90
  -6   6   8    2.10    0.80
   4  -6  -8  150.38    7.50
   4   6  -8  139.39    7.20
   4   6  -8  150.78    6.90
   4   6  -8  144.29    7.10
  -4   6   8  155.78    6.90
   2  -6  -8   75.09    4.20
   2   6  -8   69.79    3.70
   2   6  -8   69.19    3.90
   2   6  -8   69.29    3.90
  -2   6   8   66.09    4.10
  -2   6   8   75.79    3.70
   0  -6   8   73.59    4.10
   0   6  -8   79.19    4.20
   0   6  -8   73.09    4.10
   0   6   8   80.59    4.00
   0   6   8   76.89    4.40
   0   6  -8   74.39    3.80
   2  -6   8   72.59    4.10
  -2   6  -8   74.69    3.70
   2   6   8   82.49    4.50
   2   6   8   77.39    4.10
   4  -6   8  127.09    6.40
   4  -6   8  123.39    6.50
   4   6   8  125.99    6.80
   4   6   8  132.79    6.20
   6  -6   8   22.50    2.40
   6  -6   8   21.70    2.00
   6   6   8   19.40    2.30
   6   6   8   23.90    2.10
   8  -6   8   34.90    2.70
   8  -6   8   39.70    3.20
   8   6   8   37.70    2.80
   8   6   8   33.90    3.20
  10  -6   8  130.89    6.70
  10  -6   8  109.09    6.30
  10   6   8  113.19    6.80
  10   6   8  121.99    6.10
  12  -6   8   28.80    3.20
  12  -6   8   31.60    3.10
  12  -6   8   32.60    2.50
  12   6   8   40.70    3.10
  12   6   8   34.30    3.60
  14  -6   8    1.00    2.00
  14  -6   8   -0.30    1.10
  14   6   8    1.40    1.90
  16  -6   8    7.90    2.50
  16   6   8    6.90    2.50
  18  -6   8    1.10    2.40
  18   6   8    1.60    2.50
  20  -6   8   26.40    4.00
  20   6   8   20.80    3.90
  22  -6   8   14.80    3.60
  22   6   8   10.00    3.40
  29  -7  -8   -0.30    2.30
  29   7  -8    3.00    2.80
  29   7  -8    2.30    2.50
  29   7  -8   -1.80    2.30
  27  -7  -8    1.20    2.30
  27   7  -8    3.90    2.70
  27   7  -8   -0.90    2.20
  27   7  -8    1.50    2.40
  25  -7  -8   -0.70    2.00
  25   7  -8    0.60    2.10
  25   7  -8   -1.20    2.20
  25   7  -8    1.80    2.10
  23  -7  -8    1.40    1.80
  23   7  -8   -2.60    1.90
  23   7  -8    5.20    2.20
  23   7  -8    3.50    2.10
  21  -7  -8    1.70    1.70
  21   7  -8    3.80    1.90
  21   7  -8    0.70    1.70
  21   7  -8    0.20    1.90
  19  -7  -8   -1.00    1.50
 -19   7   8    0.60    1.10
  19   7  -8   -1.00    1.50
  19   7  -8   -2.10    1.60
  19   7  -8   -0.30    1.40
  17  -7  -8    1.00    1.40
  17   7  -8   -2.10    1.30
  17   7  -8    0.70    1.50
  17   7  -8    2.00    1.60
 -17   7   8   -1.80    1.00
  15  -7  -8    2.30    1.40
  15   7  -8   -0.30    1.40
  15   7  -8    0.90    1.40
 -15   7   8    1.80    1.00
  15   7  -8    1.50    1.40
  13  -7  -8    0.20    1.20
  13   7  -8    1.30    1.20
 -13   7   8    3.10    1.10
  13   7  -8   -0.50    1.20
  13   7  -8   -0.90    1.10
  11  -7  -8    1.40    1.10
 -11   7   8    1.60    0.90
  11   7  -8    1.80    1.20
  11   7  -8    1.30    1.20
  11   7  -8   -0.80    1.00
   9  -7  -8    1.30    1.10
  -9   7   8    0.90    0.90
   9   7  -8    1.80    1.00
   9   7  -8    1.50    1.10
   9   7  -8   -0.90    1.00
   7  -7  -8    3.00    1.10
   7   7  -8    4.00    1.10
   7   7  -8    3.00    1.10
  -7   7   8    1.80    0.90
   7   7  -8    1.00    1.00
   5  -7  -8    2.20    1.10
   5   7  -8    2.40    1.00
   5   7  -8    2.40    0.90
  -5   7   8    2.10    0.90
   5   7  -8    2.00    1.00
   3  -7  -8   -0.40    0.90
  -3   7   8    1.40    1.10
   3   7  -8   -0.70    0.70
   3   7  -8    1.40    0.90
   3   7  -8    1.50    1.00
  -3   7   8   -0.40    0.80
   1   7  -8    1.90    0.80
  -1   7   8    1.30    0.90
   1   7  -8    0.50    0.90
   1   7  -8    1.00    0.80
  -1   7   8    0.80    1.00
   1  -7   8    1.00    0.80
  -1   7  -8    2.40    1.10
  -1   7  -8    1.20    0.80
   1   7   8   -1.50    1.00
   1   7   8    0.60    1.00
   3  -7   8    5.50    1.40
   3  -7   8    7.70    1.20
   3   7   8    8.60    1.60
   3   7   8    8.80    1.40
   5  -7   8    1.50    1.00
   5  -7   8    2.40    1.30
   5   7   8    1.70    1.30
   5   7   8    1.20    1.20
   7  -7   8    9.10    1.90
   7   7   8    8.00    1.60
   7   7   8    6.60    1.80
   9  -7   8    0.50    1.50
   9   7   8    1.80    1.40
   9   7   8   -0.30    1.50
  11  -7   8   -2.10    1.60
  11   7   8    2.10    1.40
  11   7   8    0.20    1.70
  13  -7   8    1.60    1.90
  13  -7   8    0.90    1.10
  13   7   8    4.60    2.10
  15  -7   8    2.50    2.20
  15   7   8    0.40    2.10
  17  -7   8    1.40    2.20
  17   7   8    0.60    2.30
  19  -7   8    1.30    2.60
  19   7   8   -0.50    2.70
  21  -7   8    0.50    2.70
  21   7   8   -1.10    2.70
  28   8  -8    0.10    2.60
  28   8  -8   -0.60    2.40
  28   8  -8   -1.70    2.50
  26  -8  -8   14.30    2.90
  26   8  -8    9.10    3.10
  26   8  -8   21.20    3.50
  26   8  -8   12.40    2.90
  24  -8  -8    1.70    1.90
  24   8  -8    0.70    2.10
  24   8  -8    0.00    2.10
  24   8  -8   -1.90    2.10
  22  -8  -8   -1.50    1.70
  22   8  -8    2.30    2.10
  22   8  -8    0.00    1.90
  22   8  -8    0.40    2.00
  20  -8  -8   26.50    2.90
  20   8  -8   26.50    3.20
  20   8  -8   25.00    3.10
  20   8  -8   21.70    2.90
  18  -8  -8   30.70    3.00
  18   8  -8   29.40    3.20
  18   8  -8   37.20    3.50
  18   8  -8   43.80    3.70
 -18   8   8   37.10    2.80
  16  -8  -8   14.70    2.10
  16   8  -8   11.60    2.20
  16   8  -8    9.50    2.00
 -16   8   8   13.30    1.70
  16   8  -8   12.30    2.10
  14  -8  -8   35.10    2.90
  14   8  -8   25.40    2.80
  14   8  -8   29.80    2.90
 -14   8   8   27.70    2.40
  14   8  -8   30.20    2.90
  12  -8  -8    2.40    1.20
  12   8  -8    2.90    1.40
  12   8  -8    1.30    1.30
  12   8  -8    1.40    1.20
 -12   8   8    3.00    1.10
  10  -8  -8    1.00    1.10
  10   8  -8    2.00    1.30
  10   8  -8    2.10    1.20
 -10   8   8    2.20    1.00
  10   8  -8    0.70    1.20
   8  -8  -8    5.40    1.40
  -8   8   8    6.70    1.20
   8   8  -8    6.70    1.50
   8   8  -8    9.70    1.60
   8   8  -8    7.10    1.30
   6  -8  -8  129.29    6.50
   6   8  -8  123.49    6.40
   6   8  -8  120.79    6.30
   6   8  -8  122.59    6.20
  -6   8   8  124.99    6.00
   4  -8  -8    8.30    1.50
  -4   8   8    5.20    1.40
   4   8  -8    6.80    1.50
  -4   8   8    5.90    1.20
   4   8  -8    5.00    1.20
   4   8  -8    5.80    1.10
   2   8  -8    1.60    0.90
  -2   8   8    2.00    1.00
  -2   8   8    2.30    1.20
   2   8  -8    1.40    1.00
   2   8  -8    2.00    1.10
   0   8   8   54.59    3.20
   0   8   8   52.39    3.50
   0   8  -8   51.09    3.00
   0   8  -8   51.19    3.00
   0   8  -8   50.09    3.40
   0   8  -8   52.39    3.10
  -2   8  -8    2.10    1.20
  -2   8  -8    0.50    0.80
   2   8   8    0.80    1.20
  -2   8  -8    0.60    1.00
   2   8   8    0.60    1.10
   4  -8   8   53.19    3.70
   4   8   8   50.79    3.00
   4   8   8   53.79    3.40
   4   8   8   49.20    3.70
   6  -8   8   54.09    3.80
   6   8   8   46.70    3.80
   6   8   8   58.59    3.60
   8  -8   8   63.39    4.40
   8   8   8   57.39    4.30
   8   8   8   60.59    3.90
  10  -8   8   18.50    2.70
  10   8   8   14.10    2.50
  10   8   8   15.70    2.20
  12  -8   8    0.70    1.80
  12   8   8    4.00    2.10
  14  -8   8   -1.40    1.80
  14   8   8    0.60    2.00
  16  -8   8    1.40    2.40
  16   8   8    1.60    2.40
  18  -8   8   17.50    3.40
  18   8   8   16.40    3.50
  20  -8   8    2.40    2.70
  20   8   8    5.70    3.10
  29   9  -8   -2.70    2.90
  29   9  -8   -5.60    2.20
  29   9  -8   -1.10    2.70
  27   9  -8    1.40    2.70
  27   9  -8   -2.30    2.40
  27   9  -8    4.40    2.50
  25   9  -8   -1.20    2.30
  25   9  -8    1.40    2.50
  25   9  -8   -0.90    2.20
  23   9  -8    8.20    2.60
  23   9  -8    2.60    2.20
  23   9  -8    5.20    2.40
  21  -9  -8   -0.20    1.70
  21   9  -8    0.80    2.00
  21   9  -8   -1.30    1.90
  21   9  -8    1.20    2.10
  19  -9  -8    3.20    1.70
  19   9  -8   -1.00    1.70
  19   9  -8    2.60    1.90
  19   9  -8    0.70    1.80
  17  -9  -8   -2.70    1.30
  17   9  -8   -1.80    1.70
  17   9  -8   -0.50    1.60
 -17   9   8    0.10    1.10
  17   9  -8   -1.40    1.60
  15  -9  -8    4.50    1.60
  15   9  -8    4.70    1.70
  15   9  -8    3.30    1.80
 -15   9   8    4.50    1.30
  15   9  -8    4.70    1.80
  13  -9  -8    4.40    1.50
  13   9  -8    3.60    1.70
  13   9  -8    4.20    1.50
 -13   9   8    5.30    1.30
  13   9  -8    3.60    1.50
  11  -9  -8    8.00    1.60
  11   9  -8    6.60    1.70
 -11   9   8    7.70    1.40
  11   9  -8    4.70    1.40
  11   9  -8    6.80    1.70
   9  -9  -8    1.70    1.20
   9   9  -8    2.00    1.40
   9   9  -8    1.30    1.30
  -9   9   8    1.50    1.00
   9   9  -8    0.20    1.10
   7  -9  -8   -0.20    1.10
  -7   9   8    4.30    1.20
   7   9  -8    1.90    1.30
   7   9  -8    1.50    1.00
   7   9  -8    1.90    1.20
   5  -9  -8    1.90    1.20
  -5   9   8    2.70    1.30
   5   9  -8    2.50    1.20
   5   9  -8    1.70    0.90
   5   9  -8    1.90    1.20
  -5   9   8    2.40    1.10
  -3   9   8    0.10    1.00
   3   9  -8   -0.10    1.10
   3   9  -8    1.30    1.00
   3   9  -8   -1.10    1.10
  -3   9   8    0.70    1.20
   1   9  -8    1.70    1.20
  -1   9   8    0.50    1.00
   1   9  -8    1.20    1.00
  -1   9   8   -0.40    1.20
   1   9  -8    0.90    1.20
  -1   9  -8    1.50    1.30
   1   9   8    3.80    1.20
  -1   9  -8    2.80    1.10
  -1   9  -8    2.00    1.10
   1   9   8    1.80    1.30
   3   9   8    0.80    1.20
   3   9   8    0.00    1.20
   5  -9   8    3.10    1.60
   5   9   8    2.10    1.50
   5   9   8    1.00    1.30
   7  -9   8   -1.40    1.40
   7   9   8    0.50    1.40
   7   9   8   -0.10    1.50
   9  -9   8   -0.90    1.70
   9   9   8   -1.10    1.60
   9   9   8    2.80    1.60
  11  -9   8   -0.40    1.90
  11   9   8   -2.10    1.50
  11   9   8    1.10    1.90
  13  -9   8    3.50    2.20
  13   9   8    2.00    2.10
  15  -9   8   -2.70    2.00
  15   9   8    0.00    2.30
  17  -9   8    3.50    2.60
  17   9   8    4.30    2.80
  19  -9   8    1.20    2.70
  19   9   8    0.50    2.80
  21  -9   8    7.40    3.20
  21   9   8   -3.10    2.90
  28  10  -8    3.60    2.90
  28  10  -8    6.80    2.80
  28  10  -8    5.90    3.10
  26  10  -8    3.80    2.60
  26  10  -8   -3.00    2.40
  26  10  -8    2.40    2.70
  24  10  -8   20.90    3.50
  24  10  -8   13.00    3.20
  24  10  -8   16.30    3.30
  22  10  -8   -0.70    2.10
  22  10  -8    2.20    2.30
  22  10  -8    0.60    2.10
  20  10  -8   12.30    2.70
  20  10  -8   14.60    2.80
  20  10  -8   14.60    2.80
  18  10  -8    8.60    2.40
  18  10  -8   15.20    2.60
  18  10  -8   14.80    2.60
  16 -10  -8    5.10    1.80
  16  10  -8    2.60    1.80
  16  10  -8    5.30    1.90
  16  10  -8    8.60    2.20
  14 -10  -8   29.30    2.80
  14  10  -8   35.30    3.20
 -14  10   8   35.10    2.70
  14  10  -8   33.60    3.30
  14  10  -8   26.60    3.10
  12 -10  -8   18.30    2.30
  12  10  -8   22.40    2.60
  12  10  -8   23.50    2.40
 -12  10   8   20.50    2.10
  12  10  -8   19.00    2.50
  10 -10  -8   47.80    3.50
  10  10  -8   53.29    3.50
  10  10  -8   54.69    3.90
  10  10  -8   48.20    3.70
 -10  10   8   48.40    3.20
   8 -10  -8    1.70    1.30
  -8  10   8    1.20    1.10
   8  10  -8    2.70    1.40
   8  10  -8    2.30    1.50
   6 -10  -8   26.20    2.50
  -6  10   8   25.90    2.30
   6  10  -8   28.60    2.70
   6  10  -8   25.80    2.70
   4  10  -8   21.40    2.20
   4  10  -8   20.60    2.10
  -4  10   8   19.10    2.00
   4  10  -8   20.60    2.40
  -4  10   8   19.30    2.20
   2  10  -8   11.50    1.80
  -2  10   8   16.80    1.90
  -2  10   8   16.30    2.00
   2  10  -8   17.70    2.20
   2  10  -8   12.90    1.80
   0  10  -8   32.00    2.70
   0  10   8   35.60    2.80
   0  10  -8   37.40    2.70
   0  10  -8   38.30    3.20
   0  10   8   30.80    2.90
   2  10   8  117.39    6.80
  -2  10  -8  120.69    6.20
  -2  10  -8  135.09    6.10
  -2  10  -8  121.29    6.70
   2  10   8  132.49    6.40
   4 -10   8   14.30    2.30
   4  10   8   13.50    2.20
   4  10   8   16.20    2.00
   4  10   8   16.00    1.90
   6 -10   8   37.90    3.60
   6  10   8   40.30    3.50
   6  10   8   45.80    3.30
   8 -10   8   52.29    4.20
   8  10   8   44.50    3.40
   8  10   8   40.20    3.90
  10 -10   8   -1.70    1.80
  10  10   8    2.30    1.60
  10  10   8    2.10    2.00
  12 -10   8    1.90    2.00
  12  10   8    2.30    2.20
  14 -10   8   32.80    3.80
  14  10   8   25.00    3.70
  16 -10   8    6.10    2.60
  16  10   8    0.20    2.50
  18 -10   8    7.30    3.00
  18  10   8    4.20    2.90
  20 -10   8   -0.10    2.90
  20  10   8   -1.50    2.90
  27  11  -8    1.60    2.80
  27  11  -8    3.10    3.00
  27  11  -8   -0.60    2.90
  25  11  -8    0.60    2.50
  25  11  -8    1.20    2.70
  25  11  -8    0.10    2.60
  23  11  -8    0.00    2.60
  23  11  -8    1.90    2.40
  23  11  -8    2.30    2.40
  21  11  -8   -1.10    2.20
  21  11  -8    5.90    2.60
  21  11  -8    2.50    2.20
  19  11  -8    4.00    2.10
  19  11  -8   -1.20    2.00
  19  11  -8    6.00    2.40
  17  11  -8    2.50    1.80
  17  11  -8   -1.60    1.90
  17  11  -8    4.30    2.00
  15  11  -8    0.00    1.80
  15  11  -8    1.50    1.90
  13  11  -8    0.70    1.70
  13  11  -8   -0.20    1.70
 -13  11   8    0.00    1.20
  11  11  -8    1.40    1.60
 -11  11   8    0.80    1.20
  11  11  -8    2.10    1.70
   9 -11  -8    2.00    1.30
   9  11  -8    2.50    1.60
  -9  11   8   -1.10    1.10
   9  11  -8    1.60    1.60
   7 -11  -8    2.70    1.40
   7  11  -8    2.60    1.60
  -7  11   8    3.20    1.50
   7  11  -8    4.40    1.60
  -7  11   8    3.80    1.30
  -5  11   8    1.50    1.20
   5  11  -8    0.30    1.40
   5  11  -8    0.90    1.30
  -5  11   8    3.30    1.40
   5  11  -8    2.40    1.50
  -3  11   8    7.10    1.60
   3  11  -8    7.10    1.90
   3  11  -8    5.90    1.70
  -3  11   8    9.00    1.70
   3  11  -8   10.10    1.80
  -1  11   8    2.10    1.30
   1  11  -8    2.00    1.60
   1  11  -8    0.50    1.40
   1  11  -8    0.40    1.20
  -1  11   8    2.30    1.30
   1  11   8    6.40    1.70
  -1  11  -8   11.00    2.00
  -1  11  -8    6.70    1.50
   1  11   8    3.80    1.50
  -1  11  -8    4.70    1.50
   3  11   8    0.50    1.30
  -3  11  -8    1.20    1.60
   3  11   8    0.70    1.40
   3  11   8    0.00    1.40
   5 -11   8    4.20    1.80
   5  11   8    5.40    1.70
   5  11   8    7.30    1.70
   5  11   8    4.80    1.80
   7 -11   8    3.50    2.00
   7  11   8    2.30    1.80
   7  11   8   -0.50    1.40
   9 -11   8    6.20    2.30
   9  11   8    3.30    2.00
   9  11   8    7.10    1.70
  11 -11   8    3.00    2.10
  11  11   8    0.70    2.00
  13 -11   8    2.70    2.30
  13  11   8    4.40    2.40
  15 -11   8    2.20    2.40
  15  11   8   -0.20    2.30
  17 -11   8   -1.90    2.50
  17  11   8    0.80    2.60
  19 -11   8   -1.50    2.90
  19  11   8   -0.80    2.80
  26  12  -8    5.60    3.20
  26  12  -8    3.20    2.90
  26  12  -8    5.80    3.00
  24  12  -8   34.00    4.40
  24  12  -8   43.60    4.70
  24  12  -8   57.99    5.50
  22  12  -8    9.20    3.00
  22  12  -8    3.80    2.60
  20  12  -8   81.59    6.00
  20  12  -8   85.79    6.20
  18  12  -8   -1.90    1.90
  18  12  -8   -1.80    2.00
  16  12  -8  109.29    6.70
  16  12  -8  103.69    6.50
  14  12  -8   14.40    2.60
  14  12  -8   15.80    2.70
 -12  12   8   64.09    4.00
  12  12  -8   62.29    4.70
  12  12  -8   62.49    4.60
 -10  12   8    5.70    1.50
  10  12  -8    6.40    2.00
  10  12  -8    8.20    2.00
  -8  12   8  157.88    7.80
   8  12  -8  152.78    8.20
   8  12  -8  175.48    8.60
   6  12  -8    0.20    1.60
  -6  12   8    1.80    1.30
   6  12  -8   -1.30    1.60
   6  12  -8    2.20    1.50
   4  12  -8   92.09    5.30
   4  12  -8   94.39    5.30
   4  12  -8   90.29    5.70
  -4  12   8   94.19    5.10
  -4  12   8   92.89    5.30
   2  12  -8   33.80    3.00
   2  12  -8   23.80    2.70
  -2  12   8   26.60    2.60
   2  12  -8   26.60    3.00
  -2  12   8   25.20    2.40
   0  12  -8    1.30    1.50
   0  12  -8    3.80    1.80
   0  12  -8    2.20    1.40
   0  12   8    2.00    1.40
   0  12   8    1.80    1.50
  -2  12  -8    5.50    2.10
   2  12   8    9.20    1.70
  -2  12  -8    5.50    1.70
   2  12   8   10.20    1.90
  -2  12  -8   10.60    1.90
   2  12   8    7.70    1.80
   4 -12   8   14.90    2.50
   4  12   8   12.40    2.10
   4  12   8   14.90    2.00
   4  12   8   12.30    2.20
   6 -12   8   68.79    5.00
   6  12   8   69.39    4.30
   6  12   8   59.39    4.60
   8 -12   8    1.70    2.00
   8  12   8    3.10    1.70
   8  12   8    3.40    2.00
  10 -12   8   52.39    4.70
  10  12   8   40.50    4.30
  12 -12   8    0.20    2.20
  12  12   8    0.40    2.20
  14 -12   8   10.30    3.10
  14  12   8    8.60    3.00
  16 -12   8   11.60    3.10
  16  12   8    5.80    3.00
  18 -12   8   13.60    3.50
  18  12   8    7.40    3.40
  23  13  -8    0.70    2.70
  23  13  -8    2.80    2.90
  21  13  -8    0.80    2.60
  21  13  -8    2.40    2.50
  19  13  -8    9.20    2.70
  19  13  -8    5.30    2.70
  17  13  -8    0.30    2.20
  17  13  -8   -0.20    2.10
  15  13  -8    5.50    2.50
  15  13  -8   10.60    2.60
  13  13  -8    2.20    2.00
  13  13  -8    7.50    2.30
  11  13  -8   14.40    2.50
  11  13  -8   14.20    2.70
  -9  13   8    0.30    1.20
   9  13  -8    2.90    1.90
   9  13  -8    0.60    1.70
   7  13  -8   15.20    2.50
  -7  13   8   11.60    1.80
   7  13  -8   12.90    2.40
   7  13  -8   11.80    2.50
   5  13  -8    1.20    1.90
   5  13  -8   -0.50    1.50
  -5  13   8   -1.00    1.20
   5  13  -8   -0.30    1.70
   3  13  -8   21.10    2.70
   3  13  -8   18.70    2.70
  -3  13   8   21.10    2.20
   3  13  -8   14.80    2.30
  -1  13   8    2.40    1.40
   1  13  -8    1.60    1.50
   1  13  -8    4.90    1.90
   1  13  -8    1.20    1.70
   1  13   8    7.30    1.90
   1  13   8    3.80    1.60
  -1  13  -8    7.60    2.00
  -1  13  -8   12.20    2.40
  -1  13  -8    6.70    1.90
   3  13   8    2.90    1.70
   3  13   8    3.20    1.50
   3  13   8    5.00    1.80
  -3  13  -8    7.20    2.20
   5 -13   8    8.30    2.50
   5  13   8    4.50    1.90
   5  13   8    4.60    2.00
   5  13   8    8.00    1.80
   7 -13   8    1.50    2.10
   7  13   8    0.20    1.80
   7  13   8    1.50    1.50
   7  13   8    1.10    2.00
   9 -13   8    9.20    2.70
   9  13   8    2.30    2.10
  11 -13   8   -0.70    2.20
  11  13   8   -3.00    2.10
  13 -13   8   -0.20    2.60
  13  13   8    1.50    2.50
  15 -13   8   -3.30    2.40
  15  13   8   -1.30    2.60
  22  14  -8    5.20    2.90
  22  14  -8    2.90    2.90
  20  14  -8    4.70    2.80
  20  14  -8    3.60    2.70
  18  14  -8    7.60    2.70
  18  14  -8   10.50    2.90
  16  14  -8   10.80    2.90
  16  14  -8   14.60    3.10
  14  14  -8   19.70    3.20
  14  14  -8   20.50    3.20
  12  14  -8    7.80    2.50
  12  14  -8   12.00    2.70
  10  14  -8   16.80    2.80
  10  14  -8   13.60    2.70
   8  14  -8   62.29    5.00
   8  14  -8   64.39    4.80
   6  14  -8   93.19    6.10
   6  14  -8   92.89    5.70
  -6  14   8   91.59    5.10
   6  14  -8   89.49    5.80
   4  14  -8   39.20    3.80
  -4  14   8   50.79    3.50
   4  14  -8   46.30    4.30
   4  14  -8   53.79    4.10
   2  14  -8  221.98   10.00
  -2  14   8  190.08    9.70
   2  14  -8  203.48   10.10
   2  14  -8  210.88   10.60
   0  14  -8    2.00    1.80
   0  14  -8    3.40    1.90
   0  14   8    1.50    1.50
   0  14  -8    2.10    2.10
  -2  14  -8    5.90    2.00
   2  14   8    7.30    1.70
   2  14   8    5.80    2.10
  -2  14  -8    3.40    2.20
   4 -14   8  113.49    7.00
   4  14   8  104.39    6.00
   6 -14   8   58.89    5.00
   6  14   8   50.29    4.10
   6  14   8   52.69    4.10
   8 -14   8   19.40    3.10
   8  14   8   13.70    2.80
  10 -14   8   14.00    3.00
  10  14   8   21.50    3.40
  12 -14   8    6.10    2.80
  12  14   8    0.50    2.50
  14 -14   8    4.10    2.80
  14  14   8   -0.20    2.60
  21  15  -8    4.70    3.00
  21  15  -8   -4.50    2.60
  19  15  -8   -3.10    2.50
  19  15  -8    8.20    3.10
  17  15  -8    4.10    2.70
  17  15  -8   -2.50    2.40
  15  15  -8    7.40    2.80
  15  15  -8    6.00    2.50
  13  15  -8    4.60    2.60
  13  15  -8    2.70    2.30
  11  15  -8    8.30    2.80
  11  15  -8   10.50    2.80
   9  15  -8    2.60    2.10
   9  15  -8    1.20    2.20
   7  15  -8    7.50    2.60
   7  15  -8    5.50    2.40
   7  15  -8    4.60    2.10
   5  15  -8   -1.90    1.70
   5  15  -8    1.10    2.10
   5  15  -8    2.60    2.10
   3  15  -8    2.20    2.00
   3  15  -8    2.70    1.80
  -3  15   8   -0.60    1.40
   3  15  -8    1.20    2.00
   1  15  -8    2.70    2.20
   1  15  -8   -2.00    1.70
   1  15  -8    1.10    1.80
  -1  15  -8    4.90    2.00
   1  15   8    3.30    2.10
  -1  15  -8    2.90    2.20
  -1  15  -8    5.80    2.10
   3  15   8    0.20    2.00
  -3  15  -8    1.70    2.20
   5 -15   8    5.40    2.50
   5  15   8    4.40    2.00
   5  15   8    7.60    2.40
   7 -15   8    4.00    2.40
   7  15   8    2.80    2.10
   9 -15   8    2.10    2.40
  11 -15   8    0.20    2.60
  13 -15   8    4.30    3.00
  18  16  -8    4.30    2.90
  18  16  -8    0.60    2.80
  16  16  -8   28.30    3.90
  16  16  -8   21.10    3.60
  14  16  -8    2.70    2.50
  14  16  -8    0.20    2.40
  12  16  -8   14.70    3.20
  12  16  -8   13.30    3.10
  10  16  -8    3.20    2.40
  10  16  -8    4.70    2.70
   8  16  -8    9.00    2.60
   8  16  -8   11.00    2.80
   8  16  -8   10.40    2.80
   6  16  -8   11.10    2.60
   6  16  -8   11.60    2.90
   6  16  -8   12.00    2.80
   4  16  -8   25.50    3.60
   4  16  -8   18.80    3.10
   4  16  -8   24.40    3.30
   2  16  -8   16.20    3.00
   2  16  -8   13.20    2.70
   2  16  -8   18.40    2.90
   0  16  -8   20.60    3.30
   0  16  -8   28.30    3.30
   0  16  -8   18.50    2.90
   0  16   8   16.60    2.80
  -2  16  -8    1.80    2.40
  -2  16  -8   -2.40    1.90
   2  16   8    3.30    2.20
   4 -16   8   14.50    3.20
   4  16   8   18.60    2.90
   6 -16   8    6.90    2.70
   6  16   8   11.00    2.60
   6  16   8    8.60    2.50
   8 -16   8    2.40    2.50
  10 -16   8    5.40    3.00
  15  17  -8    0.80    2.60
  15  17  -8    2.50    2.80
  13  17  -8    2.40    2.70
  13  17  -8    2.30    2.60
  11  17  -8    4.00    2.80
  11  17  -8    1.10    2.40
   9  17  -8    2.80    2.40
   9  17  -8    4.70    2.70
   7  17  -8   11.30    2.90
   7  17  -8    4.60    2.40
   7  17  -8    7.50    2.70
   5  17  -8    4.70    2.50
   5  17  -8    3.20    2.20
   5  17  -8    3.10    2.50
   3  17  -8    7.40    2.70
   3  17  -8    4.70    2.20
   3  17  -8    4.90    2.60
   1  17  -8   -0.20    2.20
   1  17  -8    1.70    2.20
   1  17  -8    2.10    2.50
  -1  17   8    1.60    2.30
  -1  17  -8    3.00    2.60
   1  17   8   10.30    2.70
  -1  17  -8    9.20    2.60
   3  17   8   -0.70    2.20
   5 -17   8    4.80    2.70
   5  17   8    2.00    2.40
   5  17   8    3.50    2.40
   7 -17   8    1.10    2.80
   7  17   8    3.00    2.40
   9 -17   8    4.40    2.70
  12  18  -8    0.10    2.70
  12  18  -8    3.50    2.90
  10  18  -8    0.20    2.60
  10  18  -8   -4.30    2.40
   8  18  -8   11.90    3.20
   8  18  -8   10.30    3.00
   8  18  -8    6.30    2.90
   6  18  -8    2.60    2.50
   6  18  -8    2.00    2.80
   6  18  -8    4.90    2.70
   4  18  -8    5.10    2.70
   4  18  -8    4.60    2.60
   4  18  -8    0.80    2.30
   2  18  -8   -1.30    2.30
   2  18  -8    0.10    2.20
  -2  18   8   -2.30    2.20
   2  18  -8   -0.10    2.40
   0  18  -8   -0.70    2.40
   0  18  -8    1.10    2.40
   0  18   8    2.90    2.40
   0  18  -8   -6.00    1.90
  -2  18  -8    5.70    2.70
   2  18   8   11.50    2.80
   4 -18   8   -0.40    2.60
   4  18   8    2.80    2.60
   4  18   8    0.80    2.50
   5  19  -8   -2.80    2.40
   5  19  -8   -2.80    2.30
   5  19  -8   -0.40    2.60
   3  19  -8    5.00    2.60
  -3  19   8    1.90    2.60
   3  19  -8    2.50    2.80
   3  19  -8    3.90    2.80
  32   0  -9   -0.80    2.60
  32   0  -9    1.60    2.70
  30   0  -9   -0.90    2.40
  30   0  -9   -1.50    2.20
  30   0  -9   -3.50    2.00
  28   0  -9    0.30    2.20
  28   0  -9   -2.70    1.80
  28   0  -9   -1.60    2.00
  26   0  -9   -2.00    1.80
  26   0  -9   -0.80    1.90
  26   0  -9    3.90    1.90
  24   0  -9   -1.40    1.70
 -24   0   9    0.10    1.00
  24   0  -9    1.60    1.60
  24   0  -9   -1.10    1.60
  22   0  -9    0.10    1.60
  22   0  -9    0.10    1.50
  22   0  -9   -0.10    1.50
  20   0  -9    0.30    1.20
  20   0  -9    0.70    1.50
  20   0  -9    1.30    1.50
  18   0  -9    2.00    1.30
  18   0  -9    0.10    1.10
  18   0  -9    0.60    1.30
  16   0  -9   -0.20    0.50
  16   0  -9    0.20    1.20
  16   0  -9    1.10    1.20
  14   0  -9   -0.80    0.70
  14   0  -9   -0.40    0.90
  14   0  -9    0.00    1.00
  12   0  -9   -0.60    0.80
  12   0  -9   -0.30    0.90
  12   0  -9    1.10    0.70
  10   0  -9    0.40    0.90
  10   0  -9    0.50    0.80
  10   0  -9    0.30    0.60
   8   0  -9    0.10    0.50
   8   0  -9    1.30    0.80
   8   0  -9    0.20    0.80
   6   0  -9    0.30    0.60
   6   0  -9    0.60    0.80
   4   0  -9    1.70    0.70
   4   0  -9    0.30    0.80
   4   0  -9    0.50    0.50
   2   0  -9    0.90    0.80
  -2   0   9   -0.20    0.50
   0   0   9    1.40    0.90
   0   0   9   -0.70    0.50
   0   0  -9   -0.40    0.80
   2   0   9   -0.10    0.60
   2   0   9    0.00    0.90
   4   0   9   -0.70    0.70
   4   0   9   -1.30    0.90
   4   0   9    0.10    0.50
   6   0   9    0.10    1.00
   6   0   9   -0.80    1.00
   6   0   9    0.00    0.70
   8   0   9   -0.20    0.80
   8   0   9    0.90    1.10
   8   0   9   -0.60    1.10
  10   0   9    0.30    1.30
  10   0   9   -1.60    0.90
  10   0   9    1.20    1.30
  12   0   9    1.90    1.60
  12   0   9   -1.80    1.00
  12   0   9   -0.40    1.40
  14   0   9    0.70    1.70
  14   0   9    0.70    1.30
  14   0   9    3.70    2.00
  16   0   9    1.40    2.10
  16   0   9    3.40    2.00
  18   0   9   -0.90    2.30
  18   0   9   -1.30    2.00
  20   0   9    1.00    2.20
  20   0   9   -2.30    2.50
  22   0   9   -2.10    2.90
  22   0   9   -0.70    2.30
  31  -1  -9    0.00    2.40
  31  -1  -9   -0.10    2.50
  31   1  -9    0.70    2.60
  31   1  -9    2.40    2.40
  31   1  -9    2.60    2.70
  29  -1  -9   18.50    3.40
  29  -1  -9   21.00    3.40
  29   1  -9   21.20    3.50
  29   1  -9   27.90    3.70
  29   1  -9   32.60    3.50
  27  -1  -9    1.60    2.20
  27  -1  -9   -0.60    1.90
  27  -1  -9    0.40    1.90
  27   1  -9   -2.30    1.80
  27   1  -9    0.40    1.90
  27   1  -9    1.20    2.10
  25  -1  -9   56.69    4.40
  25  -1  -9   55.09    4.70
  25  -1  -9   50.59    4.30
  25   1  -9   59.09    4.40
  25   1  -9   58.99    4.90
  25   1  -9   56.59    4.50
  23  -1  -9    3.60    1.90
  23  -1  -9    1.20    1.60
  23  -1  -9    3.80    1.70
  23   1  -9    1.90    1.80
  23   1  -9    4.90    1.80
 -23   1   9    3.10    1.10
  23   1  -9    6.60    2.00
  21  -1  -9  179.18    9.80
  21  -1  -9  188.68    9.20
  21  -1  -9  183.88    9.20
  21   1  -9  191.78    9.20
 -21   1   9  198.68    8.50
  21   1  -9  185.48    9.30
  21   1  -9  173.18    9.80
  19  -1  -9    0.70    1.40
  19  -1  -9   -0.10    1.30
  19  -1  -9   -0.50    1.10
  19   1  -9    1.90    1.40
  19   1  -9   -0.50    1.20
  19   1  -9    0.30    1.50
  17  -1  -9  167.68    8.90
  17  -1  -9  164.58    8.20
  17  -1  -9  176.58    8.30
  17   1  -9  178.38    8.30
  17   1  -9  169.48    8.30
  17   1  -9  172.28    8.90
  15  -1  -9    4.10    1.00
  15  -1  -9    0.40    1.10
  15  -1  -9    2.40    1.20
  15   1  -9    2.90    1.20
  15   1  -9    1.60    1.10
  15   1  -9    0.30    0.40
  13  -1  -9  157.48    7.90
  13  -1  -9  151.68    7.30
  13  -1  -9  154.48    7.10
  13   1  -9  154.88    7.20
  13   1  -9  152.88    7.90
  13   1  -9  149.09    7.30
  11  -1  -9    0.30    0.80
  11  -1  -9    0.90    0.70
  11  -1  -9    0.10    0.90
  11   1  -9    0.80    0.90
  11   1  -9    0.30    0.70
  11   1  -9    1.70    1.00
   9  -1  -9   91.09    4.70
   9  -1  -9   89.99    5.10
   9   1  -9   93.79    5.10
   9   1  -9   94.99    4.70
   9   1  -9   96.59    4.50
   7  -1  -9    2.90    1.00
   7   1  -9    1.60    0.90
   7   1  -9    2.90    0.90
   7   1  -9    2.20    0.60
   5  -1  -9   35.20    2.60
   5   1  -9   36.40    2.60
   5   1  -9   36.80    2.20
   5   1  -9   38.30    2.10
   3  -1  -9    0.00    0.80
   3   1  -9    1.10    0.60
   3   1  -9    2.00    0.90
   3   1  -9    0.20    0.60
  -1  -1   9  116.49    5.40
   1  -1  -9  115.09    6.00
   1   1  -9  113.49    5.10
   1   1  -9  110.19    5.90
   1  -1   9    4.70    0.90
   1  -1   9    4.50    1.20
   1   1   9    3.30    1.10
  -1   1  -9    5.90    1.20
   1   1   9    5.10    0.80
   3  -1   9   91.99    4.70
   3  -1   9   91.79    5.10
   3   1   9   98.49    4.30
   3   1   9   96.09    5.20
   3   1   9   89.19    4.60
   5  -1   9    6.30    1.20
   5  -1   9    4.80    1.30
   5  -1   9    5.10    0.70
   5   1   9    5.80    1.50
   5   1   9    5.80    0.90
   5   1   9    5.50    1.20
   7  -1   9   46.60    3.30
   7  -1   9   45.20    2.60
   7  -1   9   48.50    3.20
   7   1   9   45.30    2.80
   7   1   9   45.70    3.10
   7   1   9   46.90    3.40
   9  -1   9   19.20    1.70
   9  -1   9   15.00    2.10
   9  -1   9   20.80    2.40
   9   1   9   16.90    2.30
   9   1   9   17.90    2.10
   9   1   9   16.40    1.80
  11  -1   9   80.69    5.00
  11  -1   9   86.99    4.40
  11  -1   9   75.49    5.10
  11   1   9   81.59    4.90
  11   1   9   75.39    5.10
  11   1   9   82.39    4.50
  13  -1   9   14.00    2.40
  13  -1   9   13.70    2.50
  13  -1   9   11.20    1.70
  13   1   9    7.70    2.00
  13   1   9   14.00    2.50
  13   1   9   14.10    1.90
  15  -1   9   70.89    5.30
  15  -1   9   85.79    5.40
  15   1   9   79.29    5.10
  15   1   9   65.09    5.30
  17  -1   9   15.00    3.10
  17  -1   9   17.20    3.00
  17   1   9   19.80    3.30
  17   1   9   20.80    2.90
  19  -1   9   37.70    4.70
  19  -1   9   50.89    4.60
  19   1   9   43.70    5.00
  19   1   9   50.49    4.60
  21  -1   9   12.40    3.70
  21  -1   9   15.80    3.30
  21   1   9    7.70    3.50
  21   1   9    9.10    2.90
  23  -1   9   21.90    4.50
  23  -1   9   28.10    4.00
  23   1   9   18.50    4.20
  23   1   9   27.20    3.90
  30  -2  -9    4.60    2.80
  30  -2  -9    7.50    2.70
  30   2  -9    5.40    2.60
  30   2  -9    9.60    2.50
  30   2  -9    1.60    2.50
  28  -2  -9    6.90    2.60
  28  -2  -9    8.60    2.50
  28   2  -9    4.10    2.40
  28   2  -9    4.40    2.20
  28   2  -9    7.30    2.80
  26  -2  -9   12.70    2.70
  26  -2  -9    7.00    2.30
  26   2  -9    4.90    2.40
  26   2  -9    8.10    2.40
  26   2  -9   13.50    2.50
  24  -2  -9   14.20    2.60
  24  -2  -9   18.60    2.60
 -24   2   9   18.50    2.00
  24   2  -9   23.70    2.90
  24   2  -9   17.10    2.60
  24   2  -9   13.90    2.70
  22  -2  -9   14.40    2.50
  22  -2  -9   16.70    2.40
 -22   2   9   18.70    1.80
  22   2  -9   18.50    2.50
  22   2  -9   14.70    2.60
  22   2  -9    7.50    2.00
  20  -2  -9   44.20    3.80
  20  -2  -9   43.60    3.30
  20   2  -9   49.60    4.00
 -20   2   9   54.69    2.90
  20   2  -9   47.90    3.70
  20   2  -9   48.30    3.60
  18  -2  -9   25.70    2.70
  18  -2  -9   31.50    2.90
  18  -2  -9   28.90    2.50
  18   2  -9   30.30    2.90
  18   2  -9   27.80    2.80
 -18   2   9   30.00    2.00
  18   2  -9   29.50    2.70
  16  -2  -9   31.60    2.70
  16  -2  -9   31.00    2.40
  16  -2  -9   30.30    2.90
 -16   2   9   34.70    2.00
  16   2  -9   30.60    2.80
  16   2  -9   34.50    2.90
  16   2  -9   33.60    2.60
  14  -2  -9    4.30    1.30
  14  -2  -9    8.00    1.10
  14   2  -9    3.30    1.30
  14   2  -9    6.00    1.20
  14   2  -9    3.20    1.20
  12  -2  -9   39.30    2.30
  12  -2  -9   40.30    2.90
  12   2  -9   40.20    2.90
  12   2  -9   39.20    2.80
  10  -2  -9   23.80    2.20
  10   2  -9   16.40    1.60
  10   2  -9   17.40    2.00
  10   2  -9   19.40    1.90
   8  -2  -9    1.00    0.90
   8   2  -9    0.60    0.70
   8   2  -9    0.40    0.80
   8   2  -9    0.40    0.90
   6  -2  -9   15.00    1.70
   6   2  -9   12.20    1.40
   6   2  -9   12.80    1.20
   6   2  -9   13.40    1.60
   4  -2  -9   -0.20    0.80
   4   2  -9    0.20    0.80
   4   2  -9    1.30    0.70
   4   2  -9    1.90    0.70
   2  -2  -9    0.40    0.80
   2   2  -9    1.80    0.90
   2   2  -9    4.10    0.80
   2   2  -9    2.60    0.70
   0  -2   9   51.49    2.80
   0  -2  -9   48.50    3.20
   0  -2   9   51.19    3.20
   0   2  -9   50.39    2.50
   0   2   9   49.80    2.40
   0   2   9   51.49    3.30
   0   2  -9   46.80    3.10
   2  -2   9    8.70    1.30
   2  -2   9    8.40    1.40
   2   2   9   13.30    1.30
   2   2   9    8.70    1.00
   2   2   9   11.00    1.60
   4  -2   9    6.40    1.20
   4  -2   9    6.30    1.30
   4   2   9    5.60    1.00
   4   2   9    3.20    1.00
   4   2   9    3.60    1.20
   6  -2   9    1.00    1.00
   6  -2   9    0.60    1.00
   6   2   9    2.60    1.00
   6   2   9   -1.00    1.00
   6   2   9    0.40    0.90
   8  -2   9    0.70    1.20
   8  -2   9    2.10    1.30
   8  -2   9    1.30    0.80
   8   2   9    4.50    1.30
   8   2   9    0.60    1.00
   8   2   9    2.30    1.40
  10  -2   9   18.60    2.30
  10  -2   9   20.20    1.90
  10  -2   9   16.10    2.30
  10   2   9   22.00    2.70
  10   2   9   22.40    2.10
  10   2   9   21.60    2.40
  12  -2   9    1.40    1.60
  12  -2   9    1.30    1.10
  12  -2   9    2.30    1.70
  12   2   9    2.20    1.50
  12   2   9   -1.00    1.60
  12   2   9    1.90    1.30
  14  -2   9   27.10    2.50
  14  -2   9   25.30    3.20
  14  -2   9   29.80    3.30
  14   2   9   28.20    3.10
  14   2   9   27.20    3.40
  16  -2   9    0.70    2.10
  16  -2   9    1.30    2.00
  16   2   9    0.10    2.00
  16   2   9    0.60    1.80
  18  -2   9    9.60    3.00
  18  -2   9    8.40    2.70
  18   2   9    5.00    2.70
  18   2   9   15.30    2.80
  20  -2   9    2.70    3.00
  20  -2   9    0.50    2.40
  20   2   9    0.30    2.70
  20   2   9    0.40    2.20
  22  -2   9    6.20    3.40
  22  -2   9    4.00    2.80
  22   2   9    9.00    2.90
  22   2   9    7.40    3.30
  31  -3  -9    7.80    2.90
  31   3  -9   11.40    3.40
  31   3  -9   12.00    3.00
  31   3  -9   16.00    3.40
  29  -3  -9   14.30    3.20
  29   3  -9   13.80    3.00
  29   3  -9   14.50    3.00
  29   3  -9    4.20    2.50
  27  -3  -9    6.10    2.60
  27   3  -9    7.40    2.70
  27   3  -9    9.10    2.60
  27   3  -9   10.20    2.50
  25  -3  -9    6.90    2.40
  25   3  -9    5.30    2.20
  25   3  -9    4.20    2.30
  25   3  -9    8.40    2.20
  23  -3  -9   -0.80    1.60
  23  -3  -9   -1.90    1.50
 -23   3   9    0.80    1.10
  23   3  -9    1.60    2.00
  23   3  -9   -0.40    1.70
  23   3  -9    0.90    1.60
  21  -3  -9    2.90    1.80
  21  -3  -9    2.60    1.40
  21   3  -9    2.60    1.70
  21   3  -9    5.60    2.00
 -21   3   9    5.30    1.20
  21   3  -9    1.70    1.60
  19  -3  -9    2.70    1.60
 -19   3   9    2.30    1.00
  19   3  -9    2.90    1.70
  19   3  -9    5.90    1.70
  19   3  -9    4.80    1.50
  17  -3  -9    9.40    1.80
 -17   3   9   11.00    1.30
  17   3  -9   14.80    1.90
  17   3  -9   11.10    1.90
  17   3  -9   12.20    2.00
  15  -3  -9    9.70    1.70
 -15   3   9   10.60    1.10
  15   3  -9   10.70    1.80
  15   3  -9    9.60    1.70
  15   3  -9    9.20    1.50
  13  -3  -9   60.89    3.90
 -13   3   9   59.99    3.00
  13   3  -9   53.19    3.60
  13   3  -9   65.19    3.50
  13   3  -9   59.79    3.80
  11  -3  -9   51.69    3.50
  11   3  -9   58.79    3.60
  11   3  -9   56.99    3.20
 -11   3   9   57.09    2.70
  11   3  -9   50.69    3.40
   9  -3  -9  129.19    6.70
   9   3  -9  132.79    6.70
   9   3  -9  130.19    6.30
  -9   3   9  125.09    5.70
   7  -3  -9   66.49    3.80
   7   3  -9   57.19    3.40
  -7   3   9   65.29    3.00
   7   3  -9   65.49    3.80
   5  -3  -9  350.26   16.00
   5   3  -9  333.17   14.60
  -5   3   9  331.67   14.40
   5   3  -9  326.17   15.00
   5   3  -9  357.06   15.90
   3  -3  -9   13.50    1.60
   3   3  -9   15.10    1.40
   3   3  -9   12.20    1.50
   3   3  -9    9.20    1.20
  -3   3   9   12.60    1.00
   1  -3  -9  115.39    6.20
  -1   3   9  118.29    5.40
   1   3  -9  118.59    6.10
   1   3  -9  119.59    5.40
  -1   3   9  124.49    6.30
   1  -3   9   28.20    2.10
   1  -3   9   30.60    2.30
   1   3   9   28.70    2.40
   1   3   9   31.10    1.90
  -1   3  -9   29.00    2.30
   3  -3   9  227.18   10.50
   3  -3   9  218.18   10.10
   3   3   9  218.18    9.70
   3   3   9  205.58   10.60
   5  -3   9    1.70    1.10
   5  -3   9    1.30    1.00
   5   3   9    2.20    1.20
   5   3   9    1.20    0.80
   7  -3   9  121.29    6.20
   7  -3   9  120.89    6.40
   7   3   9  114.89    6.60
   7   3   9  119.39    5.90
   9  -3   9    1.30    1.30
   9  -3   9    1.80    1.40
   9  -3   9    2.20    0.90
   9   3   9    1.20    1.20
   9   3   9   -0.20    1.10
   9   3   9    2.20    1.40
  11  -3   9   51.59    3.20
  11  -3   9   49.80    3.90
  11  -3   9   55.19    4.00
  11   3   9   54.59    3.50
  11   3   9   51.09    4.10
  11   3   9   52.89    3.70
  13  -3   9   10.50    2.20
  13  -3   9    4.60    2.00
  13  -3   9    8.60    1.50
  13   3   9    5.70    1.90
  13   3   9    6.90    2.10
  15  -3   9   24.60    3.20
  15  -3   9   23.10    3.10
  15   3   9   21.70    2.80
  15   3   9   16.50    3.00
  17  -3   9   -0.50    2.20
  17  -3   9   -1.60    2.10
  17   3   9    1.40    2.30
  17   3   9    0.40    1.90
  19  -3   9    0.20    2.40
  19  -3   9    0.70    2.40
  19   3   9    1.70    2.50
  21  -3   9   -1.70    2.70
  21  -3   9   -0.20    2.50
  21   3   9    0.00    2.90
  30  -4  -9   -0.40    2.60
  30   4  -9    4.10    2.50
  30   4  -9    2.40    2.70
  30   4  -9    1.10    2.60
  28  -4  -9   25.60    3.70
  28   4  -9   34.80    4.10
  28   4  -9   31.40    3.60
  28   4  -9   28.70    4.10
  26  -4  -9    2.50    2.20
  26   4  -9    2.40    2.20
  26   4  -9    2.90    2.00
  26   4  -9    3.50    2.40
  24  -4  -9   11.60    2.50
  24   4  -9    6.20    2.30
  24   4  -9   18.70    2.70
  24   4  -9   11.50    2.40
  22  -4  -9    3.70    1.90
  22   4  -9    4.50    1.80
  22   4  -9    4.20    1.80
  22   4  -9    1.10    1.90
 -22   4   9    7.00    1.50
  20  -4  -9   16.00    2.40
  20   4  -9   19.20    2.50
 -20   4   9   18.90    1.90
  20   4  -9   14.10    2.50
  20   4  -9   19.30    2.40
  18  -4  -9   28.90    3.00
 -18   4   9   32.00    2.30
  18   4  -9   32.80    2.80
  18   4  -9   29.50    3.10
  18   4  -9   28.20    3.00
  16  -4  -9    7.90    1.70
  16   4  -9   10.30    1.90
  16   4  -9   10.20    1.70
 -16   4   9    9.40    1.20
  16   4  -9    7.60    1.80
  14  -4  -9   35.20    2.90
  14   4  -9   40.40    2.80
 -14   4   9   36.60    2.30
  14   4  -9   36.70    3.00
  14   4  -9   38.80    3.00
  12  -4  -9    7.70    1.50
  12   4  -9    6.00    1.20
  12   4  -9    6.70    1.50
 -12   4   9    7.00    0.90
  12   4  -9    8.20    1.50
  10  -4  -9   75.99    4.50
 -10   4   9   81.99    3.80
  10   4  -9   76.19    4.20
  10   4  -9   80.29    4.50
  10   4  -9   80.29    4.40
   8  -4  -9   27.10    2.30
  -8   4   9   25.20    1.60
   8   4  -9   24.10    2.20
   8   4  -9   21.00    1.90
   8   4  -9   23.10    2.10
   6  -4  -9  145.99    7.50
   6   4  -9  143.79    6.90
   6   4  -9  144.29    7.00
   6   4  -9  151.58    7.40
  -6   4   9  153.78    6.60
   4  -4  -9   25.50    2.30
  -4   4   9   24.80    1.70
   4   4  -9   25.20    1.90
   4   4  -9   23.90    1.90
   4   4  -9   25.30    2.10
   2  -4  -9   52.29    3.30
   2   4  -9   51.99    2.90
   2   4  -9   52.09    3.20
  -2   4   9   49.99    2.80
  -2   4   9   52.59    3.40
   2   4  -9   51.89    3.00
   0  -4   9   21.50    2.00
   0   4   9   18.90    1.60
   0   4  -9   18.70    1.50
   0   4  -9   22.50    2.00
   0   4   9   17.10    1.90
   2  -4   9   46.20    3.00
   2  -4   9   50.59    3.10
   2   4   9   46.60    2.80
   2   4   9   51.89    3.40
   4  -4   9   75.69    4.30
   4  -4   9   77.09    4.30
   4   4   9   75.99    4.00
   4   4   9   72.59    4.50
   6  -4   9   17.20    2.00
   6  -4   9   16.70    2.00
   6   4   9   15.30    1.80
   6   4   9   18.10    2.30
   8  -4   9   16.90    2.20
   8  -4   9   16.60    2.10
   8   4   9   13.20    2.20
   8   4   9   16.70    1.90
  10  -4   9   25.60    2.70
  10  -4   9   23.90    2.00
  10  -4   9   23.90    2.60
  10   4   9   20.00    2.20
  10   4   9   22.70    2.80
  12  -4   9   17.10    2.40
  12  -4   9   16.10    2.50
  12  -4   9   17.00    1.80
  12   4   9   20.20    2.30
  12   4   9   11.70    2.40
  14  -4   9    3.60    2.10
  14  -4   9    2.60    1.90
  14  -4   9    6.40    1.50
  14   4   9   11.60    2.50
  16  -4   9    4.60    2.20
  16  -4   9    6.70    2.40
  16   4   9    1.50    2.20
  18  -4   9   -0.60    2.20
  18  -4   9   -0.80    2.30
  18   4   9    1.00    2.40
  20  -4   9    3.00    2.70
  20  -4   9   -0.70    2.70
  20   4   9   -0.20    2.60
  22  -4   9    2.90    2.80
  22   4   9    2.70    3.20
  31  -5  -9    5.50    2.90
  31   5  -9   14.80    3.50
  31   5  -9    3.10    2.70
  31   5  -9   12.40    3.00
  29  -5  -9   37.70    4.40
  29   5  -9   35.70    4.00
  29   5  -9   34.30    4.30
  29   5  -9   27.00    4.20
  27  -5  -9   -0.80    2.20
  27   5  -9    0.20    2.20
  27   5  -9    1.80    2.30
  27   5  -9    2.30    2.10
  25  -5  -9   31.30    3.60
  25   5  -9   33.70    4.00
  25   5  -9   33.10    3.60
  25   5  -9   38.90    3.90
  23  -5  -9   -1.90    1.70
  23   5  -9   -0.90    1.70
  23   5  -9    0.90    1.80
  23   5  -9   -4.10    1.60
  21  -5  -9   14.10    2.40
  21   5  -9   16.90    2.50
 -21   5   9   13.40    1.80
  21   5  -9   11.30    2.40
  21   5  -9   12.20    2.30
  19  -5  -9    1.80    1.60
  19   5  -9    2.10    1.60
  19   5  -9    0.40    1.50
 -19   5   9    0.40    1.00
  19   5  -9    0.60    1.40
  17  -5  -9   29.50    3.00
  17   5  -9   35.00    3.00
  17   5  -9   35.80    3.20
  17   5  -9   31.80    3.20
 -17   5   9   31.90    2.40
  15  -5  -9    1.70    1.30
  15   5  -9    2.40    1.20
  15   5  -9   -0.10    1.20
  15   5  -9    0.30    1.20
 -15   5   9    0.00    0.90
  13  -5  -9   81.89    4.90
  13   5  -9   78.69    4.70
  13   5  -9   90.69    5.00
 -13   5   9   84.09    4.20
  13   5  -9   85.49    4.70
  11  -5  -9   18.20    2.10
  11   5  -9   17.70    2.00
 -11   5   9   20.40    1.70
  11   5  -9   22.10    2.30
  11   5  -9   20.40    2.00
   9  -5  -9   47.70    3.20
   9   5  -9   47.60    3.00
   9   5  -9   44.90    3.10
   9   5  -9   46.10    3.10
  -9   5   9   46.70    2.60
   7  -5  -9    1.30    1.00
   7   5  -9   -0.30    0.90
  -7   5   9    0.10    0.70
   7   5  -9    0.70    0.80
   7   5  -9    0.60    0.90
   5  -5  -9   14.70    1.80
  -5   5   9   16.40    1.40
   5   5  -9   12.90    1.50
   5   5  -9   12.30    1.60
   5   5  -9   13.40    1.50
   3  -5  -9    1.80    1.00
   3   5  -9    3.70    0.90
  -3   5   9    2.90    0.80
   3   5  -9    2.90    1.00
   3   5  -9    3.60    1.00
   1  -5  -9   15.90    1.90
  -1   5   9   13.90    1.50
  -1   5   9   15.20    1.90
   1   5  -9   14.90    1.40
   1   5  -9   14.10    1.60
   1   5  -9   13.70    1.60
   1  -5   9   11.60    1.40
   1  -5   9   12.60    1.60
   1   5   9   10.20    1.60
  -1   5  -9   10.20    1.40
   1   5   9    9.40    1.30
   3  -5   9    1.70    1.10
   3  -5   9    1.50    1.00
   3   5   9    2.90    1.10
   3   5   9    1.70    1.20
   5  -5   9   32.80    2.80
   5  -5   9   32.50    2.50
   5   5   9   36.10    3.00
   5   5   9   34.60    2.60
   7  -5   9    8.50    1.70
   7  -5   9    8.00    1.60
   7   5   9    8.90    1.90
   7   5   9    9.20    1.60
   9  -5   9    1.40    1.30
   9  -5   9   -0.40    1.40
   9   5   9   -1.70    1.20
   9   5   9   -0.40    1.40
  11  -5   9    0.40    1.00
  11  -5   9    0.30    1.40
  11  -5   9    2.50    1.70
  11   5   9    1.60    1.70
  11   5   9   -0.30    1.30
  13  -5   9   11.20    2.30
  13  -5   9   13.40    1.80
  13  -5   9   11.80    2.50
  13   5   9   16.40    2.80
  15  -5   9    9.10    2.50
  15  -5   9    3.40    2.10
  15   5   9    7.50    2.50
  17  -5   9   13.90    3.00
  17   5   9   16.10    3.30
  19  -5   9   16.90    3.40
  19   5   9   10.00    3.20
  21  -5   9    1.00    2.70
  21   5   9   -2.20    2.60
  30  -6  -9   10.50    3.00
  30   6  -9    7.60    3.20
  30   6  -9   15.10    3.50
  30   6  -9    8.20    2.80
  28  -6  -9   47.70    4.80
  28   6  -9   32.50    4.40
  28   6  -9   54.59    4.90
  28   6  -9   51.39    4.90
  26  -6  -9   10.70    2.60
  26   6  -9    9.10    2.50
  26   6  -9   15.90    2.90
  26   6  -9   11.50    2.80
  24  -6  -9   53.89    4.50
  24   6  -9   57.89    4.60
  24   6  -9   43.70    4.60
  24   6  -9   56.69    4.70
  22  -6  -9   11.40    2.30
  22   6  -9   12.20    2.40
  22   6  -9   10.70    2.60
  22   6  -9    9.50    2.30
  20  -6  -9   35.30    3.40
  20   6  -9   30.70    3.20
 -20   6   9   39.70    2.80
  20   6  -9   35.00    3.50
  20   6  -9   31.20    3.50
  18  -6  -9   13.20    2.10
  18   6  -9   15.00    2.40
 -18   6   9   13.60    1.70
  18   6  -9   15.20    2.30
  18   6  -9   11.60    2.10
  16  -6  -9   69.79    4.40
 -16   6   9   71.79    3.90
  16   6  -9   66.29    4.30
  16   6  -9   64.09    4.40
  16   6  -9   69.59    4.60
  14  -6  -9   50.49    3.70
  14   6  -9   59.39    3.90
 -14   6   9   55.59    3.20
  14   6  -9   57.09    3.70
  14   6  -9   52.49    3.80
  12  -6  -9   76.29    4.60
  12   6  -9   75.79    4.60
 -12   6   9   76.09    4.10
  12   6  -9   83.59    4.60
  12   6  -9   76.29    4.40
  10  -6  -9   30.70    2.70
  10   6  -9   34.40    2.70
  10   6  -9   36.30    2.60
 -10   6   9   35.60    2.30
  10   6  -9   33.40    2.70
   8  -6  -9   44.10    3.10
   8   6  -9   42.00    2.90
   8   6  -9   43.40    2.90
   8   6  -9   41.10    2.90
  -8   6   9   39.80    2.50
   6  -6  -9   55.99    3.50
   6   6  -9   53.49    3.30
  -6   6   9   49.80    3.00
   6   6  -9   55.69    3.20
   6   6  -9   52.09    3.30
   4  -6  -9   43.20    3.00
   4   6  -9   39.10    2.70
  -4   6   9   39.00    2.50
   4   6  -9   37.70    2.60
   4   6  -9   38.40    2.70
   2  -6  -9   79.59    4.50
   2   6  -9   72.59    4.10
  -2   6   9   72.89    3.90
  -2   6   9   76.99    4.50
   2   6  -9   77.49    4.20
   2   6  -9   69.69    3.90
   0  -6   9    1.70    0.90
   0   6  -9    2.40    0.90
   0   6  -9    3.60    1.10
   0   6  -9    1.40    0.90
   0   6   9    2.00    1.00
   0   6   9    2.10    1.20
   2  -6   9   62.39    3.70
   2  -6   9   62.39    3.90
   2   6   9   65.99    4.10
   2   6   9   63.99    3.60
   4  -6   9   18.00    1.90
   4  -6   9   17.40    2.00
   4   6   9   12.70    1.90
   4   6   9   17.60    1.80
   6  -6   9   39.90    2.90
   6  -6   9   42.10    3.30
   6   6   9   47.50    3.40
   6   6   9   36.20    2.90
   8  -6   9   18.70    2.20
   8  -6   9   20.10    2.50
   8   6   9   17.20    2.00
   8   6   9   18.10    2.50
  10  -6   9    5.60    2.00
  10  -6   9    7.10    1.70
  10   6   9    5.80    1.60
  10   6   9    5.80    1.90
  12  -6   9    5.80    1.40
  12  -6   9    6.60    2.20
  12   6   9    6.10    2.10
  14  -6   9   17.20    2.90
  14   6   9   18.20    3.10
  16  -6   9    0.50    2.20
  16   6   9    5.00    2.50
  18  -6   9   18.10    3.40
  18   6   9   13.00    3.20
  20  -6   9   -1.10    2.60
  20   6   9   -3.80    2.60
  29  -7  -9    3.20    2.70
  29   7  -9   -1.20    2.20
  29   7  -9    1.10    2.60
  29   7  -9    1.60    2.60
  27  -7  -9    6.50    2.60
  27   7  -9    7.10    2.60
  27   7  -9    9.80    3.00
  27   7  -9    9.90    2.80
  25  -7  -9    0.60    2.00
  25   7  -9    4.00    2.30
  25   7  -9    1.80    2.40
  25   7  -9   -1.20    2.00
  23  -7  -9    7.60    2.30
  23   7  -9    9.80    2.50
  23   7  -9    5.70    2.20
  23   7  -9    9.70    2.70
  21  -7  -9    7.80    2.00
  21   7  -9   13.80    2.40
  21   7  -9   12.50    2.70
  21   7  -9   12.20    2.40
  19  -7  -9    1.20    1.50
 -19   7   9   -0.30    1.10
  19   7  -9    0.90    1.70
  19   7  -9   -1.40    1.60
  19   7  -9   -0.30    1.50
  17  -7  -9   32.30    3.10
  17   7  -9   28.00    3.00
 -17   7   9   28.80    2.50
  17   7  -9   36.40    3.40
  17   7  -9   28.90    3.10
  15  -7  -9   10.60    1.90
  15   7  -9   11.40    2.00
 -15   7   9   10.70    1.60
  15   7  -9   14.00    2.10
  15   7  -9   15.40    2.20
  13  -7  -9    0.50    1.20
  13   7  -9    0.00    1.20
  13   7  -9    1.50    1.40
 -13   7   9    0.80    1.00
  13   7  -9    0.30    1.20
  11  -7  -9    3.20    1.30
  11   7  -9    2.30    1.20
 -11   7   9    3.10    1.00
  11   7  -9    2.30    1.20
  11   7  -9    1.40    1.20
   9  -7  -9    0.90    1.20
   9   7  -9   -0.40    1.00
   9   7  -9   -0.80    1.00
   9   7  -9    0.40    1.10
  -9   7   9    1.30    0.90
   7  -7  -9    0.60    1.10
  -7   7   9    0.30    0.80
   7   7  -9    1.30    1.00
   7   7  -9    0.70    1.00
   7   7  -9    1.50    1.10
   5  -7  -9    6.60    1.40
  -5   7   9    5.90    1.10
   5   7  -9    6.30    1.30
   5   7  -9    6.00    1.30
   5   7  -9    5.50    1.20
   3  -7  -9    2.80    1.30
  -3   7   9    6.30    1.20
   3   7  -9    4.00    1.10
   3   7  -9    7.30    1.20
   3   7  -9    8.10    1.50
  -3   7   9    6.60    1.50
   1   7  -9    1.10    0.90
   1   7  -9   -0.10    0.90
   1   7  -9    1.20    1.10
  -1   7   9    1.00    1.00
  -1   7   9    0.40    1.20
   1  -7   9    1.10    0.90
   1   7   9    0.90    1.20
  -1   7  -9    1.00    1.10
   1   7   9    2.60    1.20
   3  -7   9   36.00    2.60
   3  -7   9   36.20    3.00
   3   7   9   36.90    3.10
   3   7   9   37.50    2.80
   5  -7   9   35.40    3.10
   5   7   9   36.70    3.20
   5   7   9   35.90    2.80
   7  -7   9   -0.50    1.40
   7   7   9    1.80    1.30
   7   7   9   -0.30    1.40
   9  -7   9   15.60    2.50
   9   7   9   19.30    2.70
   9   7   9   12.00    2.00
  11  -7   9    0.00    1.80
  11   7   9   -0.50    1.70
  13  -7   9    2.80    2.10
  13  -7   9    3.90    1.40
  13   7   9    3.60    2.20
  15  -7   9   -1.70    2.20
  15   7   9   -0.90    2.10
  17  -7   9    1.80    2.40
  17   7   9   -0.60    2.40
  19  -7   9    7.10    3.00
  19   7   9    3.20    2.80
  21  -7   9    4.50    3.10
  21   7   9    0.60    2.80
  28   8  -9   18.80    3.40
  28   8  -9   14.00    3.30
  28   8  -9    9.20    3.10
  26  -8  -9    5.80    2.40
  26   8  -9    9.30    2.80
  26   8  -9    8.10    2.90
  26   8  -9   12.90    3.10
  24  -8  -9   42.80    4.10
  24   8  -9   39.00    4.20
  24   8  -9   45.70    4.40
  24   8  -9   36.80    4.40
  22  -8  -9   23.50    2.90
  22   8  -9   21.50    3.10
  22   8  -9   31.30    3.50
  22   8  -9   22.40    3.30
  20  -8  -9   49.70    4.10
  20   8  -9   56.69    4.40
  20   8  -9   52.19    4.30
  20   8  -9   52.09    4.50
  18  -8  -9    7.60    1.90
  18   8  -9    6.50    2.00
  18   8  -9    7.90    2.20
  18   8  -9    9.40    2.10
  16  -8  -9   94.89    5.90
  16   8  -9  104.09    6.00
  16   8  -9  106.49    6.10
  16   8  -9  103.39    6.00
 -16   8   9  107.79    5.40
  14  -8  -9   44.30    3.50
  14   8  -9   47.80    3.60
 -14   8   9   49.70    3.10
  14   8  -9   44.30    3.70
  14   8  -9   46.30    3.50
  12  -8  -9   60.69    4.10
  12   8  -9   62.29    4.10
  12   8  -9   65.59    4.20
 -12   8   9   69.09    3.80
  12   8  -9   66.49    4.20
  10  -8  -9   35.30    3.00
  10   8  -9   35.30    3.00
  10   8  -9   34.50    2.80
  10   8  -9   38.80    3.20
 -10   8   9   39.10    2.60
   8  -8  -9   31.00    2.70
   8   8  -9   30.10    2.70
   8   8  -9   25.90    2.60
   8   8  -9   26.80    2.50
  -8   8   9   29.10    2.40
   6  -8  -9    0.70    1.10
   6   8  -9    1.20    1.10
  -6   8   9    1.10    0.90
   6   8  -9    0.40    1.10
   6   8  -9    0.70    1.00
   4  -8  -9   61.19    3.80
   4   8  -9   57.39    3.60
   4   8  -9   58.59    3.40
  -4   8   9   49.80    3.70
  -4   8   9   54.99    3.40
   4   8  -9   55.29    3.40
  -2   8   9   13.10    1.60
  -2   8   9   16.70    2.00
   2   8  -9   12.20    1.50
   2   8  -9   11.40    1.70
   2   8  -9   12.20    1.60
   0   8   9   22.50    2.20
   0   8   9   27.30    2.60
   0   8  -9   23.80    2.10
   0   8  -9   24.80    2.50
   2   8   9    3.10    1.30
   2   8   9    2.40    1.40
   4  -8   9   11.90    2.00
   4   8   9   10.80    1.90
   4   8   9   12.60    1.80
   6  -8   9   56.99    4.10
   6   8   9   55.99    3.70
   6   8   9   47.20    4.00
   8  -8   9    2.40    1.80
   8   8   9    3.90    1.80
   8   8   9    2.30    1.60
  10  -8   9    6.70    2.20
  10   8   9    1.40    1.80
  12  -8   9    5.30    2.30
  12   8   9    7.80    2.40
  14  -8   9   21.90    3.20
  14   8   9   19.10    3.30
  16  -8   9    7.60    2.80
  16   8   9    2.10    2.40
  18  -8   9   23.50    3.90
  18   8   9   15.70    3.50
  20  -8   9    6.10    3.20
  20   8   9    1.10    3.00
  27   9  -9    0.00    2.60
  27   9  -9   -0.40    2.30
  27   9  -9    1.60    2.60
  25   9  -9   11.70    3.10
  25   9  -9   15.90    3.10
  25   9  -9    5.70    2.70
  23  -9  -9    6.60    2.30
  23   9  -9    2.50    2.40
  23   9  -9    5.80    2.50
  23   9  -9   11.20    2.70
  21  -9  -9   16.40    2.50
  21   9  -9    8.20    2.50
  21   9  -9   13.30    2.70
  21   9  -9   19.40    3.00
  19  -9  -9    3.90    1.80
  19   9  -9    2.40    1.90
  19   9  -9    4.70    2.10
  19   9  -9    6.60    2.20
  17  -9  -9    1.30    1.50
  17   9  -9    2.30    1.80
  17   9  -9   -0.80    1.50
  17   9  -9    0.30    1.70
  15  -9  -9   38.60    3.40
  15   9  -9   47.80    3.80
  15   9  -9   49.40    3.90
 -15   9   9   41.30    3.10
  15   9  -9   47.30    3.60
  13  -9  -9   46.80    3.60
  13   9  -9   52.99    3.90
 -13   9   9   49.90    3.30
  13   9  -9   47.60    3.60
  13   9  -9   48.80    3.80
  11  -9  -9   69.39    4.50
  11   9  -9   71.19    4.40
 -11   9   9   72.39    4.10
  11   9  -9   75.79    4.60
  11   9  -9   71.19    4.60
   9  -9  -9   28.10    2.60
   9   9  -9   25.10    2.60
   9   9  -9   18.90    2.10
  -9   9   9   22.40    2.10
   9   9  -9   20.70    2.50
   7  -9  -9   50.79    3.50
  -7   9   9   46.50    3.20
   7   9  -9   49.10    3.50
   7   9  -9   50.79    3.60
   7   9  -9   49.30    3.20
   5  -9  -9    0.60    1.20
   5   9  -9    0.80    1.10
  -5   9   9   -0.10    1.20
  -5   9   9    1.00    1.10
   5   9  -9   -0.60    1.20
   3   9  -9   44.10    3.50
   3   9  -9   48.50    3.20
  -3   9   9   50.19    3.50
  -3   9   9   50.69    3.20
   1   9  -9   -0.30    1.00
   1   9  -9    1.80    1.30
  -1   9   9    2.00    1.30
  -1   9   9    0.20    1.10
   1   9   9    3.20    1.30
  -1   9  -9    1.10    1.30
   1   9   9    3.60    1.60
   3  -9   9   16.90    2.50
   3   9   9   22.10    2.30
   3   9   9   16.80    2.30
   5  -9   9   56.59    4.40
   5   9   9   67.59    4.10
   5   9   9   59.09    4.30
   7  -9   9    3.10    1.80
   7   9   9    4.00    1.80
   7   9   9    8.20    1.80
   9  -9   9   -1.20    1.70
   9   9   9    0.10    1.70
  11  -9   9   11.30    2.50
  11   9   9   10.00    2.50
  13  -9   9   -0.50    2.00
  13   9   9   -1.00    2.00
  15  -9   9    5.20    2.60
  15   9   9   10.00    2.90
  17  -9   9    3.10    2.80
  17   9   9    3.30    2.80
  19  -9   9    2.50    2.80
  19   9   9    0.10    2.90
  26  10  -9    3.40    2.70
  26  10  -9   -2.00    2.40
  26  10  -9   -0.70    2.60
  24  10  -9    8.50    2.80
  24  10  -9    8.00    2.80
  24  10  -9    4.20    2.60
  22  10  -9    2.60    2.20
  22  10  -9    7.80    2.70
  22  10  -9    2.70    2.30
  20  10  -9    9.90    2.40
  20  10  -9    7.70    2.40
  20  10  -9    8.70    2.50
  18  10  -9    6.90    2.10
  18  10  -9    9.00    2.40
  18  10  -9    3.70    2.20
  16 -10  -9   18.40    2.50
  16  10  -9   23.60    3.00
  16  10  -9   23.40    3.00
  16  10  -9   20.50    2.60
  14 -10  -9   32.00    2.90
  14  10  -9   27.00    2.80
 -14  10   9   25.80    2.40
  14  10  -9   28.20    3.10
  14  10  -9   26.80    3.10
  12 -10  -9    1.20    1.50
 -12  10   9    1.20    1.20
  12  10  -9    1.90    1.70
  12  10  -9   -0.20    1.30
  12  10  -9    2.50    1.60
  10 -10  -9   26.90    2.60
 -10  10   9   26.20    2.40
  10  10  -9   29.00    3.00
  10  10  -9   26.60    2.90
   8 -10  -9    7.40    1.60
   8  10  -9    7.30    1.80
   8  10  -9    6.50    1.70
  -8  10   9    6.90    1.40
   6 -10  -9   50.09    3.60
   6  10  -9   46.40    3.70
  -6  10   9   48.70    3.20
  -6  10   9   48.90    3.60
   6  10  -9   46.50    3.40
  -4  10   9   13.50    1.80
   4  10  -9   10.00    1.80
   4  10  -9   16.00    2.20
  -4  10   9   12.20    1.90
  -2  10   9   53.19    3.80
   2  10  -9   50.29    3.50
  -2  10   9   61.29    3.70
   2  10  -9   54.89    3.90
   0  10   9   42.00    3.50
   0  10   9   47.40    3.30
   0  10  -9   44.00    3.60
   0  10  -9   48.80    3.10
   0  10  -9   45.40    3.20
  -2  10  -9    4.20    1.80
   2  10   9    4.00    1.50
   2  10   9    1.90    1.50
   4 -10   9  106.99    6.30
   4  10   9   97.69    6.10
   4  10   9  110.49    5.70
   6 -10   9    5.40    2.00
   6  10   9    5.70    1.70
   6  10   9    0.90    1.60
   8 -10   9   25.50    3.30
   8  10   9   16.00    2.70
  10 -10   9    2.00    2.10
  10  10   9    1.90    2.00
  12 -10   9    5.10    2.50
  12  10   9    5.30    2.30
  14 -10   9    3.00    2.30
  14  10   9   -1.30    2.10
  16 -10   9    9.40    3.20
  16  10   9    5.50    2.90
  18 -10   9    9.60    3.30
  18  10   9    1.40    2.90
  25  11  -9    1.70    2.70
  25  11  -9    1.70    2.70
  25  11  -9    2.70    2.80
  23  11  -9    3.10    2.50
  23  11  -9    2.80    2.40
  23  11  -9    2.50    2.70
  21  11  -9    6.40    2.70
  21  11  -9    6.00    2.50
  21  11  -9   11.10    2.80
  19  11  -9   -0.20    2.00
  19  11  -9    1.10    2.10
  19  11  -9    4.00    2.40
  17  11  -9   11.40    2.60
  17  11  -9   10.80    2.60
  15  11  -9    0.00    1.90
  15  11  -9    2.70    1.90
  13  11  -9    8.20    2.10
  13  11  -9    7.80    2.20
  11 -11  -9   -0.30    1.30
 -11  11   9   -0.10    1.20
  11  11  -9    2.10    1.70
  11  11  -9    0.60    1.60
   9 -11  -9   11.70    1.90
   9  11  -9   10.10    2.10
  -9  11   9   10.30    1.70
   9  11  -9   12.90    2.30
   7 -11  -9    0.70    1.40
  -7  11   9    3.40    1.30
  -7  11   9    0.30    1.40
   7  11  -9    0.10    1.60
   7  11  -9   -0.80    1.30
  -5  11   9   43.70    3.30
   5  11  -9   38.00    3.30
  -5  11   9   42.30    3.10
   5  11  -9   39.50    3.60
  -3  11   9    6.50    1.70
   3  11  -9    7.00    1.90
  -3  11   9    8.20    1.60
   3  11  -9    6.60    1.70
   1  11  -9  126.59    7.10
  -1  11   9  126.69    7.10
  -1  11   9  127.39    6.70
   1  11  -9  144.99    6.70
   1  11  -9  133.69    6.70
   1  11   9   14.30    2.20
  -1  11  -9   13.20    2.30
   1  11   9   16.60    2.10
   3 -11   9   61.99    4.50
   3  11   9   49.99    3.50
   3  11   9   53.59    3.80
   3  11   9   49.70    4.00
   5 -11   9    5.20    2.10
   5  11   9    5.60    1.90
   7 -11   9   56.79    4.50
   7  11   9   43.60    4.20
   9 -11   9    9.90    2.60
   9  11   9   11.70    2.60
  11 -11   9    4.50    2.50
  11  11   9    3.10    2.30
  13 -11   9    0.30    2.40
  13  11   9    3.70    2.40
  15 -11   9   11.50    3.00
  15  11   9    2.10    2.80
  17 -11   9   -0.10    2.60
  17  11   9    0.90    2.70
  24  12  -9    8.70    3.10
  24  12  -9    7.40    2.90
  22  12  -9   -2.40    2.30
  22  12  -9    0.20    2.40
  20  12  -9    5.60    2.60
  20  12  -9    4.60    2.60
  18  12  -9   -1.00    2.00
  18  12  -9   -1.60    2.00
  16  12  -9   10.90    2.80
  16  12  -9    7.40    2.40
  14  12  -9    0.10    1.80
  14  12  -9    2.10    2.00
  12  12  -9    6.80    2.30
  12  12  -9    6.40    2.10
  10  12  -9   -1.10    1.60
  10  12  -9   -1.10    1.70
   8  12  -9    6.90    2.00
   8  12  -9    4.60    2.00
   6  12  -9   -1.30    1.60
  -6  12   9    1.60    1.40
  -6  12   9    3.20    1.60
   6  12  -9    2.70    1.60
  -4  12   9    2.10    1.40
   4  12  -9    2.90    1.80
   4  12  -9    3.40    1.60
  -4  12   9   -0.20    1.30
   2  12  -9    7.60    2.10
  -2  12   9    6.00    1.70
  -2  12   9    9.70    1.80
   2  12  -9    9.00    2.00
   2  12  -9    3.80    1.60
   0  12  -9    1.10    1.70
   0  12   9    0.50    1.50
   0  12   9   -0.10    1.40
   0  12  -9   -0.80    1.40
   2  12   9    4.60    1.70
  -2  12  -9    2.10    1.90
   2  12   9    3.00    1.70
   4 -12   9    7.20    2.20
   4  12   9    7.00    2.00
   6 -12   9    2.20    2.00
   6  12   9    1.50    1.90
   8 -12   9    5.30    2.30
   8  12   9    5.00    2.10
  10 -12   9   12.30    2.90
  10  12   9    9.70    2.60
  12 -12   9   12.60    2.90
  12  12   9    3.80    2.60
  14 -12   9    1.10    2.60
  14  12   9    0.10    2.60
  16 -12   9    4.40    2.90
  16  12   9    1.70    2.90
  23  13  -9   -1.20    2.70
  23  13  -9    0.90    2.80
  21  13  -9   10.10    3.00
  21  13  -9   11.20    3.30
  19  13  -9   -0.90    2.40
  19  13  -9    0.80    2.40
  17  13  -9   22.90    3.40
  17  13  -9   20.60    3.20
  15  13  -9    0.90    2.10
  15  13  -9   -1.90    2.00
  13  13  -9   11.60    2.60
  13  13  -9   16.90    2.90
  11  13  -9    2.10    2.00
  11  13  -9    0.10    1.90
   9  13  -9   29.20    3.40
   9  13  -9   31.20    3.20
   7  13  -9    1.00    1.70
   7  13  -9    3.60    2.10
   5  13  -9   14.10    2.30
   5  13  -9   14.30    2.60
   3  13  -9    7.50    1.90
   3  13  -9    3.20    2.10
   3  13  -9    5.90    2.00
  -1  13   9   14.10    2.30
   1  13  -9   17.90    2.50
   1  13  -9   23.10    2.60
   1  13  -9   20.70    2.90
  -1  13  -9    3.20    2.00
   1  13   9    0.20    1.60
   3  13   9   44.50    3.90
   3  13   9   46.60    3.70
   5 -13   9    3.90    2.30
   5  13   9    0.50    1.80
   7 -13   9    8.00    2.40
   7  13   9    4.70    2.20
   9 -13   9   -0.10    2.30
   9  13   9    0.10    2.10
  11 -13   9   26.30    3.70
  11  13   9   26.40    3.70
  13 -13   9    3.80    2.90
  13  13   9   -1.40    2.40
  15 -13   9   19.00    3.60
  15  13   9    8.10    3.30
  22  14  -9    2.20    2.70
  22  14  -9   -0.20    2.80
  20  14  -9    2.10    2.50
  20  14  -9    2.30    2.70
  18  14  -9   -2.50    2.40
  18  14  -9    1.50    2.50
  16  14  -9    1.00    2.40
  16  14  -9    0.70    2.30
  14  14  -9    1.80    2.30
  14  14  -9    1.60    2.30
  12  14  -9   13.10    2.80
  12  14  -9   10.20    2.60
  10  14  -9    3.90    2.10
  10  14  -9   -0.70    1.90
   8  14  -9   -0.20    1.80
   8  14  -9    4.90    2.30
   6  14  -9   12.50    2.40
   6  14  -9   14.30    2.80
   4  14  -9    2.60    2.10
   4  14  -9    2.50    1.80
   4  14  -9    2.20    2.10
   2  14  -9   25.00    3.00
   2  14  -9   18.00    2.60
   2  14  -9   19.80    3.10
   0  14  -9   17.90    2.70
   0  14  -9   16.30    2.80
  -2  14  -9    4.00    2.30
   2  14   9    1.60    1.90
   4 -14   9   11.10    2.80
   6 -14   9    8.00    2.60
   6  14   9    5.30    2.20
   8 -14   9    4.30    2.50
   8  14   9    0.20    2.10
  10 -14   9    1.80    2.60
  10  14   9    3.40    2.60
  12 -14   9    3.90    2.70
  12  14   9    3.20    2.70
  19  15  -9    0.60    2.60
  19  15  -9    0.20    2.80
  17  15  -9   19.40    3.60
  17  15  -9   13.50    3.30
  15  15  -9   -0.60    2.30
  15  15  -9   -1.10    2.30
  13  15  -9   29.50    3.90
  13  15  -9   20.10    3.30
  11  15  -9    1.50    2.30
  11  15  -9    5.60    2.40
   9  15  -9   34.40    4.00
   9  15  -9   26.20    3.50
   7  15  -9    0.40    2.00
   7  15  -9    0.40    2.30
   5  15  -9    3.70    2.30
   5  15  -9    0.50    1.90
   5  15  -9    0.50    2.10
   3  15  -9    5.60    2.10
   3  15  -9    9.10    2.70
   3  15  -9    6.30    2.40
   1  15  -9   -3.60    1.90
   1  15  -9    1.00    1.90
   1  15  -9    0.80    2.00
  -1  15  -9    4.40    2.50
   1  15   9    1.80    2.00
   3  15   9    6.30    2.20
   5 -15   9    5.00    2.50
   5  15   9    3.50    2.20
   7 -15   9   -2.70    2.20
   9 -15   9    3.50    2.80
  11 -15   9   23.90    3.90
  18  16  -9    4.80    3.00
  18  16  -9    1.20    2.60
  16  16  -9    5.80    2.80
  16  16  -9    2.30    2.70
  14  16  -9    6.40    2.70
  14  16  -9    0.70    2.50
  12  16  -9    1.60    2.30
  12  16  -9    0.90    2.40
  10  16  -9   -0.10    2.10
  10  16  -9    5.70    2.70
   8  16  -9    1.70    2.20
   8  16  -9    1.60    2.50
   6  16  -9    0.20    1.90
   6  16  -9    1.70    2.30
   6  16  -9    1.40    2.30
   4  16  -9    4.50    2.40
   4  16  -9   -2.70    2.10
   4  16  -9   -2.10    1.90
   2  16  -9    4.10    2.30
   2  16  -9    8.60    2.80
   2  16  -9    1.50    2.00
   0  16   9   10.00    2.60
   0  16  -9    9.10    2.80
   2  16   9    3.20    2.20
  -2  16  -9   -0.30    2.40
   4 -16   9    4.90    2.50
   4  16   9    0.20    2.20
   6 -16   9   -0.60    2.50
   8 -16   9    1.30    2.50
  15  17  -9   -0.70    2.60
  15  17  -9    2.40    2.80
  13  17  -9    7.10    2.90
  13  17  -9    7.30    3.00
  11  17  -9   -1.70    2.10
  11  17  -9   -0.50    2.70
   9  17  -9    8.20    3.10
   9  17  -9    6.50    2.60
   7  17  -9    6.70    2.50
   7  17  -9   12.90    3.30
   5  17  -9   14.50    3.00
   5  17  -9   15.80    3.30
   5  17  -9   15.70    3.20
   3  17  -9    7.80    2.70
   3  17  -9    7.50    2.60
   3  17  -9    9.40    2.90
   1  17  -9   13.10    2.90
  -1  17   9   18.20    3.20
   1  17  -9   18.90    3.50
  -1  17  -9    2.40    2.70
   1  17   9    0.40    2.20
   3 -17   9    7.10    3.10
   3  17   9    8.00    2.70
   5 -17   9    3.00    2.60
   5  17   9    1.00    2.40
  10  18  -9    4.30    2.70
  10  18  -9    3.50    2.80
   8  18  -9    1.50    2.80
   8  18  -9    2.20    2.60
   6  18  -9    7.30    3.00
   6  18  -9    6.40    2.60
   6  18  -9    1.90    2.70
   4  18  -9    0.80    2.70
   4  18  -9   -1.30    2.60
   4  18  -9    0.20    2.40
   2  18  -9    4.10    2.90
  -2  18   9    5.40    2.70
   2  18  -9    4.60    2.40
   2  18  -9    3.90    2.80
   0  18  -9    4.80    2.90
   0  18   9    4.00    2.50
   2  18   9    4.20    2.70
  30   0 -10    3.90    2.30
  30   0 -10   -1.80    2.30
  30   0 -10   -1.60    2.50
  28   0 -10    1.40    2.30
  28   0 -10    2.60    2.30
  28   0 -10   -0.10    2.00
  26   0 -10   -1.90    1.80
  26   0 -10   -0.70    1.80
  26   0 -10   -0.30    2.00
  24   0 -10    4.00    1.90
  24   0 -10    0.90    1.90
  24   0 -10    3.60    1.80
  22   0 -10   -0.50    1.50
  22   0 -10    1.50    1.50
  22   0 -10    0.90    1.60
  20   0 -10    2.50    1.60
  20   0 -10    2.60    1.60
  20   0 -10    5.10    1.50
  18   0 -10    1.80    1.40
  18   0 -10    0.70    0.80
  18   0 -10    3.00    1.40
  16   0 -10    7.60    1.30
  16   0 -10    9.10    1.70
  16   0 -10    7.40    1.70
  14   0 -10    2.00    1.20
  14   0 -10    2.20    1.20
  14   0 -10    1.50    0.90
  12   0 -10    9.70    1.60
  12   0 -10   10.60    1.60
  12   0 -10   10.70    1.20
  10   0 -10    5.20    0.90
  10   0 -10    4.20    1.10
  10   0 -10    7.70    1.40
   8   0 -10    0.80    0.80
   8   0 -10    0.80    0.50
   8   0 -10    0.80    0.90
   6   0 -10    9.90    1.30
   6   0 -10    8.00    1.40
   4   0 -10    0.90    0.90
   2   0 -10    7.90    1.30
   0   0 -10   -0.40    0.90
   0   0  10   -1.00    0.60
   0   0  10    1.10    1.00
   2   0  10    8.90    1.50
   2   0  10    8.40    1.10
   4   0  10    1.00    1.10
   4   0  10    1.40    0.90
   6   0  10   10.50    1.60
   6   0  10   10.70    1.20
   6   0  10    9.50    1.70
   8   0  10    2.70    1.00
   8   0  10    4.20    1.60
   8   0  10    2.90    1.30
  10   0  10    0.40    1.30
  10   0  10    1.50    1.10
  10   0  10    4.10    1.70
  12   0  10    5.20    2.00
  12   0  10    7.20    1.90
  12   0  10    3.60    1.40
  14   0  10   -2.00    1.90
  14   0  10   -0.20    1.70
  16   0  10    1.10    2.00
  16   0  10   -0.60    2.00
  18   0  10    3.80    2.70
  18   0  10   -1.20    2.10
  20   0  10    2.80    2.40
  20   0  10   -3.00    2.50
  31  -1 -10    0.60    2.60
  31   1 -10   -0.10    2.60
  31   1 -10    2.90    2.60
  31   1 -10    0.60    2.30
  29  -1 -10    2.50    2.40
  29   1 -10   -0.50    2.10
  29   1 -10    0.30    2.30
  29   1 -10    0.30    2.30
  27  -1 -10    3.10    2.30
  27   1 -10    3.60    2.40
  27   1 -10    5.60    2.10
  27   1 -10    3.40    2.20
  25  -1 -10    6.20    2.00
  25  -1 -10   -0.40    1.80
  25   1 -10    2.60    1.90
  25   1 -10    0.50    1.80
  25   1 -10   -1.50    1.80
 -25   1  10    2.30    1.30
  23  -1 -10    2.10    1.80
  23  -1 -10   -0.40    1.60
  23   1 -10    1.40    1.80
  23   1 -10    1.10    1.70
  23   1 -10    2.60    1.80
  21  -1 -10    9.70    2.00
  21  -1 -10   11.10    2.20
  21   1 -10   13.00    2.00
  21   1 -10    9.70    2.10
  21   1 -10   10.30    2.10
  19  -1 -10   -1.40    1.30
  19  -1 -10    2.00    1.40
  19   1 -10    1.30    1.20
  19   1 -10   -0.20    1.40
  19   1 -10    0.90    1.40
  17  -1 -10   33.60    2.90
  17  -1 -10   26.20    2.70
  17   1 -10   28.50    2.90
  17   1 -10   31.70    2.90
  15  -1 -10    8.00    1.50
  15  -1 -10    6.80    1.50
  15   1 -10    7.20    1.60
  15   1 -10    7.40    1.30
  15   1 -10    8.70    1.70
  13  -1 -10    1.10    1.10
  13  -1 -10    1.50    1.10
  13   1 -10    1.70    0.90
  13   1 -10    2.10    1.10
  13   1 -10    0.60    1.00
  11  -1 -10   52.39    3.40
  11  -1 -10   51.99    3.20
  11   1 -10   46.20    3.10
  11   1 -10   49.90    2.80
  11   1 -10   45.90    3.30
   9  -1 -10   84.19    4.40
   9  -1 -10   89.89    4.90
   9   1 -10   84.79    4.80
   9   1 -10   84.99    4.20
   9   1 -10   83.29    4.40
   7  -1 -10   50.49    3.20
   7   1 -10   49.30    3.20
   7   1 -10   48.20    2.60
   7   1 -10   49.90    2.90
   5  -1 -10   15.00    1.80
   5   1 -10   17.10    1.60
   5   1 -10   17.80    1.40
   5   1 -10   16.20    1.90
   3  -1 -10   34.60    2.60
   3   1 -10   34.00    2.00
   3   1 -10   30.20    2.50
   1  -1 -10   91.09    5.00
  -1  -1  10   81.99    4.30
  -1   1  10   89.49    5.00
   1   1 -10   93.79    5.00
   1  -1  10   71.09    4.20
   1  -1  10   72.49    3.80
   1   1  10   73.19    4.30
   3  -1  10   32.90    2.40
   3  -1  10   37.20    2.80
   3   1  10   30.90    2.70
   3   1  10   36.50    2.00
   5  -1  10   22.80    2.50
   5  -1  10   26.20    2.30
   5   1  10   25.80    1.90
   5   1  10   22.50    2.50
   7  -1  10   43.60    2.40
   7  -1  10   38.70    3.00
   7  -1  10   38.90    3.20
   7   1  10   41.20    2.60
   7   1  10   34.10    3.20
   9  -1  10   17.20    1.70
   9  -1  10   19.40    2.30
   9  -1  10   23.10    2.60
   9   1  10   17.80    2.50
   9   1  10   18.30    1.90
  11  -1  10   27.10    2.40
  11  -1  10   27.40    2.90
  11  -1  10   24.60    3.10
  11   1  10   28.00    2.50
  11   1  10   26.20    3.20
  13  -1  10    4.30    1.90
  13  -1  10    6.10    1.50
  13  -1  10    5.70    2.10
  13   1  10    3.80    2.00
  15  -1  10    0.30    1.80
  15  -1  10    3.60    2.20
  15   1  10   -0.80    1.90
  17  -1  10    4.20    2.60
  17  -1  10    0.30    2.10
  17   1  10    1.60    2.40
  19  -1  10    3.70    2.40
  19  -1  10    1.30    2.80
  19   1  10    9.40    3.20
  21  -1  10   -2.70    2.40
  21  -1  10   -2.70    2.70
  21   1  10    2.10    3.10
  30  -2 -10    1.80    2.50
  30   2 -10    4.80    2.70
  30   2 -10    2.00    2.50
  30   2 -10    5.50    2.40
  28  -2 -10    1.70    2.20
  28   2 -10   -0.60    2.00
  28   2 -10    1.40    2.20
  28   2 -10    3.20    2.30
  26  -2 -10   -0.60    1.90
  26   2 -10    1.80    2.10
  26   2 -10   -2.60    1.90
  26   2 -10   -1.70    1.80
  24  -2 -10   -1.70    1.60
  24   2 -10   -0.20    1.90
  24   2 -10    1.90    1.80
 -24   2  10    0.90    1.20
  24   2 -10    0.40    1.70
  22  -2 -10    0.40    1.60
  22   2 -10   -0.30    1.60
  22   2 -10    0.90    1.60
  22   2 -10    1.10    1.60
 -22   2  10   -0.10    1.00
  20  -2 -10   -1.20    1.40
  20   2 -10    0.50    1.50
  20   2 -10    0.10    1.30
  20   2 -10    0.90    1.50
  18  -2 -10    1.20    1.40
  18   2 -10    1.70    1.20
  18   2 -10    3.10    1.60
  18   2 -10    3.40    1.50
  16  -2 -10   -0.20    1.10
  16   2 -10    0.50    1.20
  16   2 -10    0.50    1.00
  16   2 -10   -0.20    1.20
  14  -2 -10    0.70    1.10
  14   2 -10    2.10    1.20
  14   2 -10    0.10    0.40
  14   2 -10   -0.30    1.10
  12  -2 -10    1.00    1.10
  12   2 -10   -0.60    0.80
  12   2 -10    0.50    1.00
  12   2 -10    1.60    1.10
  10  -2 -10   -0.70    0.90
  10   2 -10   -0.30    0.80
  10   2 -10    1.10    0.80
  10   2 -10    0.10    1.00
   8  -2 -10   -1.10    0.80
   8   2 -10   -1.00    0.80
   8   2 -10    0.20    0.60
   8   2 -10    0.50    0.80
   6  -2 -10    0.00    0.90
   6   2 -10    0.30    0.80
   6   2 -10   -0.60    0.60
   6   2 -10    0.90    0.90
   4  -2 -10    2.10    1.10
   4   2 -10    3.00    0.80
   4   2 -10    1.70    1.00
   4   2 -10    3.10    0.80
   2  -2 -10    0.80    0.90
   2   2 -10    0.20    0.90
   2   2 -10    0.10    0.60
   0  -2  10    2.00    0.80
   0  -2 -10    1.70    1.00
   0  -2  10    1.40    1.00
   0   2 -10    3.00    1.10
   0   2  10    1.50    0.60
   0   2  10   -0.70    1.00
   2  -2  10    0.60    1.00
   2  -2  10   -0.50    0.80
   2   2  10    0.50    0.60
   2   2  10    0.50    1.10
   4  -2  10   -1.00    0.90
   4  -2  10   -0.20    1.00
   4   2  10    1.30    0.80
   4   2  10    1.40    1.20
   6  -2  10    0.90    1.10
   6  -2  10    1.30    1.20
   6   2  10    0.00    1.20
   6   2  10   -0.50    0.90
   8  -2  10   -1.30    1.20
   8  -2  10   -0.60    0.80
   8  -2  10    0.40    1.20
   8   2  10   -1.70    1.20
   8   2  10   -1.70    0.90
  10  -2  10    0.50    1.00
  10  -2  10   -0.40    1.50
  10  -2  10    1.60    1.50
  10   2  10    2.50    1.70
  10   2  10    1.40    1.10
  12  -2  10    0.30    1.60
  12  -2  10    0.60    1.70
  12  -2  10   -3.00    1.00
  12   2  10    2.10    1.90
  14  -2  10    1.10    1.90
  14  -2  10    3.50    2.10
  14   2  10    0.40    2.00
  16  -2  10    0.00    2.00
  16  -2  10   -0.90    2.00
  16   2  10   -1.80    2.00
  18  -2  10    2.40    2.60
  18  -2  10    0.60    2.30
  18   2  10    1.70    2.60
  20  -2  10   -0.90    2.70
  20  -2  10   -0.20    2.50
  20   2  10   -1.30    2.60
  31  -3 -10    1.00    2.60
  31   3 -10   -0.60    2.50
  31   3 -10    9.40    2.60
  31   3 -10   -0.60    2.60
  29  -3 -10   33.00    4.10
  29   3 -10   24.70    3.80
  29   3 -10   37.10    4.00
  29   3 -10   35.10    4.20
  27  -3 -10    9.00    2.70
  27   3 -10    6.90    2.50
  27   3 -10    6.90    2.30
  27   3 -10    3.70    2.40
  25  -3 -10   48.00    4.60
  25   3 -10   50.09    4.20
  25   3 -10   59.89    4.50
  25   3 -10   42.20    4.50
  23  -3 -10   -1.90    1.60
  23   3 -10    0.00    1.70
  23   3 -10    1.00    1.70
 -23   3  10   -0.20    1.10
  23   3 -10    0.90    1.70
  21  -3 -10    6.20    1.90
  21   3 -10    8.50    2.20
 -21   3  10   10.10    1.50
  21   3 -10    8.00    1.90
  21   3 -10    8.80    2.10
  19  -3 -10   37.50    3.50
  19   3 -10   44.50    3.30
  19   3 -10   46.00    3.60
 -19   3  10   45.00    2.80
  19   3 -10   42.70    3.60
  17  -3 -10   64.59    4.50
 -17   3  10   78.29    3.70
  17   3 -10   69.99    4.20
  17   3 -10   69.69    4.40
  17   3 -10   65.89    4.50
  15  -3 -10    5.10    1.50
 -15   3  10    8.70    1.10
  15   3 -10   12.00    1.60
  15   3 -10    7.50    1.60
  15   3 -10   11.40    1.80
  13  -3 -10   70.79    4.50
  13   3 -10   74.19    4.60
  13   3 -10   79.39    4.40
  13   3 -10   78.09    4.10
  11  -3 -10   18.10    2.10
  11   3 -10   21.20    2.10
  11   3 -10   27.10    2.50
   9  -3 -10  199.88    9.80
   9   3 -10  199.08    9.70
   9   3 -10  194.18    9.00
   9   3 -10  191.88    9.00
   7  -3 -10   -0.20    0.90
   7   3 -10    0.60    0.90
   7   3 -10   -0.10    0.70
   7   3 -10    1.80    0.90
   5  -3 -10  255.57   12.20
   5   3 -10  251.87   11.40
   5   3 -10  252.47   11.10
   5   3 -10  251.57   12.10
  -5   3  10  247.38   10.80
   3  -3 -10    5.80    1.20
  -3   3  10    5.10    0.80
   3   3 -10    6.10    1.10
   3   3 -10   10.60    1.50
   3   3 -10    6.30    1.00
   1  -3 -10  113.29    6.20
  -1  -3  10  118.89    5.70
  -1   3  10  109.09    5.20
  -1   3  10  115.19    6.20
   1   3 -10  115.49    6.00
   1  -3  10    1.60    0.90
   1  -3  10    2.80    1.10
   1   3  10    2.60    1.20
   1   3  10    4.00    0.90
   3  -3  10   27.80    2.40
   3  -3  10   30.80    2.50
   3   3  10   30.50    2.10
   3   3  10   29.10    2.80
   5  -3  10    2.70    1.30
   5  -3  10    4.40    1.30
   5   3  10    3.80    1.10
   5   3  10    2.70    1.40
   7  -3  10   34.20    2.90
   7  -3  10   34.30    2.90
   7   3  10   35.50    2.60
   7   3  10   36.40    3.20
   9  -3  10    1.70    1.00
   9  -3  10    0.40    1.40
   9  -3  10    1.40    1.40
   9   3  10   -0.40    1.10
   9   3  10   -0.80    1.40
  11  -3  10    5.90    1.80
  11  -3  10   12.60    1.60
  11  -3  10   10.60    2.10
  11   3  10    7.70    1.70
  11   3  10    8.50    2.10
  13  -3  10   10.60    2.30
  13  -3  10   13.60    1.80
  13  -3  10   10.30    2.30
  13   3  10   11.90    2.50
  15  -3  10    9.00    2.40
  15  -3  10    7.40    2.40
  15   3  10    8.10    2.60
  17  -3  10    2.00    2.30
  17  -3  10    1.90    2.40
  17   3  10    0.60    2.40
  19  -3  10   10.50    3.20
  19  -3  10   16.00    3.30
  19   3  10   17.20    3.60
  21  -3  10    4.80    2.90
  21  -3  10    2.80    3.20
  21   3  10    5.00    3.30
  30  -4 -10   -1.40    2.40
  30   4 -10    1.20    2.60
  30   4 -10   -2.00    2.50
  30   4 -10    1.00    2.40
  28  -4 -10    4.00    2.50
  28   4 -10    5.10    2.40
  28   4 -10   -0.80    2.40
  28   4 -10    4.40    2.60
  26  -4 -10   -0.60    2.00
  26   4 -10    0.70    2.10
  26   4 -10    3.50    2.30
  26   4 -10    0.20    2.00
  24  -4 -10   -1.00    1.80
  24   4 -10    3.60    2.20
  24   4 -10    0.30    1.80
  24   4 -10    0.70    1.90
  22  -4 -10    0.70    1.70
  22   4 -10    4.60    2.00
  22   4 -10    5.30    1.90
  22   4 -10    1.80    1.70
 -22   4  10    4.60    1.30
  20  -4 -10    0.10    1.50
  20   4 -10   -1.70    1.40
 -20   4  10    1.80    1.10
  20   4 -10    1.10    1.40
  20   4 -10    0.70    1.50
  18  -4 -10    7.10    1.80
 -18   4  10    8.30    1.30
  18   4 -10    7.90    1.90
  18   4 -10    6.90    1.60
  18   4 -10    7.70    1.90
  16  -4 -10    3.80    1.40
  16   4 -10    1.50    1.40
  16   4 -10    2.00    1.20
  16   4 -10    3.10    1.50
 -16   4  10    3.90    1.00
  14  -4 -10    0.10    1.20
  14   4 -10    2.10    1.10
  14   4 -10    2.80    1.30
  14   4 -10    1.30    1.30
 -14   4  10    1.80    0.80
  12  -4 -10   -0.20    1.10
 -12   4  10    0.30    0.70
  12   4 -10    0.90    1.10
  12   4 -10    0.80    1.00
  12   4 -10    0.50    1.10
  10  -4 -10    1.00    1.10
 -10   4  10    0.70    0.60
  10   4 -10    2.20    1.00
  10   4 -10   -0.40    0.80
  10   4 -10   -0.80    1.00
   8  -4 -10    3.20    1.20
   8   4 -10    3.60    1.10
  -8   4  10    4.40    0.70
   8   4 -10    4.80    1.30
   8   4 -10    2.80    0.90
   6  -4 -10    0.70    1.00
  -6   4  10    0.20    0.60
   6   4 -10    0.90    1.00
   6   4 -10    1.20    0.90
   6   4 -10   -0.30    0.50
   4  -4 -10    8.80    1.50
   4   4 -10   10.80    1.50
  -4   4  10    7.70    1.00
   4   4 -10    9.20    1.30
   4   4 -10    5.40    1.00
   2  -4 -10    0.30    1.00
   2   4 -10    0.70    0.90
  -2   4  10    0.40    1.10
  -2   4  10    0.70    0.70
   2   4 -10    1.10    0.80
   2   4 -10   -0.60    0.70
   0  -4  10    4.40    1.20
   0  -4  10    6.30    1.30
   0   4  10    6.40    1.10
   0   4  10    3.40    1.30
   0   4 -10    3.80    1.20
   2  -4  10    6.30    1.30
   2  -4  10    6.60    1.40
   2   4  10    4.80    1.50
   2   4  10    5.30    1.10
   4  -4  10   -0.10    1.10
   4  -4  10    1.80    1.10
   4   4  10    4.50    1.40
   4   4  10    0.30    1.00
   6  -4  10    4.40    1.40
   6  -4  10    3.40    1.40
   6   4  10    4.00    1.50
   6   4  10    3.70    1.30
   8  -4  10    1.30    1.40
   8  -4  10    1.30    1.40
   8   4  10    0.40    1.40
   8   4  10    1.10    1.30
  10  -4  10    6.90    2.00
  10  -4  10    3.30    1.60
  10   4  10    3.00    1.40
  10   4  10    2.00    1.70
  12  -4  10   -0.10    1.60
  12  -4  10   -0.20    1.10
  12  -4  10    1.30    1.70
  12   4  10    0.50    1.80
  14  -4  10    0.80    2.00
  14  -4  10    1.20    2.00
  14   4  10   -0.80    1.90
  16  -4  10    0.20    2.20
  16  -4  10   -1.20    2.10
  16   4  10    0.80    2.20
  18  -4  10    0.70    2.50
  18  -4  10    0.60    2.40
  18   4  10   -0.70    2.50
  20  -4  10    1.00    2.70
  20   4  10    1.50    2.70
  29  -5 -10   52.89    5.20
  29   5 -10   50.99    5.10
  29   5 -10   60.99    5.20
  29   5 -10   42.60    5.00
  27  -5 -10    8.20    2.60
  27   5 -10    6.40    2.50
  27   5 -10    6.90    2.70
  27   5 -10    7.20    2.70
  25  -5 -10   54.39    4.90
  25   5 -10   64.49    4.90
  25   5 -10   55.99    4.60
  25   5 -10   60.99    5.20
  23  -5 -10   -0.50    1.80
  23   5 -10    2.50    1.90
  23   5 -10    1.50    2.00
  23   5 -10    4.40    2.00
  21  -5 -10   72.49    5.20
 -21   5  10   76.39    4.40
  21   5 -10   84.69    5.20
  21   5 -10   77.39    5.00
  21   5 -10   72.59    5.30
  19  -5 -10   21.10    2.70
  19   5 -10   25.70    3.00
  19   5 -10   23.80    2.90
  19   5 -10   31.90    3.00
 -19   5  10   27.90    2.30
  17  -5 -10  380.46   19.10
  17   5 -10  408.36   18.10
 -17   5  10  412.26   17.60
  17   5 -10  414.46   18.40
  17   5 -10  402.96   19.30
  15  -5 -10    3.70    1.50
  15   5 -10    2.50    1.40
 -15   5  10    5.40    1.10
  15   5 -10    4.50    1.40
  15   5 -10    3.80    1.50
  13  -5 -10  197.48   10.00
  13   5 -10  193.18    9.40
  13   5 -10  197.48    9.90
 -13   5  10  199.38    8.90
  13   5 -10  201.58    9.50
  11  -5 -10   44.70    3.50
  11   5 -10   54.39    3.50
  11   5 -10   54.59    3.50
 -11   5  10   47.80    2.80
  11   5 -10   50.99    3.20
   9  -5 -10   38.30    3.00
  -9   5  10   40.30    2.40
   9   5 -10   36.40    2.90
   9   5 -10   40.90    2.70
   9   5 -10   40.60    2.90
   7  -5 -10   15.90    2.00
   7   5 -10   16.00    1.80
   7   5 -10   15.50    1.70
   7   5 -10   14.40    1.80
  -7   5  10   15.00    1.40
   5  -5 -10  134.49    7.20
  -5   5  10  139.29    6.30
   5   5 -10  134.49    6.50
   5   5 -10  140.89    7.00
   5   5 -10  133.69    6.60
   3  -5 -10    0.80    1.00
   3   5 -10    1.80    1.00
   3   5 -10    2.10    1.00
   3   5 -10    1.20    0.90
  -3   5  10    1.70    0.80
   1  -5 -10   14.40    1.90
   1   5 -10   15.90    1.70
  -1   5  10   11.00    1.40
  -1   5  10   12.90    1.90
   1   5 -10   11.80    1.60
   1  -5  10   43.00    3.00
   1  -5  10   38.70    2.80
   1   5  10   40.40    2.70
   1   5  10   38.20    3.10
   3  -5  10   69.19    4.30
   3  -5  10   75.99    4.40
   3   5  10   74.29    4.10
   3   5  10   78.69    4.70
   5  -5  10   34.40    3.00
   5  -5  10   34.20    2.80
   5   5  10   43.00    2.90
   5   5  10   34.20    3.10
   7  -5  10   83.89    4.90
   7  -5  10   88.09    5.10
   7   5  10   79.69    4.70
   7   5  10   81.59    5.20
   9  -5  10   88.39    5.40
   9  -5  10   93.59    5.60
   9   5  10  102.39    5.20
   9   5  10   82.39    5.70
  11  -5  10    4.70    1.90
  11  -5  10    5.60    1.80
  11   5  10    3.90    2.00
  13  -5  10   41.70    4.00
  13  -5  10   38.50    3.70
  13  -5  10   45.90    3.10
  13   5  10   33.50    3.90
  15  -5  10   42.40    4.40
  15   5  10   30.20    4.00
  17  -5  10   12.00    2.80
  17   5  10    9.10    2.90
  19  -5  10   57.69    5.40
  19   5  10   36.10    4.80
  30  -6 -10   -0.50    2.40
  30   6 -10   -0.70    2.60
  30   6 -10    2.60    2.60
  30   6 -10    0.80    2.70
  28  -6 -10    0.50    2.30
  28   6 -10    1.80    2.60
  28   6 -10   -2.00    2.30
  28   6 -10    2.20    2.30
  26  -6 -10    0.10    2.10
  26   6 -10    3.60    2.30
  26   6 -10    3.20    2.30
  26   6 -10    2.20    2.40
  24  -6 -10    2.80    2.00
  24   6 -10    3.20    2.10
  24   6 -10    3.00    2.20
  24   6 -10    2.00    2.00
  22  -6 -10    2.70    1.90
  22   6 -10   -2.00    1.70
  22   6 -10   -0.40    1.90
  22   6 -10    1.20    1.80
  20  -6 -10    1.60    1.60
  20   6 -10   -1.50    1.40
  20   6 -10    2.60    1.80
  20   6 -10    3.40    1.90
 -20   6  10   -1.10    1.10
  18  -6 -10    3.00    1.60
  18   6 -10    3.00    1.70
  18   6 -10    2.00    1.60
 -18   6  10    2.20    1.20
  18   6 -10    2.00    1.60
  16  -6 -10    6.30    1.70
 -16   6  10    6.70    1.30
  16   6 -10    6.50    1.90
  16   6 -10    8.80    1.90
  16   6 -10    8.10    1.70
  14  -6 -10    2.70    1.40
 -14   6  10    0.40    1.00
  14   6 -10    0.00    1.40
  14   6 -10    0.50    1.30
  14   6 -10    1.10    1.30
  12  -6 -10   14.50    2.00
  12   6 -10   13.20    2.00
 -12   6  10   17.60    1.70
  12   6 -10   15.80    1.90
  12   6 -10   18.00    2.20
  10  -6 -10   13.00    1.90
  10   6 -10   10.30    1.70
  10   6 -10   10.50    1.70
  10   6 -10   10.80    1.70
 -10   6  10   12.10    1.40
   8  -6 -10    2.60    1.30
  -8   6  10    1.90    0.90
   8   6 -10    2.20    1.10
   8   6 -10    1.10    1.00
   8   6 -10    2.10    1.10
   6  -6 -10   13.00    1.80
   6   6 -10   13.60    1.70
   6   6 -10   16.50    1.80
  -6   6  10   11.40    1.40
   6   6 -10   14.10    1.70
   4  -6 -10    8.80    1.60
   4   6 -10    6.60    1.30
  -4   6  10    6.20    1.10
   4   6 -10    7.10    1.40
   4   6 -10    5.10    1.20
   2  -6 -10    7.00    1.60
  -2   6  10   14.30    1.50
   2   6 -10   10.90    1.60
   2   6 -10   13.80    1.70
  -2   6  10   12.00    1.80
   2   6 -10    8.80    1.30
   0  -6  10    0.30    1.00
   0   6  10   -0.40    0.90
   0   6 -10   -0.50    1.00
   0   6  10   -0.10    1.20
   0   6 -10    0.50    1.00
   2  -6  10    2.20    1.30
   2  -6  10    1.50    1.00
   2   6  10    1.20    1.30
   2   6  10   -0.10    0.90
   4  -6  10    1.00    1.10
   4  -6  10    1.40    1.30
   4   6  10    0.30    1.10
   4   6  10    0.20    1.30
   6  -6  10    2.30    1.50
   6  -6  10    2.30    1.20
   6   6  10    2.00    1.50
   6   6  10    0.60    1.30
   8  -6  10    1.70    1.50
   8  -6  10   -0.40    1.30
   8   6  10    1.20    1.40
   8   6  10    1.10    1.60
  10  -6  10   -0.10    1.60
  10   6  10    0.10    1.70
  12  -6  10    0.30    1.80
  12   6  10   -0.20    1.90
  14  -6  10   -2.50    2.00
  14   6  10   -0.40    2.10
  16  -6  10    2.40    2.40
  16   6  10    1.90    2.40
  18  -6  10    0.30    2.40
  18   6  10    3.90    2.70
  20  -6  10    1.50    2.80
  20   6  10    0.00    2.80
  29  -7 -10   10.40    3.00
  29   7 -10    5.30    3.00
  29   7 -10   12.10    3.30
  29   7 -10   12.30    3.00
  27  -7 -10   13.60    3.00
  27   7 -10   12.30    3.30
  27   7 -10   16.90    3.40
  27   7 -10   15.10    3.10
  25  -7 -10   31.40    3.90
  25   7 -10   36.80    4.10
  25   7 -10   31.70    3.80
  25   7 -10   35.80    4.30
  23  -7 -10    2.30    1.90
  23   7 -10    4.40    2.20
  23   7 -10    3.20    2.10
  23   7 -10    0.70    2.00
  21  -7 -10   51.89    4.20
  21   7 -10   51.09    4.30
  21   7 -10   53.29    4.60
  21   7 -10   50.19    4.50
  19  -7 -10    4.10    1.80
  19   7 -10    3.20    1.90
  19   7 -10    6.30    2.00
  19   7 -10    4.00    1.80
  17  -7 -10   50.29    3.90
  17   7 -10   48.50    3.90
 -17   7  10   49.90    3.30
  17   7 -10   51.49    3.80
  17   7 -10   47.50    4.00
  15  -7 -10   -1.50    1.30
  15   7 -10    2.30    1.60
  15   7 -10    1.50    1.50
  15   7 -10   -0.60    1.40
 -15   7  10    1.30    1.10
  13  -7 -10  111.39    6.30
 -13   7  10  118.39    5.70
  13   7 -10  112.99    6.20
  13   7 -10  110.59    6.30
  13   7 -10  116.89    6.10
  11  -7 -10   56.29    3.90
 -11   7  10   57.59    3.40
  11   7 -10   60.89    3.80
  11   7 -10   51.39    3.70
  11   7 -10   59.09    3.90
   9  -7 -10  156.08    8.10
  -9   7  10  152.48    7.30
   9   7 -10  156.48    8.00
   9   7 -10  156.78    7.70
   9   7 -10  157.08    7.70
   7  -7 -10   10.00    1.80
  -7   7  10    8.40    1.30
   7   7 -10    7.80    1.60
   7   7 -10    7.80    1.50
   7   7 -10    9.80    1.50
   5  -7 -10  180.88    9.10
   5   7 -10  181.08    8.90
   5   7 -10  179.48    8.60
  -5   7  10  171.68    8.20
   5   7 -10  178.58    8.40
   3  -7 -10    8.60    1.70
  -3   7  10    9.00    1.40
  -3   7  10    6.50    1.60
   3   7 -10    7.50    1.50
   3   7 -10    5.80    1.30
   3   7 -10    7.90    1.40
  -1  -7  10  551.64   25.90
  -1   7  10  576.74   24.50
   1   7 -10  575.44   26.00
   1   7 -10  576.24   25.10
  -1   7  10  551.14   26.30
   1  -7  10    3.70    1.20
   1   7  10    3.30    1.40
   1   7  10    2.10    1.20
   3  -7  10  265.67   12.60
   3  -7  10  268.57   12.90
   3   7  10  278.67   12.20
   3   7  10  254.67   13.10
   5  -7  10    1.70    1.50
   5   7  10    2.00    1.30
   5   7  10    4.40    1.70
   7  -7  10   65.99    4.50
   7   7  10   53.79    4.40
   7   7  10   60.39    3.90
   9  -7  10    1.60    1.80
   9   7  10    2.00    1.80
  11  -7  10  100.99    6.00
  11   7  10   76.79    5.80
  13  -7  10   -0.40    2.10
  13   7  10    2.10    2.20
  15  -7  10   23.60    3.50
  15   7  10   22.10    3.50
  17  -7  10    8.40    3.00
  17   7  10    6.30    2.90
  19  -7  10    4.40    3.00
  19   7  10    0.70    2.70
  28  -8 -10    1.10    2.40
  28   8 -10    1.40    2.50
  28   8 -10    1.10    2.60
  28   8 -10    0.50    2.60
  26  -8 -10    1.20    2.20
  26   8 -10    4.60    2.60
  26   8 -10    2.60    2.60
  26   8 -10   -0.50    2.30
  24  -8 -10   -0.10    1.90
  24   8 -10   -1.00    2.20
  24   8 -10    1.50    2.30
  24   8 -10    1.30    2.30
  22  -8 -10    4.30    2.00
  22   8 -10    4.80    2.30
  22   8 -10   -0.10    2.00
  22   8 -10    6.40    2.20
  20  -8 -10   -0.20    1.60
  20   8 -10    0.50    1.90
  20   8 -10    2.80    2.00
  20   8 -10    2.80    2.10
  18  -8 -10    8.10    1.90
  18   8 -10    9.90    2.20
  18   8 -10    6.80    2.00
  18   8 -10    9.10    2.20
  16  -8 -10    0.50    1.50
  16   8 -10    1.00    1.60
  16   8 -10    0.20    1.50
 -16   8  10    4.10    1.30
  16   8 -10    3.30    1.80
  14  -8 -10    9.10    1.90
  14   8 -10   10.70    1.90
  14   8 -10    9.10    1.90
  14   8 -10   10.40    2.10
 -14   8  10    7.20    1.40
  12  -8 -10    4.80    1.60
 -12   8  10    4.30    1.30
  12   8 -10    3.50    1.40
  12   8 -10    4.20    1.60
  12   8 -10    2.70    1.60
  10  -8 -10    7.40    1.60
  10   8 -10    8.10    1.70
  10   8 -10    6.80    1.50
 -10   8  10    6.70    1.40
  10   8 -10    7.40    1.70
   8  -8 -10    0.90    1.30
   8   8 -10    2.40    1.30
   8   8 -10    3.40    1.40
  -8   8  10    4.90    1.20
   8   8 -10    3.90    1.30
   6  -8 -10    1.80    1.30
  -6   8  10    1.60    1.00
   6   8 -10    2.50    1.10
   6   8 -10    0.80    1.20
   6   8 -10    1.50    1.20
   4  -8 -10    2.20    1.40
   4   8 -10    0.00    1.20
  -4   8  10    1.40    1.00
   4   8 -10    0.20    1.00
  -4   8  10    2.60    1.50
   4   8 -10    0.90    1.10
   2   8 -10    3.40    1.10
   2   8 -10    2.90    1.30
   2   8 -10    1.10    1.10
  -2   8  10   -0.50    1.10
  -2   8  10    3.00    1.40
   0   8 -10    9.10    1.70
   0   8  10   13.80    2.00
   0   8  10   12.50    1.70
   2  -8  10    0.00    1.40
   2   8  10    0.10    1.20
   2   8  10    1.80    1.50
   4  -8  10   17.00    2.30
   4   8  10   14.40    2.00
   4   8  10   16.60    2.40
   6  -8  10    2.00    1.70
   6   8  10   -0.60    1.40
   6   8  10    1.60    1.60
   8  -8  10   14.00    2.60
   8   8  10   12.00    2.40
  10  -8  10    1.90    1.90
  10   8  10    0.20    1.90
  12  -8  10    3.00    2.30
  12   8  10    4.20    2.30
  14  -8  10   -2.80    2.00
  14   8  10   -0.30    2.10
  16  -8  10   -1.80    2.40
  16   8  10    3.90    2.80
  18  -8  10    3.70    2.80
  18   8  10    4.20    2.90
  27   9 -10   -2.90    2.30
  27   9 -10   -1.50    2.50
  27   9 -10    4.70    2.90
  25   9 -10   47.20    4.90
  25   9 -10   64.39    5.20
  25   9 -10   57.19    5.20
  23  -9 -10    0.50    1.80
  23   9 -10    2.70    2.30
  23   9 -10   -0.70    2.10
  23   9 -10   -2.10    2.10
  21  -9 -10   43.80    3.80
  21   9 -10   39.20    4.00
  21   9 -10   39.40    4.10
  21   9 -10   42.60    4.10
  19  -9 -10    2.20    1.80
  19   9 -10    1.40    2.00
  19   9 -10    3.40    2.10
  19   9 -10    1.30    1.90
  17  -9 -10   15.90    2.40
  17   9 -10   16.60    2.40
  17   9 -10   19.60    2.70
  17   9 -10   16.00    2.60
  15  -9 -10   33.50    3.20
  15   9 -10   35.40    3.30
  15   9 -10   38.50    3.60
  15   9 -10   30.70    3.20
  13  -9 -10  109.29    6.40
 -13   9  10  114.99    5.90
  13   9 -10  117.79    6.40
  13   9 -10  114.89    6.40
  13   9 -10  114.09    6.40
  11  -9 -10   10.10    1.90
 -11   9  10    6.60    1.50
  11   9 -10    8.00    1.90
  11   9 -10   10.30    1.80
  11   9 -10    9.10    1.90
   9  -9 -10  152.78    8.00
   9   9 -10  147.59    7.60
  -9   9  10  149.39    7.30
   9   9 -10  152.58    7.80
   9   9 -10  153.88    7.80
   7  -9 -10    1.50    1.30
  -7   9  10    3.40    1.30
   7   9 -10    1.00    1.30
   7   9 -10    0.90    1.30
   5  -9 -10   49.60    3.60
   5   9 -10   46.30    3.30
   5   9 -10   43.40    3.40
  -5   9  10   42.00    3.10
  -5   9  10   45.80    3.60
   3   9 -10   13.30    2.10
  -3   9  10   15.10    1.80
  -3   9  10   15.80    2.20
   3   9 -10   10.60    1.70
   1   9 -10  115.39    6.20
  -1   9  10  112.89    5.80
  -1   9  10  108.39    6.30
   1   9  10   18.30    2.40
  -1   9 -10   13.10    2.20
   1   9  10   17.80    2.10
   3  -9  10   51.99    4.00
   3   9  10   45.60    3.80
   3   9  10   51.49    3.60
   5  -9  10   48.30    4.00
   5   9  10   46.10    3.90
   7  -9  10   28.40    3.30
   7   9  10   25.90    3.20
   9  -9  10   16.50    2.90
   9   9  10   14.10    2.60
  11  -9  10   73.29    5.40
  11   9  10   53.79    4.90
  13  -9  10    6.70    2.60
  13   9  10    6.40    2.60
  15  -9  10   23.10    3.70
  15   9  10    9.50    3.10
  17  -9  10   36.90    4.60
  17   9  10   21.20    4.00
  26  10 -10    5.10    2.90
  26  10 -10    2.10    2.70
  26  10 -10    3.70    2.70
  24  10 -10    6.20    2.50
  24  10 -10   -0.80    2.20
  24  10 -10   -1.50    2.50
  22  10 -10    1.70    2.30
  22  10 -10    2.60    2.30
  22  10 -10   -0.50    2.10
  20  10 -10   -0.30    2.00
  20  10 -10   -2.90    1.80
  20  10 -10    1.10    2.10
  18 -10 -10    2.30    1.80
  18  10 -10    5.20    2.00
  18  10 -10    2.10    2.20
  18  10 -10    1.10    2.00
  16 -10 -10    0.60    1.60
  16  10 -10    0.20    1.80
  16  10 -10   -0.70    1.50
  16  10 -10    2.20    1.80
  14 -10 -10    5.90    1.80
  14  10 -10    5.20    1.80
  14  10 -10    6.00    1.90
  14  10 -10    4.00    1.90
  12 -10 -10    0.20    1.50
  12  10 -10    2.00    1.60
  12  10 -10   -1.80    1.40
  10 -10 -10    0.60    1.40
  10  10 -10    2.50    1.50
 -10  10  10    1.60    1.20
  10  10 -10    0.20    1.40
   8 -10 -10    6.10    1.70
   8  10 -10    7.10    1.90
  -8  10  10    7.50    1.50
   8  10 -10    7.20    1.80
   6 -10 -10    3.40    1.60
  -6  10  10    2.20    1.20
   6  10 -10    0.20    1.30
  -6  10  10    2.40    1.60
   6  10 -10    1.80    1.60
   4  10 -10    1.50    1.50
  -4  10  10    2.40    1.30
   4  10 -10    1.30    1.30
  -4  10  10    2.00    1.50
   2  10 -10    0.70    1.20
   2  10 -10    2.40    1.50
  -2  10  10    2.20    1.20
  -2  10  10    1.70    1.40
   0  10  10   11.50    2.10
   0  10  10    9.10    1.80
   0  10 -10   14.50    2.30
   2  10  10    1.80    1.50
   2  10  10    1.20    1.60
   4 -10  10    4.50    1.90
   4  10  10    7.50    2.00
   6 -10  10    0.50    1.90
   6  10  10    2.70    1.80
   8 -10  10    4.00    2.20
   8  10  10    4.60    2.10
  10 -10  10    0.90    2.10
  10  10  10   -1.00    1.90
  12 -10  10    6.80    2.70
  12  10  10    9.30    2.80
  14 -10  10    1.60    2.40
  14  10  10   -0.80    2.30
  16 -10  10   -0.70    2.60
  16  10  10    1.70    2.60
  25  11 -10   13.40    3.40
  25  11 -10   14.90    3.50
  25  11 -10   15.90    3.40
  23  11 -10    2.50    2.40
  23  11 -10    0.30    2.50
  23  11 -10    2.20    2.50
  21  11 -10   22.80    3.50
  21  11 -10   15.70    3.10
  21  11 -10   21.60    3.40
  19  11 -10   -2.00    1.90
  19  11 -10    0.80    2.10
  17  11 -10   48.40    4.30
  17  11 -10   39.90    4.10
  15  11 -10   20.90    2.90
  15  11 -10   23.20    3.10
  13 -11 -10  114.09    6.40
  13  11 -10  101.19    6.50
  13  11 -10  117.09    6.70
  11 -11 -10   27.00    2.80
  11  11 -10   23.40    2.80
  11  11 -10   32.40    3.20
   9 -11 -10   52.29    3.90
   9  11 -10   53.19    4.10
   9  11 -10   45.80    3.90
   7 -11 -10   16.80    2.40
   7  11 -10   19.30    2.60
   7  11 -10   17.10    2.40
  -7  11  10    9.30    2.10
  -5  11  10   61.79    4.20
   5  11 -10   68.59    4.60
   5  11 -10   56.59    4.10
  -5  11  10   57.69    4.20
  -3  11  10   21.10    2.60
   3  11 -10   23.30    2.50
   3  11 -10   17.30    2.50
   1  11 -10    4.10    1.80
  -1  11  10    3.40    1.60
  -1  11 -10   11.80    2.40
   1  11  10    9.70    2.10
   3 -11  10   19.80    2.80
   3  11  10   13.70    2.40
   5 -11  10   21.80    2.90
   5  11  10   19.40    2.80
   7 -11  10   16.20    2.80
   7  11  10   17.20    2.80
   9 -11  10   -0.40    2.00
   9  11  10    0.60    2.00
  11 -11  10    1.20    2.30
  11  11  10   -0.50    2.10
  13 -11  10    1.80    2.60
  13  11  10    0.70    2.40
  15 -11  10    7.90    3.00
  15  11  10    7.40    3.00
  24  12 -10   -2.70    2.50
  24  12 -10    0.30    2.70
  22  12 -10   -0.20    2.50
  22  12 -10    1.30    2.40
  20  12 -10    1.00    2.50
  20  12 -10    2.10    2.50
  18  12 -10    1.00    2.20
  18  12 -10   -0.60    2.10
  16  12 -10    3.50    2.30
  16  12 -10    2.20    2.20
  14  12 -10    0.20    1.90
  14  12 -10    3.00    2.10
  12  12 -10    5.10    2.10
  12  12 -10    4.20    2.00
  10  12 -10    4.10    1.90
  10  12 -10    0.90    1.80
   8 -12 -10    2.40    1.70
   8  12 -10    4.70    1.80
   8  12 -10    5.30    2.10
  -8  12  10    6.40    1.90
   6  12 -10    1.20    1.60
   6  12 -10    5.20    2.00
  -6  12  10    3.60    1.70
  -4  12  10    2.40    1.60
   4  12 -10    4.50    1.90
   4  12 -10    5.10    1.80
   2  12 -10    6.20    2.00
  -2  12  10    6.30    1.90
   0  12  10    2.30    1.70
   0  12 -10    1.40    1.90
   2  12  10   -0.40    1.70
   4 -12  10    1.70    1.90
   4  12  10    0.40    1.80
   6 -12  10    1.60    2.20
   6  12  10   -1.10    1.80
   8 -12  10    4.90    2.30
   8  12  10    2.00    2.10
  10 -12  10   -1.70    2.10
  10  12  10    2.20    2.30
  12 -12  10   -1.70    2.50
  12  12  10    3.00    2.60
  14 -12  10   -4.10    2.30
  14  12  10    0.20    2.60
  23  13 -10   -3.50    2.40
  23  13 -10   -1.40    2.50
  21  13 -10    0.70    2.60
  21  13 -10   -1.20    2.60
  19  13 -10   -0.50    2.40
  19  13 -10    2.00    2.50
  17  13 -10    2.70    2.30
  17  13 -10   -1.10    2.20
  15  13 -10    3.10    2.40
  15  13 -10    4.30    2.30
  13  13 -10    4.70    2.30
  13  13 -10    0.50    2.00
  11  13 -10   13.70    2.60
  11  13 -10   21.10    3.00
   9  13 -10   -0.10    1.80
   9  13 -10    2.50    2.20
   7  13 -10   69.19    4.80
   7  13 -10   73.09    5.30
   5  13 -10   19.90    2.70
   5  13 -10   21.70    3.10
  -3  13  10   -0.70    1.60
   3  13 -10   -0.10    1.80
   3  13 -10   -0.70    1.60
   1  13 -10   84.29    5.60
  -1  13  10   76.99    5.20
  -1  13 -10    0.00    2.00
   1  13  10    0.70    1.70
   3 -13  10   43.40    4.30
   3  13  10   27.60    3.30
   5 -13  10    0.00    2.20
   5  13  10   -0.60    1.80
   7 -13  10   -0.70    2.10
   7  13  10    2.30    2.20
   9 -13  10    2.80    2.40
   9  13  10   -0.50    2.20
  11 -13  10   -1.30    2.50
  11  13  10    2.90    2.50
  13 -13  10    1.70    2.70
  13  13  10   -2.30    2.50
  20  14 -10    2.40    2.80
  20  14 -10   -0.20    2.50
  18  14 -10   -1.40    2.40
  18  14 -10   -4.40    2.20
  16  14 -10    2.50    2.40
  16  14 -10    2.20    2.40
  14  14 -10    1.70    2.40
  14  14 -10   -0.70    2.20
  12  14 -10   -0.70    2.10
  12  14 -10   -2.20    1.70
  10  14 -10   -0.20    2.10
  10  14 -10   -0.10    1.90
   8  14 -10    1.80    1.90
   8  14 -10    3.40    2.20
   6  14 -10    6.20    2.30
   6  14 -10    5.80    2.20
   4  14 -10    0.60    1.80
   4  14 -10    1.30    2.20
   2  14 -10    1.90    2.30
   2  14 -10    3.70    2.20
   0  14 -10    1.10    2.10
   4 -14  10   -1.10    2.10
   4  14  10    3.60    2.10
   6 -14  10    3.50    2.50
   6  14  10    4.90    2.40
   8 -14  10   -2.50    2.20
   8  14  10   -1.10    2.20
  10 -14  10   -3.60    2.20
  10  14  10   -1.70    2.40
  19  15 -10   -0.80    2.60
  19  15 -10    6.30    3.10
  17  15 -10   -3.60    2.30
  17  15 -10    1.30    2.40
  15  15 -10    3.30    2.60
  15  15 -10    2.40    2.50
  13  15 -10    0.10    2.40
  13  15 -10    1.60    2.30
  11  15 -10    3.10    2.20
  11  15 -10   -3.00    2.40
   9  15 -10    1.30    2.30
   9  15 -10    0.40    2.00
   7  15 -10    6.20    2.60
   7  15 -10    6.60    2.20
   5  15 -10   44.70    4.40
   5  15 -10   33.50    3.60
   3  15 -10    3.80    2.20
   3  15 -10    5.20    2.70
   3  15 -10    5.30    2.40
   1  15 -10    1.10    2.30
  -1  15 -10    3.70    2.40
   1  15  10   -0.90    2.00
   3 -15  10    2.40    2.40
   5 -15  10    3.00    2.50
   7 -15  10   -0.80    2.30
   9 -15  10    0.50    2.70
  16  16 -10   -6.10    2.20
  16  16 -10    0.20    2.70
  14  16 -10   -1.40    2.50
  14  16 -10    3.20    2.50
  12  16 -10   -2.10    2.00
  12  16 -10    0.50    2.60
  10  16 -10    1.50    2.40
  10  16 -10    0.40    2.20
   8  16 -10    3.40    2.30
   8  16 -10    1.30    2.60
   6  16 -10    4.00    2.50
   6  16 -10    3.40    2.30
   4  16 -10    1.10    2.30
   4  16 -10   -1.80    1.90
   2  16 -10    0.60    2.40
   0  16 -10   -1.90    2.30
   0  16  10    1.60    2.30
   4 -16  10    1.20    2.60
   6 -16  10    0.70    2.50
  13  17 -10    1.90    2.50
  13  17 -10    4.30    2.90
  11  17 -10   -0.50    2.20
  11  17 -10    1.20    2.60
   9  17 -10    4.40    2.60
   9  17 -10    3.80    2.80
   7  17 -10    1.20    2.80
   7  17 -10    1.30    2.30
   5  17 -10    9.40    3.00
   5  17 -10    7.90    2.60
   3  17 -10    2.70    2.60
   3  17 -10    3.40    2.70
   1  17 -10    9.10    3.00
  -1  17  10    1.70    2.50
  -1  17 -10    4.60    2.80
   1  17  10   -2.10    2.20
   3 -17  10    9.70    3.20
  30   0 -11    0.00    2.20
  30   0 -11   -0.90    2.30
  28   0 -11   -1.70    2.10
  28   0 -11   -1.80    1.90
  26   0 -11   -1.50    1.80
  26   0 -11    0.60    1.90
  24   0 -11    1.40    1.80
  24   0 -11   -2.80    1.70
  22   0 -11   -1.00    1.40
  22   0 -11   -1.70    1.50
  20   0 -11    1.80    1.50
  20   0 -11    0.60    1.50
  18   0 -11   -0.70    1.30
  18   0 -11    0.40    1.30
  16   0 -11    1.20    1.30
  16   0 -11    1.20    1.30
  14   0 -11   -0.40    1.00
  14   0 -11    0.10    1.10
  12   0 -11    0.00    1.00
  12   0 -11    0.00    1.00
  10   0 -11    0.20    0.90
  10   0 -11    0.80    0.90
   8   0 -11   -0.50    1.00
   8   0 -11    0.40    0.80
   6   0 -11    0.70    1.00
   4   0 -11    0.60    1.00
   2   0 -11    0.00    1.00
   0   0  11    1.50    1.20
   0   0 -11   -0.10    1.00
   2   0  11   -1.50    1.00
   4   0  11    0.90    1.20
   6   0  11    1.00    0.90
   6   0  11   -0.60    1.20
   8   0  11   -0.30    1.40
   8   0  11   -0.40    0.90
  10   0  11    0.40    1.10
  10   0  11    0.20    1.60
  12   0  11   -0.50    1.80
  14   0  11    1.10    2.10
  16   0  11    0.00    2.30
  18   0  11    0.10    2.60
  20   0  11   -1.20    2.80
  31  -1 -11    4.60    2.70
  31   1 -11    3.10    2.50
  31   1 -11   -1.10    2.30
  29  -1 -11   33.70    4.20
  29   1 -11   25.00    3.90
  29   1 -11   34.90    3.80
  27  -1 -11    1.30    2.10
  27   1 -11    4.60    2.20
  27   1 -11   -0.90    2.10
  25  -1 -11   65.19    4.70
  25  -1 -11   61.79    5.10
  25   1 -11   54.29    4.90
  25   1 -11   68.29    4.80
  23  -1 -11    1.50    1.60
  23  -1 -11   -0.30    1.60
  23   1 -11   -1.90    1.50
  23   1 -11   -0.10    1.70
  21  -1 -11  119.99    6.40
  21  -1 -11  107.19    6.60
  21   1 -11  102.39    6.60
  21   1 -11  110.99    6.30
  19  -1 -11    4.10    1.70
  19  -1 -11    0.90    1.50
  19   1 -11    0.70    1.50
  19   1 -11    1.60    1.50
  17  -1 -11  110.29    6.10
  17  -1 -11  109.09    6.40
  17   1 -11  116.89    6.10
  17   1 -11  117.39    6.50
  15  -1 -11    0.50    1.20
  15  -1 -11    0.20    1.20
  15   1 -11    0.30    1.20
  15   1 -11   -0.10    1.10
  13  -1 -11  101.99    5.90
  13  -1 -11  100.79    5.50
  13   1 -11  105.79    5.90
  13   1 -11  108.09    5.50
  11  -1 -11    0.70    1.00
  11   1 -11    0.20    1.00
  11   1 -11    0.70    1.10
   9  -1 -11   79.39    4.60
   9   1 -11   74.69    4.10
   9   1 -11   75.29    4.50
   7  -1 -11   -0.40    0.90
   7   1 -11    0.80    1.00
   7   1 -11    2.00    0.90
   5  -1 -11   32.10    2.80
   5   1 -11   27.70    2.50
   5   1 -11   29.40    2.00
   3  -1 -11    4.20    1.20
   3   1 -11    3.60    1.10
   1  -1 -11   61.59    3.90
  -1  -1  11   59.59    3.80
   1   1 -11   55.49    3.80
  -1   1  11   59.09    3.90
   1  -1  11    1.10    1.10
   1   1  11   -0.20    1.10
   3  -1  11   24.20    2.50
   3   1  11   26.40    2.60
   5  -1  11    2.90    1.40
   5   1  11    1.40    1.40
   5   1  11    2.80    0.90
   7  -1  11   30.30    3.00
   7   1  11   26.40    2.90
   7   1  11   32.00    2.30
   9  -1  11    7.30    1.90
   9  -1  11    9.70    1.50
   9   1  11    7.00    2.10
   9   1  11    6.30    1.40
  11  -1  11   23.20    3.10
  11  -1  11   22.50    2.30
  11   1  11   27.20    3.20
  11   1  11   27.40    2.50
  13  -1  11    7.20    2.20
  13   1  11    8.80    2.50
  15  -1  11   10.30    2.80
  15   1  11   18.20    3.20
  17  -1  11    9.00    3.00
  17   1  11    7.70    2.90
  19  -1  11    9.80    3.30
  19   1  11    9.80    3.20
  30  -2 -11    2.20    2.50
  30   2 -11    5.40    2.50
  30   2 -11    1.50    2.50
  28  -2 -11    5.80    2.50
  28   2 -11    7.20    2.40
  28   2 -11    5.60    2.50
  28   2 -11    9.30    2.60
  26  -2 -11   10.10    2.70
  26   2 -11    7.90    2.40
  26   2 -11    7.80    2.40
  26   2 -11   12.40    2.60
  24  -2 -11    2.70    2.10
  24   2 -11    2.30    2.00
  24   2 -11    4.90    2.10
  24   2 -11    1.80    1.90
  22  -2 -11   45.80    4.00
  22   2 -11   39.00    4.10
  22   2 -11   48.70    3.60
  22   2 -11   41.90    3.80
  20  -2 -11    5.90    1.90
  20   2 -11   10.50    2.10
  20   2 -11    9.50    1.80
  20   2 -11   11.30    2.20
  18  -2 -11   58.59    4.20
  18   2 -11   64.99    4.40
  18   2 -11   57.39    4.10
  18   2 -11   62.29    3.80
  16  -2 -11   39.50    3.30
  16   2 -11   40.20    3.30
  16   2 -11   37.70    3.20
  14  -2 -11    2.50    1.30
  14   2 -11    2.40    1.30
  14   2 -11    1.00    1.20
  14   2 -11    2.70    1.00
  12  -2 -11   45.10    3.40
  12   2 -11   50.79    3.30
  12   2 -11   48.40    2.90
  12   2 -11   52.49    3.50
  10  -2 -11    0.40    1.00
  10   2 -11    0.30    0.90
  10   2 -11    2.00    1.10
  10   2 -11    0.80    0.80
   8  -2 -11   53.99    3.60
   8   2 -11   52.69    3.50
   8   2 -11   53.59    2.90
   8   2 -11   50.69    3.20
   6  -2 -11   27.40    2.60
   6   2 -11   33.90    2.70
   6   2 -11   30.10    2.00
   6   2 -11   29.30    2.20
   4  -2 -11    3.20    1.10
   4   2 -11    3.20    1.20
   4   2 -11    2.30    0.90
   4   2 -11    5.20    0.90
  -2  -2  11    2.10    0.90
   2  -2 -11    1.60    1.00
   2   2 -11   -1.20    0.90
  -2   2  11    0.50    1.10
   0  -2  11    6.00    1.40
   0  -2  11    8.80    1.30
   0   2 -11    7.20    1.50
   0   2  11    9.40    1.70
   2  -2  11    6.30    1.20
   2  -2  11    3.20    1.40
   2   2  11    4.30    1.40
   2   2  11    5.20    0.90
   4  -2  11    2.50    1.30
   4  -2  11    1.70    1.20
   4   2  11    1.70    0.90
   4   2  11    0.80    1.30
   6  -2  11    2.70    1.40
   6  -2  11    2.50    1.40
   6   2  11    2.30    1.40
   6   2  11    1.90    1.00
   8  -2  11    2.90    1.50
   8  -2  11   -0.70    1.40
   8   2  11    1.40    1.60
   8   2  11    4.10    1.30
  10  -2  11   28.00    2.40
  10  -2  11   24.70    2.90
  10  -2  11   36.10    3.40
  10   2  11   22.20    3.00
  10   2  11   29.70    2.60
  12  -2  11    2.00    1.80
  12  -2  11    2.00    1.30
  12  -2  11    2.30    2.00
  12   2  11    2.50    1.90
  14  -2  11   16.50    2.90
  14  -2  11   23.60    3.10
  14   2  11   18.40    3.10
  16  -2  11    4.20    2.50
  16  -2  11    3.10    2.40
  16   2  11    2.80    2.50
  18  -2  11   22.10    3.50
  18  -2  11   16.30    3.50
  18   2  11   20.40    3.80
  20  -2  11    0.90    2.90
  20   2  11    2.70    2.90
  29  -3 -11   18.70    3.60
  29   3 -11   23.40    3.30
  29   3 -11   13.60    3.20
  29   3 -11   31.10    3.80
  27  -3 -11    2.80    2.30
  27   3 -11    2.70    2.30
  27   3 -11    2.00    2.20
  27   3 -11    2.00    2.30
  25  -3 -11   14.90    2.90
  25   3 -11   17.30    2.80
  25   3 -11   16.30    2.60
  25   3 -11   12.60    2.70
  23  -3 -11    4.30    2.00
 -23   3  11    3.30    1.40
  23   3 -11    5.10    2.00
  23   3 -11    3.80    1.90
  23   3 -11    3.00    1.80
  21  -3 -11    7.90    2.00
  21   3 -11    8.70    2.10
  21   3 -11   15.70    2.20
  21   3 -11    4.20    1.90
  19  -3 -11    7.40    1.90
  19   3 -11    3.20    1.70
  19   3 -11    6.30    1.60
  19   3 -11    4.40    1.70
  17  -3 -11   23.00    2.70
  17   3 -11   30.10    3.00
  17   3 -11   28.30    2.50
  17   3 -11   20.90    2.50
  15  -3 -11    9.20    1.70
  15   3 -11    9.90    1.80
  15   3 -11   10.00    1.40
  15   3 -11   12.10    1.90
  13  -3 -11   44.40    3.30
  13   3 -11   41.50    3.10
  13   3 -11   40.30    3.20
  11  -3 -11   16.20    2.10
  11   3 -11   14.70    1.90
  11   3 -11   16.10    2.00
  11   3 -11   16.40    1.70
   9  -3 -11   38.70    3.00
   9   3 -11   38.10    2.70
   9   3 -11   38.60    2.50
   9   3 -11   39.90    2.90
   7  -3 -11   18.30    2.20
   7   3 -11   25.90    2.40
   7   3 -11   21.80    2.00
   7   3 -11   24.70    2.00
   5  -3 -11  125.89    6.90
   5   3 -11  126.19    6.10
   5   3 -11  131.69    6.80
   5   3 -11  130.09    6.20
   3  -3 -11   12.60    1.70
   3   3 -11   18.50    2.00
   3   3 -11   16.00    1.60
  -1  -3  11   43.10    3.10
   1  -3 -11   42.20    3.20
  -1  -3  11   43.70    2.80
  -1   3  11   43.30    2.40
   1   3 -11   43.10    3.10
  -1   3  11   39.60    3.20
   1  -3  11    1.20    1.00
   1  -3  11    1.20    1.10
   1   3  11    0.80    1.20
   1   3  11    2.70    0.90
   3  -3  11   69.89    4.00
   3  -3  11   65.59    4.10
   3   3  11   67.89    3.60
   3   3  11   56.59    4.20
   5  -3  11    1.20    1.20
   5  -3  11    2.70    1.30
   5   3  11    0.30    1.30
   5   3  11    2.50    1.00
   7  -3  11   55.59    3.90
   7  -3  11   62.19    4.10
   7   3  11   54.69    4.10
   7   3  11   55.89    3.50
   9  -3  11   -0.90    1.40
   9  -3  11    0.30    1.50
   9   3  11    1.60    1.30
   9   3  11   -1.60    1.50
  11  -3  11    5.80    2.00
  11  -3  11    2.10    1.30
  11  -3  11    7.40    2.10
  11   3  11    7.60    2.10
  13  -3  11    4.60    2.10
  13  -3  11    5.00    2.10
  13   3  11    7.00    2.30
  15  -3  11   10.00    2.70
  15  -3  11   15.90    2.90
  15   3  11   10.60    2.80
  17  -3  11    3.50    2.60
  17  -3  11    3.50    2.50
  17   3  11    1.00    2.50
  19  -3  11    4.20    2.80
  19  -3  11    5.20    2.90
  19   3  11    0.40    2.70
  30  -4 -11   -0.50    2.50
  30   4 -11    3.30    2.60
  30   4 -11   -5.20    2.20
  30   4 -11   -0.90    2.20
  28  -4 -11   14.20    3.10
  28   4 -11    8.00    3.00
  28   4 -11   11.40    2.90
  28   4 -11   10.90    2.70
  26  -4 -11   -0.70    2.10
  26   4 -11    3.30    2.40
  26   4 -11    2.50    2.10
  26   4 -11    0.10    2.00
  24  -4 -11    6.30    2.30
  24   4 -11   10.30    2.40
  24   4 -11    5.10    2.20
  24   4 -11   10.90    2.50
  22  -4 -11    2.40    1.80
 -22   4  11    2.70    1.20
  22   4 -11    1.80    1.70
  22   4 -11    1.60    1.70
  22   4 -11    3.40    1.90
  20  -4 -11    4.60    1.80
  20   4 -11    6.00    1.90
  20   4 -11    6.30    1.70
  20   4 -11    4.40    2.00
 -20   4  11    3.20    1.20
  18  -4 -11    1.70    1.50
  18   4 -11    1.20    1.40
  18   4 -11    2.40    1.60
  18   4 -11    1.90    1.50
 -18   4  11    1.90    1.00
  16  -4 -11    1.50    1.40
  16   4 -11    1.90    1.20
  16   4 -11   -1.00    1.20
  16   4 -11    0.00    1.30
 -16   4  11    0.90    0.90
  14  -4 -11   48.80    3.70
  14   4 -11   53.39    3.80
  14   4 -11   53.09    3.40
  14   4 -11   53.79    3.70
  12  -4 -11   -0.50    1.10
  12   4 -11    2.00    1.20
  12   4 -11    0.60    1.20
  12   4 -11    0.00    0.90
  10  -4 -11   31.80    2.80
  10   4 -11   32.10    2.70
  10   4 -11   31.70    2.70
   8  -4 -11    1.30    1.20
   8   4 -11   -0.10    0.30
  -8   4  11    0.80    0.60
   8   4 -11    1.60    1.00
   8   4 -11    0.80    1.10
   6  -4 -11   96.39    5.40
   6   4 -11   84.99    4.70
   6   4 -11   95.49    5.20
  -6   4  11   93.29    4.40
   4  -4 -11   13.90    1.90
   4   4 -11   13.90    1.50
  -4   4  11   11.40    1.20
   4   4 -11   13.60    1.80
   2  -4 -11  179.28    9.20
  -2   4  11  179.68    8.10
   2   4 -11  177.98    9.00
  -2   4  11  179.78    9.20
   0  -4  11   48.10    3.20
   0  -4  11   47.30    3.00
   0   4 -11   49.40    3.30
   0   4  11   41.50    2.70
   0   4  11   40.40    3.30
   2  -4  11   29.00    2.70
   2  -4  11   30.20    2.60
   2   4  11   34.10    3.10
   2   4  11   35.30    2.40
   4  -4  11   59.19    3.80
   4  -4  11   53.69    3.70
   4   4  11   55.99    4.00
   4   4  11   57.39    3.50
   6  -4  11   64.59    4.20
   6  -4  11   64.99    4.30
   6   4  11   66.29    3.90
   6   4  11   56.79    4.30
   8  -4  11   43.20    3.60
   8  -4  11   56.69    3.80
   8   4  11   46.90    3.40
   8   4  11   43.20    3.90
  10  -4  11    7.50    2.00
  10  -4  11   14.40    2.40
  10   4  11    7.40    2.10
  12  -4  11   18.10    2.00
  12  -4  11   19.60    2.70
  12  -4  11   13.40    2.60
  12   4  11   10.50    2.50
  14  -4  11    3.50    2.20
  14  -4  11    8.10    2.50
  14   4  11    9.80    2.70
  16  -4  11   11.20    3.00
  16  -4  11    7.30    2.70
  16   4  11    6.90    2.80
  18  -4  11    5.20    2.80
  18   4  11    0.00    2.60
  29  -5 -11    8.30    2.80
  29   5 -11   13.20    3.10
  29   5 -11   11.80    2.90
  29   5 -11    5.70    2.90
  27  -5 -11   -2.30    2.10
  27   5 -11    1.10    2.40
  27   5 -11    1.10    2.20
  27   5 -11    1.90    2.30
  25  -5 -11   12.50    2.80
  25   5 -11   15.90    2.90
  25   5 -11   14.60    2.90
  25   5 -11   15.90    2.80
  23  -5 -11    1.80    1.90
  23   5 -11    1.30    1.90
  23   5 -11    3.10    2.00
  23   5 -11   -0.10    1.90
  21  -5 -11   26.40    3.00
  21   5 -11   25.10    2.90
  21   5 -11   23.00    3.10
  21   5 -11   19.50    2.80
 -21   5  11   25.80    2.30
  19  -5 -11    1.30    1.60
  19   5 -11    4.60    1.70
 -19   5  11    4.20    1.20
  19   5 -11    1.50    1.60
  19   5 -11    2.00    1.70
  17  -5 -11   23.00    2.60
 -17   5  11   21.30    2.00
  17   5 -11   22.80    2.40
  17   5 -11   23.00    2.80
  17   5 -11   16.30    2.40
  15  -5 -11    7.50    1.80
  15   5 -11    9.40    1.70
  15   5 -11    7.90    1.80
  15   5 -11    8.20    1.80
 -15   5  11   10.80    1.40
  13  -5 -11   25.90    2.70
  13   5 -11   26.10    2.60
  13   5 -11   26.80    2.40
  13   5 -11   26.70    2.70
 -13   5  11   24.30    2.00
  11  -5 -11    0.20    1.10
  11   5 -11    1.90    1.20
  11   5 -11    1.00    1.20
  11   5 -11    1.50    1.00
 -11   5  11    1.60    0.80
   9  -5 -11   31.70    2.90
   9   5 -11   26.10    2.50
   9   5 -11   28.90    2.30
   9   5 -11   30.70    2.60
  -9   5  11   28.30    2.00
   7  -5 -11    2.80    1.30
   7   5 -11    2.60    1.10
  -7   5  11    1.40    0.80
   7   5 -11    0.80    1.10
   7   5 -11    2.90    1.10
   5  -5 -11   15.00    2.00
   5   5 -11   20.10    2.10
  -5   5  11   19.60    1.60
   5   5 -11   16.30    1.80
   5   5 -11   18.20    1.90
   3  -5 -11    5.70    1.50
   3   5 -11    8.90    1.60
   3   5 -11   14.30    1.60
  -3   5  11   10.30    1.80
  -3   5  11   12.00    1.40
  -1  -5  11    0.60    1.00
  -1   5  11    0.40    1.30
   1   5 -11    0.10    1.00
  -1   5  11    0.70    0.90
   1  -5  11    7.40    1.50
   1  -5  11    6.00    1.40
   1   5  11    7.70    1.60
   1   5  11    4.50    1.20
   3  -5  11    3.20    1.40
   3  -5  11    1.80    1.20
   3   5  11    3.60    1.50
   3   5  11    2.10    1.20
   5  -5  11    1.90    1.30
   5  -5  11    0.70    1.30
   5   5  11    2.80    1.30
   5   5  11    0.80    1.50
   7  -5  11    1.50    1.50
   7  -5  11    3.90    1.50
   7   5  11    2.50    1.40
   7   5  11    1.20    1.60
   9  -5  11    3.10    1.70
   9  -5  11    0.80    1.50
   9   5  11    2.40    1.70
  11  -5  11    9.50    2.20
  11  -5  11    4.40    2.10
  11   5  11    7.20    2.30
  13  -5  11   -0.80    1.90
  13   5  11    0.00    1.90
  15  -5  11   12.30    2.90
  15   5  11    6.50    2.80
  17  -5  11    3.10    2.50
  17   5  11   -0.50    2.40
  19  -5  11    5.60    3.00
  19   5  11    2.90    2.90
  28  -6 -11    8.60    2.90
  28   6 -11    6.80    2.60
  28   6 -11    5.60    2.80
  28   6 -11    6.10    2.90
  26  -6 -11   15.60    3.00
  26   6 -11   19.80    3.30
  26   6 -11   18.20    3.30
  26   6 -11   19.90    3.20
  24  -6 -11   22.00    3.00
  24   6 -11   24.20    3.30
  24   6 -11   18.70    3.00
  24   6 -11   16.60    2.90
  22  -6 -11    9.00    2.20
  22   6 -11    9.00    2.50
  22   6 -11   15.40    2.70
  22   6 -11   11.90    2.40
  20  -6 -11   24.60    3.00
  20   6 -11   28.90    3.30
  20   6 -11   23.50    3.10
  20   6 -11   29.50    3.10
  18  -6 -11    1.40    1.50
  18   6 -11    1.80    1.70
  18   6 -11    2.80    1.70
  18   6 -11    1.80    1.50
 -18   6  11    3.00    1.20
  16  -6 -11   37.10    3.40
  16   6 -11   35.40    3.40
 -16   6  11   34.50    2.70
  16   6 -11   38.30    3.20
  16   6 -11   37.20    3.30
  14  -6 -11   66.99    4.40
  14   6 -11   64.79    4.40
 -14   6  11   67.49    3.80
  14   6 -11   65.39    4.10
  14   6 -11   64.89    4.40
  12  -6 -11    9.30    1.90
  12   6 -11   14.70    2.00
 -12   6  11   12.50    1.50
  12   6 -11   10.90    1.90
  12   6 -11   13.10    1.90
  10  -6 -11  111.79    6.30
 -10   6  11  114.49    5.50
  10   6 -11  107.09    6.20
  10   6 -11  119.39    6.00
  10   6 -11  115.39    6.00
   8  -6 -11   16.40    2.20
  -8   6  11   23.10    1.90
   8   6 -11   25.00    2.40
   8   6 -11   19.20    2.10
   8   6 -11   23.70    2.40
   6  -6 -11   62.89    4.00
   6   6 -11   56.89    3.50
  -6   6  11   55.99    3.20
   6   6 -11   52.99    3.50
   6   6 -11   57.39    3.70
   4  -6 -11  116.69    6.40
   4   6 -11  112.29    5.80
   4   6 -11  113.19    5.60
  -4   6  11  107.09    5.50
   4   6 -11  120.39    6.10
  -4   6  11  110.29    6.30
   2  -6 -11   12.80    1.90
  -2   6  11    9.20    1.80
  -2   6  11   13.50    1.60
   2   6 -11   14.60    1.80
   2   6 -11   11.10    1.70
   0  -6  11    5.70    1.50
   0  -6  11    2.40    1.20
   0   6 -11    3.60    1.30
   0   6  11    7.10    1.80
   0   6  11    6.20    1.30
   2  -6  11   38.10    3.10
   2  -6  11   34.90    2.80
   2   6  11   34.70    3.20
   2   6  11   40.00    2.80
   4  -6  11    0.30    1.40
   4  -6  11   -0.20    1.20
   4   6  11   -1.80    1.10
   4   6  11    1.00    1.40
   6  -6  11   50.89    3.70
   6  -6  11   52.59    4.00
   6   6  11   58.39    3.70
   6   6  11   49.90    4.10
   8  -6  11    0.60    1.60
   8   6  11    2.60    1.80
  10  -6  11   16.30    2.60
  10   6  11   12.00    2.60
  12  -6  11   12.40    2.60
  12   6  11    6.10    2.30
  14  -6  11   29.20    3.70
  14   6  11   19.10    3.30
  16  -6  11   12.60    3.30
  16   6  11    4.40    2.60
  18  -6  11   13.20    3.30
  18   6  11   13.30    3.60
  29   7 -11    1.10    2.70
  27  -7 -11    3.00    2.30
  27   7 -11   -1.30    2.40
  27   7 -11    1.40    2.50
  27   7 -11    0.70    2.30
  25  -7 -11   -0.80    2.00
  25   7 -11   -0.70    2.10
  25   7 -11    1.30    2.20
  25   7 -11   -1.60    2.00
  23  -7 -11    0.50    1.80
  23   7 -11    1.50    2.00
  23   7 -11    3.80    2.10
  23   7 -11    1.90    2.10
  21  -7 -11    2.70    1.90
  21   7 -11    1.10    1.90
  21   7 -11    1.30    1.90
  21   7 -11    1.90    1.90
  19  -7 -11    5.10    1.90
  19   7 -11    2.90    1.90
  19   7 -11    4.00    1.80
  19   7 -11    1.40    1.90
  17  -7 -11    3.10    1.60
  17   7 -11    6.40    1.90
 -17   7  11    7.30    1.40
  17   7 -11    1.80    1.70
  17   7 -11    4.60    1.80
  15  -7 -11    5.70    1.80
  15   7 -11    7.20    1.90
  15   7 -11    8.30    1.90
 -15   7  11    4.30    1.30
  15   7 -11    5.60    1.70
  13  -7 -11    0.10    1.30
  13   7 -11   -1.30    1.20
 -13   7  11    1.60    1.10
  13   7 -11    1.50    1.40
  13   7 -11   -0.90    1.30
  11  -7 -11   13.90    2.10
  11   7 -11   17.60    2.20
  11   7 -11   12.00    2.00
 -11   7  11   19.40    1.80
  11   7 -11   14.20    2.10
   9  -7 -11    2.50    1.40
   9   7 -11    0.90    1.10
  -9   7  11    1.30    1.00
   9   7 -11    0.40    1.20
   9   7 -11    0.80    1.20
   7  -7 -11    4.80    1.50
   7   7 -11    5.60    1.40
  -7   7  11    2.80    1.10
   7   7 -11    4.70    1.40
   7   7 -11    5.50    1.40
   5  -7 -11    3.60    1.40
   5   7 -11    5.70    1.40
   5   7 -11    4.00    1.30
  -5   7  11    3.00    1.10
   5   7 -11    5.20    1.40
   3  -7 -11    2.00    1.30
   3   7 -11    1.00    1.10
  -3   7  11   -0.60    1.30
   3   7 -11   -1.40    1.00
  -3   7  11    1.10    1.10
  -1  -7  11   -0.30    1.10
  -1   7  11   -1.40    1.20
   1   7 -11   -0.10    1.20
   1   7 -11    2.50    1.20
  -1   7  11    0.80    1.10
   1  -7  11    0.60    1.30
   1  -7  11    1.20    1.20
   1   7  11    2.80    1.60
   1   7  11    3.50    1.30
   3  -7  11    3.50    1.50
   3   7  11    3.30    1.60
   3   7  11    3.20    1.40
   5  -7  11   15.10    2.40
   5   7  11   18.40    2.20
   5   7  11   19.40    2.60
   7  -7  11    0.10    1.60
   7   7  11    0.50    1.70
   9  -7  11   -0.60    1.80
   9   7  11    0.80    1.80
  11  -7  11    1.00    2.00
  11   7  11    3.60    2.20
  13  -7  11   -0.40    2.20
  13   7  11    5.50    2.50
  15  -7  11   -2.40    2.30
  15   7  11   -1.80    2.30
  17  -7  11   -0.80    2.60
  17   7  11   -4.10    2.40
  28  -8 -11   10.80    2.90
  28   8 -11   13.10    3.10
  28   8 -11   10.90    3.20
  28   8 -11   13.60    3.40
  26  -8 -11   17.40    3.00
  26   8 -11   20.80    3.50
  26   8 -11   19.40    3.50
  26   8 -11   11.30    3.10
  24  -8 -11    9.40    2.40
  24   8 -11    6.40    2.60
  24   8 -11   10.20    2.70
  24   8 -11   11.60    2.70
  22  -8 -11   38.70    3.80
  22   8 -11   40.00    4.00
  22   8 -11   36.10    3.90
  22   8 -11   32.80    3.90
  20  -8 -11   11.40    2.30
  20   8 -11   11.20    2.50
  20   8 -11    8.20    2.40
  20   8 -11    8.40    2.30
  18  -8 -11   70.99    5.00
  18   8 -11   77.29    5.20
  18   8 -11   75.59    5.30
  18   8 -11   77.99    5.10
  16  -8 -11   97.19    6.00
  16   8 -11  102.79    6.10
  16   8 -11  103.99    6.00
  16   8 -11  105.79    6.20
  14  -8 -11   17.30    2.40
  14   8 -11   22.60    2.50
  14   8 -11   16.30    2.30
  14   8 -11   22.00    2.70
 -14   8  11   19.10    2.10
  12  -8 -11   59.69    4.30
  12   8 -11   69.69    4.30
 -12   8  11   64.29    3.80
  12   8 -11   63.39    4.30
  12   8 -11   62.09    4.20
  10  -8 -11   16.40    2.20
  10   8 -11   13.80    2.10
 -10   8  11   19.30    1.90
  10   8 -11   13.70    2.00
  10   8 -11   18.70    2.30
   8  -8 -11   33.60    3.10
   8   8 -11   36.40    2.90
  -8   8  11   32.50    2.60
   8   8 -11   36.90    3.00
   8   8 -11   32.40    2.90
   6  -8 -11    2.50    1.40
   6   8 -11    1.90    1.30
   6   8 -11    1.60    1.30
   6   8 -11    2.70    1.30
  -6   8  11    1.90    1.10
   4  -8 -11    2.90    1.50
   4   8 -11    2.90    1.30
   4   8 -11    4.80    1.40
  -4   8  11    2.70    1.30
   4   8 -11    3.10    1.40
  -4   8  11    2.30    1.50
  -2   8  11   12.30    1.70
  -2   8  11    9.90    2.00
   2   8 -11   14.10    2.00
   0   8  11    3.40    1.40
   0   8 -11    2.00    1.40
   0   8  11    5.10    1.80
   2  -8  11   76.49    4.80
   2   8  11   67.89    4.80
   2   8  11   76.89    4.50
   4  -8  11   21.10    2.60
   4   8  11   18.00    2.50
   6  -8  11   10.10    2.20
   6   8  11    8.60    2.10
   8  -8  11   -0.40    1.80
   8   8  11    0.90    1.80
  10  -8  11   17.20    3.00
  10   8  11   11.00    2.50
  12  -8  11   -1.80    2.00
  12   8  11    1.60    2.20
  14  -8  11   22.30    3.70
  14   8  11   15.90    3.30
  16  -8  11   -1.30    2.50
  16   8  11   -1.00    2.50
  27   9 -11    0.40    2.70
  27   9 -11    1.00    2.70
  27   9 -11   -1.00    2.50
  25  -9 -11    9.40    2.50
  25   9 -11    5.30    2.70
  25   9 -11   11.80    3.00
  25   9 -11    5.40    2.90
  23  -9 -11   -0.30    2.00
  23   9 -11   -0.20    2.20
  23   9 -11    1.70    2.10
  23   9 -11    0.80    2.10
  21  -9 -11   13.50    2.60
  21   9 -11   15.30    3.00
  21   9 -11   21.80    3.10
  21   9 -11   13.70    2.80
  19  -9 -11    3.40    1.80
  19   9 -11    3.90    2.10
  19   9 -11    2.50    2.10
  19   9 -11    4.20    2.00
  17  -9 -11   14.20    2.30
  17   9 -11   10.20    2.40
  17   9 -11   17.10    2.60
  17   9 -11   14.00    2.40
  15  -9 -11   12.40    2.20
  15   9 -11   10.40    2.30
  15   9 -11   19.30    2.70
  15   9 -11   13.00    2.20
  13  -9 -11   25.60    2.80
  13   9 -11   24.80    2.70
  13   9 -11   30.20    3.00
  13   9 -11   20.90    2.70
  11  -9 -11    0.90    1.50
 -11   9  11   -0.40    1.10
  11   9 -11   -0.50    1.40
  11   9 -11    0.70    1.40
  11   9 -11    1.70    1.40
   9  -9 -11    8.00    1.80
   9   9 -11    7.00    1.70
   9   9 -11    6.00    1.50
   9   9 -11    7.40    1.80
  -9   9  11    7.80    1.50
   7  -9 -11   -0.20    1.40
   7   9 -11    1.10    1.50
  -7   9  11   -0.20    1.10
   7   9 -11   -0.80    1.20
   5  -9 -11    1.20    1.50
   5   9 -11   -0.50    1.30
   5   9 -11    1.10    1.30
  -5   9  11    0.60    1.10
  -5   9  11    1.20    1.50
   3   9 -11    2.10    1.40
  -3   9  11    0.20    1.50
  -3   9  11   -0.40    1.20
   1   9 -11    0.60    1.40
  -1   9  11   -0.20    1.20
  -1   9  11   -1.20    1.50
   1  -9  11   33.30    3.30
   1   9  11   28.30    3.10
   3  -9  11    1.80    1.70
   3   9  11    1.20    1.60
   5  -9  11    4.80    1.90
   5   9  11    8.10    2.10
   7  -9  11    5.40    2.20
   7   9  11    7.10    2.20
   9  -9  11    3.50    2.40
   9   9  11    3.90    2.10
  11  -9  11   -0.60    2.20
  11   9  11    0.60    2.10
  13  -9  11    9.10    2.70
  13   9  11    1.40    2.50
  15  -9  11   -2.80    2.50
  15   9  11   -0.90    2.50
  26  10 -11    9.90    3.10
  26  10 -11    7.10    2.90
  26  10 -11    4.60    2.90
  24  10 -11    1.50    2.50
  24  10 -11    3.90    2.60
  24  10 -11    4.10    2.60
  22  10 -11    6.70    2.40
  22  10 -11    5.60    2.60
  22  10 -11   10.40    2.90
  20 -10 -11    0.30    1.80
  20  10 -11    1.50    2.00
  20  10 -11   -1.70    2.00
  20  10 -11    0.60    2.10
  18 -10 -11   11.70    2.20
  18  10 -11   12.60    2.40
  18  10 -11   11.70    2.60
  18  10 -11   11.50    2.70
  16 -10 -11    7.70    2.00
  16  10 -11    2.20    2.00
  16  10 -11    6.40    1.90
  16  10 -11    4.20    2.00
  14 -10 -11   30.30    3.20
  14  10 -11   29.00    3.30
  14  10 -11   41.10    3.60
  12 -10 -11    8.20    1.90
  12  10 -11    9.30    2.10
  12  10 -11   10.70    2.20
  10 -10 -11   50.09    3.90
  10  10 -11   49.60    3.90
  10  10 -11   46.00    3.80
   8 -10 -11   -0.10    1.50
   8  10 -11    2.30    1.50
   8  10 -11    0.30    1.50
   6 -10 -11  110.49    6.50
  -6  10  11  109.89    6.40
   6  10 -11  113.19    6.30
   6  10 -11  106.79    6.00
  -4  10  11    3.40    1.70
   4  10 -11    1.90    1.50
   4  10 -11    2.60    1.60
  -2  10  11   60.69    4.30
   2  10 -11   55.79    4.20
   0  10  11   23.40    2.90
   0  10 -11   21.00    2.80
   2 -10  11   12.70    2.30
   2  10  11    8.70    2.10
   4 -10  11   15.80    2.70
   4  10  11   11.90    2.30
   6 -10  11   21.50    3.10
   6  10  11   15.20    2.60
   8 -10  11   14.60    2.80
   8  10  11   10.30    2.60
  10 -10  11   27.30    3.70
  10  10  11   28.50    3.80
  12 -10  11    1.60    2.50
  12  10  11    1.50    2.30
  14 -10  11    5.10    2.70
  14  10  11    8.00    3.00
  25  11 -11    2.30    2.80
  25  11 -11    3.60    2.90
  25  11 -11    0.20    2.50
  23  11 -11    1.50    2.40
  23  11 -11    3.30    2.60
  23  11 -11   -2.20    2.40
  21  11 -11    7.10    2.60
  21  11 -11    6.70    2.60
  19  11 -11   10.70    2.80
  19  11 -11    6.80    2.50
  17  11 -11    7.60    2.40
  17  11 -11    7.50    2.50
  15 -11 -11    4.20    1.90
  15  11 -11    8.80    2.40
  15  11 -11    3.20    2.10
  13 -11 -11   17.20    2.50
  13  11 -11   10.60    2.30
  13  11 -11   15.50    2.60
  11 -11 -11   20.60    2.60
  11  11 -11   17.60    2.70
  11  11 -11   24.60    2.90
   9 -11 -11   30.20    3.10
   9  11 -11   26.40    3.00
   9  11 -11   32.70    3.30
   7 -11 -11   19.90    2.60
   7  11 -11   20.10    2.70
  -7  11  11   21.60    2.70
   7  11 -11   15.40    2.40
  -5  11  11   28.40    3.10
   5  11 -11   32.90    3.30
   5  11 -11   31.30    3.00
   3  11 -11    3.70    1.80
  -3  11  11    6.90    1.90
  -1  11  11   12.70    2.30
   1  11 -11   14.40    2.50
   1  11  11    3.10    1.70
   3 -11  11   11.30    2.50
   3  11  11   11.20    2.40
   5 -11  11    1.20    2.00
   5  11  11    0.00    1.80
   7 -11  11    0.40    2.20
   7  11  11    2.50    2.10
   9 -11  11    1.30    2.40
   9  11  11    5.70    2.30
  11 -11  11    6.50    2.80
  11  11  11    5.60    2.70
  13 -11  11   -1.20    2.60
  13  11  11   -0.80    2.40
  22  12 -11   21.90    3.60
  22  12 -11   18.10    3.60
  20  12 -11    6.10    2.70
  20  12 -11    5.20    2.70
  18  12 -11    5.00    2.50
  18  12 -11    8.20    2.60
  16  12 -11    7.30    2.30
  16  12 -11   -1.60    2.00
  14  12 -11   20.00    3.00
  14  12 -11   22.90    3.10
  12  12 -11    5.60    2.20
  12  12 -11    3.70    2.10
  10  12 -11    7.20    2.10
  10  12 -11    9.80    2.50
   8 -12 -11    7.10    2.00
  -8  12  11    8.60    2.10
   8  12 -11    7.30    2.30
   8  12 -11    2.70    1.80
  -6  12  11    0.30    1.60
   6  12 -11    0.40    1.80
   6  12 -11    1.20    1.60
   4  12 -11    4.60    2.10
  -4  12  11    5.10    1.90
   2  12 -11    0.80    1.90
  -2  12  11    1.90    1.60
   0  12 -11    9.60    2.40
   0  12  11   11.00    2.20
   2 -12  11    7.90    2.50
   2  12  11   12.30    2.40
   4 -12  11   13.20    2.90
   4  12  11    6.40    2.20
   6 -12  11    8.90    2.60
   6  12  11    5.10    2.30
   8 -12  11    1.20    2.40
   8  12  11    2.30    2.40
  10 -12  11   -1.20    2.40
  10  12  11    0.20    2.30
  12 -12  11   -2.70    2.40
  12  12  11   -3.90    2.20
  21  13 -11   12.00    3.30
  21  13 -11   17.00    3.40
  19  13 -11    1.40    2.50
  19  13 -11   -0.90    2.40
  17  13 -11   13.80    2.90
  17  13 -11   16.80    3.30
  15  13 -11   -0.30    2.00
  15  13 -11   -0.60    2.00
  13  13 -11   16.00    3.00
  13  13 -11   13.40    2.90
  11  13 -11    3.90    2.00
  11  13 -11    3.30    2.20
   9  13 -11    1.20    1.90
   9  13 -11    2.20    2.10
   7  13 -11    9.70    2.10
   7  13 -11    7.60    2.40
   5  13 -11    1.90    2.00
   5  13 -11    2.40    1.80
   3  13 -11    2.00    2.00
  -3  13  11    1.50    1.80
   1  13 -11   18.90    2.90
  -1  13  11   12.90    2.30
  -1  13 -11    0.60    2.00
   1  13  11   -0.40    1.70
   3 -13  11    6.80    2.50
   3  13  11    8.30    2.30
   5 -13  11   10.20    2.80
   5  13  11    7.10    2.30
   7 -13  11   12.30    3.00
   7  13  11    4.30    2.50
   9 -13  11   -2.60    2.20
   9  13  11   -0.50    2.20
  11 -13  11    2.50    2.90
  11  13  11   -1.40    2.50
  20  14 -11   -3.40    2.60
  20  14 -11   -0.90    2.70
  18  14 -11    4.70    2.70
  18  14 -11    9.00    2.90
  16  14 -11    1.20    2.30
  16  14 -11    1.80    2.40
  14  14 -11   -2.40    1.90
  14  14 -11    2.10    2.40
  12  14 -11   -0.90    2.10
  12  14 -11    2.70    2.20
  10  14 -11   14.00    2.90
  10  14 -11   10.30    2.50
   8  14 -11    0.60    1.90
   8  14 -11    1.00    2.20
   6  14 -11    1.50    2.20
   6  14 -11    3.20    2.00
   4  14 -11    3.30    2.20
   2  14 -11    9.20    2.60
   0  14 -11    3.00    2.20
   2 -14  11    5.30    2.60
   2  14  11    2.90    2.20
   4 -14  11   23.20    3.70
   4  14  11   22.80    3.30
   6 -14  11    0.50    2.40
   6  14  11   -0.70    2.20
   8 -14  11   11.10    3.20
   8  14  11    7.00    2.60
  17  15 -11   14.00    3.20
  17  15 -11    8.60    3.00
  15  15 -11   -0.40    2.50
  15  15 -11    0.10    2.30
  13  15 -11   16.90    3.10
  13  15 -11   23.60    3.70
  11  15 -11    4.00    2.60
  11  15 -11   -0.60    2.00
   9  15 -11   11.00    2.70
   9  15 -11   15.10    3.20
   7  15 -11   -0.80    2.30
   7  15 -11   -0.20    1.90
   5  15 -11    0.70    2.20
   3  15 -11    5.80    2.70
   1  15 -11   10.40    2.90
   3 -15  11    0.20    2.40
   5 -15  11    0.70    2.70
   7 -15  11   -2.80    2.30
  14  16 -11   -0.30    2.30
  14  16 -11    2.30    2.70
  12  16 -11   19.50    3.40
  12  16 -11   12.80    3.30
  10  16 -11    3.40    2.40
  10  16 -11   -0.10    2.60
   8  16 -11    5.90    2.50
   8  16 -11    7.30    3.00
   6  16 -11    7.30    2.50
   6  16 -11    6.40    2.80
   4  16 -11    6.00    2.80
   2  16 -11    3.70    2.60
   0  16 -11    6.50    2.90
   2 -16  11    2.90    2.70
   4 -16  11    1.60    2.80
   9  17 -11    8.00    3.10
   9  17 -11    4.70    2.60
   7  17 -11    4.30    2.70
   7  17 -11    3.10    2.40
   5  17 -11    2.70    2.60
   3  17 -11   -0.70    2.50
  -1  17  11   -0.10    2.50
   1  17 -11   13.50    3.30
  30   0 -12    2.40    2.50
  28   0 -12   17.10    3.30
  28   0 -12   20.50    3.20
  26   0 -12   11.80    2.70
  26   0 -12   19.30    2.90
  24   0 -12   17.40    2.80
  24   0 -12   25.30    3.10
  22   0 -12    0.90    1.60
  22   0 -12    0.00    1.60
  20   0 -12   20.00    2.60
  20   0 -12   21.80    2.70
  18   0 -12    5.40    1.70
  18   0 -12    6.10    1.70
  16   0 -12   17.50    2.40
  16   0 -12   25.50    2.50
  14   0 -12    1.20    1.10
  14   0 -12    2.20    1.40
  12   0 -12    2.40    1.20
  12   0 -12    0.80    1.20
  10   0 -12  692.73   29.50
  10   0 -12  695.03   32.00
   8   0 -12   30.60    2.70
   6   0 -12  302.77   14.60
   4   0 -12   49.30    3.50
   2   0 -12  142.99    7.50
  -2   0  12  136.69    7.40
   0   0  12  194.28    9.90
   2   0  12  863.71   39.60
   4   0  12   46.00    3.60
   6   0  12    5.80    1.80
   8   0  12    3.90    1.80
   8   0  12    7.40    1.40
  10   0  12   37.00    3.70
  10   0  12   35.60    2.90
  12   0  12   63.29    5.10
  14   0  12   34.60    4.00
  16   0  12   -1.80    2.30
  18   0  12   -0.30    2.90
  29  -1 -12   -2.50    2.10
  29   1 -12   -2.00    2.10
  29   1 -12    4.00    2.50
  27  -1 -12   -1.10    2.00
  27   1 -12    0.20    1.90
  27   1 -12   -2.00    2.00
  25  -1 -12    1.50    1.90
  25   1 -12    2.60    2.10
  25   1 -12    2.30    1.90
  23  -1 -12    2.60    1.90
  23  -1 -12    0.30    1.80
  23   1 -12    4.70    1.90
  23   1 -12    0.50    1.80
  21  -1 -12    5.20    1.90
  21  -1 -12    4.60    1.90
  21   1 -12    2.00    1.80
  21   1 -12    5.60    2.00
  19  -1 -12    3.00    1.60
  19  -1 -12    0.20    1.40
  19   1 -12    0.90    1.50
  19   1 -12    2.70    1.60
  17  -1 -12    3.40    1.50
  17  -1 -12    5.70    1.70
  17   1 -12    3.30    1.50
  17   1 -12    0.10    1.30
  15  -1 -12    0.40    1.10
  15  -1 -12    1.30    1.20
  15   1 -12    0.30    1.20
  15   1 -12   -0.40    1.20
  13  -1 -12    9.30    1.70
  13   1 -12    9.40    1.70
  13   1 -12    8.20    1.70
  11  -1 -12    9.00    1.70
  11   1 -12    9.90    1.60
  11   1 -12    8.40    1.70
   9  -1 -12    0.30    1.00
   9   1 -12    1.30    1.00
   9   1 -12    0.60    1.10
   7  -1 -12    7.50    1.50
   7   1 -12    7.90    1.30
   7   1 -12    8.50    1.60
   5  -1 -12    4.70    1.40
   5   1 -12    3.50    1.30
   5   1 -12    2.20    0.90
   3  -1 -12    3.90    1.30
   3   1 -12    5.00    1.40
  -1  -1  12   -0.30    1.20
   1  -1 -12    0.20    1.10
  -1   1  12    1.80    1.30
   1   1 -12   -0.30    1.10
   1  -1  12    1.60    1.30
   1   1  12   -1.20    1.20
   3  -1  12    3.10    1.50
   3   1  12    3.20    1.50
   5  -1  12    1.60    1.60
   5   1  12    1.80    1.50
   7  -1  12   -0.90    1.40
   7   1  12   -0.20    1.00
   7   1  12    0.10    1.50
   9  -1  12    0.10    1.10
   9  -1  12   -2.90    1.40
   9   1  12    0.60    1.20
   9   1  12    4.40    1.90
  11  -1  12    0.30    1.80
  11   1  12    1.40    1.90
  13  -1  12   -0.30    2.00
  13   1  12    2.40    2.30
  15  -1  12   -1.20    2.30
  15   1  12    1.50    2.40
  17  -1  12    4.10    2.90
  17   1  12    2.00    2.60
  30  -2 -12   13.20    3.30
  30   2 -12   20.20    3.20
  30   2 -12   13.20    3.30
  28  -2 -12   21.60    3.50
  28   2 -12   24.20    3.30
  28   2 -12   29.40    3.80
  26  -2 -12   46.40    4.80
  26   2 -12   49.60    5.00
  26   2 -12   60.59    4.70
  24  -2 -12   15.50    2.80
  24   2 -12   24.40    3.10
  24   2 -12   16.80    3.00
  22   2 -12   45.20    4.10
  22   2 -12   46.60    4.10
  20  -2 -12   66.09    4.60
  20   2 -12   54.69    4.50
  20   2 -12   63.99    4.40
  18  -2 -12   72.59    4.90
  18   2 -12   74.09    4.70
  16  -2 -12   98.49    5.80
  16   2 -12   93.19    5.80
  16   2 -12  102.09    5.60
  14  -2 -12   74.29    4.80
  14   2 -12   77.79    4.60
  14   2 -12   77.19    4.80
  12  -2 -12  252.17   12.80
  12   2 -12  264.67   11.90
  12   2 -12  263.57   12.80
  10  -2 -12  146.69    7.80
  10   2 -12  147.29    7.80
  10   2 -12  149.19    7.20
   8  -2 -12  131.49    7.10
   8   2 -12  128.39    6.40
   8   2 -12  135.19    7.10
   6  -2 -12   21.70    2.40
   6   2 -12   25.50    2.00
   6   2 -12   27.20    2.60
   4  -2 -12   30.10    2.70
   4   2 -12   32.00    2.80
   2  -2 -12   21.20    2.40
  -2   2  12   23.30    2.60
   2   2 -12   17.60    2.20
   0  -2  12   56.49    3.90
   0   2 -12   58.69    3.90
   0   2  12   59.79    4.00
   2  -2  12  186.48    9.40
   2   2  12  179.88    9.40
   4  -2  12   13.60    2.20
   4   2  12   15.20    2.30
   4   2  12   13.30    1.60
   6  -2  12   31.00    3.10
   6   2  12   33.60    3.40
   6   2  12   30.90    2.50
   8  -2  12    0.40    1.60
   8   2  12    3.10    1.80
   8   2  12    2.10    1.20
  10  -2  12   37.00    3.80
  10   2  12   37.50    3.80
  12  -2  12    3.00    2.00
  12   2  12    4.00    2.20
  14  -2  12   35.80    4.10
  14   2  12   33.30    3.90
  16  -2  12    4.10    2.60
  16   2  12    0.00    2.40
  18  -2  12   16.40    3.70
  18   2  12   16.90    3.80
  29  -3 -12    1.10    2.40
  29   3 -12    1.70    2.40
  29   3 -12    0.50    2.20
  27  -3 -12   -0.30    2.20
  27   3 -12    0.60    2.20
  27   3 -12    0.00    2.00
  25  -3 -12   -0.60    2.00
  25   3 -12   -0.40    1.80
  25   3 -12    0.10    2.00
  23  -3 -12    1.00    1.90
  23   3 -12   -2.60    1.60
  23   3 -12   -2.20    1.70
  21  -3 -12   -0.10    1.50
  21   3 -12    0.50    1.70
  21   3 -12    2.00    1.70
  19  -3 -12    0.40    1.40
  19   3 -12    0.80    1.50
  19   3 -12   -1.10    1.40
  17  -3 -12    0.00    1.40
  17   3 -12    1.00    1.40
  17   3 -12    1.80    1.50
  15  -3 -12    1.50    1.30
  15   3 -12    0.30    1.30
  15   3 -12    0.60    1.30
  13  -3 -12    1.40    1.20
  13   3 -12    0.40    1.20
  13   3 -12   -0.50    1.10
  11  -3 -12   -1.90    1.00
  11   3 -12    1.50    1.10
  11   3 -12    1.80    1.30
   9  -3 -12    9.20    1.70
   9   3 -12   11.80    1.70
   9   3 -12    8.40    1.60
   7  -3 -12    2.70    1.30
   7   3 -12    2.80    1.10
   7   3 -12    5.50    1.50
   5  -3 -12    2.00    1.20
   5   3 -12    2.40    1.30
   5   3 -12    2.80    1.00
   3  -3 -12    4.10    1.30
   3   3 -12    5.30    1.40
  -3   3  12    4.40    1.50
   1  -3 -12   -0.10    1.10
  -1  -3  12    0.80    1.20
  -1   3  12    0.30    1.30
   1   3 -12    0.80    1.10
   1  -3  12    0.20    1.30
   1   3  12   -0.20    1.30
   1   3  12    0.80    0.90
   3  -3  12   -0.50    1.20
   3   3  12    0.50    1.00
   3   3  12    1.90    1.50
   5  -3  12    1.50    1.50
   5   3  12    2.40    1.10
   5   3  12    0.50    1.40
   7  -3  12    2.80    1.60
   7   3  12    0.00    1.60
   7   3  12    0.20    1.20
   9  -3  12   -0.60    1.60
   9   3  12   -0.90    1.60
  11  -3  12    1.50    1.90
  11   3  12    2.10    2.10
  13  -3  12   -0.80    2.00
  13   3  12   -1.00    2.00
  15  -3  12    1.10    2.30
  15   3  12   -1.40    2.30
  17  -3  12    2.90    2.70
  17   3  12   -3.00    2.40
  28  -4 -12   16.20    3.20
  28   4 -12   16.70    3.20
  28   4 -12   15.00    3.30
  26  -4 -12   21.10    3.20
  26   4 -12   23.10    3.30
  26   4 -12   28.50    3.70
  26   4 -12   12.70    3.00
  24  -4 -12    4.50    2.10
  24   4 -12   -0.60    1.80
  24   4 -12    0.70    2.00
  24   4 -12    2.00    2.00
  22  -4 -12   72.69    5.30
  22   4 -12   78.89    5.50
 -22   4  12   81.09    4.50
  22   4 -12   77.29    5.00
  22   4 -12   70.99    5.20
  20  -4 -12    3.50    1.80
  20   4 -12    3.20    1.80
  20   4 -12    3.60    1.80
  20   4 -12    5.20    1.80
  18  -4 -12   22.00    2.60
  18   4 -12   18.00    2.60
  18   4 -12   15.80    2.50
  18   4 -12   23.50    2.50
  16  -4 -12   26.70    2.90
  16   4 -12   35.00    3.20
  16   4 -12   30.50    2.60
  16   4 -12   26.60    2.90
  14  -4 -12   57.39    4.00
  14   4 -12   57.89    4.00
  14   4 -12   52.89    3.80
  12  -4 -12   66.49    4.30
  12   4 -12   62.59    4.30
  12   4 -12   66.69    4.10
  10  -4 -12    0.80    1.20
  10   4 -12    1.80    1.20
  10   4 -12    1.30    1.00
  10   4 -12    0.30    1.10
   8  -4 -12    0.20    1.10
   8   4 -12    1.40    1.10
   8   4 -12    0.30    0.90
   8   4 -12    0.80    1.10
   6  -4 -12   19.80    2.40
   6   4 -12   18.10    1.90
   6   4 -12   22.40    2.40
   6   4 -12   22.20    2.00
   4  -4 -12    1.40    1.20
   4   4 -12    1.50    1.20
   4   4 -12    0.90    1.00
   2  -4 -12   91.19    5.30
  -2  -4  12   90.59    4.90
  -2   4  12   82.49    5.30
   2   4 -12   92.69    5.20
  -2   4  12   86.29    4.50
   0  -4  12   14.10    1.80
   0  -4  12   11.70    1.90
   0   4 -12   12.20    1.90
   0   4  12   15.40    1.60
   0   4  12    9.60    1.80
   2  -4  12    4.40    1.50
   2  -4  12    5.40    1.50
   2   4  12    6.40    1.30
   2   4  12    5.50    1.70
   4  -4  12    3.60    1.50
   4  -4  12    3.50    1.50
   4   4  12    3.90    1.70
   4   4  12    5.20    1.40
   6  -4  12   48.40    3.80
   6  -4  12   46.00    3.70
   6   4  12   48.50    4.00
   6   4  12   53.99    3.50
   8  -4  12   -0.10    1.50
   8  -4  12    0.90    1.60
   8   4  12    1.30    1.80
  10  -4  12    9.10    2.20
  10  -4  12   13.00    2.40
  10   4  12   11.60    2.50
  12  -4  12   16.40    2.70
  12  -4  12   13.40    2.70
  12   4  12   11.90    2.70
  14  -4  12   47.60    4.40
  14  -4  12   33.00    3.80
  14   4  12   24.20    3.80
  16   4  12   10.60    3.30
  29  -5 -12   -0.20    2.40
  29   5 -12    2.10    2.60
  29   5 -12    2.10    2.50
  29   5 -12   -0.30    2.50
  27  -5 -12    0.30    2.20
  27   5 -12   -1.80    2.30
  27   5 -12    0.40    2.20
  27   5 -12   -0.30    2.20
  25  -5 -12   -0.10    2.00
  25   5 -12    3.40    2.10
  25   5 -12    0.20    2.00
  25   5 -12    0.50    2.00
  23  -5 -12   -0.60    1.80
  23   5 -12    0.10    1.80
  23   5 -12   -0.10    1.90
  23   5 -12   -1.20    2.00
  21  -5 -12    1.30    1.70
  21   5 -12    0.30    1.70
  21   5 -12    4.10    2.00
  21   5 -12    1.50    1.70
  19  -5 -12    0.10    1.60
 -19   5  12    1.10    1.10
  19   5 -12    0.50    1.70
  19   5 -12   -0.70    1.60
  19   5 -12    1.40    1.50
  17  -5 -12   -0.40    1.50
  17   5 -12    1.10    1.50
 -17   5  12    2.30    1.10
  17   5 -12   -1.20    1.30
  17   5 -12    0.50    1.50
  15  -5 -12    0.50    1.40
 -15   5  12   -0.30    0.90
  15   5 -12    0.80    1.40
  15   5 -12   -0.20    1.30
  15   5 -12    2.00    1.30
  13  -5 -12    2.20    1.40
 -13   5  12   -0.70    0.80
  13   5 -12    1.30    1.40
  13   5 -12    0.20    1.10
  13   5 -12   -0.30    1.30
  11  -5 -12   10.50    1.90
  11   5 -12   10.80    1.80
  11   5 -12   10.00    1.90
  11   5 -12    9.20    1.60
 -11   5  12   12.70    1.40
   9  -5 -12   -0.30    1.10
   9   5 -12    1.10    1.20
   9   5 -12   -0.30    0.90
   9   5 -12   -2.50    1.00
  -9   5  12    0.30    0.80
   7  -5 -12    2.90    1.40
  -7   5  12    3.50    0.90
   7   5 -12    1.80    1.00
   7   5 -12    3.50    1.40
   7   5 -12    2.90    1.20
   5  -5 -12    0.50    1.20
   5   5 -12    2.30    1.30
   5   5 -12    2.80    1.00
  -5   5  12    2.20    0.90
   3  -5 -12   -1.50    1.10
  -3   5  12    1.10    1.30
  -3   5  12    0.00    0.90
   3   5 -12   -0.60    1.00
   3   5 -12   -0.20    1.10
  -1  -5  12    1.60    1.30
  -1  -5  12    2.00    1.20
   1   5 -12   -0.80    1.10
  -1   5  12   -0.20    0.90
  -1   5  12   -0.10    1.30
   1  -5  12   -0.30    1.20
   1  -5  12    2.40    1.20
   1   5  12   -0.90    1.00
   1   5  12   -0.50    1.30
   3  -5  12   -0.50    1.30
   3  -5  12   -0.10    1.30
   3   5  12   -1.80    1.00
   3   5  12   -0.90    1.40
   5  -5  12   -0.60    1.30
   5  -5  12    2.70    1.60
   5   5  12    0.70    1.30
   5   5  12    0.90    1.60
   7  -5  12    0.40    1.70
   7  -5  12   -0.50    1.40
   7   5  12    0.80    1.70
   9  -5  12   -2.10    1.50
   9  -5  12   -0.90    1.70
   9   5  12    1.30    1.70
  11  -5  12   -0.50    2.00
  11   5  12    0.60    1.90
  13  -5  12    2.60    2.20
  13   5  12    3.30    2.30
  15  -5  12    0.70    2.40
  15   5  12    2.20    2.40
  17  -5  12    2.60    2.60
  17   5  12   -2.00    2.50
  28  -6 -12   11.30    3.00
  28   6 -12   11.50    3.00
  28   6 -12    8.70    3.10
  28   6 -12   13.70    3.10
  26  -6 -12   -1.30    2.00
  26   6 -12   -0.60    2.10
  26   6 -12   -0.30    2.20
  26   6 -12    0.30    2.30
  24  -6 -12   11.80    2.50
  24   6 -12    7.00    2.30
  24   6 -12    6.30    2.40
  24   6 -12   15.30    2.80
  22  -6 -12   -2.70    1.60
  22   6 -12    0.20    1.90
  22   6 -12    0.40    1.90
  22   6 -12   -0.60    1.90
  20  -6 -12   30.90    3.40
  20   6 -12   30.60    3.50
  20   6 -12   29.40    3.40
  20   6 -12   36.40    3.40
  18  -6 -12   34.80    3.50
  18   6 -12   41.30    3.80
  18   6 -12   36.60    3.60
  18   6 -12   39.40    3.40
 -18   6  12   41.00    3.00
  16  -6 -12    9.10    2.00
  16   6 -12    5.50    1.70
  16   6 -12    9.30    1.90
 -16   6  12   11.60    1.50
  16   6 -12    9.30    2.10
  14  -6 -12   46.20    3.70
 -14   6  12   51.59    3.10
  14   6 -12   46.10    3.70
  14   6 -12   46.80    3.70
  14   6 -12   50.19    3.60
  12  -6 -12    9.70    2.00
 -12   6  12    9.20    1.40
  12   6 -12    9.80    1.70
  12   6 -12    8.30    1.80
  12   6 -12    8.50    1.80
  10  -6 -12   53.69    3.90
  10   6 -12   58.99    3.60
  10   6 -12   55.89    3.80
  10   6 -12   53.39    3.70
 -10   6  12   52.79    3.20
   8  -6 -12   41.80    3.30
   8   6 -12   34.60    3.00
   8   6 -12   35.40    2.90
  -8   6  12   40.60    2.60
   8   6 -12   38.20    3.00
   6  -6 -12    6.90    1.70
   6   6 -12    9.70    1.60
  -6   6  12   10.20    1.40
   6   6 -12   12.30    1.80
   6   6 -12    8.20    1.50
   4  -6 -12  105.79    6.30
   4   6 -12  109.89    5.80
  -4   6  12  108.39    5.50
  -4   6  12  114.39    6.40
   4   6 -12  111.39    6.10
  -2  -6  12   43.80    3.30
  -2   6  12   45.20    3.70
   2   6 -12   49.40    3.40
   2   6 -12   45.20    3.30
  -2   6  12   47.90    3.00
   0  -6  12   10.70    1.90
   0  -6  12   12.20    1.90
   0   6  12   11.30    1.60
   0   6  12    8.80    1.90
   2  -6  12   38.30    3.30
   2  -6  12   38.50    3.10
   2   6  12   40.30    3.00
   2   6  12   39.60    3.50
   4  -6  12    8.30    1.80
   4  -6  12   11.60    2.10
   4   6  12   12.20    1.90
   4   6  12   10.30    2.10
   6  -6  12   44.00    3.70
   6   6  12   32.20    3.40
   8  -6  12    5.40    2.20
   8   6  12    4.10    2.00
  10  -6  12    3.80    2.00
  10   6  12    6.50    2.20
  12  -6  12   51.09    4.70
  12   6  12   40.10    4.50
  14  -6  12    3.50    2.40
  14   6  12   -4.50    2.10
  16  -6  12    6.40    2.90
  16   6  12    8.70    2.90
  27  -7 -12    0.00    2.10
  27   7 -12    2.10    2.50
  27   7 -12    0.90    2.40
  27   7 -12   -0.70    2.30
  25  -7 -12   -0.90    2.00
  25   7 -12    1.60    2.30
  25   7 -12    1.00    2.20
  25   7 -12    0.30    2.30
  23  -7 -12   -0.70    1.80
  23   7 -12    0.20    2.20
  23   7 -12   -1.80    2.00
  23   7 -12   -1.00    1.90
  21  -7 -12   -0.40    1.70
  21   7 -12    1.70    2.00
  21   7 -12   -2.30    1.70
  21   7 -12    3.20    2.00
  19  -7 -12   -2.00    1.50
  19   7 -12    2.70    1.90
  19   7 -12   -0.50    1.70
  19   7 -12   -1.40    1.60
  17  -7 -12    1.20    1.60
  17   7 -12    0.80    1.60
  17   7 -12    2.30    1.60
  17   7 -12    1.10    1.60
  15  -7 -12    2.30    1.50
  15   7 -12    2.00    1.60
 -15   7  12    3.80    1.30
  15   7 -12    0.70    1.50
  15   7 -12    2.60    1.70
  13  -7 -12   -1.00    1.40
  13   7 -12    2.20    1.40
 -13   7  12    1.00    1.10
  13   7 -12    0.90    1.40
  13   7 -12   -1.60    1.30
  11  -7 -12   -0.10    1.40
  11   7 -12    1.10    1.30
 -11   7  12    0.20    1.00
  11   7 -12    0.20    1.30
  11   7 -12    1.20    1.30
   9  -7 -12    0.10    1.30
   9   7 -12    0.70    1.20
  -9   7  12    1.30    1.00
   9   7 -12    0.70    1.20
   9   7 -12    0.90    1.30
   7  -7 -12    5.50    1.60
   7   7 -12    4.80    1.40
   7   7 -12    3.60    1.30
   7   7 -12    2.40    1.40
  -7   7  12    4.60    1.20
   5  -7 -12    1.50    1.50
  -5   7  12    4.70    1.60
   5   7 -12    2.00    1.30
  -5   7  12    3.70    1.20
   5   7 -12    2.70    1.30
   3  -7 -12    1.10    1.40
   3   7 -12    3.00    1.30
  -3   7  12   -0.90    1.10
  -3   7  12   -1.90    1.30
   3   7 -12    0.20    1.20
  -1  -7  12    3.30    1.40
  -1   7  12    5.50    1.80
  -1   7  12    4.90    1.30
   1   7 -12    2.80    1.30
   1  -7  12    2.40    1.50
   1   7  12    1.80    1.30
   1   7  12   -0.30    1.40
   3  -7  12    4.40    1.80
   3   7  12    6.10    1.90
   5  -7  12    0.70    1.70
   5   7  12   -1.90    1.50
   7  -7  12    6.80    2.10
   7   7  12    4.30    2.10
   9  -7  12    0.50    2.00
   9   7  12   -2.50    1.60
  11  -7  12    0.40    2.10
  11   7  12    3.30    2.30
  13  -7  12    1.30    2.40
  13   7  12   -0.90    2.20
  15  -7  12    6.00    2.80
  15   7  12    1.20    2.60
  26  -8 -12    6.50    2.40
  26   8 -12    7.80    2.90
  26   8 -12    3.60    2.70
  26   8 -12    6.50    2.80
  24  -8 -12    3.80    2.10
  24   8 -12    3.30    2.40
  24   8 -12    3.40    2.40
  24   8 -12   -0.60    2.20
  22  -8 -12    2.60    1.90
  22   8 -12    0.90    2.00
  22   8 -12   -0.50    2.00
  22   8 -12   -0.80    2.00
  20  -8 -12    3.00    1.90
  20   8 -12    4.40    2.20
  20   8 -12    0.10    1.90
  20   8 -12    2.00    1.90
  18  -8 -12   24.30    3.00
  18   8 -12   25.20    3.10
  18   8 -12   31.20    3.50
  18   8 -12   25.60    3.00
  16  -8 -12   35.80    3.40
  16   8 -12   29.30    3.40
  16   8 -12   35.30    3.30
  16   8 -12   25.80    3.00
  14  -8 -12   -0.10    1.50
  14   8 -12    2.80    1.60
  14   8 -12    5.00    1.70
 -14   8  12    2.90    1.30
  14   8 -12    1.60    1.70
  12  -8 -12    6.80    1.90
  12   8 -12    5.70    1.60
 -12   8  12    8.70    1.50
  12   8 -12    7.80    1.80
  12   8 -12   10.20    2.00
  10  -8 -12    1.60    1.50
  10   8 -12    1.40    1.30
 -10   8  12    3.40    1.20
  10   8 -12    0.20    1.40
  10   8 -12    1.10    1.30
   8  -8 -12    3.90    1.50
   8   8 -12    1.90    1.30
   8   8 -12    1.20    1.40
   8   8 -12    1.80    1.40
  -8   8  12    3.10    1.20
   6  -8 -12   47.60    3.80
  -6   8  12   40.60    3.80
  -6   8  12   43.10    3.10
   6   8 -12   51.39    3.50
   6   8 -12   53.39    3.60
   6   8 -12   46.60    3.40
   4  -8 -12    5.70    1.70
  -4   8  12    7.00    1.50
   4   8 -12    6.50    1.60
  -4   8  12    6.30    1.80
   2   8 -12    3.40    1.50
  -2   8  12    0.90    1.20
  -2   8  12    0.70    1.60
   0  -8  12   43.90    3.80
   0   8  12   40.90    3.30
   0   8  12   41.30    3.60
   2  -8  12    3.60    1.80
   2   8  12    3.80    1.80
   4  -8  12    6.40    1.90
   4   8  12    3.80    1.80
   6  -8  12   -1.60    1.70
   6   8  12   -0.10    1.70
   8  -8  12   59.09    4.70
   8   8  12   39.90    4.10
  10  -8  12    7.30    2.70
  10   8  12    9.30    2.60
  12  -8  12   -1.70    2.30
  12   8  12   -1.70    2.20
  14  -8  12   -1.80    2.50
  14   8  12   -0.50    2.40
  25  -9 -12    0.60    2.10
  25   9 -12    1.70    2.50
  25   9 -12    1.00    2.50
  25   9 -12    1.80    2.50
  23  -9 -12    2.20    2.10
  23   9 -12    1.90    2.30
  23   9 -12    1.80    2.30
  23   9 -12    4.50    2.40
  21  -9 -12    3.20    2.00
  21   9 -12    0.80    2.10
  21   9 -12    2.00    2.10
  21   9 -12    1.20    2.00
  19  -9 -12    2.00    1.80
  19   9 -12   -2.70    1.70
  19   9 -12    1.30    2.00
  19   9 -12    0.50    1.90
  17  -9 -12   -2.40    1.50
  17   9 -12    1.10    1.70
  17   9 -12    1.40    1.90
  17   9 -12   -0.30    1.60
  15  -9 -12    3.20    1.80
  15   9 -12    0.20    1.50
  15   9 -12    1.50    1.80
  15   9 -12    2.30    1.80
  13  -9 -12   -0.60    1.50
  13   9 -12   -1.50    1.30
  13   9 -12    1.70    1.60
  13   9 -12    3.10    1.70
  11  -9 -12    5.80    1.90
  11   9 -12    3.70    1.70
  11   9 -12    5.40    1.70
  11   9 -12    8.80    1.80
   9  -9 -12    0.30    1.40
   9   9 -12    0.90    1.40
   9   9 -12    0.00    1.40
   7  -9 -12    3.10    1.60
  -7   9  12    1.40    1.80
   7   9 -12   -0.20    1.40
   7   9 -12    2.40    1.50
  -7   9  12    1.70    1.30
   5  -9 -12    1.70    1.50
   5   9 -12    0.50    1.50
  -5   9  12   -0.30    1.50
  -3   9  12   -1.60    1.50
   3   9 -12    0.20    1.40
  -1   9  12    0.80    1.60
   1   9 -12    1.10    1.50
   1  -9  12    2.90    1.70
   1   9  12    0.30    1.60
   3  -9  12    1.30    1.80
   3   9  12   -1.80    1.60
   5  -9  12   -0.80    1.70
   5   9  12    1.40    1.80
   7  -9  12   -0.70    2.00
   7   9  12    0.60    1.80
   9  -9  12    1.00    2.10
   9   9  12    2.20    2.20
  11  -9  12    2.70    2.60
  11   9  12   -0.90    2.10
  13  -9  12   -2.90    2.30
  13   9  12   -0.50    2.40
  24  10 -12   18.30    3.40
  24  10 -12   22.50    3.70
  24  10 -12   21.90    3.70
  22  10 -12    0.00    2.10
  22  10 -12    2.50    2.30
  22  10 -12   -0.30    2.20
  20 -10 -12    2.80    2.00
  20  10 -12   -2.30    2.00
  20  10 -12    4.80    2.40
  20  10 -12    4.10    2.20
  18 -10 -12    4.30    2.00
  18  10 -12    6.40    2.30
  18  10 -12    4.80    2.00
  18  10 -12    6.20    2.20
  16 -10 -12   -0.10    1.80
  16  10 -12    1.70    1.90
  16  10 -12   -0.80    1.90
  14 -10 -12    6.30    2.00
  14  10 -12   10.60    2.30
  14  10 -12    8.10    2.10
  12 -10 -12    1.10    1.60
  12  10 -12    0.60    1.70
  12  10 -12   -0.10    1.60
  10 -10 -12   15.70    2.50
  10  10 -12   17.60    2.60
  10  10 -12   20.80    2.80
   8 -10 -12    4.40    1.80
   8  10 -12    4.30    1.70
   8  10 -12    4.90    1.90
   6 -10 -12   27.80    3.20
  -6  10  12   28.40    3.10
   6  10 -12   29.20    3.10
  -4  10  12    8.60    2.10
   4  10 -12   11.40    2.20
  -2  10  12    3.70    1.90
   2  10 -12    3.20    1.80
   0  10  12    1.50    1.80
   2 -10  12   50.79    4.20
   2  10  12   31.70    3.40
   4 -10  12    1.90    1.90
   4  10  12    1.70    1.90
   6 -10  12   24.40    3.40
   6  10  12   27.50    3.50
   8 -10  12   -0.70    2.20
   8  10  12    2.60    2.10
  10 -10  12    5.40    2.80
  10  10  12    5.30    2.50
  12 -10  12   -2.50    2.30
  12  10  12   -0.40    2.30
  23  11 -12    1.80    2.60
  23  11 -12    0.50    2.50
  21  11 -12   -0.50    2.30
  21  11 -12    1.30    2.50
  19  11 -12    1.60    2.10
  19  11 -12    5.70    2.40
  17  11 -12    0.00    2.10
  17  11 -12   -1.50    1.90
  15 -11 -12    1.10    1.80
  15  11 -12   -4.10    1.60
  15  11 -12   -0.50    1.90
  13 -11 -12    0.50    1.70
  13  11 -12   -1.20    1.80
  13  11 -12    0.10    1.80
  11 -11 -12   -1.60    1.40
  11  11 -12    1.50    2.00
  11  11 -12   -0.40    1.70
   9 -11 -12    0.00    1.60
   9  11 -12   -0.90    1.70
   9  11 -12    0.10    1.60
  -9  11  12   -0.20    1.70
   7 -11 -12    1.90    1.70
   7  11 -12    3.20    1.80
   7  11 -12    0.00    1.80
  -7  11  12    0.80    1.70
   5  11 -12   -1.90    1.60
  -5  11  12   -0.20    1.60
  -3  11  12    6.10    2.00
   3  11 -12    4.30    2.00
  -1  11  12    0.00    1.70
   1  11 -12    1.60    1.90
   1 -11  12    2.90    2.10
   1  11  12    0.80    1.80
   3 -11  12    1.80    2.00
   3  11  12    3.80    2.00
   5 -11  12    7.10    2.40
   5  11  12    1.10    2.10
   7 -11  12   -2.40    2.10
   7  11  12    0.80    2.10
   9 -11  12    4.90    2.60
   9  11  12    0.50    2.20
  11 -11  12   -0.70    2.40
  11  11  12   -0.10    2.40
  22  12 -12   38.70    4.40
  22  12 -12   39.10    4.60
  20  12 -12   37.90    4.50
  20  12 -12   55.59    4.90
  18  12 -12   21.40    3.30
  18  12 -12   15.90    3.10
  16  12 -12   66.89    5.30
  16  12 -12   71.19    5.40
  14  12 -12   29.40    3.60
  14  12 -12   41.70    4.10
  12  12 -12   33.80    3.80
  12  12 -12   42.30    4.00
  10 -12 -12    1.70    1.80
  10  12 -12   -0.20    1.80
 -10  12  12   -0.30    1.80
  10  12 -12   -0.20    2.00
   8 -12 -12   56.69    4.50
   8  12 -12   58.59    4.40
  -8  12  12   53.19    4.40
   8  12 -12   52.49    4.60
  -6  12  12   10.40    2.30
   6  12 -12   14.00    2.70
  -4  12  12   16.00    2.70
   4  12 -12   21.70    3.00
   2  12 -12   34.00    3.70
  -2  12  12   32.50    3.50
   0  12 -12    0.10    1.90
   0  12  12    2.10    1.90
   2 -12  12    5.90    2.50
   2  12  12    3.60    2.00
   4 -12  12    9.70    2.80
   4  12  12    3.60    2.20
   6 -12  12   27.30    3.80
   6  12  12   17.90    3.10
   8 -12  12   10.80    3.00
   8  12  12    9.30    2.90
  10 -12  12    6.20    2.90
  10  12  12    1.80    2.40
  19  13 -12    5.70    2.50
  19  13 -12    5.10    2.80
  17  13 -12   -1.90    2.20
  17  13 -12    2.60    2.40
  15  13 -12    6.10    2.60
  15  13 -12    5.40    2.40
  13  13 -12    3.10    2.20
  13  13 -12    2.00    2.10
  11  13 -12   14.00    2.80
  11  13 -12    2.90    2.10
   9  13 -12   -1.80    1.90
   9  13 -12    0.70    1.90
   7  13 -12    1.90    2.00
   7  13 -12   10.50    2.60
   5  13 -12    3.50    2.10
  -5  13  12    0.40    1.80
   3  13 -12    8.40    2.50
  -3  13  12    9.70    2.30
  -1  13  12    0.90    1.80
   1  13 -12    1.70    2.20
   1 -13  12    6.60    2.60
   1  13  12    4.10    2.20
   3 -13  12    2.20    2.30
   3  13  12   -1.00    1.90
   5 -13  12    7.60    2.80
   5  13  12    3.70    2.30
   7 -13  12   -1.70    2.40
   7  13  12   -0.30    2.20
   9 -13  12    1.20    2.70
   9  13  12   -1.00    2.30
  18  14 -12    1.70    2.50
  18  14 -12    2.90    2.60
  16  14 -12    1.00    2.30
  16  14 -12    0.60    2.40
  14  14 -12   24.20    3.60
  14  14 -12   26.90    3.60
  12  14 -12   -0.30    2.00
  12  14 -12    1.80    2.40
  10  14 -12   31.80    3.80
  10  14 -12   35.40    4.10
   8  14 -12   31.00    3.80
   8  14 -12   22.00    3.10
   6  14 -12   44.90    4.40
   4  14 -12    3.40    2.40
   2  14 -12   84.79    6.20
   0  14 -12    6.30    2.70
   2 -14  12    4.30    2.70
   2  14  12    4.80    2.30
   4 -14  12   15.20    3.30
   4  14  12   15.90    3.00
   6 -14  12   44.00    4.80
   6  14  12   24.10    3.70
  15  15 -12    4.10    2.70
  15  15 -12    6.20    2.70
  13  15 -12    1.60    2.30
  13  15 -12    1.60    2.50
  11  15 -12    3.90    2.70
  11  15 -12    6.60    2.50
   9  15 -12    0.30    2.50
   9  15 -12    2.90    2.20
   7  15 -12    4.50    2.50
   5  15 -12    0.70    2.40
   3  15 -12    3.10    2.50
   1  15 -12   -0.90    2.30
   1 -15  12    1.50    2.60
   3 -15  12    0.60    2.40
  10  16 -12    8.90    3.20
  10  16 -12    5.50    2.60
   8  16 -12    1.80    2.50
   8  16 -12    1.70    2.30
   6  16 -12   17.20    3.40
   4  16 -12    7.80    2.80
   2  16 -12   21.10    3.60
  28   0 -13   -0.40    2.00
  28   0 -13   -1.80    2.00
  26   0 -13    1.60    2.10
  26   0 -13   -0.20    1.90
  24   0 -13   -0.70    1.80
  24   0 -13   -0.50    1.70
  22   0 -13   -0.50    1.70
  22   0 -13   -1.70    1.50
  20   0 -13    1.60    1.60
  20   0 -13    0.80    1.50
  18   0 -13   -0.90    1.30
  18   0 -13    1.30    1.40
  16   0 -13    0.90    1.20
  16   0 -13   -0.20    1.30
  14   0 -13   -0.30    1.20
  14   0 -13   -0.40    1.10
  12   0 -13    0.60    1.10
  12   0 -13    0.00    1.10
  10   0 -13    0.00    1.20
   8   0 -13    0.20    1.20
   6   0 -13    0.80    1.20
   4   0 -13    0.40    1.20
   2   0 -13   -1.80    1.00
  -2   0  13   -0.10    1.40
   0   0  13   -1.50    1.20
   2   0  13   -0.60    1.40
   4   0  13   -1.60    1.50
   6   0  13   -0.60    1.60
   8   0  13   -0.10    1.70
  10   0  13    1.10    1.90
  12   0  13    3.10    2.30
  14   0  13   -0.10    2.20
  16   0  13   -0.10    2.70
  29  -1 -13   12.30    3.00
  29   1 -13   15.30    3.20
  29   1 -13   21.40    3.30
  27  -1 -13    8.20    2.80
  27   1 -13   10.20    2.70
  27   1 -13    5.30    2.50
  25  -1 -13   29.50    3.70
  25   1 -13   21.90    3.20
  25   1 -13   32.10    3.60
  23  -1 -13    1.10    1.80
  23   1 -13    0.10    1.70
  23   1 -13    2.10    2.00
  21  -1 -13   58.99    4.60
  21   1 -13   66.79    4.50
  21   1 -13   58.29    4.60
  19  -1 -13   36.30    3.60
  19   1 -13   44.80    3.60
  19   1 -13   39.20    3.60
  17  -1 -13   96.59    6.10
  17   1 -13  108.89    6.20
  17   1 -13  101.39    5.80
  15  -1 -13    5.70    1.60
  15   1 -13    9.70    1.80
  15   1 -13    9.50    1.90
  13  -1 -13  116.29    6.60
  13   1 -13  127.79    6.70
  13   1 -13  110.99    6.10
  11  -1 -13    4.50    1.50
  11   1 -13    3.50    1.20
  11   1 -13    5.00    1.50
   9  -1 -13    7.50    1.60
   9   1 -13    7.40    1.70
   9   1 -13    9.80    1.50
   7  -1 -13    7.70    1.70
   7   1 -13    9.80    1.80
   7   1 -13   10.60    1.50
   5  -1 -13   31.20    2.90
   5   1 -13   36.70    3.00
   3  -1 -13    0.00    1.10
  -3   1  13   -0.10    1.30
   3   1 -13    0.00    1.20
  -1  -1  13   14.50    2.20
   1  -1 -13   12.40    2.00
   1   1 -13   14.90    2.10
  -1   1  13   20.80    2.40
   1  -1  13   11.10    2.10
   1   1  13    7.70    1.80
   3  -1  13   49.00    3.80
   3   1  13   44.80    3.70
   5  -1  13    7.30    2.00
   5   1  13   10.30    2.20
   7  -1  13   12.40    2.50
   7   1  13   12.00    1.80
   7   1  13   11.60    2.40
   9  -1  13   14.00    2.70
   9   1  13   13.80    2.60
  11  -1  13    8.80    2.50
  11   1  13    4.70    2.30
  13  -1  13   19.80    3.30
  13   1  13   18.90    3.30
  15  -1  13   16.00    3.40
  15   1  13   12.30    3.10
  28  -2 -13    0.90    2.40
  28   2 -13    1.40    2.20
  28   2 -13    1.50    2.30
  26  -2 -13    9.50    2.70
  26   2 -13   10.40    2.50
  26   2 -13    5.00    2.50
  24  -2 -13    1.00    1.90
  24   2 -13    0.90    2.00
  24   2 -13    0.20    1.90
  22  -2 -13   11.80    2.40
  22   2 -13   11.80    2.40
  22   2 -13    8.00    2.20
  20  -2 -13    3.00    1.70
  20   2 -13    2.60    1.70
  20   2 -13    2.00    1.70
  18  -2 -13   37.70    3.60
  18   2 -13   36.80    3.30
  18   2 -13   37.80    3.40
  16  -2 -13    6.00    1.70
  16   2 -13    7.30    1.70
  16   2 -13    8.20    1.80
  14  -2 -13   13.70    2.00
  14   2 -13   13.50    2.20
  14   2 -13   13.80    2.00
  12  -2 -13   31.30    3.10
  12   2 -13   35.60    3.20
  12   2 -13   37.30    2.90
  10  -2 -13   -0.70    1.10
  10   2 -13   -0.60    1.10
  10   2 -13    0.20    1.00
   8  -2 -13    4.40    1.50
   8   2 -13    3.90    1.50
   8   2 -13    5.90    1.30
   6  -2 -13    0.30    1.10
   6   2 -13    3.40    1.40
   4  -2 -13    2.40    1.30
   4   2 -13    5.90    1.60
   2  -2 -13    2.30    1.30
  -2  -2  13    2.60    1.60
  -2   2  13    2.50    1.50
   2   2 -13    3.70    1.40
   0  -2  13    4.50    1.60
   0   2  13    4.80    1.70
   2  -2  13   18.00    2.50
   2   2  13   21.10    2.70
   4  -2  13    0.30    1.50
   4   2  13    1.60    1.60
   6  -2  13    0.50    1.60
   6   2  13    1.50    1.70
   6   2  13    0.60    1.10
   8  -2  13   -0.10    1.80
   8   2  13    0.40    1.80
  10  -2  13    0.50    1.80
  10   2  13    0.30    1.90
  12  -2  13    5.40    2.30
  12   2  13    2.10    2.30
  14  -2  13    7.70    2.70
  14   2  13    7.20    2.70
  16  -2  13    4.60    2.80
  16   2  13    4.10    2.90
  29  -3 -13   12.60    3.10
  29   3 -13   17.70    3.50
  29   3 -13   32.70    3.90
  27  -3 -13    0.30    2.10
  27   3 -13    0.10    2.20
  27   3 -13    3.60    2.40
  25  -3 -13    7.60    2.40
  25   3 -13    5.30    2.30
  25   3 -13    8.40    2.40
  23  -3 -13   -2.30    1.60
  23   3 -13    2.90    2.00
  23   3 -13    1.20    1.90
  21  -3 -13    6.00    2.00
  21   3 -13   11.80    2.40
  21   3 -13    7.10    2.10
  19  -3 -13    1.80    1.60
  19   3 -13   -0.30    1.50
  19   3 -13    1.10    1.60
  17  -3 -13    1.80    1.50
  17   3 -13    5.40    1.70
  17   3 -13    5.30    1.70
  15  -3 -13   12.80    2.10
  15   3 -13   14.30    2.10
  15   3 -13   14.90    2.20
  13  -3 -13    1.60    1.30
  13   3 -13    0.70    1.30
  13   3 -13    2.90    1.40
  11  -3 -13  165.58    8.90
  11   3 -13  169.88    8.20
  11   3 -13  174.38    8.90
   9  -3 -13   79.79    5.20
   9   3 -13   84.19    4.70
   9   3 -13   91.69    5.20
   7  -3 -13   47.70    3.60
   7   3 -13   47.40    3.60
   7   3 -13   49.20    3.10
   5  -3 -13   60.79    4.20
   5   3 -13   68.39    4.30
   3  -3 -13   51.39    3.90
  -3   3  13   56.39    4.00
   3   3 -13   51.79    3.80
  -1  -3  13   63.09    4.30
  -1   3  13   65.69    4.50
   1   3 -13   62.59    4.30
   1  -3  13   10.90    2.10
   1   3  13    9.30    2.00
   3  -3  13   25.40    2.90
   3   3  13   31.20    2.40
   3   3  13   26.70    2.90
   5  -3  13    7.10    1.90
   5   3  13   10.50    1.70
   5   3  13   11.30    2.20
   7  -3  13   38.70    3.60
   7   3  13   33.00    3.60
   9  -3  13    0.50    1.80
   9   3  13    1.20    1.90
  11  -3  13   35.90    3.90
  11   3  13   30.80    3.70
  13  -3  13   -1.60    2.10
  13   3  13    0.50    2.30
  15  -3  13    4.00    2.70
  15   3  13    8.20    2.90
  28  -4 -13    9.50    2.90
  28   4 -13   12.10    2.90
  28   4 -13   14.70    3.10
  26  -4 -13    3.80    2.30
  26   4 -13   10.30    2.70
  26   4 -13    3.50    2.40
  24  -4 -13    8.00    2.40
  24   4 -13   10.00    2.50
  24   4 -13    5.20    2.30
  22  -4 -13    2.20    1.80
  22   4 -13    5.20    2.10
  22   4 -13    2.70    1.90
  20  -4 -13    2.40    1.80
  20   4 -13    8.70    2.20
  20   4 -13    5.80    2.00
  18  -4 -13    7.30    2.00
  18   4 -13   12.20    2.20
  18   4 -13    9.20    2.10
  16  -4 -13    3.60    1.50
  16   4 -13    3.20    1.60
  16   4 -13    0.00    1.40
  14  -4 -13   16.00    2.20
  14   4 -13   12.50    2.10
  14   4 -13   12.90    2.00
  12  -4 -13    2.50    1.40
  12   4 -13    0.50    1.20
  12   4 -13    1.30    1.30
  10  -4 -13   50.69    3.90
  10   4 -13   59.19    3.90
  10   4 -13   54.49    3.60
   8  -4 -13    0.30    1.10
   8   4 -13    1.10    1.30
   8   4 -13    1.60    1.10
   6  -4 -13   68.89    4.40
   6   4 -13   65.39    4.40
   4  -4 -13    0.20    1.20
   4   4 -13    0.50    1.20
  -4   4  13    0.50    1.40
   2  -4 -13   20.90    2.50
  -2  -4  13   26.50    2.80
  -2   4  13   20.30    2.60
   2   4 -13   24.20    2.60
   0  -4  13    3.70    1.60
   0   4  13    1.50    1.50
   0   4  13    2.80    1.20
   2  -4  13   17.70    2.40
   2   4  13   22.40    2.80
   2   4  13   22.50    2.20
   4  -4  13    7.30    1.90
   4   4  13    3.30    1.80
   4   4  13    5.90    1.50
   6  -4  13   16.90    2.50
   6   4  13   13.30    2.50
   8  -4  13    1.70    1.80
   8   4  13    2.20    1.90
  10  -4  13    7.10    2.20
  10   4  13    9.20    2.50
  12  -4  13    3.50    2.20
  12   4  13    5.50    2.40
  14   4  13   -1.00    2.30
  16   4  13    2.10    2.70
  27  -5 -13    6.70    2.50
  27   5 -13    6.80    2.60
  27   5 -13    6.20    2.80
  25  -5 -13    5.80    2.30
  25   5 -13    5.60    2.50
  25   5 -13    6.10    2.40
  23  -5 -13   11.90    2.50
  23   5 -13   21.30    3.10
  23   5 -13   18.80    2.90
  21  -5 -13   16.30    2.70
  21   5 -13   23.00    3.10
  21   5 -13   30.60    3.20
  19  -5 -13    1.00    1.70
  19   5 -13    1.20    1.70
  19   5 -13    2.40    1.70
  17  -5 -13   43.20    3.70
  17   5 -13   40.50    3.70
  17   5 -13   41.60    3.70
  15  -5 -13    2.20    1.50
  15   5 -13    0.10    1.50
  15   5 -13   -0.80    1.30
  13  -5 -13   28.00    3.00
  13   5 -13   30.20    2.90
  13   5 -13   32.60    3.00
  11  -5 -13    0.50    1.30
  11   5 -13   -1.40    1.20
  11   5 -13    0.60    1.30
   9  -5 -13   33.10    3.20
   9   5 -13   32.30    3.00
   9   5 -13   32.90    2.80
   7  -5 -13    0.50    1.20
   7   5 -13   -0.80    1.20
   5  -5 -13    0.40    1.20
  -5   5  13    1.40    1.00
   5   5 -13    1.10    1.30
   3  -5 -13   12.20    2.10
  -3   5  13   17.10    1.80
  -3   5  13   18.00    2.50
   3   5 -13   14.10    2.10
  -1  -5  13    2.40    1.40
   1   5 -13    2.60    1.40
  -1   5  13    3.10    1.70
   1  -5  13    4.20    1.60
   1   5  13    3.70    1.30
   1   5  13    1.90    1.70
   3  -5  13    1.60    1.50
   3   5  13    1.60    1.70
   3   5  13    0.40    1.20
   5  -5  13    5.30    1.70
   5   5  13    3.50    1.80
   7  -5  13    0.70    1.60
   7   5  13    2.60    1.90
   9  -5  13    3.00    2.10
   9   5  13    2.60    1.90
  11   5  13   -2.20    1.90
  13   5  13    2.90    2.40
  15   5  13    3.20    2.70
  26  -6 -13   14.30    3.00
  26   6 -13   16.00    3.30
  26   6 -13   22.10    3.40
  24  -6 -13   10.40    2.60
  24   6 -13    8.90    2.70
  24   6 -13   12.80    2.70
  22  -6 -13   23.00    3.10
  22   6 -13   27.80    3.50
  22   6 -13   32.40    3.40
  22   6 -13   27.90    3.30
  20  -6 -13   10.40    2.40
  20   6 -13   13.60    2.60
  20   6 -13   18.50    2.60
  20   6 -13   11.50    2.40
  18  -6 -13   17.20    2.60
  18   6 -13   18.10    2.70
 -18   6  13   21.10    2.20
  18   6 -13   16.10    2.40
  18   6 -13   13.90    2.50
  16  -6 -13   20.70    2.70
 -16   6  13   23.40    2.20
  16   6 -13   21.90    2.50
  16   6 -13   25.50    2.90
  16   6 -13   18.00    2.60
  14  -6 -13   28.00    3.00
  14   6 -13   30.60    2.80
 -14   6  13   28.70    2.40
  14   6 -13   26.00    2.90
  14   6 -13   28.70    3.00
  12  -6 -13    6.60    1.80
  12   6 -13    5.00    1.70
  12   6 -13    6.60    1.50
 -12   6  13    6.00    1.20
  12   6 -13    7.80    1.80
  10  -6 -13   38.60    3.40
 -10   6  13   38.10    2.60
  10   6 -13   37.90    3.20
  10   6 -13   36.20    3.20
  10   6 -13   35.70    2.90
   8  -6 -13    5.20    1.70
   8   6 -13    9.40    1.80
   8   6 -13    9.00    1.70
  -8   6  13    7.70    1.30
   8   6 -13   11.00    1.80
   6  -6 -13   18.20    2.40
  -6   6  13   21.20    2.00
   6   6 -13   24.10    2.40
   6   6 -13   18.60    2.30
   4  -6 -13   -0.30    1.30
   4   6 -13    0.90    1.30
   4   6 -13    0.50    1.20
  -4   6  13    0.10    1.40
  -4   6  13   -0.70    1.00
  -2  -6  13   39.30    3.40
  -2  -6  13   45.80    3.50
  -2   6  13   44.00    3.70
   2   6 -13   43.60    3.40
  -2   6  13   41.30    3.00
   0  -6  13   -0.60    1.30
   0  -6  13   -0.50    1.40
   0   6  13    1.30    1.60
   0   6  13   -0.30    1.20
   2  -6  13   11.00    2.00
   2  -6  13   13.80    2.20
   2   6  13   14.20    2.40
   2   6  13   10.50    1.80
   4  -6  13   -3.00    1.50
   4   6  13    2.00    1.70
   6  -6  13   17.90    2.70
   6   6  13   15.20    2.70
   8  -6  13   -0.40    1.90
   8   6  13   -1.10    1.80
  10   6  13   11.20    2.70
  12   6  13    2.70    2.40
  14   6  13   11.50    3.10
  27  -7 -13    5.80    2.60
  27   7 -13    9.70    3.00
  27   7 -13    5.20    2.80
  27   7 -13    9.50    2.90
  25  -7 -13    1.00    2.00
  25   7 -13   -1.30    2.10
  25   7 -13    3.90    2.40
  25   7 -13    4.00    2.50
  23  -7 -13    0.80    1.90
  23   7 -13    3.10    2.20
  23   7 -13   -1.10    1.90
  23   7 -13    2.00    2.20
  21  -7 -13    0.00    1.90
  21   7 -13    3.10    2.10
  21   7 -13    0.50    1.90
  21   7 -13    0.00    1.80
  19  -7 -13    2.70    1.80
  19   7 -13   -0.60    1.70
  19   7 -13   -0.30    1.70
  19   7 -13   -0.40    1.80
  17  -7 -13   14.60    2.40
  17   7 -13   15.10    2.40
  17   7 -13   11.80    2.30
  17   7 -13   11.30    2.20
  15  -7 -13   16.00    2.40
 -15   7  13   18.60    2.00
  15   7 -13   12.30    2.30
  15   7 -13   16.10    2.40
  15   7 -13   20.70    2.50
  13  -7 -13    0.40    1.50
 -13   7  13   -1.30    1.00
  13   7 -13   -0.20    1.40
  13   7 -13    1.40    1.50
  13   7 -13    0.50    1.40
  11  -7 -13    0.80    1.50
  11   7 -13   -0.90    1.30
  11   7 -13   -0.30    1.30
 -11   7  13    1.40    1.10
  11   7 -13    1.20    1.30
   9  -7 -13    4.50    1.60
   9   7 -13    5.00    1.60
   9   7 -13    3.50    1.50
   9   7 -13    0.80    1.30
  -9   7  13    2.10    1.10
   7  -7 -13    1.90    1.50
   7   7 -13    2.40    1.40
   7   7 -13    2.20    1.40
  -7   7  13    0.60    1.10
   5  -7 -13    0.80    1.40
  -5   7  13    2.50    1.20
   5   7 -13    1.70    1.40
   5   7 -13    0.60    1.30
  -5   7  13   -1.10    1.50
  -3   7  13    2.40    1.20
  -3   7  13    1.10    1.60
   3   7 -13    0.10    1.30
   3   7 -13    1.30    1.30
  -1  -7  13    3.60    1.60
  -1   7  13    4.20    1.40
  -1   7  13    4.40    1.80
   1  -7  13   -0.20    1.50
   1   7  13    1.20    1.70
   3  -7  13    2.80    1.80
   3   7  13   -0.60    1.70
   5  -7  13   -0.70    1.80
   5   7  13   -1.80    1.70
   7  -7  13    0.80    2.00
   7   7  13   -0.60    1.90
   9  -7  13    7.50    2.50
   9   7  13    1.90    2.10
  11  -7  13    5.90    2.60
  11   7  13    9.30    2.70
  13  -7  13    4.80    2.70
  13   7  13    2.30    2.50
  26  -8 -13   12.90    2.90
  26   8 -13   12.50    3.10
  26   8 -13   15.10    3.20
  26   8 -13   13.20    3.20
  24  -8 -13   11.60    2.70
  24   8 -13   11.40    2.80
  24   8 -13   11.10    2.80
  24   8 -13    7.60    2.70
  22  -8 -13   24.10    3.20
  22   8 -13   26.10    3.60
  22   8 -13   22.80    3.30
  22   8 -13   26.70    3.40
  20  -8 -13   11.00    2.40
  20   8 -13   10.10    2.50
  20   8 -13   10.50    2.40
  20   8 -13    9.20    2.50
  18  -8 -13   16.30    2.50
  18   8 -13   16.60    2.60
  18   8 -13   15.60    2.60
  18   8 -13   12.20    2.50
  16  -8 -13   35.00    3.50
  16   8 -13   29.70    3.20
  16   8 -13   33.60    3.60
  16   8 -13   34.70    3.40
  14  -8 -13   43.60    4.00
  14   8 -13   45.20    3.80
  14   8 -13   46.70    3.80
  14   8 -13   53.59    4.00
  12  -8 -13    9.90    2.20
  12   8 -13    8.70    1.90
  12   8 -13   11.40    2.00
  12   8 -13    7.20    1.90
  10  -8 -13   24.00    2.90
  10   8 -13   26.60    2.80
 -10   8  13   25.50    2.30
  10   8 -13   23.60    2.60
  10   8 -13   17.60    2.40
   8  -8 -13    5.30    1.70
   8   8 -13    0.40    1.40
   8   8 -13    2.00    1.50
  -8   8  13    0.90    1.10
   8   8 -13    2.70    1.50
   6  -8 -13    4.30    1.80
  -6   8  13    6.10    2.00
   6   8 -13    3.20    1.50
  -6   8  13    5.00    1.40
   4   8 -13   18.10    2.30
  -4   8  13   12.80    2.40
  -2   8  13   16.30    2.50
   2   8 -13   10.40    2.10
   0  -8  13    3.20    1.70
   0   8  13   -1.00    1.60
   2  -8  13    2.60    1.80
   2   8  13    2.90    1.90
   4  -8  13   -2.00    1.80
   4   8  13    1.60    1.80
   6  -8  13    3.60    2.10
   6   8  13    2.40    2.00
   8  -8  13    2.30    2.20
   8   8  13    1.30    2.10
  10  -8  13    5.80    2.40
  10   8  13    3.80    2.50
  12  -8  13   -2.60    2.30
  12   8  13    0.80    2.30
  25  -9 -13    6.70    2.40
  25   9 -13   10.10    3.00
  25   9 -13    2.90    2.60
  25   9 -13    6.20    3.00
  23  -9 -13   -1.80    1.90
  23   9 -13   -2.20    2.10
  23   9 -13    2.20    2.50
  23   9 -13   -2.10    2.20
  21  -9 -13   28.80    3.30
  21   9 -13   27.30    3.70
  21   9 -13   28.20    3.60
  21   9 -13   27.90    3.50
  19  -9 -13    2.50    2.00
  19   9 -13    3.70    2.20
  19   9 -13    1.60    2.00
  19   9 -13    2.50    1.90
  17  -9 -13    6.40    2.00
  17   9 -13    7.00    2.20
  17   9 -13    6.20    2.00
  17   9 -13    5.80    2.10
  15  -9 -13   31.90    3.40
  15   9 -13   32.70    3.60
  15   9 -13   34.00    3.30
  15   9 -13   32.40    3.40
  13  -9 -13   25.20    3.00
  13   9 -13   24.90    2.90
  13   9 -13   19.30    2.60
  13   9 -13   19.50    2.80
  11  -9 -13   10.40    2.20
  11   9 -13    8.20    2.00
  11   9 -13   10.40    2.20
   9  -9 -13   20.20    2.70
   9   9 -13   17.50    2.50
   9   9 -13   26.20    2.80
   7  -9 -13    8.80    2.20
   7   9 -13    9.00    2.00
  -7   9  13   11.20    2.30
   5  -9 -13    1.30    1.60
  -5   9  13    2.10    1.80
   5   9 -13   -0.20    1.50
  -3   9  13    7.50    2.20
   3   9 -13    9.90    2.10
  -1   9  13    0.80    1.70
   1  -9  13    6.90    2.20
   1   9  13    9.50    2.30
   3  -9  13    4.20    2.00
   3   9  13    3.00    2.00
   5  -9  13    1.00    2.20
   5   9  13    2.80    2.10
   7  -9  13    6.30    2.50
   7   9  13    8.40    2.50
   9  -9  13    0.40    2.40
   9   9  13    1.20    2.20
  11  -9  13   -2.00    2.30
  11   9  13   -1.30    2.40
  24  10 -13    2.60    2.40
  24  10 -13    1.30    2.50
  24  10 -13    1.80    2.80
  22 -10 -13    1.30    2.10
  22  10 -13    2.60    2.30
  22  10 -13    5.60    2.60
  22  10 -13    4.30    2.50
  20 -10 -13    1.20    1.90
  20  10 -13    0.70    2.10
  20  10 -13    1.20    2.00
  20  10 -13    0.30    2.10
  18 -10 -13    3.40    2.00
  18  10 -13    6.30    2.40
  18  10 -13    5.90    2.40
  16 -10 -13    0.40    1.70
  16  10 -13   -2.40    1.80
  16  10 -13    1.50    1.90
  14 -10 -13   30.30    3.30
  14  10 -13   33.30    3.40
  14  10 -13   28.70    3.30
  12 -10 -13    0.30    1.60
  12  10 -13   -0.40    1.60
  12  10 -13    0.50    1.80
  10 -10 -13    9.50    2.20
  10  10 -13    8.80    2.10
  10  10 -13   11.10    2.20
   8 -10 -13    2.30    1.80
  -8  10  13   -2.10    1.70
   8  10 -13    1.70    1.70
   6 -10 -13   10.10    2.30
   6  10 -13   12.00    2.30
  -6  10  13   12.90    2.50
  -4  10  13   -0.60    1.70
   4  10 -13    1.00    1.60
   2  10 -13   17.60    2.50
  -2  10  13   10.10    2.30
   0 -10  13    2.50    2.00
   0  10  13    3.10    2.00
   2 -10  13    9.60    2.40
   2  10  13   10.60    2.50
   4 -10  13   22.20    3.20
   4  10  13   14.10    2.80
   6 -10  13   14.50    3.00
   6  10  13   17.60    3.10
   8 -10  13    5.80    2.70
   8  10  13    2.00    2.40
  10 -10  13    4.20    2.70
  10  10  13    3.70    2.40
  21  11 -13    3.10    2.50
  21  11 -13    1.10    2.20
  19  11 -13    0.40    2.30
  19  11 -13    1.00    2.20
  17 -11 -13    2.60    2.00
  17  11 -13    4.30    2.30
  17  11 -13    4.50    2.30
  15 -11 -13    5.80    2.00
  15  11 -13    4.10    2.10
  15  11 -13    2.60    2.00
  13 -11 -13   13.30    2.50
  13  11 -13   14.80    2.70
  13  11 -13    9.40    2.30
  11 -11 -13    1.80    1.80
  11  11 -13    1.90    1.90
  11  11 -13   -0.70    1.60
   9 -11 -13    6.60    2.10
   9  11 -13    7.20    2.10
   9  11 -13    5.40    2.00
  -9  11  13    6.20    2.30
   7 -11 -13   -2.20    1.60
   7  11 -13    4.40    2.00
  -7  11  13    3.10    2.00
   5  11 -13    6.60    2.20
  -5  11  13   10.00    2.40
  -3  11  13    8.50    2.30
   3  11 -13    5.90    2.10
  -1  11  13   16.80    2.80
   1 -11  13   10.00    2.50
   1  11  13    6.30    2.20
   3 -11  13   41.30    4.20
   3  11  13   28.80    3.60
   5 -11  13   -1.70    2.30
   5  11  13    2.70    2.30
   7 -11  13   24.50    3.70
   7  11  13   15.00    3.00
   9 -11  13   -2.30    2.30
   9  11  13   -0.20    2.30
  20  12 -13    6.90    2.80
  20  12 -13    3.20    2.50
  18  12 -13    0.00    2.20
  18  12 -13    2.50    2.30
  16  12 -13    4.80    2.20
  16  12 -13    5.20    2.40
  14  12 -13   -0.50    1.90
  14  12 -13   -0.10    2.00
  12 -12 -13    0.80    1.90
  12  12 -13    3.90    2.10
  12  12 -13    1.90    2.00
  10 -12 -13    1.10    1.90
 -10  12  13   -0.60    2.00
  10  12 -13   -1.20    2.00
  10  12 -13   -1.30    1.70
   8 -12 -13    1.20    1.90
  -8  12  13    1.60    2.00
   8  12 -13    3.30    2.10
  -6  12  13   -1.00    1.90
   6  12 -13   -0.30    1.90
  -4  12  13    2.60    2.00
   4  12 -13    2.90    2.10
  -2  12  13    1.60    1.90
   2  12 -13    0.00    2.00
   0 -12  13    1.50    2.40
   0  12  13    0.00    1.80
   2 -12  13    1.40    2.30
   2  12  13    1.90    2.00
   4 -12  13   -0.90    2.00
   4  12  13   -0.70    2.00
   6 -12  13   -0.50    2.50
   6  12  13   -2.30    2.10
   8 -12  13    7.60    3.10
   8  12  13    0.10    2.50
  19  13 -13    3.20    2.60
  19  13 -13   -3.70    2.10
  17  13 -13    2.80    2.40
  17  13 -13    8.20    2.80
  15  13 -13    2.60    2.50
  15  13 -13    2.80    2.30
  13  13 -13    3.10    2.20
  13  13 -13    1.10    2.30
  11  13 -13    4.60    2.20
  11  13 -13    5.80    2.60
   9  13 -13   11.80    2.80
   9  13 -13    6.40    2.50
   7  13 -13    3.70    2.40
  -7  13  13    2.00    2.20
  -5  13  13    6.40    2.30
   5  13 -13    8.60    2.60
  -3  13  13   -2.20    1.80
   3  13 -13    2.40    2.30
   1  13 -13   28.80    3.60
   1 -13  13   -2.90    2.00
   1  13  13   -0.10    1.90
   3 -13  13    9.40    3.00
   3  13  13   10.90    2.70
   5 -13  13    3.40    2.60
   5  13  13    2.90    2.40
  16  14 -13    0.00    2.20
  16  14 -13    2.00    2.50
  14  14 -13   -0.70    2.20
  14  14 -13    1.80    2.60
  12  14 -13    3.70    2.40
  12  14 -13   13.50    3.00
  10  14 -13    3.20    2.50
  10  14 -13   -1.60    2.00
   8  14 -13    2.00    2.30
   6  14 -13    3.40    2.40
   4  14 -13    2.10    2.40
   2  14 -13    3.70    2.40
   0 -14  13   10.40    3.10
   0  14  13    5.60    2.40
   2 -14  13    2.70    2.80
   2  14  13   -0.30    2.20
  11  15 -13    0.40    2.20
  11  15 -13   -1.50    2.50
   9  15 -13    6.70    2.90
   7  15 -13    4.30    2.60
   5  15 -13    3.40    2.70
   3  15 -13    3.30    2.60
  28   0 -14   -1.20    2.10
  26   0 -14   -0.10    1.90
  24   0 -14   -0.20    1.90
  24   0 -14   -2.50    1.60
  22   0 -14    3.40    1.80
  22   0 -14   -1.10    1.60
  20   0 -14    1.20    1.70
  20   0 -14   -1.20    1.30
  18   0 -14   12.30    2.20
  18   0 -14   11.20    2.10
  16   0 -14   16.00    2.30
  16   0 -14   17.70    2.40
  14   0 -14    4.50    1.60
  12   0 -14    6.50    1.70
  10   0 -14    3.00    1.50
   8   0 -14    1.50    1.30
   6   0 -14    6.80    1.70
   4   0 -14    1.00    1.20
   2   0 -14    2.60    1.50
  -2   0  14    1.40    1.60
   0   0  14   -0.20    1.50
   2   0  14    2.70    1.70
   4   0  14    1.60    1.70
   6   0  14    4.00    2.00
   8   0  14   -1.00    1.80
  10   0  14   -1.40    1.90
  12   0  14    0.70    2.30
  14   0  14    2.30    2.60
  27  -1 -14    9.40    2.70
  27   1 -14   13.20    2.90
  27   1 -14   11.40    2.90
  25  -1 -14    3.40    2.10
  25   1 -14    0.40    2.00
  25   1 -14   -0.50    1.90
  23  -1 -14    2.80    1.90
  23   1 -14    2.30    1.80
  23   1 -14    0.80    1.80
  21  -1 -14   10.00    2.30
  21   1 -14    9.00    2.10
  21   1 -14    8.00    2.10
  19  -1 -14   10.90    2.10
  19   1 -14   13.10    2.20
  19   1 -14   14.00    2.20
  17  -1 -14   70.59    4.70
  17   1 -14   59.09    4.50
  17   1 -14   66.89    4.40
  15  -1 -14   30.20    3.10
  15   1 -14   28.80    2.80
  15   1 -14   25.10    2.90
  13  -1 -14    1.90    1.40
  13   1 -14    2.90    1.40
  13   1 -14    1.00    1.20
  11  -1 -14   26.00    2.70
  11   1 -14   32.20    2.70
  11   1 -14   27.30    3.00
   9  -1 -14    8.20    1.80
   9   1 -14   11.20    1.70
   9   1 -14   11.90    1.90
   7  -1 -14   49.20    3.70
   7   1 -14   46.50    3.70
   5  -1 -14    6.30    1.70
   5   1 -14    7.90    1.80
   3  -1 -14   10.10    2.00
  -3  -1  14   11.40    2.20
   3   1 -14    9.50    1.90
  -3   1  14    5.70    1.90
  -1  -1  14   14.00    2.40
  -1   1  14   10.80    2.20
   1  -1  14   12.50    2.40
   1   1  14   19.30    2.70
   3  -1  14    2.40    1.70
   3   1  14   -1.60    1.50
   5  -1  14    5.80    2.00
   5   1  14    9.40    2.20
   7  -1  14    5.80    2.20
   7   1  14    7.00    2.30
   9  -1  14   -0.70    2.00
   9   1  14    4.30    2.20
  11  -1  14   14.10    3.00
  11   1  14    8.60    2.70
  13  -1  14    3.00    2.50
  13   1  14    5.10    2.70
  28  -2 -14    5.40    2.40
  28   2 -14    6.70    2.60
  28   2 -14    4.60    2.50
  26  -2 -14    0.10    2.00
  26   2 -14    0.50    2.00
  26   2 -14   -0.50    2.00
  24  -2 -14    1.70    1.90
  24   2 -14    2.70    2.10
  24   2 -14    5.00    2.30
  22  -2 -14    1.90    1.80
  22   2 -14    4.90    1.90
  22   2 -14    4.20    2.00
  20  -2 -14   -0.70    1.50
  20   2 -14    0.20    1.60
  20   2 -14   -0.90    1.40
  18  -2 -14    0.70    1.50
  18   2 -14    1.30    1.50
  18   2 -14    2.30    1.60
  16  -2 -14    0.20    1.30
  16   2 -14    2.90    1.60
  16   2 -14    0.70    1.30
  14  -2 -14    1.90    1.40
  14   2 -14    0.20    1.20
  14   2 -14    0.40    1.30
  12  -2 -14    0.00    1.20
  12   2 -14    0.70    1.20
  12   2 -14    1.20    1.30
  10  -2 -14   -0.30    1.20
  10   2 -14    0.40    1.20
  10   2 -14    0.80    1.10
   8  -2 -14    0.20    1.20
   8   2 -14   -0.60    1.20
   6  -2 -14   -0.10    1.20
   6   2 -14    0.40    1.30
   4  -2 -14    0.20    1.20
  -4   2  14   -0.40    1.50
   4   2 -14    0.30    1.30
   2  -2 -14    1.70    1.40
  -2  -2  14    1.10    1.60
  -2   2  14    0.20    1.60
   2   2 -14    1.90    1.40
   0  -2  14   -0.60    1.50
   0   2  14   -1.10    1.50
   2  -2  14   -1.40    1.60
   2   2  14   -0.20    1.60
   4  -2  14    2.00    1.70
   4   2  14    0.10    1.70
   6  -2  14    0.40    1.70
   6   2  14    1.00    1.80
   8  -2  14    1.00    2.00
   8   2  14   -2.20    1.80
  10  -2  14   -1.30    1.90
  10   2  14   -1.30    2.00
  12  -2  14   -0.30    2.30
  12   2  14    1.20    2.40
  14  -2  14    2.00    2.60
  14   2  14   -1.40    2.30
  27  -3 -14    3.10    2.20
  27   3 -14   -1.30    2.10
  27   3 -14    5.70    2.50
  25  -3 -14   30.80    3.70
  25   3 -14   25.20    3.30
  25   3 -14   21.60    3.40
  23  -3 -14   10.10    2.50
  23   3 -14   14.10    2.60
  23   3 -14   15.30    2.80
  21  -3 -14   35.20    3.70
  21   3 -14   41.90    3.80
  21   3 -14   27.70    3.30
  19  -3 -14   22.50    2.80
  19   3 -14   22.60    2.80
  19   3 -14   20.70    2.90
  17  -3 -14   47.60    3.90
  17   3 -14   49.00    4.00
  17   3 -14   53.19    3.90
  15  -3 -14    0.00    1.30
  15   3 -14   -1.30    1.30
  15   3 -14   -0.50    1.20
  13  -3 -14   53.59    4.00
  13   3 -14   57.09    4.00
  13   3 -14   52.29    3.80
  11  -3 -14    0.60    1.30
  11   3 -14    1.00    1.20
  11   3 -14    3.80    1.50
   9  -3 -14   36.10    3.40
   9   3 -14   37.90    3.30
   9   3 -14   37.20    2.90
   7  -3 -14   29.70    3.00
   7   3 -14   34.50    3.20
   5  -3 -14   41.00    3.50
   5   3 -14   48.70    3.60
  -3  -3  14   27.90    3.00
   3  -3 -14   18.90    2.50
   3   3 -14   24.20    2.80
  -3   3  14   21.90    2.80
  -1  -3  14   48.90    3.80
   1   3 -14   41.90    3.60
  -1   3  14   46.10    3.80
   1  -3  14   10.80    2.20
   1   3  14    7.30    2.00
   3  -3  14    5.30    1.90
   3   3  14    6.20    2.10
   5  -3  14    3.00    1.80
   5   3  14    5.70    2.10
   7  -3  14    9.10    2.30
   7   3  14    7.80    2.30
   9  -3  14    4.90    2.10
   9   3  14    3.30    2.30
  11  -3  14    8.90    2.60
  11   3  14   10.70    2.90
  13  -3  14    4.00    2.50
  13   3  14   -0.70    2.30
  26  -4 -14    3.00    2.20
  26   4 -14    0.00    2.10
  26   4 -14    0.50    2.20
  24  -4 -14   -0.50    1.80
  24   4 -14    1.90    2.00
  24   4 -14    1.10    2.00
  22  -4 -14   -0.80    1.70
  22   4 -14    0.70    1.80
  22   4 -14   -0.10    1.80
  20  -4 -14    0.70    1.60
  20   4 -14    4.10    2.00
  20   4 -14    4.40    1.90
  18  -4 -14    8.60    1.90
  18   4 -14    7.20    2.00
  18   4 -14    9.90    2.10
  16  -4 -14    0.70    1.50
  16   4 -14    0.10    1.40
  16   4 -14    2.50    1.50
  14  -4 -14    0.40    1.30
  14   4 -14    1.80    1.50
  14   4 -14   -0.70    1.30
  12  -4 -14    1.40    1.40
  12   4 -14    1.80    1.30
  12   4 -14   -1.20    1.30
  10  -4 -14    1.20    1.40
  10   4 -14   -0.50    1.30
  10   4 -14    1.60    1.20
   8  -4 -14    0.30    1.30
   8   4 -14    3.00    1.50
   6  -4 -14    0.80    1.30
   6   4 -14    0.40    1.30
   4  -4 -14    1.60    1.40
   4   4 -14    0.70    1.30
  -4   4  14    1.20    1.60
  -2  -4  14    3.40    1.60
  -2   4  14    2.00    1.60
   2   4 -14    2.20    1.40
   0  -4  14    3.10    1.70
   0   4  14    2.10    1.70
   2  -4  14    1.00    1.50
   2   4  14    0.20    1.70
   2   4  14   -1.90    1.20
   4  -4  14    0.50    1.60
   4   4  14   -1.50    1.60
   6  -4  14   -1.90    1.70
   6   4  14   -1.20    1.70
   8  -4  14   -0.40    1.90
   8   4  14    0.20    1.90
  10  -4  14   -1.00    2.00
  10   4  14    0.50    2.10
  12   4  14    4.90    2.60
  27  -5 -14    7.40    2.50
  27   5 -14    8.70    2.80
  27   5 -14    7.70    2.80
  25  -5 -14   15.90    3.00
  25   5 -14   15.90    3.10
  25   5 -14   20.50    3.40
  23  -5 -14   10.20    2.60
  23   5 -14    6.10    2.30
  23   5 -14    5.10    2.30
  21  -5 -14   17.20    2.90
  21   5 -14   15.80    2.70
  21   5 -14   20.90    2.90
  19  -5 -14    3.30    1.70
  19   5 -14    2.20    1.80
  19   5 -14    1.70    1.80
  17  -5 -14  190.18   10.50
  17   5 -14  214.48   10.70
  17   5 -14  200.08   10.00
  15  -5 -14    7.50    1.90
  15   5 -14    9.10    2.00
  15   5 -14    8.60    2.00
  13  -5 -14   42.00    3.70
  13   5 -14   41.90    3.60
  13   5 -14   43.70    3.60
  11  -5 -14    0.00    1.30
  11   5 -14    1.20    1.40
  11   5 -14    1.00    1.30
   9  -5 -14   58.09    4.40
   9   5 -14   67.69    4.40
   7  -5 -14    5.90    1.80
   7   5 -14    8.40    1.90
   5  -5 -14   36.80    3.50
   5   5 -14   33.80    3.20
  -5   5  14   36.50    3.60
  -3  -5  14    5.00    1.80
   3  -5 -14    2.30    1.50
  -3   5  14    3.90    1.90
   3   5 -14    6.00    1.70
  -1  -5  14    7.00    1.90
  -1   5  14    6.10    1.90
   1  -5  14    9.80    2.00
   1   5  14   11.90    2.30
   1   5  14    7.10    1.70
   3  -5  14    4.60    1.80
   3   5  14    4.70    2.00
   5  -5  14   12.80    2.40
   5   5  14   14.60    2.50
   7  -5  14    3.20    1.90
   7   5  14    2.70    2.00
   9   5  14   34.60    4.00
  11   5  14    6.20    2.60
  13   5  14   22.10    3.60
  26  -6 -14   -0.40    2.10
  26   6 -14   -1.30    2.30
  26   6 -14   -1.00    2.20
  24  -6 -14    3.10    2.20
  24   6 -14    1.50    2.20
  24   6 -14    2.60    2.30
  22  -6 -14   -0.10    1.80
  22   6 -14    1.40    1.90
  22   6 -14   -1.70    1.90
  20  -6 -14    3.80    1.80
  20   6 -14    3.10    2.00
  20   6 -14    1.90    1.90
  18  -6 -14   -0.50    1.60
  18   6 -14    1.10    1.60
  18   6 -14    2.00    1.80
  16  -6 -14    8.10    2.00
  16   6 -14    8.40    2.10
  16   6 -14    8.00    2.00
  14  -6 -14    0.60    1.50
  14   6 -14    2.30    1.50
  14   6 -14    1.50    1.50
  12  -6 -14    7.60    2.00
  12   6 -14    8.10    1.90
  12   6 -14    7.50    1.80
  10  -6 -14   -0.70    1.30
  10   6 -14    3.80    1.60
  10   6 -14   -2.00    1.20
   8  -6 -14    6.90    1.90
   8   6 -14    5.60    1.70
   6  -6 -14    3.40    1.60
   6   6 -14    5.70    1.80
  -6   6  14    2.00    1.80
  -6   6  14    6.20    1.30
   4  -6 -14    3.20    1.60
  -4   6  14    6.60    2.10
  -4   6  14    5.00    1.30
   4   6 -14    2.20    1.50
  -2  -6  14    3.60    1.60
  -2   6  14    2.20    1.80
  -2   6  14   -0.20    1.10
   2   6 -14    1.10    1.40
   0  -6  14    2.40    1.70
   0   6  14    0.90    1.70
   2  -6  14    3.70    1.70
   2   6  14    2.50    1.90
   4   6  14    1.80    1.90
   6   6  14   -0.60    1.90
   8   6  14   -0.50    2.00
  10   6  14    0.10    2.10
  12   6  14   -2.60    2.10
  25  -7 -14   26.40    3.50
  25   7 -14   27.50    3.80
  25   7 -14   31.10    3.90
  23  -7 -14   -1.40    1.80
  23   7 -14   -0.50    2.00
  23   7 -14    1.00    2.10
  21  -7 -14    1.80    1.90
  21   7 -14    2.40    2.00
  21   7 -14    4.60    2.20
  19  -7 -14    5.80    2.00
  19   7 -14    5.20    2.10
  19   7 -14    9.80    2.40
  17  -7 -14   21.10    3.00
  17   7 -14   23.00    2.90
  17   7 -14   20.20    2.70
  15  -7 -14   14.20    2.40
  15   7 -14    9.10    2.10
  15   7 -14   10.70    2.20
  13  -7 -14   34.50    3.50
  13   7 -14   32.70    3.20
 -13   7  14   37.70    2.90
  13   7 -14   43.80    3.70
  11  -7 -14   49.99    4.20
  11   7 -14   54.29    4.00
 -11   7  14   53.99    3.40
  11   7 -14   54.49    4.00
   9  -7 -14   36.40    3.70
  -9   7  14   39.00    2.90
   9   7 -14   43.60    3.50
   7  -7 -14   21.20    2.80
  -7   7  14   26.60    2.30
   7   7 -14   24.10    2.70
   5  -7 -14   69.89    5.00
  -5   7  14   67.79    5.10
   5   7 -14   76.39    4.80
  -5   7  14   71.89    4.20
  -3   7  14   26.40    3.10
   3   7 -14   20.80    2.60
  -1   7  14   97.49    6.20
   1   7  14   55.19    4.50
   3   7  14   97.59    6.30
   5   7  14   23.80    3.30
   7   7  14   35.10    3.90
   9   7  14    2.80    2.30
  11   7  14   16.40    3.30
  24  -8 -14    0.00    2.00
  24   8 -14    2.40    2.40
  24   8 -14    2.50    2.40
  22  -8 -14    2.60    2.00
  22   8 -14    3.50    2.30
  22   8 -14    0.40    2.10
  20  -8 -14   -0.40    1.80
  20   8 -14    3.00    2.10
  20   8 -14    2.40    2.00
  18  -8 -14   -0.70    1.70
  18   8 -14    1.10    1.70
  18   8 -14    1.30    2.00
  16  -8 -14    2.90    1.90
  16   8 -14    2.10    1.70
  16   8 -14    2.60    1.90
  16   8 -14    2.60    1.80
  14  -8 -14    0.50    1.70
  14   8 -14    0.80    1.60
  14   8 -14    1.60    1.70
  14   8 -14    2.30    1.60
  12  -8 -14    3.00    1.70
  12   8 -14    2.70    1.60
  12   8 -14    1.30    1.60
  12   8 -14    2.20    1.60
  10  -8 -14    0.20    1.50
  10   8 -14   -0.90    1.40
  10   8 -14    0.10    1.40
  10   8 -14    0.90    1.50
   8  -8 -14    6.00    2.00
   8   8 -14    6.10    1.80
   6  -8 -14    0.70    1.60
  -6   8  14    0.50    1.90
   6   8 -14    0.20    1.40
  -4   8  14   -1.80    1.70
   4   8 -14    2.00    1.60
  -2   8  14    0.40    1.80
   0   8  14    0.60    1.90
   2   8  14   -0.50    1.80
   4   8  14    1.20    2.10
   6   8  14    4.30    2.20
   8   8  14    6.40    2.40
  10   8  14   -1.80    2.20
  23  -9 -14    6.20    2.40
  23   9 -14    4.90    2.60
  23   9 -14    4.00    2.60
  23   9 -14    6.50    2.40
  21  -9 -14   25.80    3.40
  21   9 -14   32.50    3.80
  21   9 -14   29.40    3.50
  21   9 -14   27.30    3.50
  19  -9 -14    0.40    1.90
  19   9 -14    0.40    2.00
  19   9 -14    2.00    1.90
  19   9 -14   -1.00    1.80
  17  -9 -14    6.30    2.30
  17   9 -14    8.00    2.30
  17   9 -14    9.40    2.30
  17   9 -14    6.30    2.00
  15  -9 -14    7.60    2.20
  15   9 -14    3.90    2.00
  15   9 -14    3.90    1.80
  15   9 -14    2.80    1.90
  13  -9 -14   52.99    4.50
  13   9 -14   58.09    4.50
  13   9 -14   61.39    4.50
  11  -9 -14    9.10    2.10
  11   9 -14    9.90    2.20
  11   9 -14    5.80    2.00
   9  -9 -14   13.00    2.50
   9   9 -14   22.00    2.70
   7  -9 -14   18.00    2.80
   7   9 -14   18.80    2.50
  -7   9  14   20.40    3.00
  -5   9  14   30.60    3.50
   5   9 -14   32.10    3.30
  -3   9  14    4.30    2.10
   3   9 -14    9.70    2.10
  -1  -9  14   20.10    2.90
  -1   9  14   14.00    2.70
   1  -9  14   19.20    2.90
   1   9  14   15.40    2.80
   3  -9  14    6.10    2.30
   3   9  14    5.70    2.20
   5  -9  14   26.40    3.50
   5   9  14   10.80    2.60
   7  -9  14    1.40    2.40
   7   9  14    1.80    2.20
   9  -9  14    9.00    3.10
   9   9  14    9.40    2.80
  22 -10 -14    2.20    2.10
  22  10 -14    1.60    2.50
  22  10 -14    0.00    2.20
  20 -10 -14    0.20    1.90
  20  10 -14   -1.60    2.20
  20  10 -14    1.20    2.10
  18 -10 -14    1.30    2.00
  18  10 -14    0.00    2.00
  18  10 -14   -0.10    2.10
  16 -10 -14    2.00    2.00
  16  10 -14   -1.00    1.80
  16  10 -14   -1.30    1.80
  14 -10 -14    4.80    2.00
  14  10 -14    1.10    1.90
  14  10 -14    2.90    2.00
  12 -10 -14   -0.30    1.80
  12  10 -14    0.40    1.80
  12  10 -14    0.60    1.80
  10 -10 -14    0.70    1.80
  10  10 -14   -1.90    1.60
   8 -10 -14    1.60    1.90
  -8  10  14    0.50    1.90
   8  10 -14    0.60    1.70
  -6  10  14    0.90    2.00
   6  10 -14    1.00    1.70
   4  10 -14    1.20    1.80
  -4  10  14    1.10    1.90
  -2  10  14   -0.70    1.90
   0 -10  14    6.10    2.30
   0  10  14    7.00    2.40
   2 -10  14   -1.80    2.00
   2  10  14   -0.10    2.00
   4 -10  14    1.00    2.30
   4  10  14    0.10    2.00
   6 -10  14    1.60    2.50
   6  10  14    2.80    2.30
   8 -10  14    0.10    2.50
   8  10  14   -0.40    2.20
  21  11 -14   26.30    3.90
  21  11 -14   37.20    4.20
  19  11 -14   -2.30    2.10
  19  11 -14    4.20    2.40
  17 -11 -14   28.20    3.30
  17  11 -14   31.90    3.60
  17  11 -14   19.20    3.20
  15 -11 -14    1.90    2.00
  15  11 -14    2.80    2.20
  15  11 -14    5.10    2.30
  13 -11 -14   61.29    4.90
  13  11 -14   69.99    5.10
  13  11 -14   57.19    4.80
  11 -11 -14    1.50    1.90
  11  11 -14    4.70    2.00
  11  11 -14   -1.00    1.90
   9 -11 -14   36.00    3.90
   9  11 -14   43.60    4.10
  -9  11  14   36.90    3.90
   7  11 -14   -0.20    1.80
  -7  11  14   -1.40    1.90
   5  11 -14   16.00    2.70
  -5  11  14   14.60    2.80
  -3  11  14    1.90    2.00
   3  11 -14    2.30    2.10
  -1 -11  14    5.00    2.40
  -1  11  14    5.40    2.40
   1 -11  14    0.60    2.20
   1  11  14    1.90    2.10
   3 -11  14    1.30    2.30
   3  11  14    0.70    2.20
   5 -11  14    7.30    2.90
   5  11  14    6.00    2.70
   7 -11  14    1.80    2.70
   7  11  14   -0.30    2.20
  18  12 -14    1.80    2.30
  18  12 -14    2.10    2.30
  16  12 -14    2.70    2.30
  16  12 -14    7.00    2.40
  14  12 -14   -1.70    2.20
  14  12 -14    3.40    2.00
  12 -12 -14    2.20    2.00
  12  12 -14    3.40    2.30
  12  12 -14    2.60    2.00
  10 -12 -14   -1.70    1.80
 -10  12  14   -1.40    2.00
  10  12 -14   -0.30    2.10
  -8  12  14    1.10    2.10
   8  12 -14    4.30    2.20
  -6  12  14   -1.50    1.90
   6  12 -14   -1.00    2.00
   4  12 -14    4.40    2.30
  -4  12  14    3.60    2.20
  -2  12  14    0.80    2.10
   0 -12  14    1.40    2.30
   0  12  14    1.40    2.10
   2 -12  14   -3.10    2.10
   2  12  14    0.00    2.10
   4 -12  14   -4.20    2.30
   4  12  14    0.10    2.30
  15  13 -14    7.50    2.80
  15  13 -14    2.50    2.30
  13  13 -14    0.30    2.30
  13  13 -14    1.40    2.00
  11  13 -14   11.70    2.90
   9  13 -14   -0.40    2.20
  -7  13  14    9.00    2.60
   7  13 -14    8.10    2.70
  -5  13  14   -0.60    1.90
   5  13 -14    1.90    2.40
   3  13 -14    5.00    2.60
  -3  13  14    4.00    2.30
  -1 -13  14   25.90    3.90
  -1  13  14   16.30    3.00
   1 -13  14    7.70    3.00
   1  13  14    8.20    2.60
  12  14 -14   -0.70    2.10
  12  14 -14    3.10    2.50
  10  14 -14   -1.50    2.30
   8  14 -14   -0.80    2.40
   6  14 -14    0.60    2.40
   4  14 -14    3.00    2.50
  26   0 -15   -2.00    1.70
  24   0 -15   -1.50    1.80
  22   0 -15    1.00    1.60
  20   0 -15    2.00    1.60
  18   0 -15   -0.40    1.30
  16   0 -15   -0.20    1.40
  14   0 -15    0.90    1.30
  12   0 -15   -0.70    1.30
  10   0 -15   -0.40    1.20
   8   0 -15    0.00    1.30
   6   0 -15    0.70    1.30
   4   0 -15   -1.40    1.30
  -4   0  15   -0.90    1.60
  -2   0  15   -3.70    1.40
   2   0 -15   -0.50    1.40
   0   0  15   -1.40    1.60
   2   0  15    1.60    1.80
   4   0  15   -1.00    1.80
   6   0  15   -0.50    1.90
   8   0  15   -0.40    2.10
  10   0  15    1.50    2.30
  12   0  15    1.20    2.50
  27  -1 -15    0.40    1.90
  27   1 -15    1.00    2.10
  27   1 -15    0.70    2.10
  25  -1 -15   23.30    3.40
  25   1 -15   20.40    3.10
  25   1 -15   37.40    3.80
  23  -1 -15    6.40    2.20
  23   1 -15    4.70    2.00
  23   1 -15    2.70    1.90
  21  -1 -15   30.90    3.40
  21   1 -15   29.20    3.20
  21   1 -15   32.20    3.50
  19  -1 -15    8.70    2.00
  19   1 -15    8.90    2.00
  19   1 -15    9.20    2.20
  17  -1 -15   22.80    2.70
  17   1 -15   21.80    2.80
  17   1 -15   25.50    2.70
  15  -1 -15    6.90    1.80
  15   1 -15    4.40    1.70
  15   1 -15    7.10    1.80
  13  -1 -15   24.10    2.80
  13   1 -15   24.70    2.90
  13   1 -15   21.90    2.50
  11  -1 -15    5.70    1.60
  11   1 -15    5.20    1.70
   9  -1 -15   22.90    2.80
   9   1 -15   27.50    2.90
   7  -1 -15    2.30    1.40
   7   1 -15    3.70    1.60
   5  -1 -15    8.00    1.90
   5   1 -15   11.70    2.10
   3  -1 -15    5.40    1.80
  -3  -1  15    3.80    1.90
  -3   1  15    2.90    1.90
   3   1 -15    4.90    1.80
  -1  -1  15    9.00    2.30
  -1   1  15    7.10    2.20
   1  -1  15    0.50    1.80
   1   1  15    2.40    1.90
   3  -1  15    5.50    2.10
   3   1  15    5.40    2.20
   5  -1  15    0.70    1.90
   5   1  15    3.50    2.20
   7  -1  15    3.60    2.20
   7   1  15    7.00    2.40
   9  -1  15    7.50    2.50
   9   1  15    7.00    2.60
  11  -1  15    2.30    2.40
  11   1  15    2.60    2.40
  26  -2 -15    7.10    2.50
  26   2 -15    7.50    2.40
  26   2 -15    8.00    2.50
  24  -2 -15    2.20    2.10
  24   2 -15    0.70    1.90
  24   2 -15    1.60    2.00
  22  -2 -15   32.90    3.50
  22   2 -15   51.19    4.20
  22   2 -15   33.50    3.60
  20  -2 -15    5.00    1.90
  20   2 -15    2.10    1.70
  20   2 -15    5.60    1.80
  18  -2 -15   11.40    2.10
  18   2 -15   13.00    2.30
  18   2 -15   21.70    2.60
  16  -2 -15    3.20    1.50
  16   2 -15    1.00    1.40
  16   2 -15    2.40    1.60
  14  -2 -15    1.30    1.30
  14   2 -15    1.40    1.30
  14   2 -15    3.00    1.50
  12  -2 -15    8.20    1.90
  12   2 -15   10.70    2.10
  12   2 -15   10.40    1.70
  10  -2 -15    1.60    1.40
  10   2 -15    2.10    1.60
   8  -2 -15   33.60    3.40
   8   2 -15   43.60    3.50
   6  -2 -15    0.80    1.40
   6   2 -15    3.80    1.60
   4  -2 -15    1.90    1.50
  -4  -2  15    5.00    1.90
  -4   2  15    0.60    1.70
   4   2 -15    2.20    1.50
  -2  -2  15   -0.30    1.70
   2   2 -15    0.10    1.40
  -2   2  15   -0.60    1.80
   0  -2  15   -0.70    1.80
   0   2  15   -1.60    1.70
   2  -2  15    0.80    1.90
   2   2  15    1.60    1.90
   4  -2  15    1.20    1.90
   4   2  15    3.40    2.00
   6  -2  15    2.00    2.10
   6   2  15    1.60    2.10
   8  -2  15    1.80    2.20
   8   2  15    4.40    2.40
  10  -2  15   -0.80    2.30
  10   2  15    0.80    2.30
  12  -2  15   11.90    3.10
  12   2  15    8.40    2.90
  25  -3 -15    7.10    2.30
  25   3 -15    8.20    2.40
  25   3 -15    8.70    2.60
  23  -3 -15   -1.10    1.70
  23   3 -15    1.40    1.80
  23   3 -15   -2.60    1.60
  21  -3 -15    1.60    1.70
  21   3 -15    4.30    2.00
  21   3 -15    3.90    1.90
  19  -3 -15   -0.20    1.50
  19   3 -15    0.00    1.50
  19   3 -15    0.10    1.60
  17  -3 -15   13.90    2.30
  17   3 -15   17.40    2.40
  17   3 -15   15.20    2.40
  15  -3 -15    8.80    2.00
  15   3 -15   10.20    1.90
  15   3 -15    8.00    1.90
  13  -3 -15    5.10    1.70
  13   3 -15    6.60    1.60
  13   3 -15    5.20    1.70
  11  -3 -15   14.00    2.30
  11   3 -15   11.90    2.10
   9  -3 -15    6.90    1.80
   9   3 -15    6.60    1.80
   7  -3 -15   15.40    2.40
   7   3 -15   15.20    2.30
   5  -3 -15   11.20    2.10
  -5   3  15   16.30    2.50
   5   3 -15   14.90    2.30
   3  -3 -15   13.50    2.40
  -3  -3  15   22.40    2.80
  -3   3  15   17.60    2.70
   3   3 -15   18.00    2.50
  -1  -3  15    8.40    2.20
  -1   3  15    8.00    2.20
   1  -3  15    3.10    1.90
   1   3  15   -0.10    1.80
   3  -3  15   15.70    2.70
   3   3  15   19.30    2.90
   5  -3  15    6.30    2.20
   5   3  15    4.30    2.20
   7  -3  15   14.00    2.70
   7   3  15   15.80    2.90
   9  -3  15   -1.20    2.10
   9   3  15    1.90    2.20
  11  -3  15    2.40    2.40
  11   3  15    0.90    2.40
  26  -4 -15   -1.10    2.00
  26   4 -15   -0.20    2.20
  26   4 -15    0.70    2.20
  24  -4 -15    2.60    2.10
  24   4 -15   -0.70    1.90
  24   4 -15    3.00    2.10
  22  -4 -15   -0.10    1.70
  22   4 -15   -0.50    1.80
  22   4 -15   -1.00    1.70
  20  -4 -15    5.20    2.00
  20   4 -15    7.30    2.10
  20   4 -15    7.10    2.10
  18  -4 -15    4.70    1.90
  18   4 -15    4.00    1.80
  18   4 -15    9.10    2.00
  16  -4 -15   -0.10    1.40
  16   4 -15   -0.90    1.40
  16   4 -15    0.00    1.50
  14  -4 -15   18.50    2.60
  14   4 -15   20.80    2.70
  14   4 -15   16.50    2.30
  12  -4 -15    6.20    1.90
  12   4 -15    6.70    1.60
  12   4 -15    7.40    1.80
  10  -4 -15   21.10    2.60
  10   4 -15   18.90    2.50
   8  -4 -15    0.30    1.30
   8   4 -15    1.30    1.40
   6  -4 -15   16.20    2.50
   6   4 -15   17.90    2.40
   4  -4 -15    0.60    1.40
  -4  -4  15    3.50    1.80
   4   4 -15    0.70    1.50
  -4   4  15    0.40    1.80
  -2  -4  15   63.69    4.50
  -2   4  15   51.09    4.40
   2   4 -15   58.79    4.30
   0  -4  15   -0.70    1.70
   0   4  15    0.20    1.90
   2  -4  15   47.20    4.10
   2   4  15   39.70    4.10
   4  -4  15    4.30    2.00
   4   4  15    7.90    2.30
   6  -4  15   41.20    4.00
   6   4  15   37.00    4.10
   8  -4  15    5.70    2.40
   8   4  15    5.60    2.40
  10  -4  15    8.60    2.90
  10   4  15    1.00    2.30
  25  -5 -15    7.50    2.60
  25   5 -15    9.10    2.60
  25   5 -15    7.20    2.50
  23  -5 -15   -0.30    1.90
  23   5 -15   -0.80    1.90
  23   5 -15    0.10    2.00
  21  -5 -15   16.30    2.80
  21   5 -15   15.30    2.60
  21   5 -15   15.90    2.70
  19  -5 -15   -1.30    1.50
  19   5 -15   -1.70    1.50
  19   5 -15    1.60    1.80
  17  -5 -15   12.50    2.30
  17   5 -15    8.70    2.00
  17   5 -15    9.20    2.10
  15  -5 -15    2.00    1.70
  15   5 -15    0.70    1.50
  15   5 -15    2.30    1.60
  13  -5 -15   12.70    2.40
  13   5 -15    9.00    2.00
  13   5 -15    5.20    1.80
  11  -5 -15   -0.50    1.40
  11   5 -15    0.20    1.40
   9  -5 -15    1.80    1.50
   9   5 -15    2.10    1.60
   7  -5 -15    2.60    1.60
   7   5 -15   -0.20    1.50
   5  -5 -15    3.40    1.70
   5   5 -15    3.90    1.70
  -5   5  15    6.60    2.20
  -3  -5  15   -0.40    1.60
   3   5 -15    1.10    1.50
  -3   5  15   -0.10    1.70
  -1  -5  15    0.50    1.70
  -1   5  15    1.30    1.90
   1  -5  15    0.40    1.70
   1   5  15   -0.50    1.80
   3  -5  15   -0.10    1.70
   3   5  15   -0.90    1.80
   5  -5  15    2.60    1.90
   5   5  15    0.30    2.00
   7   5  15   -0.40    2.10
   9   5  15    2.00    2.20
  11   5  15   -0.90    2.40
  24  -6 -15    5.60    2.40
  24   6 -15    6.20    2.40
  24   6 -15   10.10    2.70
  22  -6 -15   14.50    2.80
  22   6 -15   10.90    2.50
  22   6 -15   20.60    3.10
  20  -6 -15    9.80    2.40
  20   6 -15   10.50    2.40
  20   6 -15    8.90    2.30
  18  -6 -15    3.60    1.90
  18   6 -15    6.40    2.00
  18   6 -15    5.60    1.90
  16  -6 -15   13.90    2.40
  16   6 -15   14.30    2.30
  16   6 -15   16.90    2.50
  14  -6 -15   21.00    2.80
  14   6 -15   25.00    2.80
  14   6 -15   21.90    2.70
  12  -6 -15    2.40    1.60
  12   6 -15    2.20    1.50
  12   6 -15    0.30    1.40
  10  -6 -15   25.40    3.10
  10   6 -15   31.50    3.20
   8  -6 -15    5.50    1.70
   8   6 -15    8.00    2.00
   6  -6 -15   37.30    3.80
  -6   6  15   38.50    3.90
   6   6 -15   37.60    3.50
  -4  -6  15   10.70    2.20
  -4   6  15    9.70    2.30
   4   6 -15   11.50    2.10
  -4   6  15    8.30    1.70
  -2  -6  15   37.80    3.60
  -2   6  15   33.00    3.80
   0  -6  15    4.60    2.00
   0   6  15    2.10    1.90
   2   6  15    9.20    2.40
   4   6  15    4.50    2.20
   6   6  15    8.80    2.50
   8   6  15    0.10    2.20
  10   6  15    3.00    2.50
  23  -7 -15   -0.30    1.90
  23   7 -15    0.80    2.00
  23   7 -15   -0.60    2.00
  21  -7 -15    0.70    1.90
  21   7 -15    1.20    2.00
  21   7 -15   -0.20    1.80
  19  -7 -15    1.90    1.80
  19   7 -15    2.50    1.90
  19   7 -15    3.30    1.90
  17  -7 -15   -0.30    1.70
  17   7 -15    1.30    1.70
  17   7 -15   -1.80    1.50
  15  -7 -15   -0.30    1.70
  15   7 -15    2.40    1.60
  15   7 -15    0.20    1.50
  13  -7 -15    2.20    1.70
  13   7 -15    1.20    1.60
  13   7 -15    4.60    1.70
  11  -7 -15    8.40    2.10
  11   7 -15    7.80    2.00
   9  -7 -15    3.00    1.70
   9   7 -15    6.80    1.90
   7  -7 -15    3.40    1.70
   7   7 -15    1.60    1.60
  -7   7  15    3.40    2.10
   5  -7 -15   -0.10    1.60
  -5   7  15   -1.20    1.90
   5   7 -15    0.50    1.50
  -3   7  15    2.30    2.00
  -1   7  15    0.40    1.90
   1   7  15    4.60    2.20
   3   7  15    0.40    2.00
   5   7  15    5.30    2.40
   7   7  15    0.60    2.20
   9   7  15    0.10    2.30
  22  -8 -15   38.10    4.00
  22   8 -15   34.80    3.90
  22   8 -15   45.60    4.40
  20  -8 -15   -0.40    1.90
  20   8 -15    5.60    2.10
  20   8 -15    5.20    2.20
  18  -8 -15   36.30    3.90
  18   8 -15   31.70    3.60
  18   8 -15   29.30    3.30
  16  -8 -15    4.30    2.00
  16   8 -15    5.90    2.20
  16   8 -15    2.80    1.80
  14  -8 -15   61.69    4.40
  14   8 -15   42.40    3.90
  14   8 -15   42.70    4.00
  12  -8 -15   28.90    3.40
  12   8 -15   35.00    3.30
  10  -8 -15    7.90    2.20
   8  -8 -15   10.00    2.30
  -8   8  15   10.90    2.60
   6  -8 -15    4.90    2.00
  -6   8  15    5.40    2.20
  -4   8  15    1.60    2.00
  -2   8  15    4.00    2.20
   0   8  15   -2.30    1.80
   2   8  15    0.70    2.00
   4   8  15    0.70    2.10
   6   8  15    3.30    2.40
   8   8  15    3.10    2.50
  21  -9 -15    5.50    2.30
  21   9 -15    6.50    2.30
  21   9 -15    5.70    2.40
  19  -9 -15    2.30    2.20
  19   9 -15    0.50    1.80
  19   9 -15    1.50    2.20
  17  -9 -15   -2.00    1.80
  17   9 -15    1.30    2.00
  17   9 -15    5.00    2.20
  15  -9 -15    2.60    1.90
  15   9 -15    0.60    1.90
  13  -9 -15   17.30    2.80
  13   9 -15   16.70    2.70
  11  -9 -15    0.00    1.70
   9  -9 -15   -0.90    1.70
  -9   9  15    1.60    2.10
   7  -9 -15    1.80    1.80
  -7   9  15    1.30    2.00
  -5   9  15   -0.40    1.90
  -3   9  15    0.70    2.00
  -1   9  15    0.60    2.00
   1   9  15    2.10    2.10
   3   9  15    3.60    2.20
   5   9  15    3.50    2.20
   7   9  15    1.10    2.40
  20 -10 -15    2.90    2.20
  20  10 -15   -1.10    2.10
  18 -10 -15    2.00    2.10
  18  10 -15    2.20    2.10
  16 -10 -15   10.10    2.30
  16  10 -15   10.40    2.50
  14 -10 -15    4.20    2.00
  14  10 -15    8.40    2.30
  12 -10 -15    8.20    2.30
  10 -10 -15   14.10    2.80
 -10  10  15   18.50    3.10
   8 -10 -15    7.00    2.20
  -8  10  15    8.40    2.50
  -6  10  15   24.40    3.30
  -4  10  15    3.40    2.30
  -2  10  15   17.70    3.00
   0  10  15    1.10    2.10
   2  10  15   27.20    3.60
   4  10  15   -0.70    2.10
  17 -11 -15    2.30    2.00
  17  11 -15    1.70    2.30
  17  11 -15   -3.70    1.80
  15 -11 -15    2.20    1.90
  15  11 -15    5.50    2.30
  15  11 -15    7.60    2.50
  13 -11 -15    2.30    2.00
  13  11 -15    4.80    2.30
  13  11 -15    4.80    2.30
  11 -11 -15   10.00    2.60
  11  11 -15   10.90    2.60
 -11  11  15   10.20    2.80
   9 -11 -15    0.00    1.80
  -9  11  15    1.50    2.10
   9  11 -15    4.20    2.20
   7  11 -15   14.80    2.80
  -7  11  15   17.00    2.90
  -5  11  15   -0.10    2.10
   5  11 -15    3.00    2.10
  -3  11  15    5.20    2.30
  -1 -11  15    1.70    2.40
  -1  11  15    5.50    2.30
   1  11  15    3.00    2.30
   3  11  15    6.60    2.60
  16  12 -15    4.00    2.50
  14 -12 -15    2.80    2.30
  14  12 -15    2.20    2.10
  14  12 -15    2.60    2.40
  12 -12 -15    1.20    2.00
 -12  12  15   -1.70    2.10
  12  12 -15   -0.70    2.10
  10 -12 -15    6.10    2.40
 -10  12  15    7.30    2.70
  10  12 -15   10.50    2.60
  -8  12  15   -0.30    2.20
   8  12 -15   -0.10    2.10
  -6  12  15   -0.10    2.10
   6  12 -15    1.70    2.10
   4  12 -15    2.60    2.20
  -4  12  15   -0.50    2.00
  -2 -12  15    4.20    2.60
  -2  12  15   -0.10    2.10
   0 -12  15    1.90    2.50
   0  12  15    3.80    2.30
  11  13 -15    6.50    2.70
  -9  13  15    1.20    2.30
   9  13 -15    0.20    2.30
   7  13 -15   -0.40    2.30
  -7  13  15    2.40    2.30
  -5  13  15    0.60    2.30
   5  13 -15    2.00    2.40
  -3  13  15    0.60    2.30
  24   0 -16    0.90    1.80
  22   0 -16   -0.30    1.60
  20   0 -16    3.80    1.80
  18   0 -16   22.60    2.90
  16   0 -16   12.10    2.20
  14   0 -16   11.10    2.20
  12   0 -16   -1.30    1.30
  10   0 -16  117.89    7.00
   8   0 -16   86.69    5.60
   6   0 -16   59.19    4.40
  -4   0  16    3.60    2.10
   4   0 -16    5.40    1.90
  -2   0  16   76.79    5.40
   0   0  16   12.60    2.70
   2   0  16  258.57   13.30
   4   0  16   53.39    4.70
   6   0  16   -0.10    2.20
   8   0  16    6.70    2.70
  25  -1 -16    1.90    2.00
  25   1 -16   -1.40    1.80
  25   1 -16    2.40    2.10
  23  -1 -16   -1.30    1.60
  23   1 -16   -1.70    1.70
  23   1 -16    1.70    1.90
  21  -1 -16    0.90    1.60
  21   1 -16    1.50    1.80
  21   1 -16    0.70    1.70
  19  -1 -16    2.40    1.60
  19   1 -16   -0.70    1.50
  19   1 -16    1.80    1.70
  17  -1 -16    0.30    1.40
  17   1 -16   -0.20    1.40
  17   1 -16   -0.50    1.50
  15  -1 -16    0.80    1.50
  15   1 -16    0.80    1.50
  13  -1 -16    1.90    1.60
  13   1 -16    1.80    1.60
  11  -1 -16    1.90    1.50
  11   1 -16   -0.30    1.40
   9  -1 -16    2.50    1.60
   9   1 -16    4.80    1.90
   7  -1 -16    3.00    1.60
   7   1 -16    2.20    1.60
   5  -1 -16    1.80    1.50
  -5  -1  16    0.90    1.90
   5   1 -16   -0.50    1.40
  -5   1  16    1.60    2.00
   3  -1 -16    1.70    1.60
  -3  -1  16    1.90    1.90
  -3   1  16   -0.70    1.90
   3   1 -16    1.30    1.60
  -1  -1  16   -0.10    1.90
  -1   1  16    0.30    1.90
   1  -1  16   -0.20    2.00
   1   1  16    1.10    1.90
   3  -1  16    4.00    2.30
   3   1  16    5.00    2.30
   5  -1  16    2.40    2.10
   5   1  16    2.30    2.20
   7  -1  16    1.40    2.30
   7   1  16    2.70    2.20
   9  -1  16   -1.10    2.30
   9   1  16   -0.30    2.40
  24  -2 -16    4.50    2.00
  24   2 -16    3.60    2.00
  24   2 -16    4.00    2.10
  22  -2 -16   22.20    3.10
  22   2 -16   14.70    2.70
  22   2 -16   17.40    2.70
  20  -2 -16    7.30    2.00
  20   2 -16    8.70    2.10
  20   2 -16    5.90    1.90
  18  -2 -16   35.30    3.60
  18   2 -16   36.50    3.40
  18   2 -16   30.30    3.30
  16  -2 -16    6.60    1.80
  16   2 -16   11.30    2.00
  16   2 -16    9.10    2.10
  14  -2 -16   48.60    4.00
  14   2 -16   51.49    3.70
  14   2 -16   50.69    4.10
  12  -2 -16   28.80    3.30
  12   2 -16   23.80    3.00
  10  -2 -16  112.79    6.80
  10   2 -16  116.89    6.90
   8  -2 -16    2.80    1.50
   8   2 -16    2.90    1.70
   6  -2 -16   40.60    3.70
  -6   2  16   48.00    4.30
   6   2 -16   43.70    3.80
  -4  -2  16    2.60    2.10
   4  -2 -16    5.30    1.80
   4   2 -16    6.00    1.90
  -4   2  16    3.40    2.10
  -2  -2  16   13.60    2.60
  -2   2  16   12.50    2.60
   0  -2  16    9.20    2.40
   0   2  16   10.20    2.50
   2  -2  16   58.89    4.80
   2   2  16   52.39    4.90
   4  -2  16   28.50    3.50
   4   2  16   24.50    3.40
   6  -2  16    2.60    2.30
   6   2  16    1.10    2.20
   8  -2  16    3.80    2.50
   8   2  16    2.60    2.40
  25  -3 -16    1.00    1.90
  25   3 -16    1.10    2.10
  25   3 -16   -1.70    1.80
  23  -3 -16    1.70    1.90
  23   3 -16   -0.70    1.70
  23   3 -16    0.30    1.90
  21  -3 -16    0.60    1.70
  21   3 -16    0.10    1.70
  21   3 -16    1.70    1.80
  19  -3 -16   -1.30    1.50
  19   3 -16    2.70    1.70
  19   3 -16   -1.20    1.50
  17  -3 -16   -0.70    1.40
  17   3 -16   -0.60    1.40
  17   3 -16    0.30    1.50
  15  -3 -16   -1.20    1.40
  15   3 -16    0.20    1.50
  15   3 -16    1.50    1.40
  13  -3 -16    0.20    1.50
  13   3 -16    0.80    1.50
  11  -3 -16    1.90    1.50
  11   3 -16    1.30    1.50
   9  -3 -16   -0.20    1.40
   9   3 -16    3.20    1.70
   7  -3 -16    0.90    1.40
   7   3 -16   -0.70    1.50
   5  -3 -16    0.80    1.50
  -5  -3  16    2.60    2.00
   5   3 -16    1.60    1.60
  -5   3  16    3.50    2.00
  -3  -3  16   -0.70    1.80
  -3   3  16    3.20    2.00
   3   3 -16    0.80    1.60
  -1  -3  16    2.80    2.10
  -1   3  16    2.90    2.10
   1  -3  16   -0.80    1.90
   1   3  16    2.00    2.10
   3  -3  16   -0.10    2.10
   3   3  16    2.00    2.20
   5  -3  16    1.50    2.00
   5   3  16    1.10    2.00
   7  -3  16   -0.70    2.20
   7   3  16   -0.80    2.10
   9  -3  16   -0.10    2.30
   9   3  16    2.10    2.30
  24  -4 -16   -0.90    1.80
  24   4 -16    2.10    2.10
  24   4 -16   -0.60    1.90
  22  -4 -16   25.70    3.40
  22   4 -16   24.70    3.20
  22   4 -16   32.10    3.40
  20  -4 -16    0.90    1.70
  20   4 -16   -0.20    1.70
  20   4 -16    1.70    1.80
  18  -4 -16    7.20    2.00
  18   4 -16    8.40    2.10
  18   4 -16    7.30    2.10
  16  -4 -16    4.30    1.80
  16   4 -16    6.40    1.90
  16   4 -16    6.00    1.90
  14  -4 -16   35.50    3.70
  14   4 -16   33.00    3.30
  14   4 -16   30.20    3.00
  12  -4 -16   10.60    2.10
  12   4 -16   11.70    2.30
  10  -4 -16   13.30    2.30
  10   4 -16   15.90    2.50
   8  -4 -16    6.00    1.80
   8   4 -16   11.40    2.20
   6  -4 -16    2.50    1.70
   6   4 -16   -2.20    1.30
  -6   4  16    2.00    1.90
   4  -4 -16    1.30    1.50
  -4  -4  16    0.20    1.90
   4   4 -16    0.40    1.60
  -4   4  16    4.30    2.20
  -2  -4  16    4.90    2.20
  -2   4  16    7.40    2.30
   0  -4  16   -1.30    1.80
   0   4  16   -0.40    1.90
   2  -4  16    5.80    2.30
   2   4  16    8.30    2.50
   4  -4  16    1.00    2.00
   4   4  16    0.20    2.10
   6  -4  16    9.10    2.60
   6   4  16    9.90    2.70
   8  -4  16   11.30    3.00
   8   4  16    7.50    2.70
  23  -5 -16    1.30    1.90
  23   5 -16   -2.10    1.80
  23   5 -16    0.00    2.00
  21  -5 -16    4.10    2.00
  21   5 -16    0.50    1.90
  21   5 -16   -0.60    1.70
  19  -5 -16    1.10    1.60
  19   5 -16    1.20    1.80
  19   5 -16    0.20    1.70
  17  -5 -16    1.10    1.70
  17   5 -16    0.70    1.60
  17   5 -16   -1.40    1.40
  15  -5 -16   -1.70    1.50
  15   5 -16    2.50    1.60
  15   5 -16   -1.60    1.40
  13  -5 -16    2.30    1.70
  13   5 -16    1.10    1.60
  11  -5 -16    2.50    1.70
  11   5 -16    4.60    1.80
   9  -5 -16    1.00    1.50
   9   5 -16    0.20    1.60
   7  -5 -16    3.30    1.80
   7   5 -16    1.80    1.70
  -7   5  16    1.20    2.00
  -5  -5  16   -1.00    1.80
   5  -5 -16   -0.50    1.40
   5   5 -16   -0.40    1.50
  -5   5  16    0.20    1.90
  -3  -5  16    2.10    1.90
   3   5 -16   -0.40    1.50
  -3   5  16   -1.60    2.00
  -1  -5  16   -1.10    1.90
  -1   5  16    0.90    2.00
   1  -5  16    3.80    2.10
   1   5  16   -1.50    1.90
   3  -5  16    0.40    2.00
   3   5  16    0.40    2.00
   5   5  16   -0.60    2.20
   7   5  16   -1.30    2.20
  22  -6 -16    0.40    2.00
  22   6 -16    0.70    2.00
  22   6 -16    0.20    1.80
  20  -6 -16    5.90    2.20
  20   6 -16    8.90    2.30
  20   6 -16    9.30    2.30
  18  -6 -16   25.60    3.20
  18   6 -16   24.20    3.10
  18   6 -16   26.20    3.10
  16  -6 -16    3.90    1.90
  16   6 -16    1.70    1.70
  16   6 -16    2.70    1.70
  14  -6 -16   17.10    2.70
  14   6 -16   14.40    2.40
  14   6 -16   16.60    2.50
  12  -6 -16   18.40    2.80
  12   6 -16   19.60    2.70
  10  -6 -16   15.80    2.40
  10   6 -16   16.10    2.50
   8  -6 -16   15.50    2.50
  -8   6  16   18.90    3.00
   8   6 -16   20.30    2.70
   6  -6 -16    0.20    1.60
  -6   6  16    1.20    2.00
   6   6 -16   -1.40    1.50
  -4  -6  16    1.70    1.90
   4   6 -16    2.30    1.70
  -4   6  16    4.00    2.20
  -2  -6  16   63.69    5.10
  -2   6  16   67.19    5.20
   0   6  16    1.80    2.10
   2   6  16   37.20    4.00
   4   6  16    4.00    2.30
   6   6  16   16.00    3.20
  21  -7 -16    1.40    2.00
  21   7 -16   -1.40    1.70
  21   7 -16    2.40    2.10
  19  -7 -16   -0.60    1.80
  19   7 -16    0.20    1.90
  19   7 -16   -1.80    1.70
  17  -7 -16    0.10    1.90
  17   7 -16    1.10    1.70
  17   7 -16   -0.50    1.60
  15  -7 -16    1.20    1.80
  15   7 -16    0.50    1.70
  15   7 -16    1.20    1.60
  13  -7 -16    0.40    1.50
  13   7 -16   -1.80    1.50
  11  -7 -16    2.50    1.80
  11   7 -16    1.70    1.70
   9  -7 -16    0.20    1.60
   9   7 -16    0.10    1.60
   7  -7 -16    2.90    1.70
   7   7 -16    3.80    1.80
  -7   7  16    0.90    2.10
  -5   7  16    0.40    2.00
  -3   7  16    0.60    2.10
  -1   7  16    2.50    2.10
   1   7  16    1.90    2.20
   3   7  16    3.00    2.20
   5   7  16   -0.90    2.10
  20  -8 -16    0.40    2.00
  20   8 -16    2.20    2.00
  20   8 -16   -1.90    1.80
  18  -8 -16    6.00    2.30
  18   8 -16    7.10    2.20
  18   8 -16    5.90    2.10
  16  -8 -16   25.70    3.30
  16   8 -16   26.60    3.10
  16   8 -16   26.30    3.10
  14  -8 -16    1.40    1.90
  14   8 -16    1.70    1.70
  12  -8 -16    1.00    1.70
  10  -8 -16    6.50    2.10
   8  -8 -16    1.30    1.80
  -8   8  16    2.20    2.20
  -6   8  16    9.10    2.50
  -4   8  16    4.10    2.40
  -2   8  16   -2.50    1.90
   0   8  16    5.90    2.50
   2   8  16   16.90    2.90
   4   8  16    3.20    2.40
  19  -9 -16    0.40    2.00
  19   9 -16    2.20    2.10
  17  -9 -16   -1.10    2.00
  17   9 -16    0.20    1.80
  15  -9 -16    3.90    2.00
  15   9 -16   -1.90    1.70
  13  -9 -16    1.60    1.80
  11  -9 -16    1.00    1.80
   9  -9 -16   -0.60    1.90
  -9   9  16   -0.20    2.20
  -7   9  16    0.00    2.00
  -5   9  16   -2.00    2.10
  -3   9  16   -1.50    2.00
  -1   9  16    0.90    2.20
   1   9  16    0.50    2.10
   3   9  16    1.10    2.20
  16 -10 -16    4.00    2.20
  16  10 -16   -2.70    1.80
  14 -10 -16    1.10    2.00
  12 -10 -16    0.40    1.90
  10 -10 -16    3.70    2.10
 -10  10  16    5.50    2.60
   8 -10 -16    1.70    1.90
  -8  10  16    0.00    2.20
  -6  10  16   -0.20    2.10
  -4  10  16    1.10    2.20
  -2  10  16    7.30    2.50
   0  10  16   -0.40    2.10
  13 -11 -16    2.20    2.10
  11 -11 -16   -1.40    1.90
 -11  11  16   -0.60    2.30
   9 -11 -16   -0.50    2.00
  -9  11  16   -1.60    2.20
  -7  11  16    1.30    2.30
  -5  11  16   -2.50    2.10
  -3  11  16    1.40    2.30
  22   0 -17   -1.30    1.50
  20   0 -17    0.60    1.60
  18   0 -17    0.10    1.60
  16   0 -17   -0.60    1.40
  14   0 -17    1.20    1.60
  12   0 -17   -0.20    1.50
  10   0 -17   -0.80    1.50
   8   0 -17    1.40    1.50
  -6   0  17   -0.70    2.00
   6   0 -17    0.20    1.60
   4   0 -17    0.60    1.60
  -4   0  17    0.50    2.10
  -2   0  17    2.70    2.30
   0   0  17   -1.00    2.00
   2   0  17    2.50    2.30
   4   0  17   -1.30    2.10
   6   0  17    0.80    2.30
  23  -1 -17    1.90    1.90
  23   1 -17    5.30    2.20
  21  -1 -17   14.70    2.60
  21   1 -17   11.20    2.40
  19  -1 -17   15.50    2.60
  19   1 -17   14.00    2.50
  17  -1 -17    8.30    2.10
  17   1 -17    9.10    2.10
  15  -1 -17   22.40    3.00
  15   1 -17   20.70    2.90
  13  -1 -17   19.50    2.80
  13   1 -17   22.30    2.90
  11  -1 -17    4.60    1.80
  11   1 -17    6.80    2.00
   9  -1 -17   14.80    2.40
   9   1 -17   17.10    2.60
   7  -1 -17   -0.90    1.50
   7   1 -17    2.40    1.70
   5  -1 -17   10.50    2.20
  -5  -1  17    9.50    2.70
  -5   1  17   13.40    2.80
   5   1 -17    9.70    2.30
  -3  -1  17   -3.60    1.80
  -3   1  17   -1.70    1.90
  -1  -1  17    0.20    2.20
  -1   1  17    2.50    2.30
   1  -1  17    1.10    2.20
   1   1  17    2.60    2.40
   3  -1  17    2.80    2.30
   3   1  17    2.80    2.40
   5  -1  17   14.90    2.90
   5   1  17   13.20    3.00
  22  -2 -17    2.20    1.90
  22   2 -17    1.20    1.90
  22   2 -17   -0.80    1.80
  20  -2 -17    0.70    1.60
  20   2 -17   -0.10    1.60
  20   2 -17   -2.50    1.50
  18  -2 -17    8.40    2.10
  18   2 -17    3.70    1.80
  18   2 -17    8.60    2.10
  16  -2 -17   -0.10    1.50
  16   2 -17    0.30    1.50
  16   2 -17    1.60    1.60
  14  -2 -17    3.90    1.70
  14   2 -17    4.00    1.80
  12  -2 -17    4.00    1.70
  12   2 -17   -0.30    1.50
  10  -2 -17    7.80    2.00
  10   2 -17    6.30    2.00
   8  -2 -17    1.40    1.60
   8   2 -17    2.30    1.70
  -6  -2  17   -1.10    2.00
   6  -2 -17    1.50    1.60
  -6   2  17    0.60    2.10
   6   2 -17    1.50    1.60
  -4  -2  17   -1.50    1.90
   4  -2 -17    1.40    1.70
  -4   2  17    2.00    2.20
   4   2 -17    4.40    1.90
  -2  -2  17    0.80    2.20
  -2   2  17   -0.60    2.10
   0  -2  17    2.90    2.40
   0   2  17   -0.90    2.00
   2  -2  17    4.40    2.40
   2   2  17    3.20    2.40
   4  -2  17    4.90    2.40
   4   2  17    6.10    2.60
   6  -2  17    3.20    2.40
   6   2  17    0.30    2.30
  21  -3 -17    2.80    1.90
  21   3 -17   -1.10    1.70
  21   3 -17    0.50    1.70
  19  -3 -17    2.50    1.70
  19   3 -17    0.30    1.50
  19   3 -17   -0.10    1.60
  17  -3 -17    0.00    1.50
  17   3 -17    0.50    1.50
  17   3 -17   -1.90    1.40
  15  -3 -17   -1.60    1.40
  15   3 -17    0.70    1.60
  13  -3 -17    1.80    1.60
  13   3 -17    4.20    1.80
  11  -3 -17   21.30    3.00
  11   3 -17   26.50    3.10
   9  -3 -17    3.00    1.80
   9   3 -17    2.40    1.80
   7  -3 -17   47.20    4.30
   7   3 -17   55.89    4.40
  -7   3  17   55.39    4.80
  -5  -3  17    5.00    2.40
   5  -3 -17    0.80    1.50
  -5   3  17   -3.80    1.90
   5   3 -17   -1.50    1.50
  -3  -3  17   59.49    5.00
  -3   3  17   47.00    4.80
  -1  -3  17   16.90    3.10
  -1   3  17   13.50    2.90
   1  -3  17   22.50    3.30
   1   3  17   16.00    3.10
   3  -3  17   22.10    3.30
   3   3  17   20.00    3.30
   5  -3  17    1.60    2.30
   5   3  17    2.20    2.30
  22  -4 -17    4.10    2.00
  22   4 -17   -1.50    1.70
  22   4 -17    7.00    2.30
  20  -4 -17    0.50    1.70
  20   4 -17    1.40    1.80
  20   4 -17    1.00    1.80
  18  -4 -17    4.70    1.90
  18   4 -17    4.40    1.90
  18   4 -17    4.20    1.80
  16  -4 -17    3.90    1.90
  16   4 -17    2.10    1.70
  16   4 -17    2.20    1.70
  14  -4 -17    0.90    1.60
  14   4 -17    1.90    1.70
  12  -4 -17    1.90    1.60
  12   4 -17   -1.00    1.60
  10  -4 -17    7.70    2.20
  10   4 -17    9.20    2.20
   8  -4 -17    2.60    1.70
   8   4 -17    1.90    1.70
   6  -4 -17   11.70    2.50
  -6  -4  17   22.90    3.20
  -6   4  17   17.20    3.10
   6   4 -17   12.10    2.40
  -4  -4  17    0.40    2.10
   4   4 -17    0.80    1.70
  -4   4  17    5.10    2.40
  -2  -4  17    6.10    2.50
  -2   4  17   11.50    2.80
   0  -4  17   -1.80    2.00
   0   4  17   -0.60    2.00
   2  -4  17   11.90    2.80
   2   4  17   10.20    2.70
   4  -4  17    3.70    2.40
   4   4  17    0.30    2.30
  21  -5 -17    2.10    1.90
  21   5 -17   -1.40    1.70
  21   5 -17    1.00    1.90
  19  -5 -17    3.00    2.00
  19   5 -17    8.10    2.20
  19   5 -17    4.50    1.90
  17  -5 -17   14.60    2.70
  17   5 -17   16.40    2.60
  17   5 -17   18.10    2.70
  15  -5 -17    2.40    1.70
  15   5 -17    2.80    1.80
  13  -5 -17    3.50    1.70
  13   5 -17    7.10    2.10
  11  -5 -17    4.00    1.80
  11   5 -17    7.70    2.10
   9  -5 -17    1.10    1.60
   9   5 -17    6.70    2.10
   7  -5 -17    5.10    2.10
   7   5 -17    2.60    1.80
  -7   5  17    3.60    2.30
  -5  -5  17    0.80    2.20
  -5   5  17   -0.70    2.00
   5   5 -17    0.50    1.70
  -3  -5  17    1.70    2.20
  -3   5  17   -2.40    2.00
  -1  -5  17    0.10    2.10
  -1   5  17   -1.80    1.90
   1  -5  17    0.70    2.40
   1   5  17   -0.80    2.10
   3   5  17    4.50    2.40
  20  -6 -17    2.10    1.90
  20   6 -17   -0.30    1.80
  20   6 -17   -0.80    1.70
  18  -6 -17   10.10    2.50
  18   6 -17   10.90    2.40
  18   6 -17   13.10    2.50
  16  -6 -17    5.30    2.00
  16   6 -17    3.30    1.90
  14  -6 -17    6.20    2.10
  14   6 -17   14.10    2.50
  12  -6 -17   -0.20    1.50
  12   6 -17   -1.00    1.60
  10  -6 -17    5.80    2.10
  10   6 -17    5.80    2.10
   8  -6 -17    0.10    1.60
   8   6 -17    0.10    1.60
  -8   6  17   -2.00    2.00
  -6  -6  17    7.40    2.40
   6  -6 -17    4.70    1.90
  -6   6  17    6.90    2.50
   6   6 -17   11.30    2.30
  -4   6  17   -1.90    2.10
   4   6 -17   -0.30    1.70
  -2   6  17    2.80    2.30
   0   6  17    2.50    2.20
   2   6  17    0.90    2.20
  19  -7 -17   -0.50    1.90
  19   7 -17    0.90    1.80
  19   7 -17    0.60    1.80
  17  -7 -17    1.70    2.10
  17   7 -17    4.60    2.00
  17   7 -17    1.80    1.80
  15  -7 -17    4.80    2.10
  15   7 -17    5.60    2.10
  13  -7 -17    2.90    1.90
  13   7 -17    0.60    1.80
  11  -7 -17    0.30    1.60
  11   7 -17   -1.40    1.60
   9  -7 -17    2.70    1.80
   9   7 -17    1.70    1.90
  -9   7  17    1.20    2.20
   7  -7 -17    0.80    1.80
  -7   7  17    1.50    2.20
  -5   7  17   -3.10    2.00
  -3   7  17    6.40    2.50
  -1   7  17    2.40    2.30
   1   7  17    2.50    2.40
  16  -8 -17    2.50    2.00
  16   8 -17    5.80    2.00
  14  -8 -17   25.20    3.30
  12  -8 -17    1.90    1.90
  10  -8 -17    7.70    2.30
 -10   8  17   14.80    3.10
   8  -8 -17   -0.70    1.70
  -8   8  17    0.40    2.20
  -6   8  17    0.80    2.20
  -4   8  17    4.80    2.50
  -2   8  17   -0.30    2.20
   0   8  17   -0.90    2.20
  15  -9 -17   15.30    2.90
  13  -9 -17   10.90    2.50
  11  -9 -17   -1.20    1.80
 -11   9  17    0.80    2.40
   9  -9 -17    5.00    2.20
  -9   9  17    7.60    2.70
  -7   9  17   -1.40    2.10
  -5   9  17    7.00    2.70
  -3   9  17    7.30    2.60
  10 -10 -17    1.10    2.00
 -10  10  17   -0.90    2.30
  -8  10  17    4.20    2.50
  -6  10  17    3.00    2.50
  20   0 -18   -0.90    1.60
  18   0 -18    2.50    1.90
  16   0 -18   -1.40    1.50
  14   0 -18    3.00    1.80
  12   0 -18    3.90    1.80
  10   0 -18    1.70    1.60
   8   0 -18    7.10    2.10
  -6   0  18   -1.10    2.20
   6   0 -18    0.10    1.70
  -4   0  18    6.60    2.70
  -2   0  18    3.60    2.50
   0   0  18    0.40    2.40
   2   0  18    4.60    2.60
  19  -1 -18    0.70    1.60
  19   1 -18    3.40    1.80
  17  -1 -18    1.50    1.80
  17   1 -18   -1.20    1.50
  15  -1 -18    0.30    1.50
  15   1 -18    2.10    1.80
  13  -1 -18    4.20    1.80
  13   1 -18    2.00    1.80
  11  -1 -18    4.00    1.90
  11   1 -18    3.10    1.80
   9  -1 -18    6.80    2.00
   9   1 -18    5.00    2.00
   7  -1 -18   16.10    2.70
  -7  -1  18   37.60    4.20
   7   1 -18   21.70    3.10
  -7   1  18   30.60    3.80
   5  -1 -18    2.50    1.90
  -5  -1  18    0.50    2.30
   5   1 -18    3.40    1.90
  -5   1  18    0.50    2.30
  -3  -1  18   26.30    3.70
  -3   1  18   24.70    3.70
  -1  -1  18    7.60    2.70
  -1   1  18    5.70    2.60
   1  -1  18    7.60    2.70
   1   1  18    6.10    2.70
  20  -2 -18    0.90    1.60
  20   2 -18    1.50    1.80
  18  -2 -18    2.50    1.90
  18   2 -18    1.50    1.60
  16  -2 -18    0.30    1.60
  16   2 -18   -1.70    1.60
  14  -2 -18    1.20    1.70
  14   2 -18    3.30    1.80
  12  -2 -18    0.60    1.50
  12   2 -18    1.60    1.70
  10  -2 -18    1.10    1.60
  10   2 -18    1.20    1.70
   8  -2 -18    2.10    1.70
  -8   2  18    0.00    2.30
   8   2 -18   -2.80    1.50
   6  -2 -18    0.30    1.60
  -6  -2  18   -0.90    2.10
   6   2 -18    1.40    1.70
  -6   2  18    0.80    2.30
  -4  -2  18    1.10    2.30
  -4   2  18   -1.30    2.20
  -2  -2  18   -3.80    2.20
  -2   2  18   -1.40    2.30
   0  -2  18    1.80    2.40
   0   2  18   -0.50    2.30
   2  -2  18    1.80    2.30
   2   2  18   -0.40    2.30
  19  -3 -18    1.60    1.80
  19   3 -18   -1.80    1.50
  19   3 -18    1.60    1.80
  17  -3 -18   30.90    3.60
  17   3 -18   31.20    3.50
  15  -3 -18    2.60    1.80
  15   3 -18    4.90    2.00
  13  -3 -18   11.40    2.40
  13   3 -18    6.90    2.20
  11  -3 -18    4.30    1.90
  11   3 -18    5.30    2.10
   9  -3 -18    6.60    2.00
   9   3 -18   10.60    2.30
  -7  -3  18   29.60    3.80
   7  -3 -18   23.40    3.10
   7   3 -18   17.10    2.90
  -7   3  18   22.30    3.50
  -5  -3  18    1.30    2.30
  -5   3  18    0.30    2.20
   5   3 -18    2.10    2.00
  -3  -3  18   11.20    3.00
  -3   3  18   10.60    2.90
  -1  -3  18    3.10    2.50
  -1   3  18    3.80    2.40
   1  -3  18    3.20    2.50
   1   3  18    2.00    2.50
  18  -4 -18    0.70    1.70
  18   4 -18   -0.30    1.70
  16  -4 -18    3.50    1.90
  16   4 -18    2.00    1.80
  14  -4 -18    1.50    1.50
  14   4 -18   -1.00    1.60
  12  -4 -18   -0.50    1.40
  12   4 -18    0.50    1.70
  10  -4 -18    0.60    1.70
  10   4 -18   -0.60    1.80
   8  -4 -18    0.60    1.60
   8   4 -18    1.80    1.80
  -8   4  18   -0.30    2.20
   6  -4 -18    0.60    1.70
  -6  -4  18    0.40    2.20
   6   4 -18   -2.50    1.60
  -6   4  18    0.40    2.30
  -4  -4  18   -1.00    2.20
  -4   4  18   -1.20    2.10
  -2  -4  18    3.40    2.50
  -2   4  18    1.60    2.40
   0  -4  18    1.60    2.40
   0   4  18    0.40    2.30
  17  -5 -18   17.50    2.80
  17   5 -18   21.10    3.00
  15  -5 -18   18.20    3.00
  15   5 -18   32.50    3.60
  13  -5 -18   13.70    2.60
  13   5 -18   18.50    2.90
  11  -5 -18    2.80    1.80
  11   5 -18    1.30    1.90
   9  -5 -18   26.90    3.20
  -9   5  18   31.40    3.90
   9   5 -18   29.50    3.30
   7  -5 -18   -0.50    1.50
  -7  -5  18    2.20    2.30
  -7   5  18    0.20    2.30
   7   5 -18   -1.00    1.70
  -5  -5  18   23.00    3.30
   5   5 -18   13.00    2.60
  -5   5  18   18.50    3.30
  -3  -5  18   -0.70    2.40
  -3   5  18    2.20    2.30
  -1   5  18   -0.20    2.20
  16  -6 -18    1.80    1.90
  16   6 -18    2.90    1.90
  14  -6 -18    1.00    1.70
  14   6 -18   -1.20    1.70
  12  -6 -18    2.70    1.70
  12   6 -18    4.60    2.00
  10  -6 -18   -0.40    1.60
  10   6 -18    0.30    1.80
 -10   6  18    0.60    2.30
   8  -6 -18    3.50    1.90
  -8   6  18    4.40    2.50
   8   6 -18    3.70    2.00
   6   6 -18    1.60    2.00
  -6   6  18    2.30    2.30
  -4   6  18    3.10    2.50
  -2   6  18    3.20    2.50
  13  -7 -18    2.90    1.90
  13   7 -18    8.60    2.30
  11  -7 -18   20.60    3.10
   9  -7 -18    0.90    1.70
  -9   7  18   -1.80    2.30
  -7   7  18   26.60    3.80
  -5   7  18    4.20    2.60
  16   0 -19   -1.40    1.60
  14   0 -19   -1.70    1.60
  12   0 -19    0.50    1.70
  10   0 -19    1.80    1.80
  -8   0  19    4.50    2.70
   8   0 -19   -0.80    1.70
  -6   0  19   -1.60    2.30
   6   0 -19   -0.40    1.60
  -4   0  19    1.60    2.70
  15  -1 -19    6.70    2.20
  15   1 -19    7.40    2.30
  13  -1 -19    1.80    1.80
  13   1 -19    2.60    1.90
  11  -1 -19    8.00    2.20
  11   1 -19    1.80    1.80
   9  -1 -19    5.20    2.00
   9   1 -19    3.40    1.90
   7  -1 -19    1.10    1.80
  -7  -1  19   -0.70    2.50
   7   1 -19   -1.00    1.80
  -7   1  19    2.00    2.50
  -5  -1  19    1.20    2.50
  -5   1  19    2.60    2.60
  -3  -1  19    1.70    2.70
  -3   1  19    2.70    2.70
  14  -2 -19    9.90    2.40
  14   2 -19    7.00    2.30
  12  -2 -19    1.90    1.80
  12   2 -19    3.70    2.00
  10  -2 -19    8.60    2.30
  10   2 -19    7.60    2.40
   8  -2 -19   36.00    4.10
  -8  -2  19   36.60    4.50
   8   2 -19   42.40    4.20
  -8   2  19   43.50    4.80
  -6  -2  19   -0.10    2.40
   6  -2 -19    3.10    1.90
   6   2 -19   -1.60    1.70
  -6   2  19    3.10    2.60
  -4  -2  19    4.80    2.80
  -4   2  19   -2.30    2.40
  13  -3 -19    1.40    1.80
  13   3 -19    0.20    1.70
  11  -3 -19    1.40    1.70
  11   3 -19    3.80    2.10
   9  -3 -19   -0.50    1.70
  -9   3  19    3.30    2.60
   9   3 -19   -0.60    1.70
   7  -3 -19    4.80    2.10
  -7  -3  19    8.80    3.10
  -7   3  19   10.00    3.00
   7   3 -19   12.60    2.70
  -5  -3  19   -0.90    2.40
  -5   3  19   -0.80    2.30
  12  -4 -19    6.80    2.20
  12   4 -19    9.30    2.30
  10  -4 -19   -2.10    1.50
  10   4 -19    0.20    1.80
 -10   4  19    1.70    2.60
   8  -4 -19   13.70    2.70
  -8  -4  19   21.00    3.60
   8   4 -19   16.10    2.80
  -8   4  19   23.80    3.70
;
_shelx_hkl_checksum              13261
#END Tags that were not found in dictionaries
loop_
_space_group_symop_operation_xyz
'x, y, z'
'-x, y, -z+1/2'
'x+1/2, y+1/2, z'
'-x+1/2, y+1/2, -z+1/2'
'-x, -y, -z'
'x, -y, z-1/2'
'-x+1/2, -y+1/2, -z'
'x+1/2, -y+1/2, z-1/2'
loop_
_atom_site_label
_atom_site_type_symbol
_atom_site_fract_x
_atom_site_fract_y
_atom_site_fract_z
_atom_site_U_iso_or_equiv
_atom_site_adp_type
_atom_site_occupancy
_atom_site_site_symmetry_order
_atom_site_calc_flag
_atom_site_refinement_flags_posn
_atom_site_refinement_flags_adp
_atom_site_refinement_flags_occupancy
_atom_site_disorder_assembly
_atom_site_disorder_group
Br1 Br 0.37654(2) 0.27996(3) 0.63948(4) 0.04343(17) Uani 1 1 d . . . . .
Br21 Br 0.37877(2) 0.20999(3) 0.39213(4) 0.0402(2) Uani 0.9382(18) 1 d D . P A
1
O21A O 0.46341(17) 0.0865(2) 0.3806(3) 0.0306(9) Uani 0.9382(18) 1 d D . P A 1
H21A H 0.4324 0.0858 0.3859 0.037 Uiso 0.9382(18) 1 calc R U P A 1
Br2B Br 0.4452(4) 0.0787(7) 0.3898(8) 0.0402(2) Uani 0.0618(18) 1 d D . P A 2
O21B O 0.4017(14) 0.236(3) 0.404(4) 0.0306(9) Uani 0.0618(18) 1 d D . P A 2
H21B H 0.3917 0.1903 0.4144 0.037 Uiso 0.0618(18) 1 calc R U P A 2
S1 S 0.64743(5) 0.08274(8) 0.60515(8) 0.0386(3) Uani 1 1 d . . . . .
S21 S 0.64714(5) 0.42206(7) 0.36274(8) 0.0331(3) Uani 1 1 d . . . . .
O1 O 0.45867(14) 0.40875(17) 0.6390(2) 0.0389(8) Uani 1 1 d . . . . .
H1 H 0.431(2) 0.4062(2) 0.650(4) 0.047 Uiso 1 1 calc R U . . .
O2 O 0.62811(14) 0.0029(2) 0.5794(2) 0.0484(10) Uani 1 1 d . . . . .
O3 O 0.68164(14) 0.1213(2) 0.5618(2) 0.0509(9) Uani 1 1 d . . . . .
O22 O 0.62880(13) 0.50227(19) 0.3399(2) 0.0401(8) Uani 1 1 d . . . . .
O23 O 0.68147(13) 0.3844(2) 0.3181(2) 0.0433(9) Uani 1 1 d . . . . .
N1 N 0.59505(14) 0.1392(2) 0.5889(2) 0.0342(9) Uani 1 1 d . . . . .
N21 N 0.59394(14) 0.3669(2) 0.3434(2) 0.0310(9) Uani 1 1 d . . . . .
C2 C 0.54692(18) 0.1073(3) 0.6083(3) 0.0363(11) Uani 1 1 d . . . . .
H2A H 0.5565 0.0761 0.6647 0.044 Uiso 1 1 calc R U . . .
H2B H 0.5258 0.0733 0.5585 0.044 Uiso 1 1 calc R U . . .
C3 C 0.51703(17) 0.1820(3) 0.6170(3) 0.0288(10) Uani 1 1 d . . . . .
C4 C 0.46594(17) 0.1874(3) 0.6260(3) 0.0298(10) Uani 1 1 d . . . . .
C5 C 0.44703(16) 0.2645(3) 0.6328(3) 0.0291(10) Uani 1 1 d . . . . .
C6 C 0.47762(17) 0.3321(3) 0.6324(3) 0.0283(10) Uani 1 1 d . . . . .
C7 C 0.52922(18) 0.3253(3) 0.6252(3) 0.0298(10) Uani 1 1 d . . . . .
C8 C 0.54799(16) 0.2499(3) 0.6166(3) 0.0254(9) Uani 1 1 d . . . . .
C9 C 0.60142(17) 0.2258(3) 0.6066(3) 0.0326(11) Uani 1 1 d . . . . .
H9A H 0.6090 0.2541 0.5558 0.039 Uiso 1 1 calc R U . . .
H9B H 0.6306 0.2367 0.6623 0.039 Uiso 1 1 calc R U . . .
C10 C 0.4336(2) 0.1137(3) 0.6272(4) 0.0447(13) Uani 1 1 d . . . . .
H10A H 0.4008 0.1154 0.5769 0.067 Uiso 1 1 calc R U . . .
H10B H 0.4246 0.1112 0.6839 0.067 Uiso 1 1 calc R U . . .
H10C H 0.4545 0.0665 0.6215 0.067 Uiso 1 1 calc R U . . .
C11 C 0.5635(2) 0.3992(3) 0.6274(4) 0.0425(13) Uani 1 1 d . . . . .
H11A H 0.5983 0.3833 0.6209 0.064 Uiso 1 1 calc R U . . .
H11B H 0.5689 0.4270 0.6847 0.064 Uiso 1 1 calc R U . . .
H11C H 0.5455 0.4349 0.5779 0.064 Uiso 1 1 calc R U . . .
C12 C 0.67997(18) 0.0840(3) 0.7222(3) 0.0344(11) Uani 1 1 d . . . . .
C13 C 0.71676(18) 0.1413(3) 0.7588(3) 0.0377(11) Uani 1 1 d . . . . .
H13 H 0.7286 0.1765 0.7207 0.045 Uiso 1 1 calc R U . . .
C14 C 0.73706(18) 0.1484(3) 0.8511(3) 0.0412(12) Uani 1 1 d . . . . .
H14 H 0.7625 0.1888 0.8760 0.049 Uiso 1 1 calc R U . . .
C15 C 0.72046(18) 0.0969(3) 0.9076(3) 0.0369(12) Uani 1 1 d . . . . .
C16 C 0.68471(18) 0.0357(3) 0.8687(3) 0.0372(12) Uani 1 1 d . . . . .
H16 H 0.6745 -0.0021 0.9060 0.045 Uiso 1 1 calc R U . . .
C17 C 0.66430(18) 0.0299(3) 0.7771(3) 0.0354(11) Uani 1 1 d . . . . .
H17 H 0.6395 -0.0111 0.7513 0.042 Uiso 1 1 calc R U . . .
C18 C 0.7396(2) 0.1067(3) 1.0081(3) 0.0514(14) Uani 1 1 d . . . . .
H18A H 0.7773 0.1225 1.0264 0.077 Uiso 1 1 calc R U . . .
H18B H 0.7356 0.0561 1.0370 0.077 Uiso 1 1 calc R U . . .
H18C H 0.7184 0.1480 1.0263 0.077 Uiso 1 1 calc R U . . .
C22 C 0.54713(17) 0.3950(3) 0.3699(3) 0.0308(10) Uani 1 1 d . . . . .
H22A H 0.5252 0.4326 0.3251 0.037 Uiso 1 1 calc R U . . .
H22B H 0.5582 0.4212 0.4296 0.037 Uiso 1 1 calc R U . . .
C23 C 0.51734(17) 0.3181(3) 0.3725(3) 0.0269(10) Uani 1 1 d . . . . .
C24 C 0.46645(17) 0.3094(3) 0.3827(3) 0.0278(10) Uani 1 1 d . . . . .
C25 C 0.44831(17) 0.2308(3) 0.3839(3) 0.0303(10) Uani 1 1 d D . . . .
C26 C 0.4799(2) 0.1653(3) 0.3780(3) 0.0337(11) Uani 1 1 d D . . . .
C27 C 0.53078(18) 0.1752(3) 0.3665(3) 0.0294(10) Uani 1 1 d . . . . .
C28 C 0.54811(17) 0.2527(3) 0.3641(3) 0.0285(10) Uani 1 1 d . . . . .
C29 C 0.60040(18) 0.2780(3) 0.3534(3) 0.0333(11) Uani 1 1 d . . . . .
H29A H 0.6067 0.2537 0.2994 0.040 Uiso 1 1 calc R U . . .
H29B H 0.6302 0.2638 0.4069 0.040 Uiso 1 1 calc R U . . .
C30 C 0.43376(19) 0.3804(3) 0.3929(3) 0.0367(11) Uani 1 1 d . . . . .
H30A H 0.4498 0.4289 0.3769 0.055 Uiso 1 1 calc R U . . .
H30B H 0.4330 0.3842 0.4554 0.055 Uiso 1 1 calc R U . . .
H30C H 0.3972 0.3745 0.3532 0.055 Uiso 1 1 calc R U . . .
C31 C 0.56425(19) 0.1040(3) 0.3583(3) 0.0382(12) Uani 1 1 d . . . . .
H31A H 0.5480 0.0770 0.3010 0.057 Uiso 1 1 calc R U . . .
H31B H 0.5662 0.0670 0.4080 0.057 Uiso 1 1 calc R U . . .
H31C H 0.6003 0.1217 0.3608 0.057 Uiso 1 1 calc R U . . .
C32 C 0.67836(17) 0.4184(3) 0.4795(3) 0.0299(10) Uani 1 1 d . . . . .
C33 C 0.71363(17) 0.3574(3) 0.5154(3) 0.0341(11) Uani 1 1 d . . . . .
H33 H 0.7241 0.3208 0.4771 0.041 Uiso 1 1 calc R U . . .
C34 C 0.73354(18) 0.3501(3) 0.6082(3) 0.0378(12) Uani 1 1 d . . . . .
H34 H 0.7576 0.3079 0.6331 0.045 Uiso 1 1 calc R U . . .
C35 C 0.71897(18) 0.4032(3) 0.6650(3) 0.0352(11) Uani 1 1 d . . . . .
C36 C 0.68556(18) 0.4664(3) 0.6276(3) 0.0349(11) Uani 1 1 d . . . . .
H36 H 0.6768 0.5050 0.6657 0.042 Uiso 1 1 calc R U . . .
C37 C 0.66487(17) 0.4736(3) 0.5355(3) 0.0320(10) Uani 1 1 d . . . . .
H37 H 0.6414 0.5164 0.5106 0.038 Uiso 1 1 calc R U . . .
C38 C 0.7391(2) 0.3934(4) 0.7654(3) 0.0499(14) Uani 1 1 d . . . . .
H38A H 0.7747 0.3688 0.7816 0.075 Uiso 1 1 calc R U . . .
H38B H 0.7145 0.3592 0.7856 0.075 Uiso 1 1 calc R U . . .
H38C H 0.7414 0.4457 0.7942 0.075 Uiso 1 1 calc R U . . .
loop_
_atom_site_aniso_label
_atom_site_aniso_U_11
_atom_site_aniso_U_22
_atom_site_aniso_U_33
_atom_site_aniso_U_23
_atom_site_aniso_U_13
_atom_site_aniso_U_12
Br1 0.0304(3) 0.0555(3) 0.0483(3) -0.0023(3) 0.0175(2) -0.0012(2)
Br21 0.0351(3) 0.0409(3) 0.0459(4) 0.0023(3) 0.0139(3) -0.0059(2)
O21A 0.034(2) 0.0210(18) 0.040(2) -0.0032(15) 0.0144(19) -0.0058(17)
Br2B 0.0351(3) 0.0409(3) 0.0459(4) 0.0023(3) 0.0139(3) -0.0059(2)
O21B 0.034(2) 0.0210(18) 0.040(2) -0.0032(15) 0.0144(19) -0.0058(17)
S1 0.0352(7) 0.0540(8) 0.0282(7) -0.0033(6) 0.0119(5) 0.0112(6)
S21 0.0311(6) 0.0430(7) 0.0272(6) 0.0035(5) 0.0115(5) -0.0010(5)
O1 0.049(2) 0.0203(16) 0.046(2) -0.0011(15) 0.0121(18) 0.0015(15)
O2 0.054(2) 0.045(2) 0.044(2) -0.0199(17) 0.0095(19) 0.0092(17)
O3 0.044(2) 0.076(3) 0.036(2) 0.0068(19) 0.0162(16) 0.0099(19)
O22 0.039(2) 0.042(2) 0.041(2) 0.0126(16) 0.0141(17) -0.0006(15)
O23 0.0380(19) 0.066(2) 0.0310(19) -0.0019(17) 0.0173(15) 0.0031(17)
N1 0.032(2) 0.045(2) 0.025(2) -0.0016(18) 0.0079(17) 0.0059(18)
N21 0.032(2) 0.034(2) 0.028(2) 0.0016(17) 0.0122(17) 0.0014(17)
C2 0.037(3) 0.035(3) 0.034(3) -0.003(2) 0.007(2) 0.001(2)
C3 0.030(2) 0.030(2) 0.023(2) 0.0029(19) 0.0022(19) 0.0024(19)
C4 0.025(2) 0.035(3) 0.029(3) 0.002(2) 0.009(2) -0.004(2)
C5 0.020(2) 0.041(3) 0.028(3) 0.002(2) 0.0103(19) 0.000(2)
C6 0.028(2) 0.029(2) 0.028(2) 0.003(2) 0.010(2) 0.0035(19)
C7 0.033(2) 0.032(2) 0.025(2) 0.005(2) 0.008(2) -0.006(2)
C8 0.025(2) 0.034(3) 0.017(2) 0.0021(19) 0.0055(17) -0.0023(19)
C9 0.026(2) 0.040(3) 0.032(3) 0.009(2) 0.008(2) 0.001(2)
C10 0.041(3) 0.038(3) 0.058(4) 0.006(3) 0.019(3) -0.007(2)
C11 0.041(3) 0.034(3) 0.054(3) 0.006(2) 0.016(3) -0.012(2)
C12 0.029(2) 0.044(3) 0.030(3) -0.003(2) 0.009(2) 0.014(2)
C13 0.032(3) 0.046(3) 0.038(3) 0.003(2) 0.015(2) 0.008(2)
C14 0.029(3) 0.051(3) 0.040(3) -0.007(2) 0.006(2) 0.005(2)
C15 0.028(2) 0.052(3) 0.031(3) 0.001(2) 0.009(2) 0.013(2)
C16 0.033(3) 0.044(3) 0.036(3) 0.007(2) 0.013(2) 0.016(2)
C17 0.028(2) 0.042(3) 0.034(3) 0.001(2) 0.007(2) 0.007(2)
C18 0.053(3) 0.070(4) 0.031(3) -0.003(3) 0.011(2) 0.013(3)
C22 0.024(2) 0.036(3) 0.033(3) 0.000(2) 0.008(2) 0.000(2)
C23 0.026(2) 0.032(2) 0.020(2) -0.0020(19) 0.0024(18) 0.0011(19)
C24 0.032(2) 0.026(2) 0.023(2) 0.0026(19) 0.004(2) 0.0028(19)
C25 0.029(2) 0.035(3) 0.026(2) 0.004(2) 0.0059(19) -0.003(2)
C26 0.046(3) 0.029(2) 0.021(2) 0.001(2) 0.003(2) -0.002(2)
C27 0.030(2) 0.031(2) 0.023(2) -0.001(2) 0.0015(19) 0.003(2)
C28 0.034(2) 0.033(3) 0.016(2) -0.0025(19) 0.0032(19) -0.001(2)
C29 0.035(3) 0.038(3) 0.028(3) -0.005(2) 0.010(2) -0.002(2)
C30 0.036(3) 0.033(3) 0.042(3) 0.002(2) 0.014(2) 0.003(2)
C31 0.044(3) 0.030(3) 0.039(3) -0.006(2) 0.011(2) 0.005(2)
C32 0.026(2) 0.036(3) 0.029(2) -0.001(2) 0.0093(19) -0.008(2)
C33 0.033(3) 0.038(3) 0.032(3) -0.003(2) 0.009(2) 0.000(2)
C34 0.032(3) 0.042(3) 0.036(3) 0.007(2) 0.005(2) -0.002(2)
C35 0.027(2) 0.050(3) 0.027(3) -0.002(2) 0.006(2) -0.017(2)
C36 0.033(3) 0.043(3) 0.032(3) -0.011(2) 0.015(2) -0.015(2)
C37 0.027(2) 0.037(3) 0.033(3) -0.001(2) 0.009(2) -0.005(2)
C38 0.052(3) 0.066(4) 0.029(3) 0.001(3) 0.007(2) -0.013(3)
loop_
_atom_type_symbol
_atom_type_description
_atom_type_scat_dispersion_real
_atom_type_scat_dispersion_imag
_atom_type_scat_source
C C 0.0033 0.0016 'International Tables Vol C Tables 4.2.6.8 and 6.1.1.4'
H H 0.0000 0.0000 'International Tables Vol C Tables 4.2.6.8 and 6.1.1.4'
Br Br -0.2901 2.4595 'International Tables Vol C Tables 4.2.6.8 and 6.1.1.4'
N N 0.0061 0.0033 'International Tables Vol C Tables 4.2.6.8 and 6.1.1.4'
O O 0.0106 0.0060 'International Tables Vol C Tables 4.2.6.8 and 6.1.1.4'
S S 0.1246 0.1234 'International Tables Vol C Tables 4.2.6.8 and 6.1.1.4'
loop_
_geom_angle_atom_site_label_1
_geom_angle_atom_site_label_2
_geom_angle_atom_site_label_3
_geom_angle
C26 O21A H21A 109.5
C25 O21B H21B 109.5
O3 S1 O2 120.4(2)
O3 S1 N1 106.2(2)
O2 S1 N1 106.6(2)
O3 S1 C12 107.6(2)
O2 S1 C12 108.7(2)
N1 S1 C12 106.5(2)
O23 S21 O22 120.2(2)
O23 S21 N21 106.5(2)
O22 S21 N21 106.3(2)
O23 S21 C32 108.5(2)
O22 S21 C32 108.0(2)
N21 S21 C32 106.58(19)
C6 O1 H1 109.5
C9 N1 C2 112.0(3)
C9 N1 S1 120.0(3)
C2 N1 S1 119.1(3)
C22 N21 C29 111.4(3)
C22 N21 S21 120.1(3)
C29 N21 S21 118.8(3)
N1 C2 C3 102.2(4)
N1 C2 H2A 111.3
C3 C2 H2A 111.3
N1 C2 H2B 111.3
C3 C2 H2B 111.3
H2A C2 H2B 109.2
C4 C3 C8 121.6(4)
C4 C3 C2 127.2(4)
C8 C3 C2 111.2(4)
C3 C4 C5 116.1(4)
C3 C4 C10 120.7(4)
C5 C4 C10 123.2(4)
C6 C5 C4 122.5(4)
C6 C5 Br1 117.3(3)
C4 C5 Br1 120.1(3)
C5 C6 C7 120.4(4)
C5 C6 O1 122.4(4)
C7 C6 O1 117.2(4)
C8 C7 C6 117.7(4)
C8 C7 C11 121.6(4)
C6 C7 C11 120.7(4)
C7 C8 C3 121.6(4)
C7 C8 C9 128.6(4)
C3 C8 C9 109.8(4)
N1 C9 C8 103.0(3)
N1 C9 H9A 111.2
C8 C9 H9A 111.2
N1 C9 H9B 111.2
C8 C9 H9B 111.2
H9A C9 H9B 109.1
C4 C10 H10A 109.5
C4 C10 H10B 109.5
H10A C10 H10B 109.5
C4 C10 H10C 109.5
H10A C10 H10C 109.5
H10B C10 H10C 109.5
C7 C11 H11A 109.5
C7 C11 H11B 109.5
H11A C11 H11B 109.5
C7 C11 H11C 109.5
H11A C11 H11C 109.5
H11B C11 H11C 109.5
C13 C12 C17 120.3(4)
C13 C12 S1 120.5(4)
C17 C12 S1 119.0(4)
C12 C13 C14 120.3(5)
C12 C13 H13 119.8
C14 C13 H13 119.8
C13 C14 C15 120.5(5)
C13 C14 H14 119.8
C15 C14 H14 119.8
C14 C15 C16 118.3(4)
C14 C15 C18 121.2(5)
C16 C15 C18 120.5(5)
C17 C16 C15 120.7(5)
C17 C16 H16 119.7
C15 C16 H16 119.7
C16 C17 C12 119.9(5)
C16 C17 H17 120.1
C12 C17 H17 120.1
C15 C18 H18A 109.5
C15 C18 H18B 109.5
H18A C18 H18B 109.5
C15 C18 H18C 109.5
H18A C18 H18C 109.5
H18B C18 H18C 109.5
N21 C22 C23 102.1(3)
N21 C22 H22A 111.3
C23 C22 H22A 111.3
N21 C22 H22B 111.3
C23 C22 H22B 111.3
H22A C22 H22B 109.2
C28 C23 C24 121.8(4)
C28 C23 C22 110.7(4)
C24 C23 C22 127.5(4)
C23 C24 C25 116.0(4)
C23 C24 C30 121.4(4)
C25 C24 C30 122.6(4)
O21B C25 C26 131(2)
O21B C25 C24 106(2)
C26 C25 C24 122.0(4)
C26 C25 Br21 117.4(3)
C24 C25 Br21 120.6(3)
O21A C26 C25 123.3(4)
O21A C26 C27 115.4(4)
C25 C26 C27 121.2(4)
C25 C26 Br2B 108.1(5)
C27 C26 Br2B 130.7(5)
C28 C27 C26 116.5(4)
C28 C27 C31 122.6(4)
C26 C27 C31 120.8(4)
C27 C28 C23 122.5(4)
C27 C28 C29 126.3(4)
C23 C28 C29 111.2(4)
C28 C29 N21 102.4(3)
C28 C29 H29A 111.3
N21 C29 H29A 111.3
C28 C29 H29B 111.3
N21 C29 H29B 111.3
H29A C29 H29B 109.2
C24 C30 H30A 109.5
C24 C30 H30B 109.5
H30A C30 H30B 109.5
C24 C30 H30C 109.5
H30A C30 H30C 109.5
H30B C30 H30C 109.5
C27 C31 H31A 109.5
C27 C31 H31B 109.5
H31A C31 H31B 109.5
C27 C31 H31C 109.5
H31A C31 H31C 109.5
H31B C31 H31C 109.5
C33 C32 C37 120.2(4)
C33 C32 S21 119.8(3)
C37 C32 S21 119.9(4)
C32 C33 C34 119.2(4)
C32 C33 H33 120.4
C34 C33 H33 120.4
C35 C34 C33 121.1(5)
C35 C34 H34 119.4
C33 C34 H34 119.4
C34 C35 C36 118.7(4)
C34 C35 C38 120.9(5)
C36 C35 C38 120.4(5)
C37 C36 C35 120.7(4)
C37 C36 H36 119.6
C35 C36 H36 119.6
C36 C37 C32 119.9(4)
C36 C37 H37 120.0
C32 C37 H37 120.0
C35 C38 H38A 109.5
C35 C38 H38B 109.5
H38A C38 H38B 109.5
C35 C38 H38C 109.5
H38A C38 H38C 109.5
H38B C38 H38C 109.5
loop_
_geom_bond_atom_site_label_1
_geom_bond_atom_site_label_2
_geom_bond_distance
Br1 C5 1.895(4)
Br21 C25 1.893(4)
O21A C26 1.394(6)
O21A H21A 0.8400
Br2B C26 1.750(10)
O21B C25 1.35(2)
O21B H21B 0.8400
S1 O3 1.424(4)
S1 O2 1.446(4)
S1 N1 1.624(4)
S1 C12 1.772(5)
S21 O23 1.432(3)
S21 O22 1.438(3)
S21 N21 1.624(4)
S21 C32 1.762(5)
O1 C6 1.391(5)
O1 H1 0.80(5)
N1 C9 1.477(6)
N1 C2 1.478(6)
N21 C22 1.479(5)
N21 C29 1.503(6)
C2 C3 1.504(6)
C2 H2A 0.9900
C2 H2B 0.9900
C3 C4 1.387(6)
C3 C8 1.398(6)
C4 C5 1.399(6)
C4 C10 1.499(6)
C5 C6 1.389(6)
C6 C7 1.391(6)
C7 C8 1.378(6)
C7 C11 1.525(6)
C8 C9 1.506(6)
C9 H9A 0.9900
C9 H9B 0.9900
C10 H10A 0.9800
C10 H10B 0.9800
C10 H10C 0.9800
C11 H11A 0.9800
C11 H11B 0.9800
C11 H11C 0.9800
C12 C13 1.361(7)
C12 C17 1.387(7)
C13 C14 1.384(7)
C13 H13 0.9500
C14 C15 1.390(7)
C14 H14 0.9500
C15 C16 1.401(7)
C15 C18 1.505(7)
C16 C17 1.372(6)
C16 H16 0.9500
C17 H17 0.9500
C18 H18A 0.9800
C18 H18B 0.9800
C18 H18C 0.9800
C22 C23 1.514(6)
C22 H22A 0.9900
C22 H22B 0.9900
C23 C28 1.389(6)
C23 C24 1.393(6)
C24 C25 1.403(6)
C24 C30 1.502(6)
C25 C26 1.394(6)
C26 C27 1.402(6)
C27 C28 1.381(6)
C27 C31 1.507(6)
C28 C29 1.487(6)
C29 H29A 0.9900
C29 H29B 0.9900
C30 H30A 0.9800
C30 H30B 0.9800
C30 H30C 0.9800
C31 H31A 0.9800
C31 H31B 0.9800
C31 H31C 0.9800
C32 C33 1.382(6)
C32 C37 1.386(6)
C33 C34 1.391(6)
C33 H33 0.9500
C34 C35 1.385(7)
C34 H34 0.9500
C35 C36 1.388(7)
C35 C38 1.504(7)
C36 C37 1.382(6)
C36 H36 0.9500
C37 H37 0.9500
C38 H38A 0.9800
C38 H38B 0.9800
C38 H38C 0.9800
loop_
_geom_hbond_atom_site_label_D
_geom_hbond_atom_site_label_H
_geom_hbond_atom_site_label_A
_geom_hbond_site_symmetry_A
_geom_hbond_distance_DH
_geom_hbond_distance_HA
_geom_hbond_distance_DA
_geom_hbond_angle_DHA
_geom_hbond_publ_flag
O1 H1 O22 5_666 0.80 2.22 2.830(5) 132.9 y
loop_
_geom_torsion_atom_site_label_1
_geom_torsion_atom_site_label_2
_geom_torsion_atom_site_label_3
_geom_torsion_atom_site_label_4
_geom_torsion
O3 S1 N1 C9 -48.6(4)
O2 S1 N1 C9 -178.1(3)
C12 S1 N1 C9 65.9(4)
O3 S1 N1 C2 166.6(3)
O2 S1 N1 C2 37.0(4)
C12 S1 N1 C2 -78.9(4)
O23 S21 N21 C22 -171.7(3)
O22 S21 N21 C22 -42.3(4)
C32 S21 N21 C22 72.7(4)
O23 S21 N21 C29 45.3(4)
O22 S21 N21 C29 174.7(3)
C32 S21 N21 C29 -70.4(4)
C9 N1 C2 C3 13.4(5)
S1 N1 C2 C3 160.8(3)
N1 C2 C3 C4 172.8(4)
N1 C2 C3 C8 -8.3(5)
C8 C3 C4 C5 1.3(6)
C2 C3 C4 C5 -179.9(4)
C8 C3 C4 C10 -179.4(4)
C2 C3 C4 C10 -0.5(7)
C3 C4 C5 C6 -1.3(7)
C10 C4 C5 C6 179.4(5)
C3 C4 C5 Br1 176.9(3)
C10 C4 C5 Br1 -2.4(6)
C4 C5 C6 C7 0.0(7)
Br1 C5 C6 C7 -178.3(3)
C4 C5 C6 O1 179.8(4)
Br1 C5 C6 O1 1.6(6)
C5 C6 C7 C8 1.4(7)
O1 C6 C7 C8 -178.5(4)
C5 C6 C7 C11 -178.3(4)
O1 C6 C7 C11 1.8(6)
C6 C7 C8 C3 -1.4(6)
C11 C7 C8 C3 178.3(4)
C6 C7 C8 C9 179.2(4)
C11 C7 C8 C9 -1.1(7)
C4 C3 C8 C7 0.1(7)
C2 C3 C8 C7 -178.9(4)
C4 C3 C8 C9 179.5(4)
C2 C3 C8 C9 0.5(5)
C2 N1 C9 C8 -13.2(5)
S1 N1 C9 C8 -160.3(3)
C7 C8 C9 N1 -173.1(4)
C3 C8 C9 N1 7.5(5)
O3 S1 C12 C13 25.6(4)
O2 S1 C12 C13 157.5(4)
N1 S1 C12 C13 -88.0(4)
O3 S1 C12 C17 -159.7(4)
O2 S1 C12 C17 -27.8(4)
N1 S1 C12 C17 86.7(4)
C17 C12 C13 C14 -3.0(7)
S1 C12 C13 C14 171.7(3)
C12 C13 C14 C15 0.5(7)
C13 C14 C15 C16 2.8(7)
C13 C14 C15 C18 -176.3(4)
C14 C15 C16 C17 -3.8(7)
C18 C15 C16 C17 175.4(4)
C15 C16 C17 C12 1.4(7)
C13 C12 C17 C16 2.1(7)
S1 C12 C17 C16 -172.7(3)
C29 N21 C22 C23 -14.5(5)
S21 N21 C22 C23 -160.0(3)
N21 C22 C23 C28 9.4(5)
N21 C22 C23 C24 -171.3(4)
C28 C23 C24 C25 -0.1(6)
C22 C23 C24 C25 -179.3(4)
C28 C23 C24 C30 179.2(4)
C22 C23 C24 C30 0.0(7)
C23 C24 C25 O21B 173(3)
C30 C24 C25 O21B -6(3)
C23 C24 C25 C26 2.0(6)
C30 C24 C25 C26 -177.3(4)
C23 C24 C25 Br21 -177.3(3)
C30 C24 C25 Br21 3.4(6)
O21B C25 C26 O21A 10(3)
C24 C25 C26 O21A 178.8(4)
Br21 C25 C26 O21A -1.9(6)
O21B C25 C26 C27 -172(3)
C24 C25 C26 C27 -3.0(7)
Br21 C25 C26 C27 176.3(3)
O21B C25 C26 Br2B 7(3)
C24 C25 C26 Br2B 175.8(6)
Br21 C25 C26 Br2B -4.9(6)
O21A C26 C27 C28 -179.8(4)
C25 C26 C27 C28 1.9(7)
Br2B C26 C27 C28 -176.6(6)
O21A C26 C27 C31 -0.4(6)
C25 C26 C27 C31 -178.7(4)
Br2B C26 C27 C31 2.8(9)
C26 C27 C28 C23 0.0(6)
C31 C27 C28 C23 -179.4(4)
C26 C27 C28 C29 179.4(4)
C31 C27 C28 C29 0.0(7)
C24 C23 C28 C27 -0.9(7)
C22 C23 C28 C27 178.4(4)
C24 C23 C28 C29 179.6(4)
C22 C23 C28 C29 -1.0(5)
C27 C28 C29 N21 172.9(4)
C23 C28 C29 N21 -7.7(5)
C22 N21 C29 C28 14.0(5)
S21 N21 C29 C28 160.0(3)
O23 S21 C32 C33 -28.0(4)
O22 S21 C32 C33 -159.8(3)
N21 S21 C32 C33 86.3(4)
O23 S21 C32 C37 156.2(3)
O22 S21 C32 C37 24.4(4)
N21 S21 C32 C37 -89.5(4)
C37 C32 C33 C34 2.7(6)
S21 C32 C33 C34 -173.1(3)
C32 C33 C34 C35 -0.5(7)
C33 C34 C35 C36 -2.6(7)
C33 C34 C35 C38 177.8(4)
C34 C35 C36 C37 3.5(6)
C38 C35 C36 C37 -176.9(4)
C35 C36 C37 C32 -1.4(6)
C33 C32 C37 C36 -1.8(6)
S21 C32 C37 C36 174.0(3)
