#------------------------------------------------------------------------------
#$Date: 2016-02-18 17:37:37 +0200 (Thu, 18 Feb 2016) $
#$Revision: 176729 $
#$URL: svn://www.crystallography.net/cod/cif/1/51/78/1517815.cif $
#------------------------------------------------------------------------------
#
# This file is available in the Crystallography Open Database (COD),
# http://www.crystallography.net/
#
# All data on this site have been placed in the public domain by the
# contributors.
#
data_1517815
loop_
_publ_author_name
'Yang, Yu-Jie'
'Zhang, Hai-Rui'
'Zhu, Shi-Ya'
'Zhu, Ping'
'Hui, Xin-Ping'
_publ_section_title
;
 Highly Stereoselective Synthesis of Functionalized
 Pyrrolo[3,2-c]quinolines via N-Heterocyclic Carbene Catalyzed Cascade
 Sequence.
;
_journal_issue                   19
_journal_name_full               'Organic letters'
_journal_page_first              5048
_journal_page_last               5051
_journal_paper_doi               10.1021/ol5023917
_journal_volume                  16
_journal_year                    2014
_chemical_absolute_configuration none
_chemical_formula_moiety         'C30 H29 Cl N2 O7 S'
_chemical_formula_sum            'C30 H29 Cl N2 O7 S'
_chemical_formula_weight         597.06
_chemical_name_systematic
;
 ?
;
_space_group_crystal_system      monoclinic
_space_group_IT_number           4
_space_group_name_Hall           'P 2yb'
_space_group_name_H-M_alt        'P 1 21 1'
_symmetry_space_group_name_Hall  'P 2yb'
_symmetry_space_group_name_H-M   'P 1 21 1'
_atom_sites_solution_hydrogens   mixed
_atom_sites_solution_primary     direct
_audit_creation_date             2014-05-28
_audit_creation_method
;
Olex2 1.2
(compiled 2014.03.20 svn.r2914 for OlexSys, GUI svn.r4816)
;
_cell_angle_alpha                90
_cell_angle_beta                 108.111(7)
_cell_angle_gamma                90
_cell_formula_units_Z            2
_cell_length_a                   11.9525(6)
_cell_length_b                   7.8235(5)
_cell_length_c                   16.0480(10)
_cell_measurement_reflns_used    2407
_cell_measurement_temperature    294.29(10)
_cell_measurement_theta_max      26.0730
_cell_measurement_theta_min      3.7180
_cell_volume                     1426.31(16)
_computing_cell_refinement
;
CrysAlisPro, Agilent Technologies,
Version 1.171.36.28 (release 01-02-2013 CrysAlis171 .NET)
(compiled Feb  1 2013,16:14:44)
;
_computing_data_collection
;
CrysAlisPro, Agilent Technologies,
Version 1.171.36.28 (release 01-02-2013 CrysAlis171 .NET)
(compiled Feb  1 2013,16:14:44)
;
_computing_data_reduction
;
CrysAlisPro, Agilent Technologies,
Version 1.171.36.28 (release 01-02-2013 CrysAlis171 .NET)
(compiled Feb  1 2013,16:14:44)
;
_computing_molecular_graphics    'Olex2 (Dolomanov et al., 2009)'
_computing_publication_material  'Olex2 (Dolomanov et al., 2009)'
_computing_structure_refinement  'ShelXL (Sheldrick, 2008)'
_computing_structure_solution    'ShelXS (Sheldrick, 2008)'
_diffrn_ambient_temperature      294.29(10)
_diffrn_detector_area_resol_mean 16.0733
_diffrn_measured_fraction_theta_full 0.998
_diffrn_measured_fraction_theta_max 0.998
_diffrn_measurement_device_type  'SuperNova, Dual, Cu at zero, Eos'
_diffrn_measurement_method       '\w scans'
_diffrn_orient_matrix_UB_11      -0.0210604000
_diffrn_orient_matrix_UB_12      0.0218900000
_diffrn_orient_matrix_UB_13      -0.0450849000
_diffrn_orient_matrix_UB_21      -0.0435670000
_diffrn_orient_matrix_UB_22      -0.0646096000
_diffrn_orient_matrix_UB_23      -0.0069715000
_diffrn_orient_matrix_UB_31      -0.0394489000
_diffrn_orient_matrix_UB_32      0.0597155000
_diffrn_orient_matrix_UB_33      0.0089597000
_diffrn_radiation_monochromator  mirror
_diffrn_radiation_type           MoK\a
_diffrn_radiation_wavelength     0.710
_diffrn_reflns_av_R_equivalents  0.0320
_diffrn_reflns_av_unetI/netI     0.0603
_diffrn_reflns_Laue_measured_fraction_full 0.998
_diffrn_reflns_Laue_measured_fraction_max 0.998
_diffrn_reflns_limit_h_max       14
_diffrn_reflns_limit_h_min       -14
_diffrn_reflns_limit_k_max       6
_diffrn_reflns_limit_k_min       -9
_diffrn_reflns_limit_l_max       19
_diffrn_reflns_limit_l_min       -19
_diffrn_reflns_number            5776
_diffrn_reflns_point_group_measured_fraction_full 0.758
_diffrn_reflns_point_group_measured_fraction_max 0.754
_diffrn_reflns_theta_full        25.500
_diffrn_reflns_theta_max         25.993
_diffrn_reflns_theta_min         2.923
_diffrn_source                   'SuperNova (Mo) X-ray Source'
_exptl_absorpt_coefficient_mu    0.258
_exptl_absorpt_correction_T_max  1.00000
_exptl_absorpt_correction_T_min  0.65860
_exptl_absorpt_correction_type   multi-scan
_exptl_absorpt_process_details
;
CrysAlisPro, Agilent Technologies,
Version 1.171.36.28 (release 01-02-2013 CrysAlis171 .NET)
(compiled Feb  1 2013,16:14:44)
Empirical absorption correction using spherical harmonics,
 implemented in SCALE3 ABSPACK scaling algorithm.
;
_exptl_crystal_colour            'clear light colourless'
_exptl_crystal_density_diffrn    1.390
_exptl_crystal_description       plate
_exptl_crystal_F_000             624
_exptl_crystal_size_max          0.24
_exptl_crystal_size_mid          0.11
_exptl_crystal_size_min          0.07
_refine_diff_density_max         0.181
_refine_diff_density_min         -0.257
_refine_diff_density_rms         0.039
_refine_ls_abs_structure_details
;
 Flack x determined using 870 quotients [(I+)-(I-)]/[(I+)+(I-)]
 (Parsons and Flack (2004), Acta Cryst. A60, s61).
;
_refine_ls_abs_structure_Flack   -0.07(8)
_refine_ls_extinction_method     none
_refine_ls_goodness_of_fit_ref   1.042
_refine_ls_hydrogen_treatment    mixed
_refine_ls_matrix_type           full
_refine_ls_number_parameters     377
_refine_ls_number_reflns         4247
_refine_ls_number_restraints     1
_refine_ls_restrained_S_all      1.042
_refine_ls_R_factor_all          0.0552
_refine_ls_R_factor_gt           0.0441
_refine_ls_shift/su_max          0.000
_refine_ls_shift/su_mean         0.000
_refine_ls_structure_factor_coef Fsqd
_refine_ls_weighting_details
;
 w=1/[\s^2^(Fo^2^)+(0.0314P)^2^]
 where P=(Fo^2^+2Fc^2^)/3
;
_refine_ls_weighting_scheme      calc
_refine_ls_wR_factor_gt          0.0896
_refine_ls_wR_factor_ref         0.0994
_reflns_Friedel_coverage         0.403
_reflns_Friedel_fraction_full    0.477
_reflns_Friedel_fraction_max     0.469
_reflns_number_gt                3527
_reflns_number_total             4247
_reflns_threshold_expression     'I > 2\s(I)'
_cod_data_source_file            ol5023917_si_001.cif
_cod_data_source_block           yangyj0527
_cod_depositor_comments          'Adding full bibliography for 1517815.cif.'
_cod_original_cell_volume        1426.31(15)
_cod_database_code               1517815
#BEGIN Tags that were not found in dictionaries:
_shelxl_version_number           2013-2
_shelx_space_group_comment
;
The symmetry employed for this shelxl refinement is uniquely defined
by the following loop, which should always be used as a source of
symmetry information in preference to the above space-group names.
They are only intended as comments.
;
_reflns_odcompleteness_completeness 99.78
_reflns_odcompleteness_iscentric 1
_reflns_odcompleteness_theta     26.32
_olex2_refinement_description
;
1. Fixed Uiso
 At 1.2 times of:
  All C(H) groups, All C(H,H) groups
 At 1.5 times of:
  All C(H,H,H) groups
2.a Ternary CH refined with riding coordinates:
 C7(H7), C10(H10), C8(H8)
2.b Secondary CH2 refined with riding coordinates:
 C19(H19A,H19B), C22(H22A,H22B)
2.c Aromatic/amide H refined with riding coordinates:
 C14(H14), C5(H5), C28(H28), C15(H15), C25(H25), C16(H16), C2(H2A), C26(H26),
 C3(H3), C4(H4), C29(H29), C17(H17)
2.d Idealised Me refined as rotating group:
 C30(H30A,H30B,H30C), C23(H23A,H23B,H23C), C20(H20A,H20B,H20C)
;
_shelx_res_file
;
TITL yangyj0527 in P21 #4
CELL 0.71 11.952454 7.823518 16.04802 90 108.1109 90
ZERR 2 0.000643 0.00046 0.001035 0 0.0066 0
LATT -1
SYMM -X,0.5+Y,-Z

SFAC C H N O S Cl
UNIT 60 58 4 14 2 2

L.S. 10
PLAN  20
REM reset to P21 #4
BOND $H
HTAB
CONF
MORE -1
CONF
fmap 2
acta 51.0
SHEL 999 0.81
REM <HKL>D:\olex2_yangyj0527\yangyj0527.hkl</HKL>

WGHT    0.031400
FVAR       6.93081
S1    5    0.545448    0.892962    0.212872    11.00000    0.04130    0.04248 =
         0.04628   -0.00030    0.00578    0.00023
CL1   6    1.110299    1.197075    0.417133    11.00000    0.04652    0.06032 =
         0.06420   -0.00160    0.00016    0.01044
O6    4    0.441609    0.865106    0.140700    11.00000    0.05232    0.05816 =
         0.05477   -0.00708   -0.00597   -0.01053
O5    4    1.082906    1.388988    0.212620    11.00000    0.04420    0.05132 =
         0.05546   -0.00148    0.01638   -0.01503
C24   1    0.509288    0.873270    0.310631    11.00000    0.03946    0.03796 =
         0.05173    0.00265    0.01018    0.00076
O3    4    0.949505    1.102051    0.090151    11.00000    0.05312    0.04622 =
         0.03992    0.00061    0.02013    0.00213
O7    4    0.648749    0.795057    0.219593    11.00000    0.05646    0.05750 =
         0.06469   -0.00373    0.01809    0.01304
N1    3    0.581132    1.103672    0.208599    11.00000    0.03126    0.04167 =
         0.03708    0.00577    0.00159   -0.00344
C11   1    0.891240    1.282294    0.185189    11.00000    0.04100    0.03957 =
         0.02940   -0.00235    0.01082   -0.00555
C7    1    0.698364    1.391267    0.165082    11.00000    0.03921    0.03669 =
         0.03557    0.00288    0.00765   -0.00020
AFIX  13
H7    2    0.717823    1.512804    0.164214    11.00000   -1.20000
AFIX   0
C9    1    0.687508    1.154277    0.271217    11.00000    0.02867    0.04468 =
         0.03517    0.00401    0.00855   -0.00400
O4    4    0.936199    1.544906    0.122877    11.00000    0.07411    0.04891 =
         0.05510    0.01208    0.01990   -0.00415
C18   1    0.941535    1.107999    0.171613    11.00000    0.04571    0.04174 =
         0.03864   -0.00326    0.01237   -0.00439
C1    1    0.511892    1.223789    0.144522    11.00000    0.03871    0.04098 =
         0.03418    0.00506    0.00364    0.00804
N2    3    0.770566    1.288373    0.123938    11.00000    0.03982    0.04771 =
         0.02953   -0.00160    0.00888   -0.00126
C21   1    0.971134    1.423156    0.168855    11.00000    0.04910    0.04431 =
         0.03466   -0.00250    0.01748   -0.00534
C14   1    1.116804    1.530276    0.457825    11.00000    0.04042    0.06946 =
         0.04188   -0.01374    0.00284   -0.00701
AFIX  43
H14   2    1.185905    1.502519    0.501795    11.00000   -1.20000
AFIX   0
O1    4    0.733725    1.063956    0.332771    11.00000    0.04092    0.06836 =
         0.04006    0.02118    0.00038   -0.00767
C10   1    0.876700    1.299391    0.278860    11.00000    0.03182    0.03993 =
         0.02924   -0.00051    0.00887    0.00044
AFIX  13
H10   2    0.898919    1.190135    0.309398    11.00000   -1.20000
AFIX   0
C5    1    0.504218    1.478781    0.060132    11.00000    0.05734    0.04761 =
         0.04630    0.01046    0.00772    0.00445
AFIX  43
H5    2    0.541883    1.572843    0.045515    11.00000   -1.20000
AFIX   0
C6    1    0.568796    1.363370    0.121022    11.00000    0.03926    0.04173 =
         0.03094   -0.00246    0.00572    0.00271
C12   1    0.948077    1.439428    0.336710    11.00000    0.03607    0.04389 =
         0.02891   -0.00225    0.00862   -0.00472
C28   1    0.557569    0.784599    0.459984    11.00000    0.04951    0.06683 =
         0.05813    0.01834    0.01087   -0.00498
AFIX  43
H28   2    0.611707    0.739247    0.509945    11.00000   -1.20000
AFIX   0
C8    1    0.740358    1.323017    0.258155    11.00000    0.03436    0.04441 =
         0.03060   -0.00242    0.00802   -0.00136
AFIX  13
H8    2    0.725133    1.408128    0.298121    11.00000   -1.20000
AFIX   0
C15   1    1.077477    1.694751    0.447663    11.00000    0.05691    0.05783 =
         0.05045   -0.01761    0.00764   -0.01012
AFIX  43
H15   2    1.120058    1.779332    0.484898    11.00000   -1.20000
AFIX   0
C25   1    0.398842    0.922034    0.312641    11.00000    0.03762    0.05993 =
         0.05681    0.00194    0.00328    0.00287
AFIX  43
H25   2    0.345144    0.969541    0.263101    11.00000   -1.20000
AFIX   0
C16   1    0.974538    1.737150    0.382302    11.00000    0.06560    0.04413 =
         0.04717   -0.00639    0.01352   -0.00618
AFIX  43
H16   2    0.947674    1.849432    0.375439    11.00000   -1.20000
AFIX   0
O2    4    0.965156    0.994413    0.222241    11.00000    0.12978    0.04228 =
         0.05328    0.01089    0.04254    0.01357
C13   1    1.053079    1.404479    0.402141    11.00000    0.03695    0.04530 =
         0.04176   -0.00059    0.00681    0.00232
C2    1    0.390816    1.208441    0.107794    11.00000    0.03301    0.05885 =
         0.06161    0.00939    0.00441    0.00062
AFIX  43
H2A   2    0.350981    1.120682    0.125640    11.00000   -1.20000
AFIX   0
C26   1    0.368568    0.900279    0.387749    11.00000    0.04915    0.06518 =
         0.06787   -0.00145    0.02334   -0.00589
AFIX  43
H26   2    0.293672    0.931783    0.388058    11.00000   -1.20000
AFIX   0
C3    1    0.329521    1.323032    0.044923    11.00000    0.03764    0.07734 =
         0.06967    0.01391   -0.00117    0.01074
AFIX  43
H3    2    0.248991    1.308253    0.018754    11.00000   -1.20000
AFIX   0
C4    1    0.384598    1.457806    0.020269    11.00000    0.05453    0.07158 =
         0.05744    0.02250   -0.00183    0.01849
AFIX  43
H4    2    0.342493    1.534005   -0.022494    11.00000   -1.20000
AFIX   0
C29   1    0.588261    0.802958    0.384720    11.00000    0.03410    0.05412 =
         0.06251    0.01312    0.00904   -0.00065
AFIX  43
H29   2    0.662186    0.768053    0.383662    11.00000   -1.20000
AFIX   0
C30   1    0.413825    0.809255    0.545532    11.00000    0.08412    0.09921 =
         0.07592    0.01134    0.03443   -0.01681
AFIX 137
H30A  2    0.411113    0.689442    0.557675    11.00000   -1.50000
H30B  2    0.338041    0.859342    0.538198    11.00000   -1.50000
H30C  2    0.471648    0.863882    0.593470    11.00000   -1.50000
AFIX   0
C19   1    0.992993    0.942358    0.064638    11.00000    0.04881    0.04484 =
         0.04557   -0.01120    0.01658   -0.00051
AFIX  23
H19A  2    0.961064    0.927653    0.001648    11.00000   -1.20000
H19B  2    0.966852    0.847037    0.092521    11.00000   -1.20000
AFIX   0
C27   1    0.446386    0.833039    0.462445    11.00000    0.05395    0.06162 =
         0.05765    0.00748    0.01978   -0.01096
C23   1    1.284465    1.461600    0.274386    11.00000    0.05036    0.09936 =
         0.11464   -0.02078    0.01710   -0.02579
AFIX 137
H23A  2    1.304871    1.354710    0.253529    11.00000   -1.50000
H23B  2    1.278644    1.446569    0.332266    11.00000   -1.50000
H23C  2    1.344123    1.544836    0.276017    11.00000   -1.50000
AFIX   0
C22   1    1.169203    1.521657    0.214379    11.00000    0.06988    0.07059 =
         0.07123   -0.00759    0.02503   -0.03189
AFIX  23
H22A  2    1.146615    1.628264    0.235544    11.00000   -1.20000
H22B  2    1.174508    1.540291    0.155968    11.00000   -1.20000
AFIX   0
C20   1    1.123789    0.943533    0.090935    11.00000    0.04288    0.09479 =
         0.08581    0.00274    0.01712    0.00578
AFIX 137
H20A  2    1.150725    0.842159    0.069378    11.00000   -1.50000
H20B  2    1.155343    0.946729    0.153712    11.00000   -1.50000
H20C  2    1.149723    1.042470    0.066689    11.00000   -1.50000
AFIX   0
C17   1    0.912775    1.610422    0.327763    11.00000    0.04875    0.04655 =
         0.03912   -0.00099    0.00296   -0.00332
AFIX  43
H17   2    0.844755    1.639799    0.283123    11.00000   -1.20000
AFIX   0
H2    2    0.777424    1.328530    0.077874    11.00000    0.05351
HKLF 4

REM  yangyj0527 in P21 #4
REM R1 =  0.0441 for    3527 Fo > 4sig(Fo)  and  0.0552 for all    4247 data
REM    377 parameters refined using      1 restraints

END

WGHT      0.0315      0.0000

REM Instructions for potential hydrogen bonds
EQIV $1 x, y+1, z
HTAB C7 O7_$1
EQIV $2 -x+2, y+1/2, -z+1
HTAB C14 O1_$2
HTAB C10 Cl1
HTAB C10 O2
HTAB C2 O6
EQIV $3 x, y-1, z
HTAB C19 O4_$3

REM Highest difference peak  0.181,  deepest hole -0.257,  1-sigma level  0.039
Q1    1   1.0205  1.4229  0.3234  11.00000  0.05    0.18
Q2    1   0.7198  1.6070  0.1800  11.00000  0.05    0.16
Q3    1   0.6378  1.3829  0.1483  11.00000  0.05    0.15
Q4    1   0.4573  0.8420  0.0866  11.00000  0.05    0.15
Q5    1   1.1847  1.8840  0.4944  11.00000  0.05    0.15
Q6    1   0.8430  1.1891  0.0453  11.00000  0.05    0.15
Q7    1   1.0493  1.5030  0.1264  11.00000  0.05    0.14
Q8    1   1.1003  0.9753  0.3090  11.00000  0.05    0.14
Q9    1   0.7391  1.3732  0.2175  11.00000  0.05    0.14
Q10   1   1.1426  1.0711  0.1227  11.00000  0.05    0.14
Q11   1   1.1250  0.7008  0.0073  11.00000  0.05    0.14
Q12   1   0.6009  0.7070  0.1252  11.00000  0.05    0.14
Q13   1   1.0229  1.1853  0.4327  11.00000  0.05    0.13
Q14   1   0.6764  0.8796  0.3629  11.00000  0.05    0.13
Q15   1   0.8968  1.0414  0.1967  11.00000  0.05    0.13
Q16   1   1.0623  2.0000  0.5131  11.00000  0.05    0.13
Q17   1   0.5959  0.7301  0.6190  11.00000  0.05    0.13
Q18   1   0.6788  1.1043  0.2056  11.00000  0.05    0.12
Q19   1   0.9445  1.3312  0.1532  11.00000  0.05    0.12
Q20   1   0.4182  0.5664  0.4616  11.00000  0.05    0.12
;
_shelx_res_checksum              9673
_shelx_hkl_file
;
   0 -10   0 4274.79 850.923   2
   0 -10   1 15.8035 156.151   2
   0 -10  -1 61.4968 83.6974   2
   0 -10  -2 1151.28 446.634   2
   0 -10   2 1377.74 496.816   2
   0 -10   3 1927.22 582.362   2
   0 -10  -3 1503.20 515.364   2
   0 -10   4 292.963 226.702   2
   0 -10  -4 314.276 240.914   2
   0 -10  -5 2325.97 643.983   2
   0  -9   0 170.931 106.329   2
   0  -9  -1 2442.64 595.329   2
   0  -9   1 3786.60 753.245   2
   0  -9  -2 828.591 355.739   2
   0  -9   2 1344.30 466.486   2
   0  -9   3 1188.82 428.863   2
   0  -9  -3 1103.88 425.746   2
   0  -9  -4 995.267 391.814   2
   0  -9   4 1262.74 440.708   2
   0  -9  -5 697.744 351.406   2
   0  -9   5-28.7360 108.214   2
   0  -9   6 263.729 233.528   2
   0  -9  -6 764.080 343.212   2
   0  -9  -7 311.008 263.098   2
   0  -9   7 226.131 172.765   2
   0  -9  -8 817.152 419.361   2
   0  -9   8 1799.63 531.119   2
   0  -9  -9 271.005 286.119   2
   0  -8   0 775.243 301.648   2
   0  -8  -1 1496.05 444.327   2
   0  -8   1 1852.31 492.158   2
   0  -8   2 8899.15 1094.75   2
   0  -8  -2 8865.93 1108.67   2
   0  -8  -3 2918.02 645.565   2
   0  -8   3 4414.93 765.810   2
   0  -8   4 1177.46 403.793   2
   0  -8  -4 1528.58 468.886   2
   0  -8   5 2278.77 555.378   2
   0  -8  -5 1937.45 525.039   2
   0  -8   6 640.166 290.309   2
   0  -8  -6 878.966 352.893   2
   0  -8   7 3928.70 769.449   2
   0  -8  -7 3263.49 716.628   2
   0  -8   8 144.824 75.4687   2
   0  -8  -8-46.7837 155.685   2
   0  -8  -9 154.937 163.960   2
   0  -8   9-85.5378 102.446   2
   0  -8 -10 1048.18 460.756   2
   0  -8  10 1112.05 442.583   2
   0  -8 -11 576.594 378.237   2
   0  -8  11 227.172 178.645   2
   0  -7   0 1312.01 433.336   2
   0  -7  -1 1306.25 401.543   2
   0  -7   1 1717.36 451.260   2
   0  -7   2 10833.1 1124.71   2
   0  -7  -2 8848.72 1027.14   2
   0  -7   3 7048.91 914.446   2
   0  -7  -3 5775.95 838.857   2
   0  -7  -4 3312.93 638.295   2
   0  -7   4 3925.42 687.093   2
   0  -7  -5 3114.30 629.473   2
   0  -7   5 2442.39 543.650   2
   0  -7   6 1132.03 395.821   2
   0  -7  -6 1123.95 379.335   2
   0  -7  -7 659.299 325.902   2
   0  -7   7 577.150 279.146   2
   0  -7  -8 1491.04 475.288   2
   0  -7   8 1356.91 416.697   2
   0  -7   9 689.119 320.716   2
   0  -7  -9 456.796 248.255   2
   0  -7 -10 2871.18 689.312   2
   0  -7  10 3513.50 708.604   2
   0  -7 -11 233.857 222.251   2
   0  -7  11 68.8309 187.122   2
   0  -7 -12 447.501 312.630   2
   0  -7  12 811.248 377.512   2
   0  -7 -13 116.749 161.508   2
   0  -7  13 192.811 157.993   2
   0  -7 -14 1193.54 482.022   2
   0  -6   0 11005.6 1061.49   2
   0  -6   1 4304.77 652.020   2
   0  -6  -1 4960.82 695.034   2
   0  -6   2 4587.83 667.376   2
   0  -6  -2 4728.35 687.956   2
   0  -6   3 9162.25 981.027   2
   0  -6  -3 9015.89 977.352   2
   0  -6  -4 21078.7 1530.76   2
   0  -6   4 18634.2 1452.55   2
   0  -6  -5 6683.92 875.047   2
   0  -6   5 6752.12 854.691   2
   0  -6  -6 10499.8 1117.87   2
   0  -6   6 10075.0 1065.48   2
   0  -6   7 9104.46 1036.28   2
   0  -6  -7 9304.32 1076.99   2
   0  -6  -8 2084.11 498.730   2
   0  -6   8 1628.38 441.404   2
   0  -6  -9 5728.28 887.640   2
   0  -6   9 5697.29 855.106   2
   0  -6  10 3717.16 691.875   2
   0  -6 -10 4784.16 825.257   2
   0  -6  11 8056.88 1044.69   2
   0  -6  12 1448.38 472.543   2
   0  -6  13 529.460 328.174   2
   0  -6  14 957.570 401.220   2
   0  -6  15 76.7406 209.566   2
   0  -5   0 196.140 130.868   2
   0  -5  -1 5900.82 697.235   2
   0  -5   1 6910.05 765.245   2
   0  -5  -2 21691.8 1402.61   2
   0  -5   2 19624.9 1327.89   2
   0  -5  -3 6335.48 739.574   2
   0  -5   3 6268.39 737.083   2
   0  -5   4 10288.5 976.904   2
   0  -5  -4 11166.8 1012.30   2
   0  -5  -5 11765.4 1068.21   2
   0  -5   5 11084.0 1010.60   2
   0  -5  -6 43.7104 128.950   2
   0  -5   6 89.0234 85.8587   2
   0  -5  -7 14080.1 1236.86   2
   0  -5   7 13833.7 1199.02   2
   0  -5   8 6280.08 811.574   2
   0  -5   9-72.5988 93.0252   2
   0  -5  10 3332.54 605.311   2
   0  -5  11 4209.68 716.888   2
   0  -5  12 3182.46 636.247   2
   0  -5  13 7068.50 969.967   2
   0  -5  14-91.9836 166.044   2
   0  -5  15 378.505 244.509   2
   0  -5  16 1325.64 440.921   2
   0  -4   0 28957.8 1470.74   2
   0  -4   1 6924.20 684.514   2
   0  -4  -1 7505.60 710.215   2
   0  -4   2 45241.4 1945.22   2
   0  -4  -2 48072.6 2001.09   2
   0  -4   3 14810.5 1042.94   2
   0  -4  -3 12898.0 977.140   2
   0  -4  -4 4922.63 599.489   2
   0  -4   4 4644.80 594.545   2
   0  -4   5 19810.4 1271.22   2
   0  -4   6 10621.1 936.056   2
   0  -4   7 5223.70 655.746   2
   0  -4   8 12509.7 1072.07   2
   0  -4   9 3158.02 556.058   2
   0  -4  10 8212.25 912.932   2
   0  -4  11 4443.38 691.642   2
   0  -4  12 6708.83 874.495   2
   0  -4  13-114.735 142.299   2
   0  -4  14 4054.20 723.201   2
   0  -4  15 970.343 367.700   2
   0  -4  16 2012.59 523.468   2
   0  -4  17 1229.02 422.670   2
   0  -3   0-22.3120 72.8963   2
   0  -3  -1 34666.9 1477.53   2
   0  -3   1 36887.2 1535.94   2
   0  -3   2 12364.4 831.513   2
   0  -3  -2 12068.7 811.879   2
   0  -3  -3 31998.4 1411.76   2
   0  -3   3 27314.3 1168.53   1
   0  -3   3 31399.3 1443.24   2
   0  -3   4 22942.2 1218.52   2
   0  -3   4 21281.7 930.399   1
   0  -3   5 931.150 252.725   2
   0  -3   5 908.101 158.417   1
   0  -3   6 21395.2 848.569   1
   0  -3   6 26504.0 1380.87   2
   0  -3   7 4425.72 562.770   2
   0  -3   8 855.022 252.330   2
   0  -3   9 2344.73 447.949   2
   0  -3  10 12593.7 1073.07   2
   0  -3  11 4558.96 652.289   2
   0  -3  12 3530.29 585.063   2
   0  -3  13 7530.48 889.938   2
   0  -3  14 2660.73 533.978   2
   0  -3  15 4235.59 720.941   2
   0  -3  16 338.027 198.728   2
   0  -3  17 3336.70 685.170   2
   0  -3  18 302.648 238.357   2
   0  -2   0 453846. 9769.13   2
   0  -2  -1 164094. 4023.16   2
   0  -2   1 167177. 4079.71   2
   0  -2   2 76200.3 2072.10   1
   0  -2   2 77015.8 2279.82   2
   0  -2   3 46907.2 1336.53   1
   0  -2   3 48089.6 1637.21   2
   0  -2   4 26269.0 1172.78   2
   0  -2   4 21438.7 777.906   3
   0  -2   4 25027.4 808.927   1
   0  -2   5 26013.9 858.419   3
   0  -2   5 30043.0 1313.53   2
   0  -2   6 27025.4 1307.67   2
   0  -2   7 72773.0 2503.68   2
   0  -2   8 10213.1 834.698   2
   0  -2   9 7543.82 744.153   2
   0  -2  10 702.164 220.081   2
   0  -2  11 8073.44 818.638   2
   0  -2  12 21204.6 1423.29   2
   0  -2  13 7747.69 880.716   2
   0  -2  14 516.421 205.885   2
   0  -2  15 1057.33 327.089   2
   0  -2  16 597.413 253.917   2
   0  -2  17 20.1730 72.8786   2
   0  -2  18 1097.04 377.579   2
   0  -1   1 128266. 2865.56   1
   0  -1   2 131835. 2652.11   1
   0  -1   2 129741. 2955.73   2
   0  -1   3 15786.8 713.268   2
   0  -1   3 14265.5 470.192   3
   0  -1   4 81.6503 64.5382   2
   0  -1   5 343.441 104.831   2
   0  -1   6 48268.5 1733.15   2
   0  -1   7 16653.0 954.691   2
   0  -1   8 97101.2 2977.14   2
   0  -1   9 37810.0 1688.86   2
   0  -1  10 1349.44 294.382   2
   0  -1  11 12060.0 984.875   2
   0  -1  12 26711.2 1569.69   2
   0  -1  13 9627.41 949.251   2
   0  -1  14 14263.2 1220.98   2
   0  -1  15 8104.17 941.773   2
   0  -1  16 3457.15 622.569   2
   0  -1  17 140.105 125.353   2
   0  -1  18 3200.84 655.376   2
   0  -1  19 474.740 287.672   2
   0   0   3 242694. 5266.10   2
   0   0   4 44609.7 1396.63   2
   0   0   5 26130.5 1054.55   2
   0   0   6 31561.9 1268.01   2
   0   0   7 2747.19 374.317   2
   0   0   8 17639.7 1010.79   2
   0   0   9 45001.0 1845.44   2
   0   0  10 7323.58 705.359   2
   0   0  11 15389.0 1093.52   2
   0   0  12 11942.6 998.744   2
   0   0  13 539.610 232.358   2
   0   0  14 538.112 205.315   2
   0   0  15 11049.2 1071.78   2
   0   0  16 4254.90 700.927   2
   0   0  17 1591.47 432.884   2
   0   0  18 4478.03 769.205   2
   0   0  19 662.451 316.034   2
   0   1  -3 15188.0 504.177   3
   0   1  -3 16080.0 517.860   1
   0   1  -4 76.3736 27.5627   3
   0   1  -4 9.23567 26.9366   1
   0   1   4 44.6720 35.2735   2
   0   1   5 343.545 106.537   2
   0   1  -5 402.820 76.0986   3
   0   1   6 50088.9 1705.31   2
   0   1  -6 46853.9 1329.11   3
   0   1   7 15914.8 913.536   2
   0   1   8 98423.0 2979.83   2
   0   1   9 38047.6 1665.68   2
   0   1  10 1416.85 307.755   2
   0   1  11 10800.3 914.355   2
   0   1  12 24236.7 1467.27   2
   0   1  13 9020.55 909.739   2
   0   1 -13 9127.40 699.015   3
   0   1  14 13785.8 1181.82   2
   0   1  15 6826.41 859.490   2
   0   1  16 3278.77 621.906   2
   0   1  17-103.690 141.006   2
   0   1  18 2783.21 622.403   2
   0   2  -4 27045.4 962.076   1
   0   2  -5 29797.9 1027.74   1
   0   2  -6 26024.9 946.580   1
   0   2  -6 25415.6 928.142   3
   0   2  -7 71866.9 1991.92   1
   0   2  -7 73200.6 1987.00   3
   0   2  -8 10328.5 598.921   1
   0   2  -8 10529.2 580.885   3
   0   2  -9 8721.88 550.436   3
   0   2  -9 9050.30 581.922   1
   0   2 -10 970.466 180.018   3
   0   2 -10 1041.75 202.292   1
   0   2 -11 8041.35 612.704   1
   0   2 -11 8271.46 582.562   3
   0   2 -12 19461.5 1065.35   1
   0   2 -12 20641.2 1007.40   3
   0   3  -6 23940.4 1078.50   1
   0   3  -7 4305.15 412.666   1
   0   3  -8 912.229 177.467   1
   0   3  -9 2395.26 318.331   1
   0   3 -10 11540.7 747.757   1
   0   3 -11 4129.88 443.302   1
  -1 -10   3 765.738 378.993   2
  -1 -10   2 504.761 316.256   2
   1 -10  -2 177.754 207.932   2
   1 -10  -1 1146.59 418.835   2
  -1 -10   1 734.782 362.881   2
  -1 -10   0 1296.66 472.786   2
   1 -10   0 523.489 279.083   2
   1 -10   1-184.187 227.692   2
  -1 -10  -1-57.5123 178.498   2
  -1 -10  -2 2059.94 616.046   2
   1 -10   2 1120.52 422.406   2
   1 -10   3 47.0117 118.264   2
  -1 -10  -3 141.258 183.987   2
   1 -10   4 161.105 161.942   2
  -1 -10  -4 103.572 95.2862   2
  -1 -10  -5 47.5834 116.705   2
  -1  -9   8 808.389 391.760   2
  -1  -9   7 1611.77 522.887   2
   1  -9  -6 3798.27 761.394   2
  -1  -9   6 4119.32 824.666   2
  -1  -9   5-84.2953 184.772   2
   1  -9  -5-197.352 186.761   2
   1  -9  -4 2180.72 575.385   2
  -1  -9   4 2847.62 673.754   2
   1  -9  -3 816.978 358.375   2
  -1  -9   3 379.398 254.148   2
  -1  -9   2 411.848 264.472   2
   1  -9  -2 434.187 270.894   2
   1  -9  -1 5153.18 859.720   2
  -1  -9   1 6833.59 1044.86   2
  -1  -9   0 102.126 117.705   2
   1  -9   0 95.3303 193.937   2
   1  -9   1 4092.29 757.273   2
  -1  -9  -1 2552.59 668.664   2
   1  -9   2 326.194 229.377   2
  -1  -9  -2 337.104 255.246   2
   1  -9   3 1768.57 510.324   2
  -1  -9  -3 1086.76 410.450   2
   1  -9   4 898.657 354.812   2
  -1  -9  -4 394.524 251.274   2
   1  -9   5 819.329 371.783   2
  -1  -9  -5 1655.67 525.171   2
   1  -9   6 132.941 172.058   2
  -1  -9  -6 322.650 214.102   2
  -1  -9  -7 552.396 324.795   2
   1  -9   7 700.876 329.346   2
   1  -9   8 194.505 183.351   2
  -1  -9  -8 2.24327 212.022   2
  -1  -9  -9-110.643 225.465   2
  -1  -8  11 293.957 208.159   2
  -1  -8  10 501.473 321.264   2
   1  -8  -9 390.907 262.569   2
  -1  -8   9 791.660 342.821   2
   1  -8  -8 355.866 226.307   2
  -1  -8   8 641.283 350.721   2
  -1  -8   7 2588.62 620.014   2
   1  -8  -7 2545.82 602.378   2
  -1  -8   6 1281.14 405.898   2
   1  -8  -6 1011.09 364.089   2
  -1  -8   5 1037.50 379.396   2
   1  -8  -5 724.769 307.186   2
   1  -8  -4 2075.21 508.276   2
  -1  -8   4 1985.87 533.722   2
  -1  -8   3 303.036 249.134   2
   1  -8  -3 948.538 367.429   2
   1  -8  -2 22.6326 114.502   2
  -1  -8   2 311.647 206.042   2
  -1  -8   1-146.677 184.352   2
   1  -8  -1 237.403 201.063   2
  -1  -8   0 4199.49 769.193   2
   1  -8   0 3099.08 631.027   2
   1  -8   1 4146.98 725.389   2
  -1  -8  -1 3705.07 724.546   2
  -1  -8  -2 1743.68 496.172   2
   1  -8   2 1589.67 441.797   2
   1  -8   3 2656.73 587.222   2
  -1  -8  -3 2038.58 540.205   2
   1  -8   4 651.444 287.661   2
  -1  -8  -4 989.114 382.116   2
  -1  -8  -5 946.986 381.262   2
   1  -8   5 904.482 389.795   2
  -1  -8  -6-73.8756 194.684   2
   1  -8   6 288.859 189.456   2
  -1  -8  -7 749.134 333.092   2
   1  -8   7 1005.88 365.287   2
   1  -8   8 2409.44 599.669   2
  -1  -8  -8 2160.43 627.727   2
  -1  -8  -9 564.143 368.824   2
   1  -8   9 858.804 359.895   2
   1  -8  10 179.305 175.144   2
  -1  -8 -10 574.008 348.675   2
   1  -8  11 504.017 269.466   2
  -1  -8 -11 635.767 382.486   2
  -1  -8 -12-39.9010 106.006   2
  -1  -7  13 1219.90 457.794   2
   1  -7 -12-48.0631 159.198   2
  -1  -7  12-113.697 267.021   2
   1  -7 -11 1066.05 404.643   2
  -1  -7  11 622.754 276.567   2
   1  -7 -10 1421.12 461.384   2
  -1  -7  10 869.554 336.439   2
  -1  -7   9 2800.06 618.633   2
   1  -7  -9 2455.89 571.014   2
   1  -7  -8 2114.15 531.405   2
  -1  -7   8 2271.24 542.914   2
   1  -7  -7 1768.71 472.219   2
  -1  -7   7 2228.68 543.924   2
   1  -7  -6 2672.43 567.713   2
  -1  -7   6 2295.57 536.699   2
  -1  -7   5 5975.70 884.787   2
   1  -7  -5 7147.12 915.543   2
  -1  -7   4 5995.97 874.951   2
   1  -7  -4 5752.40 803.013   2
  -1  -7   3 1241.14 380.279   2
   1  -7  -3 586.900 246.296   2
  -1  -7   2 18660.3 1539.02   2
   1  -7  -2 18386.9 1476.63   2
   1  -7  -1 15165.9 1324.21   2
  -1  -7   1 14255.6 1353.65   2
  -1  -7   0 1511.62 454.954   2
   1  -7   0 1560.20 394.042   2
   1  -7   1 6396.82 841.725   2
  -1  -7  -1 6311.33 900.451   2
   1  -7   2 5055.96 759.910   2
  -1  -7  -2 5670.40 854.993   2
  -1  -7  -3-253.672 225.253   2
   1  -7   3 19.3348 166.754   2
  -1  -7  -4 1423.51 423.690   2
   1  -7   4 1201.00 374.774   2
  -1  -7  -5 1126.07 391.333   2
   1  -7   5 2068.35 496.055   2
  -1  -7  -6 3203.46 695.038   2
   1  -7   6 2407.57 548.824   2
  -1  -7  -7 381.104 320.945   2
   1  -7   7 299.496 220.873   2
   1  -7   8 2241.84 546.654   2
  -1  -7  -8 2404.69 618.429   2
   1  -7   9 1175.28 386.867   2
  -1  -7  -9 1153.74 407.756   2
  -1  -7 -10 211.158 189.416   2
   1  -7  10-31.7514 121.467   2
   1  -7  11 1974.04 555.419   2
  -1  -7 -11 1857.72 572.822   2
   1  -7  12 34.6687 119.506   2
  -1  -7 -12 819.881 411.882   2
  -1  -7 -13 790.834 402.537   2
   1  -7  13 433.906 265.735   2
  -1  -7 -14 103.256 192.043   2
  -1  -6  15-175.313 228.069   2
  -1  -6  14 3401.92 712.662   2
  -1  -6  13 81.2132 143.897   2
  -1  -6  12 2050.80 531.700   2
   1  -6 -11 3246.19 663.648   2
  -1  -6  11 3551.29 689.057   2
  -1  -6  10 2714.79 587.935   2
   1  -6 -10 2432.06 563.699   2
   1  -6  -9 3452.53 646.933   2
  -1  -6   9 3718.39 679.860   2
  -1  -6   8 1421.25 437.235   2
   1  -6  -8 902.270 307.572   2
   1  -6  -7 3077.55 591.937   2
  -1  -6   7 2819.40 560.715   2
  -1  -6   6 7942.05 941.963   2
   1  -6  -6 7558.11 915.320   2
   1  -6  -5 17298.5 1350.59   2
  -1  -6   5 16110.2 1366.52   2
   1  -6  -4 4607.02 678.311   2
  -1  -6   4 3986.48 649.984   2
   1  -6  -3 3031.53 534.674   2
  -1  -6   3 2937.62 548.580   2
  -1  -6   2 8562.62 964.197   2
   1  -6  -2 9653.74 970.889   2
   1  -6  -1 1389.55 340.934   2
  -1  -6   1 1261.65 325.794   2
  -1  -6   0 3074.37 553.788   2
   1  -6   0 2737.52 494.523   2
  -1  -6  -1 39612.4 2184.24   2
   1  -6   1 42535.5 2130.34   2
   1  -6   2 28121.5 1717.58   2
  -1  -6  -2 27067.5 1808.59   2
  -1  -6  -3 5670.99 805.027   2
   1  -6   3 5228.59 722.834   2
  -1  -6  -4 24508.8 1751.75   2
   1  -6   4 25185.6 1644.68   2
  -1  -6  -5 9188.70 1063.68   2
   1  -6   5 8569.47 954.711   2
  -1  -6  -6 8306.02 1046.57   2
   1  -6   6 6535.16 844.030   2
   1  -6   7 8765.26 985.666   2
  -1  -6  -7 8368.08 1073.67   2
   1  -6   8 1207.95 387.014   2
  -1  -6  -8 986.566 370.467   2
   1  -6   9 6330.42 895.654   2
  -1  -6  -9 7742.21 1068.51   2
   1  -6  10 145.630 161.125   2
   1  -6  11 806.555 356.626   2
   1  -6  12 2265.42 566.037   2
   1  -6  13 171.295 250.558   2
   1  -6  14 1302.01 447.228   2
  -1  -5  16 263.408 249.154   2
  -1  -5  15 1415.00 447.055   2
  -1  -5  14 3698.12 736.882   2
  -1  -5  13 3659.70 700.122   2
  -1  -5  12 11933.7 1248.02   2
  -1  -5  11 4538.61 732.984   2
  -1  -5  10 11814.5 1176.55   2
  -1  -5   9 14228.2 1256.13   2
   1  -5  -8 5898.47 757.838   2
  -1  -5   8 6256.52 822.121   2
  -1  -5   7 1790.53 426.859   2
   1  -5  -7 2365.23 469.573   2
  -1  -5   6 62863.7 2732.56   2
   1  -5  -6 62020.6 2640.12   2
  -1  -5   5 2128.79 450.061   2
   1  -5  -5 2118.32 438.209   2
  -1  -5   4 3962.49 593.876   2
   1  -5  -4 3190.57 503.672   2
   1  -5  -3 8428.57 821.985   2
  -1  -5   3 6636.52 764.885   2
  -1  -5   2 12228.6 1062.24   2
   1  -5  -2 9784.13 873.020   2
   1  -5  -1 26245.4 1488.05   2
  -1  -5   1 25438.7 1554.07   2
  -1  -5   0 3649.41 564.400   2
   1  -5   0 3214.55 498.613   2
  -1  -5  -1 19207.4 1366.59   2
   1  -5   1 20433.3 1300.03   2
  -1  -5  -2 15965.0 1245.61   2
   1  -5   2 16057.9 1166.05   2
  -1  -5  -3 33725.6 1877.76   2
   1  -5   3 30719.1 1707.19   2
  -1  -5  -4 13360.1 1175.38   2
   1  -5   4 13657.8 1092.87   2
   1  -5   5 4979.82 666.794   2
  -1  -5  -5 5077.09 733.955   2
   1  -5   6 10320.4 990.429   2
  -1  -5  -6 9983.24 1049.22   2
   1  -5   7 6819.80 813.969   2
   1  -5   8 5053.55 744.191   2
   1  -5   9 6542.50 847.143   2
   1  -5  10 35217.2 2108.16   2
   1  -5  11 537.925 268.339   2
   1  -5  12 4360.58 745.196   2
   1  -5  13 10609.6 1193.80   2
   1  -5  14 449.951 267.367   2
   1  -5  15 5061.52 842.590   2
  -1  -4  17 2338.42 593.865   2
  -1  -4  16-45.5447 98.4197   2
  -1  -4  15 2089.34 517.119   2
  -1  -4  14 2744.86 581.467   2
  -1  -4  13 2359.42 529.579   2
  -1  -4  12 8685.87 999.364   2
  -1  -4  11 8407.82 954.194   2
  -1  -4  10 2607.95 516.614   2
  -1  -4   9 5889.22 734.698   2
  -1  -4   8 7380.21 816.075   2
  -1  -4   7 8593.15 871.763   2
  -1  -4   6 11549.8 982.174   2
  -1  -4   5 36988.0 1842.44   2
   1  -4  -5 36430.1 1718.90   2
  -1  -4   4 4801.71 606.287   2
   1  -4  -4 4327.25 526.468   2
   1  -4  -3 26618.3 1381.07   2
  -1  -4   3 27566.7 1498.32   2
   1  -4  -2 25728.3 1337.47   2
  -1  -4   2 26353.3 1464.39   2
  -1  -4   1 823.076 231.604   2
   1  -4  -1 901.828 243.755   2
   1  -4   0 48018.5 1952.94   2
  -1  -4   0 49614.6 2104.38   2
  -1  -4  -1 212884. 5677.32   2
   1  -4   1 207363. 5436.10   2
  -1  -4  -2 64760.7 2530.25   2
   1  -4   2 66376.9 2431.67   2
   1  -4   3 8936.54 797.902   2
  -1  -4  -3 11290.5 947.763   2
  -1  -4  -4 2328.69 443.831   2
   1  -4   4 2458.80 417.214   2
   1  -4   5 18398.8 1220.44   2
   1  -4   6 441.072 200.715   2
   1  -4   6 314.551 84.1531   1
   1  -4   7 8079.50 838.644   2
   1  -4   8 5911.83 731.307   2
   1  -4   9 9954.86 987.421   2
   1  -4  10 12396.9 1133.95   2
   1  -4  11 2523.35 510.583   2
   1  -4  12 15288.8 1337.09   2
   1  -4  13 649.678 324.331   2
   1  -4  14 1261.58 392.457   2
   1  -4  15 341.142 189.565   2
   1  -4  16 335.889 150.625   2
  -1  -3  18 1637.59 487.078   2
  -1  -3  17 2391.18 572.511   2
  -1  -3  16 4139.25 724.858   2
  -1  -3  15 1159.56 353.762   2
  -1  -3  14 1108.60 327.402   2
  -1  -3  13 12509.2 1166.30   2
  -1  -3  12 1717.12 398.547   2
  -1  -3  11 4296.66 626.588   2
  -1  -3  10 1079.76 291.847   2
  -1  -3   9 2597.23 464.027   2
  -1  -3   8 11549.7 955.053   2
  -1  -3   7 33207.6 1618.94   2
  -1  -3   7 25282.7 850.471   3
  -1  -3   6 21143.5 1234.39   2
  -1  -3   6 16809.4 672.048   3
  -1  -3   5 13791.2 943.873   2
  -1  -3   5 10288.4 547.660   3
  -1  -3   4 43711.6 1843.92   2
  -1  -3   3 54130.2 2042.22   2
   1  -3  -3 52843.2 1877.79   2
  -1  -3   2 9568.63 755.223   2
   1  -3  -2 9634.90 676.037   2
  -1  -3   1 43702.8 1765.96   2
   1  -3  -1 43333.8 1612.54   2
   1  -3   0 80789.6 2484.04   2
  -1  -3   0 79007.0 2599.89   2
  -1  -3  -1 185051. 4904.74   2
   1  -3   1 190457. 4732.09   2
  -1  -3  -2 5748.09 577.440   2
   1  -3   2 6033.40 559.852   2
   1  -3   3 22123.0 920.296   1
   1  -3   3 23694.1 1194.72   2
   1  -3   4 2301.03 230.821   1
   1  -3   4 2810.71 398.906   2
   1  -3   5 43351.8 1774.09   2
   1  -3   5 36677.0 1090.08   1
   1  -3   6 17820.3 1131.52   2
   1  -3   7 5988.06 659.403   2
   1  -3   8 8358.41 815.783   2
   1  -3   9 944.294 284.885   2
   1  -3  10 409.582 189.883   2
   1  -3  11 5653.00 733.601   2
   1  -3  12 21547.2 1514.07   2
   1  -3  13 1786.14 457.750   2
   1  -3  14 6790.50 904.553   2
   1  -3  15 2550.73 572.733   2
   1  -3  16 3139.95 642.667   2
   1  -3  17 1828.52 498.896   2
  -1  -2  19 416.186 220.601   2
  -1  -2  18 720.935 298.869   2
  -1  -2  17 95.1555 76.7749   2
  -1  -2  16 705.815 289.405   2
  -1  -2  15 141.401 69.0541   2
  -1  -2  14 10.0088 102.706   2
  -1  -2  13 1566.11 362.623   2
  -1  -2  12 2336.75 434.034   2
  -1  -2  11 10016.9 915.240   2
  -1  -2  10 25526.3 1460.90   2
  -1  -2   9 58463.0 2304.43   2
  -1  -2   8 8738.71 760.157   2
  -1  -2   7 26600.8 1347.86   2
  -1  -2   6 3097.66 410.507   2
  -1  -2   5 2383.31 252.811   1
  -1  -2   5 2245.48 339.404   2
  -1  -2   5 1995.80 150.227   3
  -1  -2   4 129161. 3169.49   1
  -1  -2   4 130313. 3533.86   2
  -1  -2   3 235952. 5408.61   1
  -1  -2   3 240637. 5673.00   2
   1  -2  -2 19524.1 831.907   2
  -1  -2   2 20672.1 997.155   2
  -1  -2   2 19185.1 907.042   1
  -1  -2   1 143593. 3671.16   2
  -1  -2   1 141001. 3677.26   1
   1  -2  -1 142227. 3436.59   2
   1  -2   0 409286. 8782.54   2
  -1  -2   0 409142. 8996.03   2
  -1  -2  -1 17503.7 898.256   2
   1  -2   1 17823.2 829.306   2
   1  -2   2 7920.58 549.906   2
   1  -2   2 6411.42 442.671   3
   1  -2   3 23181.0 698.330   1
   1  -2   3 20510.3 851.302   3
   1  -2   3 24280.5 1064.09   2
   1  -2   4 24198.0 1107.21   2
   1  -2   4 19635.9 814.311   3
   1  -2   5 66403.5 2232.65   2
   1  -2   6 6500.29 600.526   2
   1  -2   7 22094.0 1228.66   2
   1  -2   8 8319.18 748.924   2
   1  -2   9 14618.1 1061.70   2
   1  -2  10 376.819 178.591   2
   1  -2  11 8491.79 858.433   2
   1  -2  12 6720.60 799.042   2
   1  -2  13 14052.8 1220.28   2
   1  -2  14 814.332 304.038   2
   1  -2  15 1196.18 366.538   2
   1  -2  16 5031.22 795.791   2
   1  -2  17 359.694 252.474   2
   1  -2  18 144.272 81.5261   2
  -1  -1  20-47.6595 136.032   2
  -1  -1  19 534.950 271.617   2
  -1  -1  18 1507.77 443.683   2
  -1  -1  17 321.836 164.688   2
  -1  -1  16 10591.9 1105.76   2
  -1  -1  15 9984.38 1026.37   2
  -1  -1  14 7311.33 826.731   2
  -1  -1  13 3135.18 525.512   2
  -1  -1  12 958.945 260.702   2
  -1  -1  11 38125.5 1802.44   2
  -1  -1  10 14031.4 982.011   2
  -1  -1   9 59194.5 2188.82   2
  -1  -1   8 5118.82 528.020   2
  -1  -1   7 99297.6 2923.29   2
  -1  -1   6 66570.2 2127.29   2
   1  -1  -5 224970. 5172.52   2
  -1  -1   5 225756. 5300.77   2
   1  -1  -4 532916. 11129.6   2
  -1  -1   4 535657. 11357.4   2
  -1  -1   3 202688. 4660.19   2
  -1  -1   3 204842. 4413.33   1
   1  -1  -3 201056. 4382.93   2
  -1  -1   2 142026. 3186.33   1
  -1  -1   2 136296. 3318.91   2
   1  -1  -1 411375. 8418.40   2
  -1  -1   1 415528. 8679.96   1
   1  -1   0 45906.0 1191.14   2
   1  -1   1 257211. 5495.86   2
   1  -1   2 141881. 3333.10   2
   1  -1   3 34090.2 1053.93   3
   1  -1   3 39463.5 1291.26   2
   1  -1   4 61914.6 1908.41   2
   1  -1   5 99585.6 2791.78   2
   1  -1   6 2004.73 302.985   2
   1  -1   7 9928.19 739.455   2
   1  -1   8 24078.7 1276.01   2
   1  -1   9 23879.3 1334.71   2
   1  -1  10 27222.8 1501.64   2
   1  -1  11 20625.5 1339.71   2
   1  -1  12 8476.03 869.836   2
   1  -1  13 2450.36 499.747   2
   1  -1  14 270.200 189.015   2
   1  -1  15 1451.03 392.454   2
   1  -1  16 2524.79 546.748   2
   1  -1  17 4356.60 748.969   2
   1  -1  18 439.044 280.270   2
  -1   0  20 808.170 359.209   2
  -1   0  19 7843.69 1028.68   2
  -1   0  18 524.459 283.025   2
  -1   0  17 5707.20 811.103   2
  -1   0  16 1609.59 411.527   2
  -1   0  15-48.0474 147.736   2
  -1   0  14-12.9869 74.8318   2
  -1   0  13 3644.95 543.712   2
  -1   0  12 32983.3 1697.68   2
  -1   0  11 11876.7 915.013   2
  -1   0  10 7667.54 693.879   2
  -1   0   9 12294.2 840.031   2
  -1   0   8 116.419 92.4996   2
  -1   0   7 4393.52 429.901   2
  -1   0   6 15126.4 777.908   2
  -1   0   5 116373. 2917.90   2
  -1   0   4 101971. 2508.40   2
  -1   0   3 174800. 3835.35   2
   1   0   2 44463.8 1267.91   2
   1   0   3 99662.4 2523.62   2
   1   0   4 43443.7 1450.99   2
   1   0   5 28827.5 1188.56   2
   1   0   6 48352.4 1734.57   2
   1   0   7 786.320 206.747   2
   1   0   8 46207.6 1859.39   2
   1   0   9 65.1487 101.409   2
   1   0  10 101.909 132.518   2
   1   0  11 4299.88 568.646   2
   1   0  12 51632.5 2314.69   2
   1   0  13 3952.95 600.697   2
   1   0  14 7634.63 890.102   2
   1   0  15 2478.03 518.710   2
   1   0  16 506.706 219.696   2
   1   0  17 418.077 197.466   2
   1   0  18 154.843 176.797   2
   1   0  19-50.0549 67.9169   2
  -1   1  20-218.430 184.852   2
  -1   1  19 576.335 244.565   2
  -1   1  18 1350.69 412.903   2
  -1   1  17 639.331 236.848   2
  -1   1  16 11741.7 1135.32   2
  -1   1  15 9983.78 1004.19   2
  -1   1  14 5549.39 702.509   2
  -1   1  13 2709.83 470.035   2
  -1   1  12 955.042 266.606   2
  -1   1  11 36337.6 1698.57   2
  -1   1  10 13188.3 916.113   2
  -1   1   9 57187.0 2052.14   2
  -1   1   8 5826.10 523.495   2
  -1   1   7 96400.9 2723.90   2
  -1   1   6 68534.1 2068.94   2
   1   1  -6 72960.5 1983.71   1
  -1   1   5 236381. 5257.80   2
   1   1  -5 229965. 5148.89   1
  -1   1   4 565938. 11721.9   2
  -1   1  -1 245055. 5251.01   3
  -1   1  -2 139855. 3170.24   3
  -1   1  -3 38184.2 1120.11   3
  -1   1  -4 60838.9 1631.88   3
  -1   1  -5 96253.2 2436.86   3
   1   1   5 98362.5 2781.45   2
  -1   1  -6 1863.44 229.182   3
   1   1   6 2430.45 344.534   2
   1   1   7 9921.91 753.903   2
  -1   1  -7 10029.2 585.518   3
  -1   1  -8 24366.1 1026.42   3
   1   1   8 23327.1 1265.04   2
   1   1   9 21437.5 1256.82   2
  -1   1  -9 21352.1 1002.64   3
  -1   1 -10 28556.2 1238.26   3
   1   1  10 27412.5 1513.06   2
   1   1  11 19256.4 1299.99   2
  -1   1 -11 20839.8 1083.99   3
   1   1  12 8566.89 886.192   2
  -1   1 -12 8418.26 695.654   3
  -1   1 -13 3109.09 439.217   3
   1   1  13 2460.58 502.250   2
   1   1  14 233.959 137.002   2
   1   1  15 1349.96 391.208   2
   1   1  16 2247.64 527.512   2
   1   1  17 3916.59 720.995   2
   1   2 -14 111.832 118.203   1
   1   2 -11 9853.05 549.794   3
   1   2 -11 11167.6 775.266   1
   1   2 -10 27352.9 1222.33   1
   1   2 -10 25046.1 922.622   3
   1   2  -9 53568.6 1519.42   3
   1   2  -9 58523.2 1888.04   1
   1   2  -8 7833.44 566.385   1
   1   2  -8 7910.69 407.526   3
   1   2  -7 26252.4 1082.06   1
   1   2  -6 3183.89 325.713   1
   1   2  -5 2585.84 291.282   1
   1   2  -4 131704. 3317.28   1
   1   2  -3 239754. 5521.58   1
  -1   2   1 139751. 3473.89   2
  -1   2  -4 22960.9 946.455   3
  -1   2  -5 69048.3 1944.33   3
  -1   2  -5 62989.7 1618.69   1
  -1   2  -6 6480.00 475.039   3
  -1   2  -6 6218.61 345.206   1
  -1   2  -7 19949.9 926.810   3
  -1   2  -7 19922.6 728.613   1
  -1   2  -8 6986.99 530.447   3
  -1   2  -8 7716.21 443.164   1
  -1   2  -9 14403.9 816.540   3
  -1   2  -9 14409.2 684.493   1
  -1   2 -10 1284.87 203.010   1
  -1   2 -10 267.816 78.9051   3
  -1   2 -11 7417.99 619.668   3
  -1   2 -11 7510.56 545.804   1
  -1   2 -12 6469.49 603.356   3
   1   3 -11 3683.63 470.275   1
   1   3 -10 695.363 186.792   1
   1   3  -9 2145.74 332.212   1
   1   3  -8 9551.74 708.918   1
   1   3  -7 31446.9 1367.68   1
   1   3  -6 19110.7 1013.50   1
   1   3  -5 13527.7 857.356   1
  -1   3  -8 6942.33 460.968   1
  -1   3  -9 744.124 199.406   3
  -1   3  -9 580.469 128.104   1
  -1   3 -10 230.728 108.756   3
  -1   3 -10 249.102 93.9060   1
  -1   3 -11 5426.21 570.046   3
   1   4 -11 7846.49 737.124   1
   1   4 -10 1996.39 356.731   1
   1   4  -9 5036.86 575.539   1
   1   4  -8 5950.07 621.028   1
  -2 -10   1 451.920 305.148   2
  -2 -10   0 119.623 79.8578   2
  -2 -10  -1 890.883 411.811   2
   2 -10   1 263.993 198.271   2
   2 -10   2 60.5711 129.045   2
  -2 -10  -2 30.5283 118.506   2
  -2 -10  -3 456.880 312.613   2
   2 -10   3 609.988 311.426   2
   2 -10   4 3219.44 717.236   2
  -2  -9   8 1809.62 555.080   2
  -2  -9   7 1065.03 472.362   2
  -2  -9   6-114.300 176.380   2
  -2  -9   5 3141.67 728.927   2
  -2  -9   4 3460.84 758.547   2
   2  -9  -3 1157.77 412.454   2
  -2  -9   3 522.356 328.353   2
  -2  -9   2 4546.26 867.632   2
   2  -9  -2 2851.90 605.708   2
  -2  -9   1 8341.54 1184.14   2
   2  -9  -1 7378.99 1003.43   2
  -2  -9   0-34.6105 101.695   2
   2  -9   0-6.80467 83.8152   2
   2  -9   1 1093.84 394.855   2
  -2  -9  -1 1981.42 594.751   2
   2  -9   2 414.850 236.155   2
  -2  -9  -2 378.156 276.980   2
  -2  -9  -3 1095.40 420.669   2
   2  -9   3 1522.45 443.161   2
   2  -9   4 115.615 106.136   2
  -2  -9  -4 231.040 203.577   2
  -2  -9  -5 416.210 338.561   2
   2  -9   5 199.206 176.071   2
  -2  -9  -6-231.307 224.557   2
   2  -9   6-193.118 203.103   2
   2  -9   7 53.4578 122.551   2
  -2  -9  -7-509.681 330.764   2
   2  -9   8 1819.20 532.036   2
  -2  -9  -8 515.631 332.525   2
  -2  -9  -9 283.617 273.619   2
  -2  -8  11-25.3111 82.7920   2
  -2  -8  10 572.717 275.765   2
  -2  -8   9 2833.11 669.405   2
  -2  -8   8 1672.18 517.353   2
   2  -8  -7 338.578 215.878   2
  -2  -8   7 648.576 348.493   2
  -2  -8   6 0.33917 127.789   2
   2  -8  -6 253.623 173.096   2
  -2  -8   5 3774.32 745.980   2
   2  -8  -5 4040.82 690.697   2
   2  -8  -4 1990.49 489.601   2
  -2  -8   4 1864.06 504.331   2
  -2  -8   3 2791.50 650.231   2
   2  -8  -3 3775.65 674.516   2
   2  -8  -2 212.565 131.901   2
  -2  -8   2 71.0209 114.310   2
  -2  -8   1 1237.03 435.187   2
   2  -8  -1 1302.90 390.656   2
  -2  -8   0 2982.31 676.410   2
   2  -8   0 2780.49 579.869   2
  -2  -8  -1 3152.44 696.861   2
   2  -8   1 3200.37 631.226   2
  -2  -8  -2 12071.7 1383.71   2
   2  -8   2 10877.0 1166.65   2
   2  -8   3 2335.65 549.740   2
  -2  -8  -3 2172.49 585.280   2
   2  -8   4 1350.31 411.362   2
  -2  -8  -4 1440.01 455.522   2
   2  -8   5 278.789 154.153   2
  -2  -8  -5 268.762 217.752   2
  -2  -8  -6 844.151 389.623   2
   2  -8   6 1041.77 382.706   2
   2  -8   7 3123.67 665.665   2
  -2  -8  -7 3888.55 848.902   2
   2  -8   8 1055.02 396.061   2
  -2  -8  -8 1244.45 468.460   2
   2  -8   9 226.638 215.374   2
  -2  -8  -9 204.477 235.087   2
   2  -8  10 870.622 398.790   2
  -2  -8 -10 1109.01 541.417   2
  -2  -8 -11 1677.78 597.576   2
  -2  -7  13 529.794 297.190   2
  -2  -7  12 1156.60 418.421   2
  -2  -7  11 308.345 241.363   2
  -2  -7  10 1176.36 410.509   2
   2  -7 -10 1553.03 447.191   2
   2  -7  -9 960.516 336.676   2
  -2  -7   9 950.107 369.760   2
  -2  -7   8 85.0054 142.099   2
   2  -7  -8 6.67434 98.1919   2
   2  -7  -7 1705.77 441.616   2
  -2  -7   7 1420.40 442.133   2
   2  -7  -6 7975.70 943.631   2
  -2  -7   6 8582.01 1089.66   2
   2  -7  -5 960.482 307.997   2
  -2  -7   5 509.144 221.549   2
  -2  -7   4 2142.82 552.570   2
   2  -7  -4 2566.69 497.494   2
  -2  -7   3 8679.36 1066.08   2
   2  -7  -3 9149.06 984.123   2
  -2  -7   2 4726.55 800.210   2
   2  -7  -2 5211.09 726.093   2
  -2  -7   1 1518.67 466.406   2
   2  -7  -1 1092.28 316.443   2
   2  -7   0 11418.2 1101.02   2
  -2  -7   0 11604.2 1236.38   2
   2  -7   1 1153.96 358.348   2
  -2  -7  -1 1355.16 432.828   2
   2  -7   2 734.707 297.036   2
  -2  -7  -2 526.575 282.681   2
  -2  -7  -3 4303.91 781.097   2
   2  -7   3 3612.81 625.224   2
  -2  -7  -4 642.690 300.042   2
   2  -7   4 968.367 329.726   2
   2  -7   5 3874.61 682.949   2
  -2  -7  -5 4618.46 821.275   2
  -2  -7  -6 1199.11 427.441   2
   2  -7   6 959.366 325.862   2
   2  -7   7 877.936 335.576   2
  -2  -7  -7 1782.07 575.340   2
   2  -7   8 1737.00 478.118   2
  -2  -7  -8 1696.82 535.959   2
   2  -7   9 175.915 184.350   2
  -2  -7  -9 313.835 259.403   2
   2  -7  10 1387.70 431.866   2
  -2  -7 -10 1681.46 537.645   2
  -2  -7 -11-31.9994 160.554   2
   2  -7  11 67.4410 142.879   2
   2  -7  12 11.9967 112.202   2
  -2  -7 -12 218.170 204.521   2
  -2  -7 -13 2606.21 737.790   2
  -2  -6  15 3417.79 733.730   2
  -2  -6  14 206.697 173.688   2
  -2  -6  13 1246.15 421.474   2
  -2  -6  12 1945.33 532.549   2
   2  -6 -12 1525.03 442.509   2
  -2  -6  11 6739.44 949.171   2
   2  -6 -11 6543.23 899.123   2
   2  -6 -10 7078.14 911.269   2
  -2  -6  10 6337.30 921.801   2
  -2  -6   9 1098.32 427.786   2
   2  -6  -9 338.721 141.862   2
  -2  -6   8 13265.4 1289.92   2
   2  -6  -8 13683.5 1218.83   2
   2  -6  -7 13312.5 1166.61   2
  -2  -6   7 13439.3 1284.71   2
   2  -6  -6 1680.49 385.953   2
  -2  -6   6 1583.62 419.459   2
   2  -6  -5 6679.17 788.386   2
  -2  -6   5 5611.36 802.886   2
   2  -6  -4 4620.10 638.755   2
  -2  -6   4 3918.57 657.898   2
  -2  -6   3 8932.87 996.921   2
   2  -6  -3 8207.76 852.888   2
   2  -6  -2 9259.07 907.756   2
  -2  -6   2 8880.46 992.494   2
   2  -6  -1 12021.8 1033.33   2
  -2  -6   1 12503.5 1192.39   2
  -2  -6   0 14075.5 1279.95   2
   2  -6   0 15273.0 1180.99   2
  -2  -6  -1 8790.03 1014.46   2
   2  -6   1 8109.05 865.865   2
  -2  -6  -2 17664.5 1480.46   2
   2  -6   2 16958.1 1275.55   2
   2  -6   3 4320.26 637.985   2
  -2  -6  -3 4939.10 775.899   2
   2  -6   4 2259.98 475.688   2
  -2  -6  -4 2973.01 614.225   2
  -2  -6  -5 489.780 251.288   2
   2  -6   5 990.195 309.013   2
   2  -6   6 7415.49 898.737   2
  -2  -6  -6 7845.73 1064.43   2
  -2  -6  -7 1268.27 408.416   2
   2  -6   7 1219.53 355.181   2
  -2  -6  -8 2287.32 588.498   2
   2  -6   8 2126.94 494.152   2
  -2  -6  -9 12351.8 1418.32   2
   2  -6   9 10258.8 1135.60   2
   2  -6  10-85.4388 160.611   2
   2  -6  11 916.496 367.071   2
   2  -6  12 6810.08 988.144   2
   2  -6  13 1065.36 406.923   2
   2  -6  14 1875.27 550.381   2
  -2  -5  17 292.978 200.483   2
  -2  -5  16 35.1643 127.428   2
  -2  -5  15 1525.23 480.602   2
  -2  -5  14 1140.64 403.553   2
  -2  -5  13 2513.25 563.779   2
  -2  -5  12 1978.57 514.392   2
  -2  -5  11 1.05253 116.595   2
  -2  -5  10 2219.90 506.670   2
   2  -5  -9 45288.1 2226.24   2
  -2  -5   9 44724.2 2398.27   2
   2  -5  -8 1687.12 382.368   2
  -2  -5   8 2342.20 500.986   2
   2  -5  -7 25215.3 1523.35   2
  -2  -5   7 24697.1 1642.30   2
  -2  -5   6 936.978 302.135   2
   2  -5  -6 554.163 193.712   2
   2  -5  -5 9090.00 825.089   2
  -2  -5   5 8357.40 901.661   2
  -2  -5   4 9352.46 943.475   2
   2  -5  -4 10119.2 871.031   2
  -2  -5   3 11770.5 1074.88   2
   2  -5  -3 11018.7 899.908   2
   2  -5  -2 10632.5 879.241   2
  -2  -5   2 10388.6 987.314   2
  -2  -5   1 1434.34 347.162   2
   2  -5  -1 1596.06 333.878   2
   2  -5   0 37273.4 1762.51   2
  -2  -5   0 37617.1 2021.71   2
  -2  -5  -1 2890.88 522.935   2
   2  -5   1 2692.48 455.796   2
   2  -5   2 2904.74 456.921   2
  -2  -5  -2 2566.95 501.727   2
  -2  -5  -3 3105.62 592.007   2
   2  -5   3 3110.73 510.984   2
  -2  -5  -4 11732.7 1142.27   2
   2  -5   4 11535.3 1004.35   2
  -2  -5  -5 1524.73 434.913   2
   2  -5   5 1330.35 347.440   2
   2  -5   6 13510.7 1143.70   2
  -2  -5  -6 13330.7 1274.95   2
   2  -5   7 2767.88 523.427   2
   2  -5   8 3466.09 587.997   2
   2  -5   9 879.883 299.281   2
   2  -5  10 3270.78 624.557   2
   2  -5  11 4499.14 733.174   2
   2  -5  12 2157.53 521.082   2
   2  -5  13 406.796 189.084   2
   2  -5  14 1917.83 519.601   2
   2  -5  15 712.047 325.270   2
  -2  -4  18 269.192 176.046   2
  -2  -4  17 287.654 230.197   2
  -2  -4  16 879.868 339.231   2
  -2  -4  15 5493.12 852.613   2
  -2  -4  14 2259.48 531.027   2
  -2  -4  13 3371.48 618.003   2
  -2  -4  12 5247.40 760.949   2
  -2  -4  11 16094.1 1336.98   2
  -2  -4  10 23029.7 1565.52   2
  -2  -4   9 7287.93 847.410   2
  -2  -4   8 6226.42 358.032   3
  -2  -4   8 8008.18 869.512   2
  -2  -4   7 22110.8 1404.53   2
  -2  -4   7 15047.9 691.592   3
   2  -4  -6 22592.6 1255.07   2
  -2  -4   6 19589.8 1355.37   2
  -2  -4   5 15914.6 1166.01   2
   2  -4  -5 16987.2 1051.24   2
   2  -4  -4 9588.80 751.510   2
  -2  -4   4 9032.93 843.740   2
  -2  -4   3 90089.4 3210.68   2
   2  -4  -3 92481.3 2875.95   2
  -2  -4   2 593.889 199.632   2
   2  -4  -2 363.282 135.606   2
  -2  -4   1 21924.7 1356.52   2
   2  -4  -1 24335.0 1237.39   2
   2  -4   0 51727.1 1978.74   2
  -2  -4   0 54750.9 2296.27   2
   2  -4   1 1759.22 315.947   2
  -2  -4  -1 1016.99 271.971   2
   2  -4   2 57956.3 2205.52   2
  -2  -4  -2 63524.9 2550.94   2
  -2  -4  -3 5819.46 718.128   2
   2  -4   3 6067.58 633.757   2
   2  -4   4 3977.04 356.453   1
   2  -4   4 4782.32 563.526   2
   2  -4   5 273.780 70.4327   1
   2  -4   5 373.520 160.825   2
   2  -4   6 6517.00 725.739   2
   2  -4   7 68.8922 68.0411   2
   2  -4   8 16364.5 1249.66   2
   2  -4   9 21798.5 1497.84   2
   2  -4  10 4500.55 696.198   2
   2  -4  11 14055.1 1252.27   2
   2  -4  12 2894.69 567.290   2
   2  -4  13 1578.34 435.075   2
   2  -4  14 4788.59 792.996   2
   2  -4  15 41.1231 68.7476   2
   2  -4  16 981.190 383.154   2
  -2  -3  19 1111.60 399.712   2
  -2  -3  18 189.310 204.724   2
  -2  -3  17 254.161 161.728   2
  -2  -3  16 3918.37 688.571   2
  -2  -3  15 5687.84 816.302   2
  -2  -3  14 6846.25 879.544   2
  -2  -3  13 5369.44 759.432   2
  -2  -3  12 19009.8 1400.55   2
  -2  -3  11 4791.50 674.013   2
  -2  -3  10 13496.1 1112.95   2
  -2  -3   9 4549.59 610.828   2
  -2  -3   8 10560.9 919.970   2
  -2  -3   7 18784.1 1208.22   2
  -2  -3   7 16227.9 521.659   3
  -2  -3   6 928.994 264.813   2
  -2  -3   6 1231.31 143.243   3
  -2  -3   5 74953.9 2664.19   2
   2  -3  -4 11777.6 728.471   2
  -2  -3   4 11398.3 868.117   2
   2  -3  -3 47022.2 1613.88   2
  -2  -3   3 45068.6 1903.43   2
  -2  -3   2 77181.1 2637.56   2
   2  -3  -2 79203.4 2314.69   2
   2  -3  -1 102146. 2831.39   2
  -2  -3   1 102509. 3192.06   2
  -2  -3   0 56965.4 2175.35   2
   2  -3   0 58919.6 1923.96   2
  -2  -3  -1 12589.7 907.199   2
   2  -3   1 11450.0 736.520   2
  -2  -3  -2 39342.5 1757.51   2
   2  -3   2 37606.6 1531.05   2
   2  -3   3 47626.1 1414.10   1
   2  -3   3 53007.5 1899.41   2
   2  -3   4 47264.0 1815.97   2
   2  -3   4 39843.3 1078.62   1
   2  -3   5 14117.7 962.149   2
   2  -3   6 39650.2 1792.88   2
   2  -3   7 5708.95 645.001   2
   2  -3   8 8172.55 808.678   2
   2  -3   9 170.459 113.409   2
   2  -3  10 7627.49 831.290   2
   2  -3  11 2570.19 492.146   2
   2  -3  12 665.785 286.380   2
   2  -3  13 2589.98 539.421   2
   2  -3  14 665.253 289.206   2
   2  -3  15 599.890 257.632   2
   2  -3  16 366.757 232.265   2
   2  -3  17 374.859 262.159   2
  -2  -2  20 118.021 145.477   2
  -2  -2  19 3.13521 180.519   2
  -2  -2  18 210.120 189.433   2
  -2  -2  17 776.979 326.950   2
  -2  -2  16 1049.56 330.850   2
  -2  -2  15 2939.27 556.702   2
  -2  -2  14 5158.30 707.766   2
  -2  -2  13 3932.53 611.159   2
  -2  -2  12 9812.33 929.159   2
  -2  -2  11 660.847 229.304   2
  -2  -2  10 11645.1 952.175   2
  -2  -2   9 2248.56 383.299   2
  -2  -2   8 75099.8 2633.99   2
  -2  -2   7 32450.8 1504.99   2
  -2  -2   6 29958.4 1411.93   2
  -2  -2   5 6476.73 581.742   2
   2  -2  -5 5715.48 397.447   2
  -2  -2   4 30636.9 1362.98   2
  -2  -2   3 17829.0 988.809   2
   2  -2  -3 19097.1 751.558   2
  -2  -2   2 66911.6 2162.76   2
   2  -2  -2 65888.9 1766.88   2
  -2  -2   1 78692.9 2418.38   2
   2  -2  -1 77359.8 2012.41   2
  -2  -2   0 57558.7 1984.24   2
   2  -2   0 59795.1 1687.52   2
   2  -2   1 214364. 4912.71   2
   2  -2   2 235883. 5462.62   2
   2  -2   3 16443.3 873.861   2
   2  -2   4 2702.56 357.604   2
   2  -2   5 21612.7 1120.50   2
   2  -2   6 10716.4 793.318   2
   2  -2   7 24761.0 1322.39   2
   2  -2   8 15513.7 1071.42   2
   2  -2   9 10807.6 921.786   2
   2  -2  10 11935.3 1009.26   2
   2  -2  11 19494.5 1375.12   2
   2  -2  12 1363.88 356.945   2
   2  -2  13 392.468 195.189   2
   2  -2  14 198.548 168.969   2
   2  -2  15 4235.63 725.205   2
   2  -2  16 91.1181 175.721   2
   2  -2  17 2033.88 528.667   2
  -2  -1  20 2211.72 552.360   2
  -2  -1  19 2628.61 599.572   2
  -2  -1  18 4044.54 714.878   2
  -2  -1  17 319.619 199.108   2
  -2  -1  16 2236.15 488.136   2
  -2  -1  15 875.414 286.186   2
  -2  -1  14 1120.55 318.119   2
  -2  -1  13 5206.74 652.456   2
  -2  -1  12 7058.10 729.080   2
  -2  -1  11 13171.5 976.904   2
  -2  -1  10 3138.19 451.513   2
  -2  -1   9 20842.4 1161.46   2
  -2  -1   8 4314.86 477.092   2
  -2  -1   7 53018.7 1887.37   2
  -2  -1   6 23053.5 1074.61   2
   2  -1  -6 22536.0 967.178   2
   2  -1  -5 70209.3 1909.62   2
  -2  -1   5 72075.5 2163.91   2
  -2  -1   4 49663.5 1512.01   1
  -2  -1   4 52384.8 1676.86   2
   2  -1  -4 52446.7 1364.49   2
  -2  -1   3 233577. 5283.62   1
  -2  -1   3 241349. 5436.80   2
  -2  -1   2 110097. 2727.52   1
  -2  -1   2 107822. 2788.29   2
  -2  -1   1 16811.0 785.867   1
  -2  -1   1 18138.8 796.762   2
   2  -1   0 1901.78 163.525   2
  -2  -1   0 2046.04 261.717   1
   2  -1   1 458594. 9005.57   1
   2  -1   1 445361. 9314.77   2
   2  -1   2 73305.6 1988.89   2
   2  -1   3 5768.63 438.467   2
   2  -1   4 72430.9 2181.00   2
   2  -1   5 29363.7 1280.77   2
   2  -1   6 4179.01 460.855   2
   2  -1   7 23029.8 1231.64   2
   2  -1   8 3827.96 503.018   2
   2  -1   9 9675.08 840.837   2
   2  -1  10 255.807 121.894   2
   2  -1  11 19215.5 1333.05   2
   2  -1  12 5594.40 730.132   2
   2  -1  13 17770.9 1384.18   2
   2  -1  14 8684.25 989.651   2
   2  -1  15 6939.75 908.343   2
   2  -1  16 1174.93 388.903   2
   2  -1  17 224.693 212.766   2
   2  -1  18 806.313 348.244   2
  -2   0  20 3393.79 690.463   2
  -2   0  19 0.28513 139.999   2
  -2   0  18 262.352 203.665   2
  -2   0  17 899.802 307.827   2
  -2   0  16 179.884 172.127   2
  -2   0  15 9139.36 923.646   2
  -2   0  14 1151.44 300.380   2
  -2   0  13 499.603 197.699   2
  -2   0  12 22857.5 1336.08   2
  -2   0  11 4900.00 557.238   2
  -2   0  10 41673.8 1731.67   2
  -2   0   9 294.496 123.128   2
  -2   0   8 112447. 3104.85   2
  -2   0   7 54460.9 1765.84   2
  -2   0   6 26350.8 1044.49   2
   2   0  -5 412519. 8933.00   2
  -2   0   5 433124. 8821.50   2
   2   0  -4 955299. 19919.9   2
  -2   0   4 999999. 19837.9   2
   2   0  -3 115125. 2685.96   2
  -2   0   3 115227. 2632.86   2
   2   0  -2 7347.51 349.238   2
  -2   0   2 7665.11 343.964   2
  -2   0   2 6921.87 340.009   3
  -2   0   1 29948.2 865.708   3
  -2   0   0 844984. 17056.1   3
   2   0   1 6718.17 376.018   1
   2   0   1 5875.76 357.067   2
  -2   0  -1 4963.80 325.698   1
   2   0   2 110601. 2747.43   2
   2   0   3 136221. 3367.68   2
   2   0   4 169062. 4160.06   2
   2   0   5 38965.1 1497.15   2
   2   0   6 42208.1 1651.70   2
   2   0   7 5032.73 529.435   2
   2   0   8-91.9029 118.159   2
   2   0   9 48923.4 2065.50   2
   2   0  10 446.810 174.297   2
   2   0  11 5869.79 701.767   2
   2   0  12 1728.24 391.718   2
   2   0  13 30141.7 1834.71   2
   2   0  14 3925.97 654.153   2
   2   0  15 1998.39 492.574   2
   2   0  16 1726.09 469.920   2
   2   0  17 292.549 119.367   2
   2   0  18 1120.58 403.009   2
  -2   1  21 288.875 212.144   2
  -2   1  20 871.672 345.485   2
  -2   1  19 1700.65 465.902   2
  -2   1  18 3478.62 640.018   2
  -2   1  17 1046.05 349.741   2
   2   1 -16 2788.83 521.027   1
  -2   1  16 1697.42 414.597   2
  -2   1  15 1060.23 319.574   2
   2   1 -15 1176.42 329.246   1
  -2   1  14 697.252 218.330   2
  -2   1  13 4965.08 613.696   2
  -2   1  12 6130.44 657.413   2
  -2   1  11 12849.5 914.211   2
  -2   1  10 2249.49 340.733   2
  -2   1   9 21999.9 1104.35   2
   2   1  -8 4978.07 462.540   1
  -2   1   8 4191.58 427.648   2
   2   1  -7 56740.0 1803.13   1
  -2   1   7 53519.6 1734.78   2
   2   1  -6 26372.8 1055.64   1
  -2   1   6 24234.0 959.653   2
  -2   1   5 73357.8 1911.10   2
  -2   1   4 55199.3 1427.25   2
  -2   1   0 1811.96 208.052   3
  -2   1  -1 433599. 9138.48   3
  -2   1  -2 71348.7 1929.68   3
  -2   1  -3 5390.66 386.725   3
  -2   1  -4 70248.7 1976.21   3
  -2   1  -5 30014.6 1140.40   3
  -2   1  -6 4901.21 426.701   3
   2   1   6 4489.86 498.813   2
  -2   1  -7 23659.7 1062.69   3
   2   1   7 23184.0 1275.03   2
  -2   1  -8 4027.19 427.755   3
   2   1   8 3890.66 516.592   2
  -2   1  -9 9716.55 709.406   3
   2   1   9 9266.87 861.383   2
  -2   1 -10 256.726 112.129   3
   2   1  10 17.6466 108.244   2
  -2   1 -11 19612.5 1129.18   3
   2   1  11 18138.9 1325.98   2
   2   1  12 6359.42 789.691   2
  -2   1 -12 7018.65 691.478   3
   2   1  13 16762.5 1379.14   2
  -2   1 -13 18813.4 1206.85   3
   2   1  14 8544.54 1009.26   2
   2   1  15 7335.29 958.286   2
   2   2 -15 3799.06 572.382   1
   2   2 -14 6100.47 693.276   1
   2   2 -13 4380.63 557.376   1
   2   2  -9 2640.38 361.935   1
   2   2  -8 75021.4 2360.50   1
   2   2  -7 33262.1 1351.74   1
   2   2  -6 30206.5 1255.79   1
   2   2  -5 6095.26 514.793   1
   2   2  -4 32166.3 1304.21   1
  -2   2   2 66309.5 1797.55   2
  -2   2   1 76848.9 2114.59   2
  -2   2   0 56735.9 1750.60   2
  -2   2  -1 201482. 4835.49   2
  -2   2  -2 229281. 5362.23   3
  -2   2  -3 15733.9 823.208   3
  -2   2  -4 3347.62 365.790   3
  -2   2  -5 19149.4 944.070   3
  -2   2  -6 10221.7 678.074   3
  -2   2  -7 20165.3 624.159   1
  -2   2  -7 22808.8 1077.26   3
  -2   2  -8 15914.1 908.699   3
  -2   2  -8 14376.6 548.018   1
  -2   2  -9 10631.7 500.777   1
  -2   2  -9 12522.7 824.870   3
  -2   2 -10 10014.4 766.780   3
  -2   2 -10 9875.04 523.245   1
  -2   2 -11 18705.6 1114.96   3
  -2   2 -12 1492.09 308.110   3
   2   3 -13 5556.84 669.217   1
   2   3  -9 5476.05 579.544   1
   2   3  -8 10887.2 820.474   1
   2   3  -7 19001.8 1092.65   1
   2   3  -6 1313.64 271.730   1
   2   3  -5 75039.5 2521.64   1
   2   3  -4 12980.2 906.146   1
  -2   3   2 72686.8 2304.93   2
  -2   3  -6 36863.1 1578.40   3
  -2   3  -7 5555.88 566.179   3
  -2   3  -8 7783.17 689.920   3
  -2   3  -9 412.156 163.970   3
  -2   3 -10 8759.67 777.108   3
  -2   3 -11 3252.46 481.370   3
  -3  -9   7 1797.18 595.300   2
  -3  -9   6 933.705 370.926   2
  -3  -9   5 1757.77 557.573   2
  -3  -9   4 1027.85 431.724   2
  -3  -9   3 2205.40 615.144   2
  -3  -9   2 793.905 387.816   2
  -3  -9   1 119.035 131.437   2
   3  -9   0 3578.08 684.663   2
  -3  -9   0 5234.78 973.155   2
   3  -9   1 945.623 345.227   2
  -3  -9  -1 1178.54 451.016   2
  -3  -9  -2 1748.64 555.403   2
   3  -9   2 2180.59 541.729   2
  -3  -9  -3 2123.30 656.970   2
   3  -9   3 1902.12 509.369   2
  -3  -9  -4 433.525 263.607   2
   3  -9   4 391.602 252.016   2
   3  -9   5 552.726 265.099   2
  -3  -9  -5 192.879 135.808   2
  -3  -9  -6-904.333 441.442   2
   3  -9   6 8.89698 88.4894   2
  -3  -9  -7 954.054 423.120   2
   3  -9   7 566.990 281.392   2
  -3  -8  11 1045.76 415.784   2
  -3  -8  10 1889.47 564.869   2
  -3  -8   9 876.854 394.885   2
  -3  -8   8 3245.66 715.733   2
  -3  -8   7 1938.02 540.546   2
  -3  -8   6 598.438 330.931   2
  -3  -8   5 1624.88 498.187   2
  -3  -8   4 213.723 141.075   2
   3  -8  -4-78.3612 131.635   2
  -3  -8   3 232.924 195.378   2
   3  -8  -3 276.935 137.309   2
  -3  -8   2 1012.67 378.661   2
   3  -8  -2 759.858 296.692   2
  -3  -8   1 4547.85 848.474   2
   3  -8  -1 5300.24 770.805   2
  -3  -8   0 547.758 262.567   2
   3  -8   0 1069.47 342.539   2
   3  -8   1 579.851 257.662   2
  -3  -8  -1 239.713 249.584   2
  -3  -8  -2 139.182 242.964   2
   3  -8   2-64.0942 125.708   2
  -3  -8  -3-3.51242 181.022   2
   3  -8   3 287.840 208.185   2
   3  -8   4 4309.62 730.118   2
  -3  -8  -4 3433.65 787.979   2
  -3  -8  -5 1687.05 554.320   2
   3  -8   5 1761.88 472.881   2
   3  -8   6 295.800 179.931   2
  -3  -8  -6 565.790 308.596   2
  -3  -8  -7 1274.08 515.493   2
   3  -8   7 861.081 333.014   2
  -3  -8  -8 55.4049 215.919   2
   3  -8   8 105.448 123.548   2
  -3  -8  -9 2764.61 769.734   2
   3  -8   9 2655.56 636.997   2
  -3  -8 -10 1371.81 578.166   2
   3  -8  10 1508.88 502.782   2
  -3  -7  14 145.397 191.507   2
  -3  -7  13 1091.43 404.225   2
  -3  -7  12 1842.22 550.578   2
  -3  -7  11 344.804 186.783   2
  -3  -7  10 1747.85 514.593   2
  -3  -7   9 7299.76 1026.56   2
  -3  -7   8 736.239 357.479   2
   3  -7  -7 2777.02 525.045   2
  -3  -7   7 3681.19 710.513   2
   3  -7  -6 227.781 165.627   2
  -3  -7   6 410.430 260.314   2
  -3  -7   5 699.400 275.459   2
   3  -7  -5 802.958 262.246   2
   3  -7  -4 7901.71 881.297   2
  -3  -7   4 9071.05 1104.68   2
   3  -7  -3 1989.25 423.101   2
  -3  -7   3 2922.10 610.699   2
  -3  -7   2 9209.93 1119.56   2
   3  -7  -2 7015.64 819.180   2
  -3  -7   1 8705.62 1096.49   2
   3  -7  -1 8300.85 908.032   2
  -3  -7   0 711.677 318.083   2
   3  -7   0 916.368 298.517   2
  -3  -7  -1 2297.42 580.099   2
   3  -7   1 1389.05 368.746   2
   3  -7   2 446.313 233.930   2
  -3  -7  -2 268.526 225.546   2
  -3  -7  -3 234.314 222.228   2
   3  -7   3 420.673 220.413   2
   3  -7   4 1972.64 465.433   2
  -3  -7  -4 1159.35 439.628   2
  -3  -7  -5 902.931 412.601   2
   3  -7   5 438.757 237.916   2
   3  -7   6 2839.67 585.339   2
  -3  -7  -6 3230.05 762.121   2
  -3  -7  -7 1732.63 551.176   2
   3  -7   7 1345.81 405.460   2
  -3  -7  -8 4284.69 893.250   2
   3  -7   8 4983.98 798.071   2
   3  -7   9 372.034 226.093   2
  -3  -7  -9 1214.94 508.008   2
   3  -7  10 140.866 212.999   2
  -3  -7 -10-87.8280 128.219   2
  -3  -7 -11 670.831 472.439   2
   3  -7  11-30.6458 157.614   2
   3  -7  12 2119.43 583.078   2
  -3  -7 -12 3296.96 871.902   2
  -3  -6  15 337.718 300.469   2
  -3  -6  14 1030.46 396.225   2
  -3  -6  13 1561.58 473.030   2
  -3  -6  12 693.162 334.718   2
  -3  -6  11 1109.19 408.076   2
   3  -6 -10 2331.66 485.519   2
  -3  -6  10 2370.23 567.699   2
   3  -6  -9 12441.5 1116.89   2
  -3  -6   9 13108.4 1310.87   2
   3  -6  -8 1904.74 412.997   2
  -3  -6   8 1239.68 385.690   2
   3  -6  -7 7235.50 802.621   2
  -3  -6   7 6907.86 916.721   2
  -3  -6   6 1244.48 384.189   2
   3  -6  -6 930.152 284.254   2
   3  -6  -5 2477.69 445.213   2
  -3  -6   5 2942.01 588.635   2
   3  -6  -4 12891.5 1031.88   2
  -3  -6   4 12996.9 1243.87   2
   3  -6  -3 4275.76 583.466   2
  -3  -6   3 4588.04 737.287   2
   3  -6  -2 2486.97 442.190   2
  -3  -6   2 2333.00 504.190   2
   3  -6  -1 13480.4 1068.31   2
  -3  -6   1 14082.7 1307.78   2
  -3  -6   0 14054.0 1340.91   2
   3  -6   0 14989.9 1146.02   2
   3  -6   1 10994.8 975.849   2
  -3  -6  -1 12542.0 1249.97   2
   3  -6   2 22820.8 1480.07   2
  -3  -6  -2 24820.2 1814.42   2
   3  -6   3 1360.90 335.818   2
  -3  -6  -3 1943.82 509.731   2
  -3  -6  -4 16805.6 1551.21   2
   3  -6   4 14885.7 1218.11   2
   3  -6   5 3499.62 584.939   2
  -3  -6  -5 4082.48 799.932   2
  -3  -6  -6 831.622 378.454   2
   3  -6   6 364.804 158.530   2
  -3  -6  -7 1904.48 538.559   2
   3  -6   7 2221.67 494.501   2
   3  -6   8 1271.92 395.675   2
  -3  -6  -8 1048.42 400.911   2
   3  -6   9 1372.77 405.902   2
   3  -6  10 237.574 190.380   2
   3  -6  11 7231.49 1001.04   2
   3  -6  12 2408.77 587.767   2
   3  -6  13 1248.81 421.018   2
  -3  -5  17 1628.61 503.199   2
  -3  -5  16 2538.03 614.123   2
  -3  -5  15 1256.21 409.671   2
  -3  -5  14 2515.06 585.707   2
  -3  -5  13 1022.74 385.277   2
  -3  -5  12 9930.94 1140.27   2
  -3  -5  11 1785.50 458.706   2
   3  -5 -10 8919.56 899.898   2
  -3  -5  10 9580.44 1067.70   2
  -3  -5   9 2256.60 515.047   2
   3  -5  -9 2936.12 500.185   2
   3  -5  -8 11227.3 951.484   2
  -3  -5   8 11693.2 1131.49   2
  -3  -5   7 6166.35 813.409   2
   3  -5  -7 4859.99 596.869   2
   3  -5  -6 27156.2 1457.28   2
  -3  -5   6 27365.1 1756.75   2
  -3  -5   5 14249.8 1227.30   2
   3  -5  -5 16570.3 1082.06   2
   3  -5  -4 11904.1 892.714   2
  -3  -5   4 12566.3 1149.63   2
   3  -5  -3 3121.42 442.849   2
  -3  -5   3 3447.54 579.186   2
   3  -5  -2 30045.3 1484.90   2
  -3  -5   2 31481.2 1844.22   2
  -3  -5   1 24666.8 1627.27   2
   3  -5  -1 22790.0 1290.32   2
  -3  -5   0 15468.2 1283.31   2
   3  -5   0 15492.0 1051.16   2
  -3  -5  -1 25682.5 1697.22   2
   3  -5   1 24522.0 1380.22   2
  -3  -5  -2 3077.35 580.209   2
   3  -5   2 3534.38 510.063   2
  -3  -5  -3 72243.7 3153.63   2
   3  -5   3 66254.7 2606.92   2
  -3  -5  -4 9258.52 1052.32   2
   3  -5   4 7070.57 772.231   2
  -3  -5  -5 27340.5 1905.58   2
   3  -5   5 22109.7 1451.61   2
   3  -5   6 849.315 280.425   2
   3  -5   7 2038.62 435.677   2
   3  -5   8 18078.4 1408.40   2
   3  -5   9 1497.71 416.048   2
   3  -5  10 10939.5 1150.39   2
   3  -5  11 1283.56 395.540   2
   3  -5  12 164.287 126.242   2
   3  -5  13 3879.06 730.460   2
   3  -5  14 2548.28 610.462   2
  -3  -4  18 1533.88 480.186   2
  -3  -4  17 559.260 277.503   2
  -3  -4  16-31.7085 67.2621   2
  -3  -4  15 733.259 330.184   2
  -3  -4  14 472.466 244.343   2
  -3  -4  13 616.636 241.894   2
  -3  -4  12 3009.87 575.652   2
  -3  -4  11 20919.8 1533.18   2
  -3  -4  10 12471.3 1153.02   2
  -3  -4   9 28397.0 1769.31   2
  -3  -4   8 4626.89 279.888   3
  -3  -4   8 6745.48 777.564   2
  -3  -4   7 3253.55 540.464   2
   3  -4  -7 3271.94 437.884   2
  -3  -4   6 2321.26 454.744   2
   3  -4  -6 2063.57 335.960   2
   3  -4  -5 2032.95 319.554   2
  -3  -4   5 1852.25 377.113   2
  -3  -4   4 19511.4 1341.96   2
   3  -4  -4 19325.1 1026.07   2
   3  -4  -3 52166.6 1869.07   2
  -3  -4   3 50967.7 2264.23   2
   3  -4  -2 2027.86 312.207   2
  -3  -4   2 2505.81 434.280   2
  -3  -4   1 3763.93 569.977   2
   3  -4  -1 4008.51 448.275   2
   3  -4   0 2553.38 359.666   2
  -3  -4   0 2438.12 460.927   2
  -3  -4  -1 20194.0 1383.41   2
   3  -4   1 19295.2 1098.01   2
  -3  -4  -2 25245.2 1573.94   2
   3  -4   2 23054.3 1246.04   2
  -3  -4  -3 26037.6 1645.30   2
   3  -4   3 25712.8 1370.83   2
   3  -4   4 13543.4 986.420   2
   3  -4   4 10007.0 491.040   1
   3  -4   5 14294.4 1058.92   2
   3  -4   6 3723.45 553.793   2
   3  -4   7 16689.9 1239.59   2
   3  -4   8 12433.7 1084.99   2
   3  -4   9 21373.3 1489.23   2
   3  -4  10 892.571 296.876   2
   3  -4  11 5760.57 801.625   2
   3  -4  12 6283.58 867.540   2
   3  -4  13 444.079 234.848   2
   3  -4  14 1782.21 485.802   2
   3  -4  15 341.741 233.121   2
  -3  -3  19 768.043 335.154   2
  -3  -3  18 2924.88 639.021   2
  -3  -3  17 1393.14 422.733   2
  -3  -3  16 1728.28 463.340   2
  -3  -3  15 1137.16 362.575   2
  -3  -3  14 464.299 245.121   2
  -3  -3  13 6571.46 827.381   2
  -3  -3  12 9650.84 994.276   2
  -3  -3  11 2825.09 505.060   2
  -3  -3  10 2901.68 509.588   2
  -3  -3   9 14837.1 1148.37   2
  -3  -3   8 4604.22 601.348   2
  -3  -3   7 69387.1 2651.07   2
  -3  -3   6 9803.06 872.710   2
   3  -3  -5 49647.2 1645.30   2
  -3  -3   5 50989.2 2098.13   2
   3  -3  -4 123511. 3165.82   2
  -3  -3   4 128266. 3845.95   2
  -3  -3   3 20264.0 1226.04   2
   3  -3  -3 20936.3 901.171   2
  -3  -3   2 49334.2 2049.95   2
   3  -3  -2 49569.6 1581.86   2
  -3  -3   1 122403. 3729.90   2
   3  -3  -1 123895. 3176.83   2
  -3  -3   0 5886.77 638.697   2
   3  -3   0 6136.57 493.160   2
  -3  -3  -1 148203. 4255.16   2
   3  -3   1 140402. 3696.30   2
   3  -3   2 37195.1 1498.08   2
   3  -3   3 7796.35 646.893   2
   3  -3   4 3779.75 472.152   2
   3  -3   5 5135.57 572.254   2
   3  -3   6 20112.6 1235.98   2
   3  -3   7 2957.83 463.113   2
   3  -3   8 1153.56 295.408   2
   3  -3   9-31.0631 109.899   2
   3  -3  10 3058.61 543.842   2
   3  -3  11 465.176 193.683   2
   3  -3  12 9469.14 1045.82   2
   3  -3  13-173.701 154.493   2
   3  -3  14 1300.81 389.407   2
   3  -3  15 4805.31 801.110   2
   3  -3  16 107.947 207.466   2
  -3  -2  20 1636.92 477.346   2
  -3  -2  19 1253.39 406.990   2
  -3  -2  18-21.5954 117.870   2
  -3  -2  17 3198.63 612.540   2
  -3  -2  16 1159.65 364.349   2
  -3  -2  15 1546.44 397.106   2
  -3  -2  14 5020.65 699.934   2
  -3  -2  13 4643.22 645.931   2
  -3  -2  12 1424.10 347.268   2
  -3  -2  11 927.151 282.010   2
  -3  -2  10 29199.9 1566.89   2
  -3  -2   9 6779.45 695.773   2
  -3  -2   8 45.5829 47.6876   2
  -3  -2   7 125214. 3694.59   2
   3  -2  -6 21799.7 862.005   2
  -3  -2   6 24368.1 1254.11   2
   3  -2  -5 10542.5 479.372   2
  -3  -2   5 11302.4 810.773   2
   3  -2  -4 3554.10 252.123   2
  -3  -2   4 3427.39 432.471   2
   3  -2  -4 3164.02 210.786   2
   3  -2  -3 10308.6 433.652   2
  -3  -2   3 10443.2 752.831   2
  -3  -2   2 166457. 4365.31   2
   3  -2  -2 165972. 3630.22   2
  -3  -2   1 13057.9 844.701   2
   3  -2  -1 12928.2 555.685   2
  -3  -2   0 22623.1 1173.62   2
   3  -2   0 23846.4 892.231   2
   3  -2   1 22829.3 942.552   2
   3  -2   2 29191.2 771.126   1
   3  -2   2 31643.1 1215.18   2
   3  -2   3 8885.65 628.031   2
   3  -2   4 25240.3 1193.20   2
   3  -2   5 62210.9 2173.06   2
   3  -2   6 749.189 213.212   2
   3  -2   7 2043.28 368.154   2
   3  -2   8 3078.69 484.673   2
   3  -2   9 11205.7 977.971   2
   3  -2  10 5693.35 711.186   2
   3  -2  11 3473.32 581.592   2
   3  -2  12 15606.3 1292.27   2
   3  -2  13 2040.88 477.333   2
   3  -2  14 4443.54 728.749   2
   3  -2  15 822.400 318.261   2
   3  -2  16 1463.21 458.085   2
   3  -2  17 689.131 314.777   2
  -3  -1  21 1604.35 468.496   2
  -3  -1  20 1252.60 416.859   2
  -3  -1  19 4306.29 739.835   2
  -3  -1  18-157.269 177.273   2
  -3  -1  17 1825.08 441.672   2
  -3  -1  16 2539.26 508.730   2
  -3  -1  15 2475.03 470.098   2
  -3  -1  14 2165.28 429.132   2
  -3  -1  13 10498.8 919.206   2
  -3  -1  12 9597.38 846.835   2
  -3  -1  11 17781.5 1133.28   2
  -3  -1  10 16984.3 1071.86   2
  -3  -1   9 2010.45 336.299   2
  -3  -1   8 53715.4 1955.55   2
  -3  -1   7 141818. 3775.34   2
   3  -1  -6 10577.9 577.968   2
  -3  -1   6 11692.1 743.567   2
   3  -1  -5 360386. 7621.16   2
  -3  -1   5 368317. 8113.22   2
  -3  -1   4 220608. 4601.95   3
   3  -1  -4 216997. 4582.76   2
  -3  -1   4 222717. 5172.10   2
  -3  -1   3 125733. 2832.29   3
  -3  -1   3 129198. 3287.15   2
  -3  -1   2 42551.2 1470.77   2
   3  -1  -1 35532.6 919.750   2
  -3  -1   1 34798.6 1297.71   2
   3  -1   0 39634.7 1109.13   1
   3  -1   0 39319.1 1135.94   2
   3  -1   1 23792.0 743.627   1
   3  -1   1 23129.0 871.830   2
   3  -1   2 4899.84 288.308   1
   3  -1   2 5044.48 404.431   2
   3  -1   3 54632.6 1774.07   2
   3  -1   4 37438.9 1464.36   2
   3  -1   5 92390.9 2786.43   2
   3  -1   6 74498.9 2501.37   2
   3  -1   7 18891.4 1141.24   2
   3  -1   8 1417.27 329.150   2
   3  -1   9 4731.46 611.418   2
   3  -1  10 15380.1 1177.74   2
   3  -1  11 14399.3 1172.33   2
   3  -1  12 5200.63 723.103   2
   3  -1  13 7372.63 886.503   2
   3  -1  14 2561.32 549.450   2
   3  -1  15 462.552 227.408   2
   3  -1  16 1917.38 507.798   2
   3  -1  17 1229.52 420.746   2
  -3   0  21 7.27446 103.457   2
  -3   0  20 28.0695 108.826   2
  -3   0  19 2476.23 532.048   2
  -3   0  18 3588.89 627.017   2
  -3   0  17 1646.91 413.252   2
  -3   0  16-2.34569 69.5208   2
  -3   0  15 2130.66 436.706   2
  -3   0  14 9645.46 885.573   2
  -3   0  13 7721.27 758.328   2
  -3   0  12 5886.19 633.018   2
  -3   0  11 1146.67 250.358   2
  -3   0  10 2901.06 389.432   2
  -3   0   9 3850.04 429.434   2
  -3   0   8 100471. 2816.11   2
  -3   0   7 26818.3 1099.50   2
   3   0  -6 59337.0 1922.69   2
  -3   0   6 61295.0 1796.73   2
   3   0  -5 30373.9 1031.88   3
  -3   0   5 34149.3 1112.81   2
   3   0  -5 32591.0 1200.13   2
   3   0  -4 1258.66 159.346   3
   3   0  -4 1509.45 201.783   2
  -3   0   4 1527.63 178.782   2
   3   0  -3 356441. 7412.11   2
  -3   0   3 344665. 7404.08   3
  -3   0   3 357947. 7376.57   2
  -3   0   2 118509. 2705.31   2
  -3   0   2 111617. 2795.97   1
  -3   0   2 115088. 2752.04   3
  -3   0   1 4357.59 312.816   3
  -3   0   1 4588.80 331.569   1
  -3   0   0 23266.0 857.856   3
  -3   0   0 21227.7 833.788   1
   3   0   0 24162.6 898.771   1
   3   0   1 67871.3 1880.24   1
  -3   0  -1 63168.6 1792.76   1
  -3   0  -1 63936.9 1800.19   3
   3   0   2 27349.6 1084.67   2
  -3   0  -2 26901.1 1034.47   1
  -3   0  -3 4256.61 391.623   1
   3   0   3 3983.99 395.717   2
   3   0   4 1029.20 220.293   2
   3   0   5 323.266 142.062   2
   3   0   6 40305.6 1682.69   2
   3   0   7-3.82443 86.9238   2
   3   0   8 7977.46 752.940   2
   3   0   9 14982.3 1102.49   2
   3   0  10 6601.07 750.682   2
   3   0  11 21439.8 1451.63   2
   3   0  12 5502.89 740.223   2
   3   0  13 3053.56 569.720   2
   3   0  14 2639.53 557.195   2
   3   0  15 510.881 256.997   2
  -3   0 -15 1377.31 374.191   3
   3   0  16 52.9453 110.477   2
   3   0  17 1245.12 440.532   2
  -3   1  21 1601.12 482.334   2
  -3   1  20 905.141 353.697   2
  -3   1  19 3610.56 656.328   2
  -3   1  18 127.413 155.053   2
   3   1 -17 2288.65 498.897   1
  -3   1  17 1753.80 420.769   2
  -3   1  16 1822.55 410.829   2
   3   1 -16 3068.68 551.524   1
  -3   1  15 2034.15 420.794   2
   3   1 -15 2760.18 509.237   1
  -3   1  14 2656.68 446.645   2
   3   1 -14 3420.88 543.195   1
   3   1 -13 12918.5 1025.75   1
  -3   1  13 9547.55 829.724   2
   3   1 -12 11479.3 920.292   1
  -3   1  12 8666.77 750.108   2
  -3   1  11 16712.1 1005.80   2
  -3   1  10 17090.2 966.740   2
  -3   1   9 1591.13 260.665   2
   3   1  -8 61220.4 2037.98   1
  -3   1   8 56185.7 1823.24   2
  -3   1   7 143865. 3547.42   2
   3   1  -7 151535. 3858.27   1
  -3   1   6 12307.4 581.422   2
  -3   1   5 379983. 7888.98   2
   3   1  -4 212994. 5388.66   2
  -3   1   4 225055. 4619.72   2
   3   1  -3 123782. 3330.54   2
   3   1  -2 40887.6 1483.37   2
  -3   1   1 32839.0 1205.22   3
  -3   1   1 34107.2 922.647   2
  -3   1   0 37005.2 1286.61   3
  -3   1   0 36953.0 1127.82   2
  -3   1  -1 23317.6 963.839   3
  -3   1  -1 22860.9 927.198   2
  -3   1  -2 4648.33 239.000   1
  -3   1  -2 4955.59 407.043   3
  -3   1  -3 50827.7 1263.90   1
  -3   1  -3 57421.5 1731.41   3
  -3   1  -4 37180.8 1338.28   3
  -3   1  -4 33157.9 955.384   1
  -3   1  -5 80054.8 2070.91   1
  -3   1  -5 89786.1 2495.98   3
  -3   1  -6 72454.8 2284.61   3
  -3   1  -7 20002.5 1054.66   3
  -3   1  -8 1251.30 255.426   3
  -3   1  -9 4499.83 514.714   3
  -3   1 -10 16392.9 1067.24   3
   3   1  10 15808.6 1227.91   2
  -3   1 -11 15159.2 1064.38   3
   3   1  11 13532.7 1180.36   2
  -3   1 -12 6621.30 720.664   3
  -3   1 -13 6590.24 747.699   3
  -3   1 -14 2597.10 488.691   3
   3   2 -16 1029.90 334.763   1
   3   2 -15 1867.20 426.629   1
  -3   2  14 4426.85 600.000   2
   3   2 -14 5978.60 718.908   1
   3   2 -13 5697.54 676.134   1
  -3   2  13 4081.91 552.191   2
   3   2 -12 2199.83 400.909   1
  -3   2  12 1844.38 342.078   2
  -3   2  11 1048.78 245.969   2
   3   2  -8 84.0091 62.8996   1
   3   2  -7 132705. 3676.79   1
   3   2  -6 22901.9 1153.46   1
  -3   2   2 163793. 3695.72   2
  -3   2   1 13813.9 652.046   2
  -3   2   0 22261.7 943.152   2
  -3   2  -1 21698.2 1053.89   3
  -3   2  -1 19419.0 953.475   2
  -3   2  -2 29776.9 1281.57   3
  -3   2  -3 8770.76 651.478   3
  -3   2  -4 27267.5 1231.95   3
  -3   2  -5 62758.2 2122.21   3
  -3   2  -6 460.734 158.932   3
  -3   2  -7 1522.08 283.163   3
  -3   2  -8 2857.22 408.533   3
  -3   2  -9 11715.5 874.401   3
  -3   2 -10 6192.44 648.960   3
  -3   2 -11 2736.89 449.965   3
  -3   2 -12 13625.8 1061.81   3
  -3   2 -13 1774.39 395.659   3
   3   3 -14 689.048 232.600   1
   3   3 -13 6198.19 737.603   1
   3   3 -12 9607.51 910.333   1
   3   3 -11 3877.50 546.939   1
   3   3  -6 10249.3 848.243   1
   3   3  -5 49931.9 2040.58   1
   3   3  -4 130484. 3935.27   1
  -3   3   2 51433.8 1759.69   2
  -3   3   1 118556. 3331.75   2
  -3   3  -5 4734.74 532.483   3
  -3   3  -6 19199.4 1157.67   3
  -3   3  -7 3750.77 498.534   3
  -3   3  -8 1376.50 315.863   3
  -3   3  -9 324.189 183.439   3
  -3   3 -10 3409.49 521.353   3
  -3   3 -11 891.535 281.898   3
  -3   3 -12 9747.80 950.383   3
   3   4 -13 951.940 318.665   1
   3   4 -12 3397.89 568.186   1
   3   4 -11 19272.5 1365.69   1
   3   4 -10 13957.1 1129.96   1
   3   5 -12 9012.94 1013.58   1
   3   5 -11 1455.95 388.009   1
   3   5 -10 9367.46 1017.61   1
  -4  -9   7 894.391 401.940   2
  -4  -9   6 250.742 212.480   2
  -4  -9   5 1963.69 592.521   2
  -4  -9   4 2834.12 692.387   2
  -4  -9   3 2156.26 606.763   2
  -4  -9   2 1017.38 445.679   2
  -4  -9   1 1547.16 546.441   2
  -4  -9   0 1282.51 518.701   2
  -4  -9  -1 609.332 331.412   2
  -4  -9  -2 190.317 254.315   2
  -4  -9  -3 1938.87 634.517   2
   4  -9   3 1828.00 490.091   2
  -4  -9  -4 1091.03 454.429   2
   4  -9   4 1057.06 376.001   2
  -4  -9  -5 298.107 235.840   2
   4  -9   5 656.282 335.048   2
   4  -9   6 20.2571 78.4942   2
   4  -9   7 202.744 177.448   2
  -4  -8  11-3.56036 134.121   2
  -4  -8  10 4378.35 848.082   2
  -4  -8   9 648.118 314.649   2
  -4  -8   8 4516.92 856.691   2
  -4  -8   7 740.731 413.499   2
  -4  -8   6 1122.31 437.632   2
  -4  -8   5 1339.98 473.095   2
  -4  -8   4 800.103 358.300   2
  -4  -8   3 1998.61 555.460   2
  -4  -8   2 720.975 339.023   2
   4  -8  -1 551.880 226.648   2
  -4  -8   1 758.251 371.009   2
  -4  -8   0 2912.94 700.150   2
   4  -8   0 2829.13 544.161   2
   4  -8   1 1802.52 442.630   2
  -4  -8  -1 2096.06 580.524   2
  -4  -8  -2 1064.56 431.137   2
   4  -8   2 517.738 227.599   2
  -4  -8  -3 2037.92 617.028   2
   4  -8   3 1341.41 390.052   2
  -4  -8  -4-278.192 304.754   2
   4  -8   4-57.0138 120.442   2
  -4  -8  -5 1077.15 448.278   2
   4  -8   5 652.154 296.508   2
  -4  -8  -6 2410.64 698.376   2
   4  -8   6 2010.83 510.022   2
  -4  -8  -7 533.842 396.235   2
   4  -8   7 207.079 150.305   2
   4  -8   8 1609.63 486.087   2
  -4  -8  -8 2673.51 775.593   2
  -4  -8  -9 1359.19 562.552   2
   4  -8   9 1445.98 476.883   2
  -4  -7  14 374.238 240.917   2
  -4  -7  13 808.017 360.354   2
  -4  -7  12 958.526 390.644   2
  -4  -7  11 1781.15 521.252   2
  -4  -7  10 627.336 313.792   2
  -4  -7   9 1221.44 422.925   2
  -4  -7   8 459.212 265.597   2
  -4  -7   7 682.270 315.067   2
  -4  -7   6 1448.97 446.882   2
  -4  -7   5 214.208 117.417   2
   4  -7  -4 2208.23 428.304   2
  -4  -7   4 2665.89 618.166   2
  -4  -7   3 96.0202 81.2565   2
   4  -7  -3 23.2901 65.2711   2
   4  -7  -2 2386.42 455.387   2
  -4  -7   2 2783.62 616.586   2
   4  -7  -1 2238.03 441.929   2
  -4  -7   1 1892.96 556.525   2
  -4  -7   0 6416.85 963.418   2
   4  -7   0 6009.17 745.074   2
  -4  -7  -1 7213.65 1070.73   2
   4  -7   1 6392.91 790.280   2
  -4  -7  -2 670.039 332.022   2
   4  -7   2 218.446 170.941   2
  -4  -7  -3 18760.3 1773.14   2
   4  -7   3 16742.6 1345.61   2
  -4  -7  -4 115.492 151.251   2
   4  -7   4 173.621 125.073   2
  -4  -7  -5 2150.17 716.768   2
   4  -7   5 1533.55 419.786   2
  -4  -7  -6 705.821 384.764   2
   4  -7   6 39.3934 80.5235   2
  -4  -7  -7 2289.38 652.302   2
   4  -7   7 1463.65 417.704   2
  -4  -7  -8 6993.61 1194.27   2
   4  -7   8 6197.40 904.299   2
  -4  -7  -9 506.068 345.636   2
   4  -7   9 184.272 152.382   2
   4  -7  10 1820.45 526.033   2
  -4  -7 -10 2450.70 702.107   2
  -4  -7 -11 722.844 401.287   2
   4  -7  11 1308.50 446.810   2
  -4  -6  16-56.7595 125.165   2
  -4  -6  15 1566.25 485.775   2
  -4  -6  14 269.446 229.649   2
  -4  -6  13 3829.54 767.798   2
  -4  -6  12 2.85852 70.9241   2
  -4  -6  11 3023.98 677.842   2
  -4  -6  10 3964.14 728.311   2
  -4  -6   9 5356.18 837.268   2
  -4  -6   8 7867.71 1009.69   2
   4  -6  -7 199.754 118.681   2
  -4  -6   7 382.607 196.557   2
   4  -6  -6 25777.7 1452.55   2
  -4  -6   6 27629.4 1905.01   2
   4  -6  -5 11309.1 922.617   2
  -4  -6   5 11173.3 1173.61   2
  -4  -6   4 12199.5 1230.34   2
   4  -6  -4 11486.0 913.535   2
  -4  -6   3 14170.5 1314.37   2
   4  -6  -3 10537.4 884.074   2
  -4  -6   2 15754.2 1415.77   2
   4  -6  -2 16042.1 1117.05   2
  -4  -6   1 6776.03 919.296   2
   4  -6  -1 6181.58 682.666   2
  -4  -6   0 1478.58 417.432   2
   4  -6   0 1178.63 300.704   2
  -4  -6  -1 4123.57 755.015   2
   4  -6   1 4180.96 585.455   2
  -4  -6  -2 6988.18 983.477   2
   4  -6   2 6146.56 723.067   2
  -4  -6  -3 9721.45 1228.86   2
   4  -6   3 10102.6 961.497   2
   4  -6   4 5377.38 718.160   2
  -4  -6  -4 5252.64 900.657   2
   4  -6   5 2554.95 502.741   2
  -4  -6  -5 1882.28 530.848   2
   4  -6   6 1286.87 362.737   2
  -4  -6  -6 2022.04 597.700   2
  -4  -6  -7 2959.70 746.105   2
   4  -6   7 2835.82 554.863   2
   4  -6   8 2376.96 534.102   2
  -4  -6  -8 2073.56 630.752   2
   4  -6   9 3415.13 651.688   2
   4  -6  10 1164.51 395.889   2
   4  -6  11 2212.69 543.975   2
   4  -6  12 676.189 315.114   2
   4  -6  13 2521.05 608.856   2
  -4  -5  17 1310.04 428.446   2
  -4  -5  16 334.645 222.350   2
  -4  -5  15 413.667 262.389   2
  -4  -5  14 5128.80 848.148   2
  -4  -5  13 593.156 299.071   2
  -4  -5  12 2680.99 585.301   2
  -4  -5  11 589.300 281.978   2
   4  -5 -10 10961.5 938.146   2
  -4  -5  10 11609.9 1180.63   2
   4  -5  -9 16395.6 1123.36   2
  -4  -5   9 16031.3 1391.94   2
   4  -5  -8 5223.35 590.204   2
  -4  -5   8 4661.31 727.673   2
   4  -5  -7 1554.84 316.351   2
  -4  -5   7 1566.49 407.086   2
   4  -5  -6 117.098 52.7578   2
  -4  -5   6 393.565 220.287   2
   4  -5  -5 1392.95 277.169   2
  -4  -5   5 1501.20 392.888   2
  -4  -5   4 9161.82 987.819   2
   4  -5  -4 8925.08 720.012   2
  -4  -5   3 9843.86 1031.86   2
   4  -5  -3 10807.3 795.861   2
  -4  -5   2 9538.11 1016.47   2
   4  -5  -2 9890.20 772.329   2
  -4  -5   1 5856.74 796.880   2
   4  -5  -1 5640.61 580.449   2
  -4  -5   0 1097.52 353.904   2
   4  -5   0 1112.08 269.782   2
  -4  -5  -1 18380.3 1480.87   2
   4  -5   1 17243.6 1112.73   2
  -4  -5  -2 17306.5 1453.61   2
   4  -5   2 14341.8 1046.92   2
  -4  -5  -3 707.094 294.124   2
   4  -5   3 262.698 145.588   2
  -4  -5  -4 12319.1 1275.07   2
   4  -5   4 11625.6 989.201   2
  -4  -5  -5 4697.21 793.731   2
   4  -5   5 4350.96 608.714   2
   4  -5   6 10770.5 1013.36   2
   4  -5   7 18095.2 1373.82   2
   4  -5   8 3415.27 598.858   2
   4  -5   9 2051.82 469.613   2
   4  -5  10 5686.41 819.088   2
   4  -5  11 343.689 236.887   2
   4  -5  12 4190.06 753.967   2
   4  -5  13-94.3551 165.298   2
   4  -5  14-38.2300 178.213   2
  -4  -4  19 824.393 395.175   2
  -4  -4  18 1101.74 399.931   2
  -4  -4  17-469.323 260.983   2
  -4  -4  16 843.625 333.600   2
  -4  -4  15 1621.84 457.232   2
  -4  -4  14 3283.64 631.903   2
  -4  -4  13 12708.2 1249.10   2
  -4  -4  12 7930.13 961.209   2
  -4  -4  11 36024.8 2086.18   2
  -4  -4  10 27391.8 1775.87   2
  -4  -4   9 20090.0 1466.37   2
   4  -4  -8 30994.8 1430.44   2
  -4  -4   8 33494.7 1909.76   2
  -4  -4   7 28204.0 1701.66   2
   4  -4  -7 26922.9 1248.30   2
   4  -4  -6 53358.9 1844.96   2
  -4  -4   6 54145.8 2438.89   2
  -4  -4   5 15450.1 1207.15   2
   4  -4  -5 13644.0 786.276   2
   4  -4  -4 4204.75 419.655   2
  -4  -4   4 4811.83 665.512   2
  -4  -4   3 29975.8 1706.32   2
   4  -4  -3 29660.3 1228.26   2
  -4  -4   2 5033.02 671.098   2
   4  -4  -2 4186.21 423.560   2
  -4  -4   1 24177.8 1544.02   2
   4  -4  -1 25376.5 1173.99   2
   4  -4   0 1304.39 253.247   2
  -4  -4   0 1300.16 341.976   2
  -4  -4  -1 11785.9 1070.71   2
   4  -4   1 11528.9 816.365   2
  -4  -4  -2 10641.6 1056.36   2
   4  -4   2 9967.51 783.583   2
  -4  -4  -3 13156.6 1190.21   2
   4  -4   3 11103.6 863.933   2
   4  -4   4 45485.3 1973.62   2
   4  -4   5 2731.26 458.222   2
   4  -4   6 31950.3 1710.47   2
   4  -4   7 5766.17 723.457   2
   4  -4   8 3416.29 555.277   2
   4  -4   9 4446.25 664.858   2
   4  -4  10 6902.11 866.912   2
   4  -4  11 5675.35 818.618   2
   4  -4  12 4501.32 743.900   2
   4  -4  13 3249.70 653.705   2
   4  -4  14 320.446 198.857   2
   4  -4  15 845.134 368.797   2
  -4  -3  20 1748.23 515.663   2
  -4  -3  19 759.166 326.434   2
  -4  -3  18 1513.58 439.075   2
  -4  -3  17 1599.31 438.026   2
  -4  -3  16 5327.18 801.778   2
  -4  -3  15 4515.54 723.887   2
  -4  -3  14 136.266 145.929   2
  -4  -3  13 17042.8 1372.81   2
  -4  -3  12 13302.5 1175.15   2
  -4  -3  11 1181.12 350.230   2
  -4  -3  10 26399.8 1605.07   2
  -4  -3   9 10123.5 941.252   2
  -4  -3   8 2390.08 444.584   2
   4  -3  -7 32561.9 1143.79   2
  -4  -3   7 38003.6 1854.86   2
   4  -3  -6 4975.58 390.374   2
  -4  -3   6 4750.50 598.040   2
   4  -3  -6 4254.22 310.480   2
  -4  -3   5 39411.1 1855.03   2
   4  -3  -5 36674.8 1202.55   2
   4  -3  -4 3905.43 302.725   2
  -4  -3   4 3868.55 513.012   2
  -4  -3   3 50784.1 2143.82   2
   4  -3  -3 50571.8 1463.17   2
  -4  -3   2 75799.8 2773.24   2
   4  -3  -2 77744.0 2082.69   2
   4  -3  -1 28057.7 1074.37   2
  -4  -3   1 25956.8 1464.32   2
  -4  -3   0 23511.1 1406.56   2
   4  -3   0 24159.7 1034.92   2
  -4  -3  -1 26130.8 1503.05   2
   4  -3   1 25683.5 1140.52   2
   4  -3   2 21492.8 1083.58   2
   4  -3   3 14897.2 911.773   2
   4  -3   3 12305.0 413.696   1
   4  -3   4 22734.4 1224.03   2
   4  -3   5 13591.4 963.659   2
   4  -3   6 9013.53 807.442   2
   4  -3   7 6711.20 726.897   2
   4  -3   8 10158.6 936.926   2
   4  -3   9 1709.42 406.080   2
   4  -3  10 2207.25 465.946   2
   4  -3  11 3769.05 634.710   2
   4  -3  12 778.961 294.516   2
   4  -3  13 4799.31 775.608   2
   4  -3  14 740.716 308.509   2
   4  -3  15-13.1811 154.556   2
  -4  -2  20 298.814 205.651   2
  -4  -2  19 2843.63 614.888   2
  -4  -2  18 525.084 253.138   2
  -4  -2  17 2667.68 549.817   2
  -4  -2  16 1290.37 364.939   2
  -4  -2  15 348.652 228.725   2
  -4  -2  14 1295.69 361.969   2
  -4  -2  13 4762.21 662.448   2
  -4  -2  12 4647.99 627.480   2
  -4  -2  11 3676.94 540.718   2
  -4  -2  10 4406.50 576.001   2
  -4  -2   9 4821.42 577.830   2
  -4  -2   8 44757.1 1932.23   2
   4  -2  -7 23628.6 913.753   2
  -4  -2   7 26874.1 1373.88   2
  -4  -2   6 758.671 99.0357   3
   4  -2  -6 931.026 127.313   2
  -4  -2   6 1041.96 255.972   2
  -4  -2   5 24375.5 1291.73   2
  -4  -2   4 14759.1 958.612   2
  -4  -2   3 35385.6 1570.77   2
  -4  -2   2 16784.8 1022.55   2
   4  -2  -2 16390.5 546.921   2
  -4  -2   1 63604.8 2284.14   2
   4  -2  -1 64568.4 1670.81   2
  -4  -2   0 59940.6 2239.69   2
   4  -2   0 62597.6 1743.12   2
   4  -2   1 49512.6 1583.99   2
   4  -2   1 49981.1 1349.76   1
   4  -2   2 7283.59 355.543   1
   4  -2   2 7439.83 547.695   2
   4  -2   3 35463.7 1435.02   2
   4  -2   4 2528.25 360.755   2
   4  -2   5 2656.22 393.689   2
   4  -2   6 42755.1 1858.26   2
   4  -2   7 17340.4 1166.45   2
   4  -2   8 15741.4 1150.52   2
   4  -2   9 4700.39 636.441   2
   4  -2  10 8400.21 891.282   2
   4  -2  11 19061.8 1431.74   2
   4  -2  12 2178.55 490.592   2
   4  -2  13 1041.06 325.302   2
   4  -2  14 1779.32 485.022   2
   4  -2  15 425.580 245.046   2
   4  -2  16 916.646 356.771   2
  -4  -1  21 92.2612 132.766   2
  -4  -1  20 173.387 183.692   2
  -4  -1  19 139.311 143.675   2
  -4  -1  18 424.155 233.762   2
  -4  -1  17 819.006 301.462   2
  -4  -1  16 2115.52 456.495   2
  -4  -1  15 4084.91 602.854   2
  -4  -1  14 238.788 158.167   2
  -4  -1  13 908.093 258.604   2
  -4  -1  12 439.617 203.780   2
  -4  -1  11 16052.4 1066.59   2
  -4  -1  10 3162.21 433.482   2
  -4  -1   9 7547.78 665.395   2
  -4  -1   8 37872.7 1569.52   2
  -4  -1   7 62314.5 2079.43   2
   4  -1  -7 54792.2 1746.48   2
   4  -1  -6 16422.5 696.810   2
  -4  -1   6 15826.1 900.004   2
   4  -1  -5 37269.4 1065.98   2
  -4  -1   5 37983.5 1130.00   3
  -4  -1   5 40010.5 1501.92   2
  -4  -1   4 47816.6 1711.65   2
  -4  -1   4 49123.9 1378.96   3
  -4  -1   3 7516.28 575.616   2
  -4  -1   3 7103.80 424.311   3
  -4  -1   2 13589.9 799.599   2
   4  -1  -1 4551.54 352.336   1
   4  -1   0 15197.3 658.126   1
   4  -1   0 14212.3 635.429   2
   4  -1   1 697.423 144.930   2
   4  -1   1 584.770 119.111   1
   4  -1   2 40340.5 1263.57   1
   4  -1   2 39945.3 1431.08   2
   4  -1   3 30628.3 1277.99   2
   4  -1   4-41.2662 58.3601   2
   4  -1   5 37978.1 1623.55   2
   4  -1   6 15337.3 1013.96   2
   4  -1   7 4226.81 542.374   2
   4  -1   8 17515.4 1195.04   2
   4  -1   9 28183.8 1615.99   2
   4  -1  10 6803.84 797.667   2
   4  -1  11 19791.8 1438.27   2
   4  -1  12 2951.14 561.207   2
   4  -1  13 900.334 295.643   2
   4  -1  14 1814.22 469.148   2
   4  -1  15 186.790 125.463   2
   4  -1  16 2530.01 606.157   2
  -4   0  21-31.6744 111.473   2
  -4   0  20 938.659 339.423   2
  -4   0  19 275.966 209.207   2
   4   0 -19 285.192 179.909   1
  -4   0  18 308.348 177.376   2
  -4   0  17 162.798 154.604   2
  -4   0  16 2967.43 514.903   2
  -4   0  15 1751.00 377.933   2
  -4   0  14 1160.13 294.797   2
  -4   0  13 10504.0 869.673   2
  -4   0  12 118.827 108.816   2
  -4   0  11 9826.17 748.247   2
  -4   0  10 2766.30 366.869   2
  -4   0   9 15123.0 863.648   2
   4   0  -8 1383.07 207.880   3
  -4   0   8 1392.24 229.282   2
   4   0  -7 20425.1 881.559   3
  -4   0   7 21897.8 951.994   2
   4   0  -6 81997.2 2409.36   2
  -4   0   6 85829.8 2242.50   2
   4   0  -5 23882.4 1001.81   2
   4   0  -5 21777.6 888.739   3
  -4   0   5 25174.4 928.335   2
   4   0  -4 118874. 2943.61   2
  -4   0   4 120837. 2954.97   3
  -4   0   4 121656. 2879.09   2
  -4   0   3 15851.0 700.445   2
  -4   0   3 16278.7 749.584   3
  -4   0   2 179580. 4110.76   2
  -4   0   2 176029. 4156.67   3
  -4   0   1 8968.80 540.068   3
   4   0  -1 10136.7 607.357   1
  -4   0   0 29428.4 1113.30   1
  -4   0   0 29464.2 1141.73   2
  -4   0   0 30069.7 1132.55   3
   4   0   0 32201.6 1216.99   1
   4   0   1 123155. 3176.28   1
  -4   0  -1 122090. 3097.33   3
  -4   0  -1 113899. 3023.06   1
  -4   0  -2 1876.87 265.217   3
  -4   0  -2 1234.64 209.330   1
  -4   0  -3 104.039 76.3044   1
   4   0   3 168.043 108.299   2
  -4   0  -4 22165.5 1069.37   1
   4   0   4 26306.6 1253.79   2
   4   0   5 198415. 5157.40   2
   4   0   6 346.607 155.101   2
   4   0   7 103.249 118.549   2
   4   0   8 6663.74 728.293   2
   4   0   9 144.701 161.189   2
   4   0  10 39724.4 2069.03   2
   4   0  11 22055.6 1552.55   2
   4   0  12 1809.84 455.408   2
   4   0  13 21234.0 1645.10   2
  -4   0 -13 24429.2 1592.67   3
   4   0  14 1698.78 444.045   2
  -4   0 -14 2207.03 479.801   3
   4   0  15 568.438 311.216   2
  -4   0 -15 595.314 279.209   3
   4   0  16 94.3625 62.1865   2
  -4   1  19 229.068 179.988   2
  -4   1  18 766.586 280.487   2
   4   1 -18 1009.54 364.643   1
  -4   1  17 609.929 232.306   2
   4   1 -17 1217.97 383.651   1
  -4   1  16 1952.61 417.990   2
   4   1 -16 2171.61 488.646   1
   4   1 -15 4643.77 684.038   1
  -4   1  15 3790.71 540.632   2
  -4   1  14 126.712 99.2235   2
   4   1 -14 101.252 76.8818   1
   4   1 -13 1427.93 353.973   1
  -4   1  13 950.672 250.337   2
  -4   1  12 447.022 168.400   2
   4   1 -12 598.892 214.289   1
   4   1 -11 20941.6 1247.12   1
  -4   1  11 14542.4 910.617   2
   4   1 -10 2917.60 194.451   3
  -4   1  10 3082.69 365.562   2
   4   1 -10 3845.45 501.955   1
   4   1  -9 6622.99 299.835   3
  -4   1   9 7526.54 542.172   2
   4   1  -8 33529.1 923.591   3
  -4   1   8 37944.0 1269.95   2
  -4   1   7 59843.7 1671.74   2
  -4   1   6 17102.8 637.359   2
  -4   1   5 41271.2 1047.63   2
  -4   1   2 13513.9 757.306   3
  -4   1   2 12258.7 435.132   2
  -4   1   1 3945.02 397.310   3
  -4   1   1 4045.90 283.845   2
   4   1   0 17110.8 981.656   1
  -4   1   0 16288.9 844.335   3
  -4   1   0 14467.7 693.764   2
  -4   1  -1 568.366 140.627   3
  -4   1  -2 38161.8 1114.08   1
  -4   1  -2 40870.8 1486.91   3
  -4   1  -3 27278.8 867.398   1
  -4   1  -3 30165.5 1254.14   3
  -4   1  -4 163.485 80.9255   3
  -4   1  -4 81.9297 44.7669   1
  -4   1  -5 37284.6 1483.60   3
  -4   1  -5 30956.9 1029.49   1
  -4   1  -6 14568.5 901.377   3
  -4   1  -6 11098.5 581.633   1
  -4   1  -7 3068.18 424.134   3
  -4   1  -7 2557.94 282.560   1
  -4   1  -8 18092.3 1121.05   3
  -4   1  -9 27340.7 1460.47   3
  -4   1 -10 7393.75 756.535   3
  -4   1 -11 22832.2 1426.97   3
  -4   1 -12 4238.24 616.466   3
  -4   1 -13 864.670 289.128   3
  -4   1 -14 2306.45 491.372   3
   4   2 -17 2428.20 556.902   1
   4   2 -16 2280.76 501.048   1
   4   2 -15 427.654 195.691   1
  -4   2  15 48.7054 73.3909   2
  -4   2  14 994.566 264.313   2
   4   2 -14 1697.73 392.415   1
   4   2 -13 5336.10 674.651   1
  -4   2  13 4476.41 543.246   2
  -4   2  12 4123.34 496.080   2
   4   2 -12 5388.02 649.356   1
  -4   2  11 4148.36 471.734   2
   4   2 -11 5070.49 616.618   1
   4   2 -10 4865.21 591.849   1
  -4   2   2 15027.5 606.704   2
  -4   2   1 58997.8 1688.32   2
  -4   2   0 54061.5 1743.39   2
  -4   2   0 59777.5 2048.19   3
  -4   2  -1 47876.4 1822.66   3
  -4   2  -2 7683.78 643.729   3
  -4   2  -3 36009.0 1543.73   3
  -4   2  -4 2513.32 380.132   3
  -4   2  -5 2664.01 385.579   3
  -4   2  -6 41868.6 1780.84   3
  -4   2  -7 16600.4 1073.04   3
  -4   2  -8 15448.1 1064.87   3
  -4   2  -9 5437.45 634.830   3
  -4   2 -10 9250.06 864.064   3
  -4   2 -11 19438.8 1332.95   3
  -4   2 -12 1734.20 391.660   3
  -4   2 -13 1253.11 352.445   3
   4   3 -16 5693.63 838.128   1
   4   3 -15 5821.92 810.939   1
   4   3 -14 188.107 173.805   1
   4   3 -13 21874.5 1522.71   1
   4   3 -12 14813.6 1199.54   1
   4   3 -11 802.077 270.868   1
   4   3 -10 25367.9 1520.99   1
   4   3  -9 10211.8 909.239   1
  -4   3   3 49930.5 1546.96   2
  -4   3   2 74084.2 2231.68   2
  -4   3   1 24892.8 1160.97   2
  -4   3  -3 15571.6 1058.97   3
  -4   3  -4 22003.4 1289.69   3
  -4   3  -5 14295.3 1041.35   3
  -4   3  -6 8343.52 802.631   3
  -4   3  -7 5831.87 673.042   3
  -4   3  -8 9506.76 899.180   3
  -4   3  -9 2534.18 465.915   3
  -4   3 -10 1955.79 430.837   3
  -4   3 -11 4978.20 694.506   3
  -4   3 -12 670.458 248.559   3
   4   4 -14 2811.53 571.003   1
   4   4 -13 11909.3 1171.53   1
   4   4 -12 7399.73 898.269   1
   4   4 -11 35572.7 2016.32   1
   4   4 -10 27120.0 1727.49   1
   4   4  -9 19969.0 1428.85   1
   4   4  -8 34080.1 1893.78   1
   4   4  -7 25919.2 1623.19   1
   4   4  -6 55143.9 2526.21   1
   4   4  -5 17125.7 1333.19   1
  -4   4 -10 6683.49 836.619   3
  -4   4 -11 6596.94 861.149   3
   4   5 -13 436.680 263.516   1
   4   5 -12 2374.12 527.262   1
   4   5 -11 520.064 212.723   1
   4   5 -10 11046.6 1171.30   1
   4   5  -9 18058.8 1490.01   1
  -5  -9   6-296.495 330.164   2
  -5  -9   5 782.066 382.809   2
  -5  -9   4-266.527 244.462   2
  -5  -9   3 3475.24 824.222   2
  -5  -9   2 1964.09 624.196   2
  -5  -9   1 499.674 350.449   2
  -5  -9   0 5781.72 1076.40   2
  -5  -9  -1-144.881 311.753   2
  -5  -9  -2 1567.97 563.508   2
  -5  -8  11 3148.94 745.051   2
  -5  -8  10 1340.12 489.190   2
  -5  -8   9 1542.93 517.793   2
  -5  -8   8 3751.18 797.509   2
  -5  -8   7 956.041 439.051   2
  -5  -8   6 3965.79 795.511   2
  -5  -8   5-36.5123 152.682   2
  -5  -8   4 1135.00 426.336   2
  -5  -8   3 1360.44 498.152   2
  -5  -8   2-28.2287 158.661   2
  -5  -8   1 1776.31 573.600   2
  -5  -8   0-65.0594 94.6491   2
  -5  -8  -1 885.932 433.626   2
  -5  -8  -2 1119.66 561.889   2
  -5  -8  -3 1325.29 510.686   2
   5  -8   3 789.689 294.156   2
  -5  -8  -4 3068.88 791.321   2
   5  -8   4 2524.97 550.793   2
   5  -8   5 1435.46 411.836   2
  -5  -8  -5 1918.33 631.815   2
   5  -8   6 123.418 87.8176   2
  -5  -8  -6 759.221 382.651   2
   5  -8   7 1196.39 397.880   2
  -5  -8  -7 558.449 333.271   2
   5  -8   8 777.105 341.532   2
   5  -8   9 254.008 211.264   2
  -5  -7  14 1038.87 410.517   2
  -5  -7  13 301.326 269.498   2
  -5  -7  12 1163.29 438.011   2
  -5  -7  11 2948.94 669.712   2
  -5  -7  10 462.360 221.638   2
  -5  -7   9 5693.57 938.994   2
  -5  -7   8 918.167 389.655   2
  -5  -7   7 1280.16 448.089   2
  -5  -7   6 894.355 380.908   2
  -5  -7   5 1796.17 489.374   2
  -5  -7   4 725.586 331.439   2
  -5  -7   3 2334.84 592.692   2
  -5  -7   2 1292.74 440.888   2
  -5  -7   1 4192.48 807.383   2
   5  -7  -1 4341.61 605.402   2
  -5  -7   0 3820.73 776.893   2
   5  -7   0 3974.35 580.077   2
  -5  -7  -1 1251.61 475.624   2
   5  -7   1 1705.36 390.971   2
  -5  -7  -2 3927.47 843.050   2
   5  -7   2 4151.03 632.411   2
  -5  -7  -3 893.705 380.742   2
   5  -7   3 526.460 229.816   2
  -5  -7  -4 6445.63 1078.64   2
   5  -7   4 5318.68 754.449   2
  -5  -7  -5 8998.12 1327.66   2
   5  -7   5 6888.35 882.948   2
   5  -7   6 360.901 230.634   2
  -5  -7  -6 113.443 183.293   2
   5  -7   7 1315.39 401.425   2
  -5  -7  -7 3005.77 778.211   2
   5  -7   8-58.3716 99.5270   2
  -5  -7  -8-125.657 158.113   2
   5  -7   9 161.260 153.873   2
  -5  -7  -9 495.154 339.300   2
  -5  -7 -10 534.152 312.900   2
   5  -7  10 557.182 233.926   2
   5  -7  11 1494.73 468.587   2
  -5  -6  16 173.597 204.952   2
  -5  -6  15 229.639 197.687   2
  -5  -6  14-122.061 137.267   2
  -5  -6  13 916.560 400.526   2
  -5  -6  12 513.404 294.119   2
  -5  -6  11-30.0671 110.970   2
  -5  -6  10 2585.30 581.261   2
  -5  -6   9 500.326 278.160   2
  -5  -6   8 2708.94 618.760   2
  -5  -6   7 296.467 199.394   2
  -5  -6   6 2065.20 513.166   2
  -5  -6   5 7557.31 991.423   2
   5  -6  -4 2748.36 413.463   2
  -5  -6   4 2347.42 544.696   2
  -5  -6   3 6912.59 947.242   2
   5  -6  -3 7444.57 691.541   2
  -5  -6   2 229.667 106.511   2
   5  -6  -2 280.370 118.396   2
  -5  -6   1 8047.88 1042.77   2
   5  -6  -1 7919.04 747.567   2
  -5  -6   0 8103.82 1063.25   2
   5  -6   0 7111.80 725.699   2
  -5  -6  -1 8463.50 1099.00   2
   5  -6   1 9156.95 856.815   2
  -5  -6  -2 2190.14 555.608   2
   5  -6   2 2481.93 453.268   2
   5  -6   3 2169.16 441.457   2
  -5  -6  -3 2694.67 623.287   2
  -5  -6  -4 78.8257 95.5292   2
   5  -6   4 462.422 212.546   2
   5  -6   5 2403.95 493.119   2
  -5  -6  -5 3215.44 760.475   2
   5  -6   6 2640.55 523.900   2
  -5  -6  -6 2760.13 679.015   2
  -5  -6  -7 5371.03 1013.10   2
   5  -6   7 4577.07 718.099   2
   5  -6   8 1817.17 476.822   2
  -5  -6  -8 1817.68 600.996   2
   5  -6   9 3746.47 675.392   2
   5  -6  10 1006.89 371.650   2
   5  -6  11 4181.54 760.418   2
   5  -6  12 61.4447 160.867   2
  -5  -5  17 769.799 389.251   2
  -5  -5  16 806.818 360.657   2
  -5  -5  15 3097.06 689.734   2
  -5  -5  14 77.4085 153.825   2
  -5  -5  13 301.388 195.722   2
  -5  -5  12 13433.8 1349.36   2
  -5  -5  11 1187.01 392.737   2
  -5  -5  10 18735.5 1563.23   2
  -5  -5   9 1960.16 469.583   2
  -5  -5   8 842.385 299.431   2
   5  -5  -7 18224.3 999.304   2
  -5  -5   7 20324.5 1545.55   2
   5  -5  -6 1852.77 285.747   2
  -5  -5   6 2261.73 484.465   2
  -5  -5   5 5419.58 777.528   2
   5  -5  -5 4756.18 468.967   2
   5  -5  -4 2916.09 368.452   2
  -5  -5   4 3462.13 604.596   2
   5  -5  -3 6533.03 571.205   2
  -5  -5   3 6635.91 874.420   2
  -5  -5   2 12903.5 1228.96   2
   5  -5  -2 11960.7 817.105   2
  -5  -5   1 11805.2 1184.82   2
   5  -5  -1 11268.9 808.194   2
  -5  -5   0 20779.1 1614.98   2
   5  -5   0 19770.1 1148.98   2
  -5  -5  -1 409.038 181.348   2
   5  -5   1 634.082 194.665   2
  -5  -5  -2 5311.65 828.534   2
   5  -5   2 5737.64 637.613   2
  -5  -5  -3 12120.3 1283.54   2
   5  -5   3 10968.7 928.679   2
  -5  -5  -4 13238.9 1382.06   2
   5  -5   4 11798.8 1006.69   2
  -5  -5  -5 7084.23 1025.79   2
   5  -5   5 7478.81 814.934   2
   5  -5   6 3901.45 605.631   2
   5  -5   7 8204.64 904.212   2
   5  -5   8 5319.06 747.374   2
   5  -5   9 5631.25 796.802   2
   5  -5  10 581.658 263.454   2
   5  -5  11 460.905 254.375   2
   5  -5  12-123.471 184.624   2
   5  -5  13 458.465 243.038   2
  -5  -4  19 1402.28 477.451   2
  -5  -4  18 687.413 303.344   2
  -5  -4  17 525.535 295.468   2
  -5  -4  16 1318.81 429.879   2
  -5  -4  15 4313.40 747.424   2
  -5  -4  14 3802.12 697.009   2
  -5  -4  13 975.554 355.760   2
  -5  -4  12 1851.06 451.430   2
  -5  -4  11 892.444 327.541   2
   5  -4 -10 210.427 130.819   2
  -5  -4  10 75.9278 57.3343   2
   5  -4  -9 3161.59 378.715   2
  -5  -4   9 2768.33 537.010   2
   5  -4  -8 1621.12 254.402   2
  -5  -4   8 1961.83 432.909   2
   5  -4  -7 5896.20 457.653   2
  -5  -4   7 7283.54 832.590   2
  -5  -4   6 12933.6 1133.42   2
   5  -4  -6 11794.3 629.733   2
   5  -4  -6 9684.15 510.094   2
  -5  -4   5 6620.19 803.924   2
   5  -4  -5 6877.83 457.698   2
  -5  -4   4 11621.8 1057.48   2
   5  -4  -4 11327.1 612.418   2
  -5  -4   3 19092.9 1397.04   2
   5  -4  -3 19382.4 875.358   2
  -5  -4   2 1178.64 329.410   2
   5  -4  -2 992.487 194.061   2
  -5  -4   1 13055.3 1157.03   2
   5  -4  -1 12015.4 743.806   2
  -5  -4   0 5691.10 754.909   2
   5  -4   0 5332.44 507.380   2
  -5  -4  -1 12696.8 1197.78   2
   5  -4   1 12336.5 834.486   2
  -5  -4  -2 16310.6 1361.16   2
   5  -4   2 15924.5 1004.56   2
   5  -4   3 13395.5 517.526   1
   5  -4   3 16100.4 1039.46   2
   5  -4   4 844.647 246.406   2
   5  -4   5 6271.98 693.171   2
   5  -4   6 26142.6 1536.80   2
   5  -4   7 3159.84 531.406   2
   5  -4   8 4439.75 660.657   2
   5  -4   9 7200.38 875.192   2
   5  -4  10-67.3742 117.074   2
   5  -4  11 867.432 321.493   2
   5  -4  12 468.778 222.285   2
   5  -4  13 293.351 220.035   2
   5  -4  14 723.502 338.250   2
  -5  -3  20 919.731 361.344   2
  -5  -3  19 882.054 348.094   2
  -5  -3  18 141.035 77.0487   2
  -5  -3  17 1150.10 392.721   2
  -5  -3  16 447.475 264.636   2
  -5  -3  15 806.705 325.540   2
  -5  -3  14 6046.23 824.721   2
  -5  -3  13 735.605 269.510   2
  -5  -3  12 16053.6 1296.41   2
  -5  -3  11 25901.1 1654.17   2
  -5  -3  10 3598.20 577.157   2
  -5  -3   9 8810.41 891.448   2
  -5  -3   8 11495.0 423.395   3
   5  -3  -8 10963.1 561.931   2
  -5  -3   8 13106.2 1081.00   2
  -5  -3   7 845.646 124.166   3
   5  -3  -7 850.937 134.925   2
   5  -3  -7 784.811 113.796   2
  -5  -3   7 763.965 254.210   2
   5  -3  -6 36452.9 1002.85   2
   5  -3  -6 37075.2 949.481   2
  -5  -3   5 27646.5 1573.61   2
  -5  -3   4 30172.9 1618.05   2
   5  -3  -4 27717.0 774.338   2
  -5  -3   3 22309.1 1402.12   2
   5  -3  -3 23390.7 768.466   2
  -5  -3   2 10252.9 929.067   2
   5  -3  -2 10581.1 527.871   2
  -5  -3   1 9379.51 894.547   2
   5  -3  -1 9854.86 567.523   2
  -5  -3   0 9766.78 923.750   2
   5  -3   0 10354.9 630.514   2
   5  -3   1 1337.43 236.916   2
  -5  -3  -1 2155.32 454.337   2
   5  -3   2 8973.82 439.749   1
   5  -3   2 8906.90 670.013   2
   5  -3   3 7333.87 633.355   2
   5  -3   3 5737.60 296.816   1
   5  -3   4 906.660 226.797   2
   5  -3   5 26951.3 1444.49   2
   5  -3   6 11078.3 944.374   2
   5  -3   7 5465.44 677.498   2
   5  -3   8 1455.80 360.436   2
   5  -3   9 1287.29 363.290   2
   5  -3  10 10982.7 1095.28   2
   5  -3  11 2756.34 565.079   2
   5  -3  12 2852.24 586.526   2
   5  -3  13-154.618 203.953   2
   5  -3  14 1492.56 429.187   2
   5  -3  15 723.283 295.362   2
  -5  -2  21 397.095 266.375   2
  -5  -2  20 2274.06 565.530   2
  -5  -2  19 2396.66 555.272   2
  -5  -2  18 828.967 309.057   2
  -5  -2  17 2328.13 507.337   2
  -5  -2  16 519.903 204.481   2
  -5  -2  15 5767.59 769.545   2
  -5  -2  14 1250.82 335.925   2
  -5  -2  13 1742.99 400.735   2
  -5  -2  12 4679.34 625.693   2
  -5  -2  11 5090.40 640.733   2
  -5  -2  10 6877.71 723.721   2
  -5  -2   9 398.579 131.969   2
   5  -2  -9 489.364 137.825   2
   5  -2  -8 4318.17 354.155   2
  -5  -2   8 5554.56 611.012   2
   5  -2  -7 18844.8 686.368   2
  -5  -2   7 23519.2 1312.22   2
  -5  -2   7 21973.1 749.692   3
  -5  -2   6 11477.7 540.154   3
  -5  -2   6 11110.9 870.718   2
  -5  -2   5 41237.2 1814.65   2
  -5  -2   5 40943.5 1292.06   3
  -5  -2   4 48884.9 1983.40   2
  -5  -2   3 37651.6 1701.31   2
  -5  -2   2 66525.7 2429.13   2
   5  -2  -2 64798.0 1601.18   2
  -5  -2   1 50583.2 2074.13   2
   5  -2  -1 50726.7 1453.96   2
   5  -2   0 14301.3 674.343   1
   5  -2   0 12993.5 672.516   2
   5  -2   1 46727.3 1409.75   1
   5  -2   1 47129.6 1586.72   2
   5  -2   2 16964.6 908.057   2
   5  -2   2 16172.4 687.389   1
   5  -2   3 10786.4 513.665   1
   5  -2   3 11669.6 783.688   2
   5  -2   4 15121.3 963.031   2
   5  -2   5 16308.9 1057.34   2
   5  -2   6 3712.90 513.949   2
   5  -2   7 30146.9 1632.11   2
   5  -2   8 22551.5 1448.94   2
   5  -2   9 4724.83 668.902   2
   5  -2  10 1315.05 365.256   2
   5  -2  11 913.916 304.634   2
   5  -2  12 3964.68 681.235   2
   5  -2  13 3699.76 672.392   2
   5  -2  14 2481.16 585.184   2
   5  -2  15 371.728 211.199   2
  -5  -1  21 266.369 200.585   2
  -5  -1  20 385.830 221.055   2
  -5  -1  19 427.621 218.403   2
  -5  -1  18-25.3528 91.1571   2
  -5  -1  17 3549.63 614.729   2
  -5  -1  16 2523.56 476.914   2
  -5  -1  15 4526.66 633.075   2
  -5  -1  14 1921.91 400.705   2
  -5  -1  13 1916.80 375.391   2
  -5  -1  12 9430.74 831.935   2
  -5  -1  11 956.674 241.626   2
  -5  -1  10 13342.8 926.427   2
  -5  -1   9 15740.0 981.998   2
  -5  -1   8 70798.7 2298.06   2
   5  -1  -8 57216.0 1909.44   2
   5  -1  -7 39694.3 1330.84   2
  -5  -1   7 41441.4 1637.24   2
   5  -1  -6 22250.8 804.634   2
  -5  -1   6 23827.1 922.188   3
  -5  -1   6 24445.8 1185.86   2
  -5  -1   5 69583.3 2300.92   2
  -5  -1   5 70429.3 1964.36   3
  -5  -1   4 3259.17 390.979   2
  -5  -1   4 3347.13 317.424   3
  -5  -1   3 17997.9 988.762   2
   5  -1  -3 19728.9 928.366   1
  -5  -1   3 17264.9 813.526   3
  -5  -1   2 45776.0 1528.46   3
  -5  -1   2 45302.1 1738.30   2
   5  -1  -2 48139.7 1573.19   1
   5  -1  -1 16479.2 796.822   1
   5  -1   0 44241.7 1477.07   1
   5  -1   1 110451. 2995.29   2
   5  -1   1 115916. 2967.00   1
   5  -1   2 29168.5 1144.31   1
   5  -1   2 28906.7 1234.24   2
   5  -1   3 6208.62 563.500   2
   5  -1   4 30681.5 1420.94   2
   5  -1   5 7709.37 696.341   2
   5  -1   6 20422.9 1233.84   2
   5  -1   7 29630.6 1589.62   2
   5  -1   8 30644.0 1692.91   2
   5  -1   9 665.390 270.501   2
   5  -1  10 29447.6 1803.84   2
   5  -1  11 3809.93 641.517   2
   5  -1  12 2008.76 497.958   2
   5  -1  13 4350.44 756.805   2
   5  -1  14 2757.31 612.456   2
   5  -1  15 1213.73 424.032   2
  -5  -1 -16 1745.74 495.151   3
   5   0 -20 801.106 366.882   1
   5   0 -19 2979.58 653.570   1
  -5   0  19 2429.86 514.259   2
   5   0 -18 1101.82 380.210   1
  -5   0  18 915.469 305.433   2
   5   0 -17 1790.19 479.532   1
  -5   0  17 916.351 312.787   2
  -5   0  16 349.244 186.496   2
  -5   0  15 344.115 179.987   2
  -5   0  14 9.50487 80.6065   2
  -5   0  13 2968.67 435.680   2
  -5   0  12 9436.58 754.017   2
  -5   0  11 886.992 204.567   2
  -5   0  10 4238.12 449.291   2
  -5   0   9 9051.91 641.298   2
  -5   0   8 149219. 3773.82   2
  -5   0   7 17801.8 845.556   2
   5   0  -6 3947.44 409.622   2
  -5   0   6 4372.30 373.214   2
   5   0  -5 7714.59 537.377   2
  -5   0   5 7048.38 526.813   3
  -5   0   5 7946.78 508.905   2
  -5   0   4 10318.6 596.790   2
  -5   0   4 11283.5 674.403   3
  -5   0   3 53786.9 1681.90   2
  -5   0   3 54616.6 1768.65   3
  -5   0   2 1742.95 252.586   3
   5   0  -2 1676.01 274.202   1
  -5   0   1 134302. 3506.79   3
   5   0  -1 140739. 3650.30   1
  -5   0   0 85014.5 2484.07   3
   5   0   0 87413.2 2605.78   1
   5   0   1 327209. 7532.04   1
  -5   0  -1 325722. 7428.29   3
  -5   0  -2 77252.1 2398.79   3
  -5   0  -3 18788.5 1016.75   3
  -5   0  -4 643.471 195.806   3
  -5   0  -5 1788.53 317.627   3
   5   0   5 1663.36 330.021   2
   5   0   6 16017.5 1120.20   2
   5   0   7 9587.28 895.952   2
   5   0   8 20.2106 88.1420   2
   5   0   9-112.053 183.006   2
  -5   0  -9 177.283 145.237   3
  -5   0 -10 15863.9 1195.84   3
   5   0  10 15174.0 1292.31   2
   5   0  11 860.406 300.250   2
  -5   0 -11 1339.70 344.907   3
   5   0  12 5890.10 846.432   2
  -5   0 -12 5421.97 746.277   3
  -5   0 -13 3592.89 631.368   3
   5   0  13 2762.10 588.089   2
  -5   0 -14 1417.33 408.568   3
  -5   0 -15 628.991 295.961   3
   5   1 -19 808.762 336.212   1
   5   1 -18 283.145 236.868   1
   5   1 -17 4842.26 776.893   1
  -5   1  17 3242.87 534.018   2
   5   1 -16 3979.85 690.484   1
  -5   1  16 2846.24 471.190   2
   5   1 -15 6390.52 826.235   1
  -5   1  15 4261.35 566.542   2
  -5   1  14 1465.74 305.413   2
   5   1 -14 2394.09 489.260   1
  -5   1  13 2213.77 364.094   2
   5   1 -13 2610.91 485.884   1
   5   1 -12 10187.2 946.293   1
  -5   1  12 8839.90 695.906   2
  -5   1  11 968.873 208.237   2
   5   1 -11 1332.00 321.978   1
   5   1 -10 10955.6 474.467   3
  -5   1  10 12773.4 739.652   2
   5   1  -9 12452.1 535.312   3
  -5   1   9 15227.0 747.039   2
  -5   1   8 62429.5 1772.71   2
  -5   1   7 42498.3 1229.54   2
  -5   1   6 22043.5 686.730   2
  -5   1   3 17343.7 616.183   2
  -5   1   3 18923.7 1001.17   3
  -5   1   3 17589.1 562.045   2
  -5   1   2 44788.8 1694.89   3
  -5   1   2 45384.5 1270.78   2
   5   1  -1 15941.4 1012.89   1
  -5   1   1 16052.2 908.553   3
  -5   1   1 15369.2 703.282   2
  -5   1   0 43991.7 1681.02   3
   5   1   0 47285.8 1916.02   1
  -5   1  -1 117710. 3297.45   3
  -5   1  -2 30415.8 1325.78   3
  -5   1  -2 25618.2 941.935   1
  -5   1  -3 5180.62 356.782   1
  -5   1  -3 6244.83 575.241   3
  -5   1  -4 28887.6 1340.59   3
  -5   1  -4 23870.9 888.312   1
  -5   1  -5 7873.73 685.340   3
  -5   1  -5 6123.88 404.619   1
  -5   1  -6 20805.2 1174.50   3
  -5   1  -6 14755.4 706.392   1
  -5   1  -7 29735.8 1525.49   3
  -5   1  -8 31612.9 1629.29   3
  -5   1  -9 335.797 134.074   3
  -5   1 -10 32212.5 1761.31   3
  -5   1 -11 4211.78 621.226   3
  -5   1 -12 2423.04 490.578   3
  -5   1 -13 2885.92 549.894   3
  -5   1 -14 2613.44 553.624   3
   5   2 -18 831.708 346.393   1
   5   2 -17 2248.50 542.731   1
   5   2 -16 1076.55 351.725   1
  -5   2  15 5195.28 624.906   2
   5   2 -15 7763.96 942.668   1
   5   2 -14 1528.01 417.937   1
  -5   2  14 1259.02 280.689   2
  -5   2  13 1543.96 298.542   2
   5   2 -13 1925.92 424.258   1
  -5   2  12 4279.82 473.661   2
   5   2 -12 5952.74 730.028   1
   5   2 -11 5571.95 686.943   1
   5   2 -10 7343.25 770.041   1
   5   2  -9 459.209 171.694   1
   5   2  -8 5513.43 627.439   1
  -5   2   2 61792.5 1660.56   2
  -5   2   1 50761.2 1934.13   3
  -5   2   1 44687.8 1457.77   2
  -5   2   0 13085.5 914.498   3
  -5   2  -1 46001.1 1877.95   3
  -5   2  -2 16150.2 1035.98   3
  -5   2  -3 12876.4 927.977   3
  -5   2  -4 13234.7 962.720   3
  -5   2  -5 15104.8 1051.66   3
  -5   2  -6 3433.87 505.032   3
  -5   2  -7 30527.5 1619.59   3
  -5   2  -8 24990.0 1488.09   3
  -5   2  -9 4262.31 598.236   3
  -5   2 -10 1188.68 330.475   3
  -5   2 -11 1403.54 371.364   3
  -5   2 -12 4065.69 658.330   3
  -5   2 -13 3599.92 643.593   3
   5   3 -17 1503.11 456.285   1
   5   3 -16 96.0296 89.4625   1
   5   3 -15 597.578 266.436   1
   5   3 -14 7331.22 930.456   1
   5   3 -13 688.360 286.189   1
   5   3 -12 17001.7 1369.45   1
   5   3 -11 27611.9 1719.19   1
   5   3 -10 4864.96 688.360   1
   5   3  -9 10055.3 967.152   1
   5   3  -8 14762.7 1156.04   1
   5   3  -7 1326.92 365.411   1
   5   3  -6 50211.7 2282.12   1
  -5   3   3 23427.8 889.992   2
  -5   3   2 9185.46 598.366   2
  -5   3   1 7573.78 592.665   2
  -5   3  -2 10147.9 894.430   3
  -5   3  -3 6578.48 714.801   3
  -5   3  -4 1324.28 311.304   3
  -5   3  -5 24768.4 1501.29   3
  -5   3  -6 11294.0 1001.99   3
  -5   3  -7 4774.78 661.606   3
  -5   3  -8 1513.12 385.700   3
  -5   3  -9 993.817 311.618   3
  -5   3 -10 11801.2 1132.40   3
  -5   3 -11 2441.76 533.594   3
  -5   3 -12 3230.05 630.159   3
   5   4 -15 4353.86 770.253   1
   5   4 -14 3868.75 711.548   1
   5   4 -13 1086.23 352.484   1
   5   4 -12 1908.20 471.854   1
   5   4 -11 514.082 249.408   1
   5   4 -10 34.1524 73.7214   1
   5   4  -9 3108.20 574.687   1
   5   4  -8 1405.33 360.232   1
   5   4  -7 7997.18 911.723   1
   5   4  -6 13331.9 1206.39   1
   5   4  -5 7514.22 900.730   1
  -5   4   3 18590.7 992.608   2
  -5   4  -8 5138.56 750.081   3
  -5   4  -9 7393.36 927.631   3
  -5   4 -10 219.443 216.127   3
  -5   4 -11 873.211 319.921   3
   5   5 -14 210.075 160.589   1
   5   5 -13 88.2517 174.116   1
   5   5 -12 13450.4 1369.51   1
   5   5 -11 930.981 373.861   1
   5   5 -10 18318.3 1579.88   1
   5   5  -9 2177.87 531.751   1
   5   5  -8 1006.01 380.956   1
  -6  -8  10 914.469 405.787   2
  -6  -8   9 1349.68 488.730   2
  -6  -8   8 124.759 165.915   2
  -6  -8   7 1364.05 469.449   2
  -6  -8   6 565.210 316.002   2
  -6  -8   5 357.504 256.859   2
  -6  -8   4 3096.28 726.855   2
  -6  -8   3 1288.05 466.404   2
  -6  -8   2 1451.60 558.239   2
  -6  -8   1 3503.11 812.399   2
  -6  -8   0 83.0411 177.080   2
  -6  -8  -1 9622.44 1397.87   2
  -6  -8  -2 300.674 215.477   2
  -6  -8  -3 463.066 383.092   2
  -6  -8  -4 2378.44 704.100   2
  -6  -8  -5-144.295 303.930   2
   6  -8   7 228.812 195.582   2
  -6  -7  13 2679.37 676.230   2
  -6  -7  12 856.358 392.563   2
  -6  -7  11 940.308 405.480   2
  -6  -7  10 3010.87 683.522   2
  -6  -7   9 2217.53 601.286   2
  -6  -7   8 1012.12 343.880   2
  -6  -7   7 2606.39 619.460   2
  -6  -7   6 2837.82 640.712   2
  -6  -7   5 1345.91 431.511   2
  -6  -7   4 2971.21 681.151   2
  -6  -7   3 2568.17 629.106   2
  -6  -7   2 5122.16 894.821   2
  -6  -7   1 3392.64 740.909   2
  -6  -7   0 4676.13 921.272   2
  -6  -7  -1 1987.53 595.110   2
  -6  -7  -2 2176.25 630.328   2
   6  -7   2 1309.26 353.008   2
   6  -7   3 85.8367 47.5963   2
  -6  -7  -3 228.529 304.595   2
  -6  -7  -4 4425.95 946.503   2
   6  -7   4 3924.53 642.957   2
  -6  -7  -5 1076.45 511.455   2
   6  -7   5 875.160 308.417   2
  -6  -7  -6 3570.37 884.752   2
   6  -7   6 2093.01 499.054   2
   6  -7   7 1091.20 349.323   2
  -6  -7  -7 1491.15 583.705   2
  -6  -7  -8 953.388 419.569   2
   6  -7   8 497.654 244.676   2
   6  -7   9 1572.86 463.109   2
   6  -7  10 666.112 316.606   2
  -6  -6  16 780.826 404.107   2
  -6  -6  15-133.607 161.609   2
  -6  -6  14 779.264 359.184   2
  -6  -6  13 604.657 306.732   2
  -6  -6  12 650.492 290.312   2
  -6  -6  11 3778.17 739.336   2
  -6  -6  10 1245.64 418.718   2
  -6  -6   9 4468.62 800.725   2
  -6  -6   8 5071.22 831.175   2
  -6  -6   7 4195.32 756.730   2
  -6  -6   6 11793.9 1284.20   2
  -6  -6   5 1786.96 495.230   2
  -6  -6   4 9511.77 1142.53   2
  -6  -6   3 944.902 353.802   2
  -6  -6   2 2415.05 576.502   2
  -6  -6   1 935.012 375.728   2
   6  -6  -1 1534.35 309.740   2
  -6  -6   0 396.039 259.797   2
   6  -6   0 803.700 238.994   2
  -6  -6  -1 9167.02 1194.13   2
   6  -6   1 7913.60 777.792   2
  -6  -6  -2 14461.2 1544.34   2
   6  -6   2 13203.6 1057.62   2
  -6  -6  -3 4523.25 892.096   2
   6  -6   3 3163.45 530.695   2
   6  -6   4 1399.70 353.201   2
  -6  -6  -4 2438.58 650.091   2
  -6  -6  -5 697.787 403.585   2
   6  -6   5 642.885 244.764   2
   6  -6   6 2529.85 515.618   2
  -6  -6  -6 2911.97 745.931   2
   6  -6   7 1234.81 373.345   2
  -6  -6  -7 851.695 415.146   2
  -6  -6  -8 5884.39 1124.80   2
   6  -6   8 5679.97 820.715   2
   6  -6   9 372.769 239.875   2
   6  -6  10 2053.77 533.142   2
   6  -6  11-200.252 173.318   2
  -6  -5  18 213.270 156.264   2
  -6  -5  17 923.546 397.616   2
  -6  -5  16 1193.04 441.987   2
  -6  -5  15 996.081 409.951   2
  -6  -5  14 6307.23 952.097   2
  -6  -5  13 1563.71 466.388   2
  -6  -5  12 855.471 384.815   2
  -6  -5  11 5176.37 820.925   2
  -6  -5  10 409.189 259.545   2
  -6  -5   9 8129.11 1013.49   2
  -6  -5   8 4691.48 770.723   2
  -6  -5   7 1858.70 469.483   2
  -6  -5   6 6227.47 851.839   2
  -6  -5   5 16410.9 1433.63   2
  -6  -5   4 3136.70 604.712   2
  -6  -5   3 3422.81 632.012   2
   6  -5  -3 3413.75 374.757   2
  -6  -5   2 160.663 178.797   2
   6  -5  -2 474.190 149.014   2
  -6  -5   1 1598.78 450.420   2
   6  -5  -1 1875.22 308.149   2
  -6  -5   0 8933.28 1080.83   2
   6  -5   0 10176.1 779.714   2
  -6  -5  -1 10687.9 1217.97   2
   6  -5   1 11117.9 858.091   2
  -6  -5  -2 33565.0 2255.79   2
   6  -5   2 30892.3 1572.40   2
  -6  -5  -3 5830.05 949.481   2
   6  -5   3 5710.74 657.344   2
  -6  -5  -4 13594.8 1461.42   2
   6  -5   4 12327.2 1011.46   2
  -6  -5  -5 18824.9 1780.40   2
   6  -5   5 16814.2 1242.41   2
   6  -5   6 1322.12 370.239   2
   6  -5   7 5982.79 778.311   2
   6  -5   8 1336.72 394.758   2
   6  -5   9 224.778 145.805   2
   6  -5  10 3884.48 702.743   2
   6  -5  11 698.804 330.216   2
   6  -5  12 1560.53 481.699   2
  -6  -4  19 177.240 158.098   2
  -6  -4  18 552.140 262.012   2
  -6  -4  17 461.087 268.398   2
  -6  -4  16 4058.62 734.854   2
  -6  -4  15 1018.87 381.762   2
  -6  -4  14 4965.59 800.226   2
  -6  -4  13 5056.28 787.183   2
  -6  -4  12 2433.97 536.121   2
  -6  -4  11 29567.4 1911.77   2
  -6  -4  10 4658.32 719.229   2
  -6  -4   9 4103.62 678.304   2
  -6  -4   8 1465.13 191.905   3
  -6  -4   8 1055.12 334.779   2
  -6  -4   7 619.893 210.465   2
  -6  -4   6 13984.6 1228.50   2
  -6  -4   5 6952.12 843.241   2
   6  -4  -5 5418.64 287.927   2
  -6  -4   4 10602.1 1038.72   2
   6  -4  -4 10036.9 482.932   2
  -6  -4   3 676.622 230.266   2
   6  -4  -3 725.904 136.455   2
  -6  -4   2 9721.72 1016.87   2
   6  -4  -2 9625.96 586.767   2
  -6  -4   1 6852.54 875.074   2
   6  -4  -1 7979.59 573.814   2
  -6  -4   0 13630.2 1249.49   2
   6  -4   0 13218.3 811.358   2
  -6  -4  -1 24016.5 1739.19   2
   6  -4   1 23074.9 1170.81   2
  -6  -4  -2 26616.6 1879.22   2
   6  -4   2 26550.7 1324.96   2
   6  -4   2 25445.9 925.894   1
   6  -4   3 10805.6 851.422   2
   6  -4   4 4232.25 557.266   2
   6  -4   5 9537.50 882.273   2
   6  -4   6 4823.06 653.110   2
   6  -4   7 9077.79 935.619   2
   6  -4   8 6694.87 835.439   2
   6  -4   9 4094.35 661.680   2
   6  -4  10 3309.45 622.604   2
   6  -4  11 1106.26 380.845   2
   6  -4  12 2246.96 555.403   2
   6  -4  13 714.917 346.492   2
  -6  -3  20 9.51927 78.7100   2
  -6  -3  19 254.750 159.000   2
  -6  -3  18 1199.06 386.289   2
  -6  -3  17 1655.54 458.274   2
  -6  -3  16 3050.40 591.045   2
  -6  -3  15 3623.35 643.970   2
  -6  -3  14 1420.33 410.568   2
  -6  -3  13 4982.34 734.075   2
  -6  -3  12 4412.66 663.528   2
  -6  -3  11 2438.70 504.971   2
  -6  -3  10 4281.83 636.929   2
   6  -3  -9 1634.26 186.458   2
  -6  -3   9 2747.70 506.160   2
  -6  -3   8 7753.92 434.797   3
  -6  -3   8 8413.55 877.239   2
  -6  -3   7 48452.8 1480.13   3
  -6  -3   7 45849.4 2197.52   2
  -6  -3   6 4321.67 626.206   2
  -6  -3   5 179.338 95.6343   2
  -6  -3   4 5317.71 682.815   2
  -6  -3   3 21447.6 1416.22   2
   6  -3  -3 20720.9 666.753   2
  -6  -3   2 32906.8 1812.28   2
   6  -3  -2 33059.2 1075.53   2
   6  -3  -1 1176.03 189.682   2
  -6  -3   1 1231.67 315.062   2
   6  -3   0 13865.5 726.019   1
  -6  -3   0 15095.3 1217.42   2
   6  -3   0 13913.5 774.330   2
   6  -3   1 24529.5 962.334   1
  -6  -3  -1 25973.6 1665.32   2
   6  -3   1 23973.3 1135.20   2
   6  -3   2 29321.8 1027.28   1
   6  -3   2 29787.9 1360.32   2
   6  -3   3 7716.33 416.540   1
   6  -3   3 8800.79 727.690   2
   6  -3   4 12770.6 942.289   2
   6  -3   5 1509.05 330.832   2
   6  -3   6 6113.44 703.732   2
   6  -3   7 13911.2 1132.63   2
   6  -3   8 2974.05 535.776   2
   6  -3   9 1242.48 353.382   2
   6  -3  10 2386.23 521.669   2
   6  -3  11 512.144 274.623   2
   6  -3  12 2717.03 587.930   2
   6  -3  13-49.6198 152.708   2
   6  -3  14 378.146 227.331   2
  -6  -2  20 446.104 252.263   2
  -6  -2  19 239.334 144.671   2
  -6  -2  18 276.011 166.485   2
  -6  -2  17 3886.51 656.183   2
  -6  -2  16 806.452 278.071   2
  -6  -2  15 96.6462 107.308   2
  -6  -2  14 343.457 172.272   2
  -6  -2  13-1.80988 106.669   2
  -6  -2  12 6874.11 779.182   2
  -6  -2  11 6741.30 742.451   2
  -6  -2  10 4844.65 626.696   2
  -6  -2   9 18690.7 1215.92   2
   6  -2  -9 15607.1 716.061   2
   6  -2  -8 11067.4 444.322   2
  -6  -2   8 13241.5 617.362   3
  -6  -2   7 9568.44 828.808   2
  -6  -2   7 8761.45 524.390   3
  -6  -2   6 21302.0 1302.32   2
  -6  -2   6 22925.3 939.710   3
  -6  -2   5 4843.71 572.950   2
  -6  -2   5 4379.45 390.609   3
  -6  -2   4 39643.6 1856.51   2
  -6  -2   4 43476.3 1498.84   3
  -6  -2   3 6560.20 687.661   2
  -6  -2   2 2624.37 437.502   2
   6  -2  -2 2259.03 303.914   1
  -6  -2   1 19543.3 1261.22   2
   6  -2  -1 19364.1 825.908   2
   6  -2  -1 21093.6 955.887   1
   6  -2   0 5182.33 425.942   2
   6  -2   0 5349.67 442.390   1
   6  -2   1 12681.6 694.341   1
   6  -2   1 12585.2 746.844   2
   6  -2   2 38388.4 1540.01   2
   6  -2   2 38495.8 1342.03   1
   6  -2   3 16760.4 1004.26   2
   6  -2   4 12617.4 911.492   2
   6  -2   5 4054.38 530.516   2
   6  -2   6 34719.3 1758.60   2
   6  -2   7 1232.55 332.077   2
   6  -2   8 16524.9 1255.92   2
   6  -2   9 7308.11 863.970   2
   6  -2  10 5680.85 782.345   2
   6  -2  11 3539.23 639.629   2
   6  -2  12 4121.25 716.500   2
   6  -2  13 130.038 69.1053   2
   6  -2  14 419.499 217.958   2
   6  -1 -21 3.70098 168.012   1
  -6  -1  19 35.8985 94.2934   2
  -6  -1  18 677.096 252.635   2
  -6  -1  17 1442.05 394.507   2
  -6  -1  16 48.0918 87.5805   2
  -6  -1  15 5211.25 665.666   2
  -6  -1  14 3180.65 502.154   2
  -6  -1  13 687.854 218.338   2
  -6  -1  12 7504.56 732.167   2
  -6  -1  11 12024.6 909.816   2
  -6  -1  10 3674.64 479.892   2
   6  -1  -9 26181.6 1213.79   2
  -6  -1   9 33244.5 1498.11   2
   6  -1  -8 904.470 172.728   2
  -6  -1   8 1482.66 284.266   2
   6  -1  -7 4087.31 318.524   2
  -6  -1   7 4141.79 385.200   3
  -6  -1   7 4242.54 489.693   2
  -6  -1   6 47920.4 1848.52   2
  -6  -1   6 47722.9 1615.77   3
  -6  -1   5 9119.61 720.115   2
   6  -1  -5 9534.16 716.018   1
  -6  -1   5 7834.81 557.009   3
  -6  -1   4 2640.59 384.596   2
  -6  -1   4 3359.01 358.142   3
   6  -1  -4 2946.29 381.050   1
  -6  -1   3 6388.06 603.108   2
  -6  -1   3 6326.90 506.381   3
   6  -1  -3 6807.56 556.360   1
  -6  -1   2 24918.9 1281.02   2
  -6  -1   2 24885.1 1126.38   3
   6  -1  -2 24359.8 1122.60   1
  -6  -1   1 72807.7 2289.83   3
   6  -1  -1 72889.6 2252.24   1
   6  -1   0 427.219 137.395   1
   6  -1   1 13075.2 791.936   1
   6  -1   2 24366.4 1138.64   1
   6  -1   2 23772.9 1179.87   2
   6  -1   3 885.756 214.985   2
   6  -1   4 9931.95 807.232   2
   6  -1   5 10130.4 859.776   2
   6  -1   6 159.113 53.5369   2
   6  -1   7 17035.5 1246.06   2
   6  -1   8 12568.6 1111.71   2
   6  -1   9 12319.7 1120.85   2
   6  -1  10 5006.56 728.508   2
   6  -1  11 1085.59 345.175   2
   6  -1  12 2819.33 600.665   2
   6  -1  13 72.3811 93.1032   2
   6  -1  14 382.568 250.912   2
  -6  -1 -14 231.883 191.275   3
  -6  -1 -15 546.484 272.608   3
  -6  -1 -16 990.918 384.810   3
   6   0 -21 1533.92 555.475   1
   6   0 -20 861.359 395.601   1
   6   0 -19 568.323 356.360   1
   6   0 -18 405.002 285.987   1
   6   0 -17-122.411 70.5062   1
  -6   0  17 100.624 101.417   2
   6   0 -16 2360.69 529.095   1
  -6   0  16 1353.03 326.373   2
   6   0 -15 4656.29 739.405   1
  -6   0  15 4367.78 577.030   2
   6   0 -14 1019.67 320.581   1
  -6   0  14 567.300 194.259   2
   6   0 -13 1663.87 388.969   1
  -6   0  13 1082.29 253.871   2
  -6   0  12 4023.07 484.061   2
   6   0 -12 4588.12 667.517   1
   6   0 -11 6112.98 706.487   1
  -6   0  11 4923.86 502.268   2
   6   0 -10 5410.58 647.954   1
  -6   0  10 4021.66 434.159   2
  -6   0   9 61344.4 1988.82   2
  -6   0   8 2604.58 318.450   2
  -6   0   7 8.44893 22.4094   2
   6   0  -6 4593.88 442.583   2
  -6   0   6 5278.26 440.390   2
  -6   0   5 41.7170 129.213   3
  -6   0   5-22.2672 77.9207   2
  -6   0   4 32504.7 1298.96   2
  -6   0   4 34400.9 1401.12   3
   6   0  -4 33097.6 1469.54   1
  -6   0   3 27662.2 1187.27   2
  -6   0   3 28578.0 1259.57   3
   6   0  -3 28463.7 1328.11   1
   6   0  -2 1007.20 228.756   1
  -6   0   2 1140.75 227.675   3
  -6   0   1 38318.3 1525.55   3
   6   0  -1 38044.2 1611.52   1
  -6   0   0 120088. 3376.43   3
   6   0   0 122043. 3532.29   1
   6   0   1 17695.5 1066.00   1
  -6   0  -1 18436.3 1025.07   3
  -6   0  -2 2917.19 405.850   3
  -6   0  -3 107223. 3261.30   3
  -6   0  -4 3646.50 478.445   3
  -6   0  -5 894.354 244.155   3
  -6   0  -6 8194.91 781.677   3
  -6   0  -7 12800.7 1022.76   3
  -6   0  -8 83.4324 55.1057   3
  -6   0  -9 20439.8 1414.71   3
  -6   0 -10 2017.44 451.383   3
  -6   0 -11 5575.17 767.392   3
  -6   0 -12 804.247 329.702   3
  -6   0 -13 5007.25 789.043   3
  -6   0 -14 1268.29 412.729   3
  -6   0 -15 1823.79 512.262   3
   6   1 -20 270.767 219.852   1
   6   1 -19 127.082 114.036   1
   6   1 -18 631.572 323.547   1
   6   1 -17 1210.08 406.460   1
   6   1 -16 597.195 273.970   1
   6   1 -15 6500.64 865.545   1
  -6   1  15 3989.17 516.748   2
  -6   1  14 2972.01 423.244   2
   6   1 -14 4085.38 664.874   1
  -6   1  13 608.365 181.829   2
   6   1 -13 900.180 310.484   1
  -6   1  12 6759.70 578.887   2
   6   1 -12 9506.30 941.522   1
   6   1 -11 14015.9 1100.69   1
  -6   1  11 10021.6 668.386   2
   6   1 -10 4216.90 584.248   1
  -6   1  10 3515.22 353.320   2
  -6   1   9 30709.7 1122.51   2
   6   1  -9 40416.3 1840.31   1
  -6   1   8 1216.97 161.671   2
  -6   1   7 4784.25 284.519   2
  -6   1   6 40694.5 1049.03   2
  -6   1   5 6622.68 296.387   2
  -6   1   4 2412.50 211.223   2
  -6   1   4 2361.28 362.586   3
  -6   1   4 2489.58 183.069   2
  -6   1   3 6240.93 400.701   2
  -6   1   3 5750.00 576.599   3
  -6   1   3 5339.66 334.542   2
  -6   1   2 26015.2 1276.87   3
   6   1  -2 24808.4 1352.53   1
   6   1  -1 75260.5 2632.38   1
  -6   1   1 76747.8 2472.60   3
   6   1   0 452.822 164.368   1
  -6   1   0 652.491 183.377   3
  -6   1  -1 14097.2 931.724   3
  -6   1  -2 25632.7 1327.85   3
  -6   1  -3 998.425 233.652   3
  -6   1  -4 9043.95 769.057   3
  -6   1  -4 6387.40 445.798   1
  -6   1  -5 10200.6 869.416   3
  -6   1  -6 328.029 173.946   3
  -6   1  -7 18044.4 1239.07   3
  -6   1  -8 14549.2 1135.57   3
  -6   1  -9 12278.3 1076.26   3
  -6   1 -10 5687.04 751.745   3
  -6   1 -11 1164.43 312.755   3
  -6   1 -12 3362.71 619.944   3
  -6   1 -13 25.2603 133.821   3
  -6   1 -14 325.540 221.608   3
   6   2 -19-42.4073 81.9253   1
   6   2 -18 126.149 207.621   1
   6   2 -17 4596.00 805.091   1
   6   2 -16 1095.09 371.825   1
   6   2 -15 311.226 139.956   1
   6   2 -14 438.569 221.619   1
   6   2 -13 0.23875 78.4927   1
   6   2 -12 7673.66 882.156   1
   6   2 -11 7905.03 869.684   1
   6   2 -10 5512.40 719.097   1
   6   2  -9 20528.2 1368.79   1
   6   2  -8 15467.6 1171.05   1
  -6   2   3 5104.71 284.414   2
  -6   2   2 2777.19 427.339   3
  -6   2   2 1925.50 220.486   2
   6   2  -1 18935.5 1317.29   1
  -6   2   1 20480.5 1215.03   3
  -6   2   0 5488.33 618.084   3
  -6   2  -1 13586.4 1005.75   3
  -6   2  -2 42946.5 1926.27   3
  -6   2  -3 17460.3 1178.36   3
  -6   2  -4 11628.5 967.744   3
  -6   2  -5 4020.96 574.707   3
  -6   2  -6 39411.5 1955.01   3
  -6   2  -7 1439.00 355.871   3
  -6   2  -8 16506.1 1276.92   3
  -6   2  -9 9477.70 978.079   3
  -6   2 -10 6848.65 855.503   3
  -6   2 -11 3853.94 667.393   3
  -6   2 -12 3895.27 683.101   3
  -6   2 -13 111.557 193.071   3
   6   3 -17 1238.20 448.761   1
   6   3 -16 3850.05 752.383   1
   6   3 -15 3552.27 697.444   1
   6   3 -14 1477.78 424.896   1
   6   3 -13 4475.26 743.021   1
   6   3 -12 3987.66 692.263   1
   6   3 -11 2606.15 528.133   1
   6   3 -10 4171.91 679.765   1
   6   3  -9 2192.66 498.022   1
   6   3  -8 9360.40 971.438   1
   6   3  -7 48811.1 2380.15   1
   6   3  -6 4386.65 664.940   1
  -6   3   3 21091.4 815.182   2
  -6   3   2 30325.2 1205.37   2
  -6   3  -1 25750.7 1539.98   3
  -6   3  -2 31248.2 1735.16   3
  -6   3  -3 8157.84 867.013   3
  -6   3  -4 12659.3 1094.11   3
  -6   3  -5 1238.29 358.965   3
  -6   3  -6 7979.48 894.743   3
  -6   3  -7 14092.6 1229.23   3
  -6   3  -8 2786.48 553.323   3
  -6   3  -9 816.943 313.730   3
  -6   3 -10 2092.07 523.757   3
  -6   3 -11 882.142 307.778   3
  -6   3 -12 2634.48 600.474   3
   6   4 -16 3937.68 788.103   1
   6   4 -15 920.018 399.960   1
   6   4 -14 4415.11 798.873   1
   6   4 -13 4681.79 802.205   1
   6   4 -12 2520.28 583.206   1
   6   4 -11 33280.0 2162.85   1
   6   4 -10 7123.50 938.005   1
   6   4  -9 4734.91 753.390   1
   6   4  -8 1383.37 411.415   1
   6   4  -7 1428.70 394.637   1
   6   4  -6 14007.7 1308.90   1
   6   4  -5 8136.49 997.162   1
  -6   4  -6 4243.41 695.790   3
  -6   4  -7 8389.41 1005.02   3
  -6   4  -8 7884.14 999.503   3
  -6   4  -9 4771.76 781.806   3
  -6   4 -10 4950.56 828.695   3
  -6   4 -11 1054.30 384.550   3
   6   5 -15 225.475 175.342   1
   6   5 -14 5783.00 966.348   1
   6   5 -13 1806.56 519.086   1
   6   5 -12 243.652 231.801   1
   6   5 -11 5150.83 866.723   1
   6   5 -10 377.436 222.834   1
   6   5  -9 8088.22 1076.44   1
   6   5  -8 5332.50 865.830   1
   6   6 -13 49.7507 121.103   1
   6   6 -12 776.035 341.059   1
  -7  -8   9 387.777 215.357   2
  -7  -8   8 2226.37 640.999   2
  -7  -8   7 492.593 338.975   2
  -7  -8   6 450.132 288.479   2
  -7  -8   5 286.967 294.659   2
  -7  -8   4 369.539 267.393   2
  -7  -8   3 1193.52 463.334   2
  -7  -8   2 408.358 324.374   2
  -7  -8   1 400.143 350.436   2
  -7  -8   0-21.9229 133.794   2
  -7  -8  -1 1276.70 539.670   2
  -7  -8  -2-47.1370 206.877   2
  -7  -8  -3 5531.00 1093.84   2
  -7  -7  13 317.663 254.714   2
  -7  -7  12 103.470 75.9616   2
  -7  -7  11 128.312 199.195   2
  -7  -7  10 4482.24 868.071   2
  -7  -7   9 84.5004 164.469   2
  -7  -7   8 662.787 335.484   2
  -7  -7   7 3404.65 736.595   2
  -7  -7   6 2554.77 644.800   2
  -7  -7   5 6654.56 1051.50   2
  -7  -7   4 823.711 338.230   2
  -7  -7   3 810.130 368.460   2
  -7  -7   2 259.969 212.284   2
  -7  -7   1 244.210 191.872   2
  -7  -7   0 2565.64 667.117   2
  -7  -7  -1 2563.97 684.767   2
  -7  -7  -2 3196.76 804.701   2
  -7  -7  -3 4075.04 920.203   2
  -7  -7  -4 2149.70 674.519   2
  -7  -7  -5 2811.55 795.650   2
  -7  -7  -6 558.768 338.654   2
   7  -7   7 690.183 288.010   2
  -7  -7  -7 1917.16 697.655   2
   7  -7   8-73.3428 78.8202   2
   7  -7   9 52.8397 115.561   2
  -7  -6  16 243.194 226.526   2
  -7  -6  15 2.96731 156.550   2
  -7  -6  14 200.836 121.906   2
  -7  -6  13 501.678 328.640   2
  -7  -6  12 232.637 267.963   2
  -7  -6  11 3196.03 693.992   2
  -7  -6  10 1062.18 383.309   2
  -7  -6   9 2662.40 626.468   2
  -7  -6   8 1.25827 168.716   2
  -7  -6   7 2305.20 562.007   2
  -7  -6   6-3.21834 75.4177   2
  -7  -6   5 1308.76 419.316   2
  -7  -6   4 3146.03 667.261   2
  -7  -6   3 1349.55 445.764   2
  -7  -6   2 2478.56 605.880   2
  -7  -6   1 2499.82 592.935   2
  -7  -6   0-100.816 318.095   2
  -7  -6  -1 13618.2 1523.86   2
  -7  -6  -2 2410.66 653.326   2
   7  -6   2 1926.47 386.401   2
   7  -6   3 98.4255 53.9673   2
  -7  -6  -3-20.9390 168.838   2
  -7  -6  -4 9814.32 1377.12   2
   7  -6   4 7321.40 821.986   2
   7  -6   5 1280.00 364.175   2
  -7  -6  -5 1725.70 563.623   2
   7  -6   6 1411.07 387.186   2
  -7  -6  -6 1635.33 559.839   2
   7  -6   7 1412.77 393.882   2
  -7  -6  -7 997.800 455.386   2
   7  -6   8 1220.98 383.010   2
  -7  -6  -8 1629.22 604.130   2
   7  -6   9-21.5960 86.0936   2
   7  -6  10-11.2615 93.2434   2
  -7  -5  18 351.569 275.957   2
  -7  -5  17 1917.31 556.783   2
  -7  -5  16 1598.57 499.143   2
  -7  -5  15 3091.18 678.193   2
  -7  -5  14 1857.37 504.101   2
  -7  -5  13 446.839 269.391   2
  -7  -5  12 2033.74 531.667   2
  -7  -5  11 351.330 186.384   2
  -7  -5  10 7413.38 994.888   2
  -7  -5   9 124.070 106.442   2
  -7  -5   8 3240.45 638.211   2
  -7  -5   7 4507.82 741.888   2
  -7  -5   6 6957.21 943.388   2
  -7  -5   5 657.725 323.865   2
  -7  -5   4 368.099 104.522   2
  -7  -5   3 4439.39 754.919   2
  -7  -5   2-185.039 236.108   2
  -7  -5   1 3155.80 655.210   2
   7  -5  -1 2710.33 357.669   2
  -7  -5   0 2651.58 607.422   2
   7  -5   0 2998.01 396.971   2
  -7  -5  -1 3307.86 710.617   2
   7  -5   1 3622.49 467.366   2
  -7  -5  -2 151.643 248.285   2
   7  -5   2-14.0130 55.2873   2
  -7  -5  -3 15199.5 1585.48   2
   7  -5   3 15923.8 1128.61   2
  -7  -5  -4 5165.13 948.801   2
   7  -5   4 5105.18 646.281   2
   7  -5   5 1519.21 375.727   2
  -7  -5  -5 719.388 328.517   2
   7  -5   6 712.012 261.302   2
   7  -5   7 3361.10 598.289   2
   7  -5   8 513.995 240.292   2
   7  -5   9 591.327 265.529   2
   7  -5  10 156.494 142.150   2
   7  -5  11 374.384 227.069   2
  -7  -4  19 24.7133 121.007   2
  -7  -4  18 1190.92 431.197   2
  -7  -4  17 1059.31 382.864   2
  -7  -4  16 21.2622 65.3755   2
  -7  -4  15 1409.89 434.722   2
  -7  -4  14 4524.87 758.148   2
  -7  -4  13 1014.07 343.005   2
  -7  -4  12 3976.79 703.317   2
  -7  -4  11 3355.73 625.836   2
  -7  -4  10 94.2089 91.1925   2
  -7  -4   9 10298.1 1090.22   2
  -7  -4   8 5802.96 794.065   2
  -7  -4   7 731.216 279.204   2
  -7  -4   6 3434.78 613.485   2
  -7  -4   5 2936.28 564.021   2
  -7  -4   4 1829.85 458.449   2
  -7  -4   3 2990.71 564.960   2
   7  -4  -3 2421.53 235.525   2
  -7  -4   2 10749.2 1119.10   2
   7  -4  -2 9569.82 572.231   2
  -7  -4   1 11440.9 1176.85   2
   7  -4  -1 9222.60 621.480   2
   7  -4   0 1198.09 218.587   1
   7  -4   0 1335.94 251.712   2
  -7  -4   0 1778.03 504.494   2
  -7  -4  -1 95071.4 3904.77   2
   7  -4   1 86704.8 2443.51   1
   7  -4   1 90691.7 2810.83   2
  -7  -4  -2 2927.47 661.076   2
   7  -4   2 3419.00 455.510   2
   7  -4   3 29795.7 1532.18   2
   7  -4   4 3172.82 491.345   2
   7  -4   5 87.3494 116.392   2
   7  -4   6 3287.16 543.739   2
   7  -4   7 89.3526 69.3119   2
   7  -4   8 900.984 300.863   2
   7  -4   9 1496.81 415.681   2
   7  -4  10 3310.18 639.754   2
   7  -4  11 260.742 233.048   2
   7  -4  12 509.579 261.111   2
  -7  -3  20 407.038 234.367   2
  -7  -3  19 201.299 198.950   2
  -7  -3  18 341.448 241.143   2
  -7  -3  17 963.804 354.461   2
  -7  -3  16 598.680 267.830   2
  -7  -3  15 6792.52 890.868   2
  -7  -3  14 4143.11 684.024   2
  -7  -3  13 8419.35 953.312   2
  -7  -3  12 3149.68 572.442   2
  -7  -3  11 13954.5 1212.20   2
  -7  -3  10 3048.77 547.639   2
  -7  -3   9 479.352 250.887   2
  -7  -3   8 7137.00 494.832   3
  -7  -3   8 7336.17 831.636   2
  -7  -3   7 8777.01 917.459   2
  -7  -3   7 9742.86 615.264   3
  -7  -3   6 3493.57 380.089   3
  -7  -3   6 3569.08 569.029   2
  -7  -3   5 29509.0 1736.90   2
  -7  -3   4 7710.29 852.106   2
  -7  -3   3 688.370 279.564   2
   7  -3  -2 3970.89 432.546   1
  -7  -3   2 3912.06 617.695   2
   7  -3  -2 3573.25 305.400   2
  -7  -3   1 6828.89 841.458   2
   7  -3  -1 6937.33 554.673   1
   7  -3  -1 5622.65 443.581   2
  -7  -3   0 41537.6 2220.64   2
   7  -3   0 39441.3 1454.70   1
   7  -3   0 39436.9 1475.86   2
  -7  -3  -1 4905.22 740.318   2
   7  -3   1 5353.05 514.548   2
   7  -3   1 4976.39 433.829   1
   7  -3   2 3433.84 438.918   2
   7  -3   2 3663.24 349.482   1
   7  -3   3 1370.99 298.922   2
   7  -3   4 8078.54 768.207   2
   7  -3   5 3822.41 549.479   2
   7  -3   6 18781.1 1317.27   2
   7  -3   7 1856.42 419.732   2
   7  -3   8-47.0508 134.248   2
   7  -3   9 8050.06 946.189   2
   7  -3  10 1965.25 483.917   2
   7  -3  11 3009.28 613.260   2
   7  -3  12 1133.83 386.851   2
   7  -3  13 1265.79 429.546   2
  -7  -2  19 761.984 299.281   2
  -7  -2  18 880.493 316.323   2
  -7  -2  17 1321.92 385.834   2
  -7  -2  16 384.415 195.655   2
  -7  -2  15 2063.64 460.394   2
  -7  -2  14 1698.80 408.872   2
  -7  -2  13 3736.40 584.270   2
  -7  -2  12 6774.41 772.768   2
  -7  -2  11 3654.97 556.594   2
  -7  -2  10 21357.0 1375.67   2
  -7  -2   9 411.862 201.044   2
  -7  -2   8 24988.4 1067.39   3
  -7  -2   8 24914.8 1468.78   2
  -7  -2   7 11848.4 974.078   2
  -7  -2   7 11413.8 700.742   3
  -7  -2   6 19751.9 1279.27   2
  -7  -2   6 18562.5 933.774   3
  -7  -2   5 564.639 176.621   2
  -7  -2   5 1211.94 229.037   3
  -7  -2   4 5582.39 661.901   2
  -7  -2   4 5519.83 513.283   3
   7  -2  -4 6886.58 619.281   1
  -7  -2   3 2477.17 446.421   2
  -7  -2   3 3252.49 397.282   3
   7  -2  -3 2804.23 369.935   1
  -7  -2   2 30881.1 1706.03   2
   7  -2  -2 33991.8 1406.33   1
  -7  -2   1 342.682 171.344   2
   7  -2  -1 272.006 116.988   1
   7  -2   0 5309.80 475.121   2
   7  -2   0 5496.01 495.475   1
   7  -2   1 21682.8 1095.99   2
   7  -2   1 21647.7 1053.98   1
   7  -2   2 5923.19 509.912   1
   7  -2   2 5490.59 554.551   2
   7  -2   3 74822.4 2579.98   2
   7  -2   4 5611.90 625.457   2
   7  -2   5 18762.9 1237.95   2
   7  -2   6 13878.4 1101.66   2
   7  -2   7 21889.3 1469.87   2
   7  -2   8 11352.3 1076.62   2
   7  -2   9 5559.82 772.289   2
   7  -2  10 2302.87 511.004   2
   7  -2  11 2069.58 510.804   2
   7  -2  12 955.817 364.776   2
   7  -2  13 86.6034 174.270   2
   7  -1 -20-100.928 147.858   1
   7  -1 -19 2879.85 705.356   1
   7  -1 -18 244.331 184.631   1
  -7  -1  17 865.910 282.368   2
  -7  -1  16 2557.62 479.417   2
  -7  -1  15 1854.37 388.277   2
  -7  -1  14 645.695 227.417   2
  -7  -1  13 2155.74 404.198   2
  -7  -1  12 26230.0 1438.33   2
  -7  -1  11 1645.90 332.151   2
  -7  -1  10 43850.4 1858.45   2
   7  -1  -9 2820.74 484.539   1
  -7  -1   9 2456.74 392.736   2
   7  -1  -8 17797.5 1158.41   1
  -7  -1   8 15914.7 1013.30   2
  -7  -1   7 15097.3 875.775   3
   7  -1  -7 18289.0 1138.12   1
  -7  -1   7 16054.0 1019.63   2
  -7  -1   6 12064.8 887.374   2
  -7  -1   6 11897.6 770.196   3
   7  -1  -6 13119.7 930.833   1
  -7  -1   5 4812.15 546.160   2
  -7  -1   5 5333.59 506.686   3
   7  -1  -5 6047.48 598.781   1
  -7  -1   4 17524.3 1086.84   2
  -7  -1   4 16834.0 945.516   3
   7  -1  -4 17533.6 1034.39   1
  -7  -1   3 22858.0 1277.11   2
  -7  -1   3 22671.4 1130.48   3
   7  -1  -3 22788.7 1175.63   1
  -7  -1   2 3529.58 484.775   2
  -7  -1   2 3733.04 433.667   3
   7  -1  -2 3611.90 437.621   1
  -7  -1   1 8241.95 690.350   3
   7  -1  -1 8902.19 703.715   1
  -7  -1   0 17593.4 1051.38   3
   7  -1   0 18736.3 1051.17   1
   7  -1   1 5688.71 567.283   1
  -7  -1  -1 6103.13 613.813   3
   7  -1   2 41623.0 1729.57   1
  -7  -1  -2 45541.1 1888.07   3
   7  -1   5 780.584 229.815   2
   7  -1   6 29254.4 1687.93   2
   7  -1   7 9987.77 983.453   2
   7  -1   8 2210.77 478.522   2
   7  -1   9 281.321 171.357   2
   7  -1  10 212.943 184.075   2
  -7  -1 -11 1354.02 410.870   3
   7  -1  11 639.142 267.527   2
  -7  -1 -12 2088.88 516.055   3
   7  -1  12 1823.56 510.934   2
  -7  -1 -13 415.068 237.759   3
  -7  -1 -14 4347.36 806.067   3
  -7  -1 -15 649.827 368.757   3
   7   0 -21 57.1184 123.829   1
   7   0 -20 2929.34 719.438   1
   7   0 -19 156.069 217.387   1
   7   0 -18 2054.10 575.044   1
   7   0 -17 1752.70 517.173   1
   7   0 -16-287.745 195.640   1
   7   0 -15 5166.50 788.905   1
  -7   0  15 3977.80 535.087   2
   7   0 -14 7552.73 940.047   1
  -7   0  14 5413.99 599.359   2
   7   0 -13 0.45874 142.057   1
  -7   0  13-26.8584 35.0108   2
   7   0 -12 113.367 105.101   1
  -7   0  12-9.48671 69.6702   2
   7   0 -11 4341.69 607.852   1
  -7   0  11 3248.01 401.634   2
   7   0 -10 8347.56 849.845   1
  -7   0  10 7635.12 602.513   2
   7   0  -9 3838.66 543.371   1
  -7   0   9 3248.54 371.810   2
  -7   0   8 1621.30 253.367   2
  -7   0   7 3439.78 370.209   2
  -7   0   6 5119.77 537.500   3
   7   0  -6 5965.25 626.717   1
  -7   0   6 5277.09 467.147   2
  -7   0   5 7794.37 595.253   2
  -7   0   5 7489.32 650.363   3
   7   0  -5 6231.71 646.633   1
  -7   0   4 45102.7 1689.85   2
  -7   0   4 48540.3 1863.50   3
   7   0  -4 47378.6 1937.16   1
  -7   0   3 23360.5 1162.24   2
  -7   0   3 25753.5 1278.78   3
   7   0  -3 24909.4 1332.61   1
  -7   0   2 6952.27 625.717   3
   7   0  -2 6361.70 642.463   1
  -7   0   1 74031.5 2466.51   3
   7   0  -1 68180.5 2508.82   1
   7   0   0 10583.5 880.503   1
  -7   0   0 8932.70 770.469   3
   7   0   1 13708.6 996.138   1
  -7   0  -1 14776.4 975.611   3
  -7   0  -2 571.853 190.205   3
  -7   0  -3 2052.02 375.385   3
  -7   0  -4 1953.66 390.539   3
  -7   0  -5 5044.28 630.690   3
  -7   0  -6-37.0847 126.806   3
  -7   0  -7 712.362 241.436   3
  -7   0  -8 995.568 315.671   3
  -7   0  -9 9501.57 1003.81   3
  -7   0 -10 1951.01 471.042   3
  -7   0 -11 2961.87 595.937   3
  -7   0 -12 1037.03 374.371   3
  -7   0 -13 133.505 120.790   3
  -7   0 -14 2673.50 630.047   3
  -7   0 -15 3480.06 736.105   3
   7   1 -20-47.5442 117.027   1
   7   1 -19 2512.61 645.401   1
   7   1 -18 277.093 272.641   1
   7   1 -17 765.998 355.783   1
   7   1 -16 2090.56 525.795   1
   7   1 -15 2091.74 511.687   1
   7   1 -14 719.567 304.143   1
   7   1 -13 2430.50 533.993   1
   7   1 -12 28917.9 1767.90   1
  -7   1  12 23961.1 1109.68   2
  -7   1  11 1419.12 222.738   2
   7   1 -11 2011.86 412.832   1
   7   1 -10 46464.0 2172.22   1
  -7   1  10 39629.8 1346.32   2
   7   1  -9 2673.72 490.665   1
  -7   1   9 2252.36 228.836   2
  -7   1   8 14051.1 560.999   2
  -7   1   7 13339.7 496.077   2
  -7   1   6 9553.75 390.595   2
  -7   1   5 4092.08 255.442   2
  -7   1   5 4487.84 296.396   2
  -7   1   4 17544.7 753.800   2
  -7   1   4 17684.8 1113.96   3
  -7   1   4 14402.1 613.558   2
   7   1  -4 18510.1 1212.09   1
  -7   1   3 23175.8 1290.93   3
   7   1  -3 22764.3 1365.48   1
  -7   1   2 4138.92 522.805   3
   7   1  -2 3862.22 556.419   1
   7   1  -1 9080.61 859.153   1
  -7   1   1 8423.24 759.779   3
   7   1   0 17527.5 1251.90   1
  -7   1   0 18931.2 1172.42   3
  -7   1  -1 5745.26 627.966   3
  -7   1  -2 43068.7 1924.06   3
  -7   1  -3 7151.26 734.394   3
  -7   1  -4 18743.1 1244.46   3
  -7   1  -5 957.742 275.196   3
  -7   1  -6 33215.8 1816.47   3
  -7   1  -7 11797.6 1055.29   3
  -7   1  -8 1495.56 371.393   3
  -7   1  -9 450.127 178.076   3
  -7   1 -10 65.4884 84.7269   3
  -7   1 -11 979.735 334.184   3
  -7   1 -12 2214.84 543.619   3
  -7   1 -13 636.978 264.332   3
  -7   1 -14 4336.10 813.739   3
   7   2 -20 634.368 349.498   1
   7   2 -19 1139.55 448.386   1
   7   2 -18 1175.33 424.269   1
   7   2 -17 940.201 366.124   1
   7   2 -16 166.766 150.508   1
   7   2 -15 2221.19 538.180   1
   7   2 -14 2473.52 545.317   1
   7   2 -13 3894.16 682.427   1
   7   2 -12 7420.62 909.640   1
   7   2 -11 4405.79 667.598   1
   7   2 -10 24742.1 1630.26   1
   7   2  -9 404.730 138.795   1
   7   2  -8 26108.5 1632.73   1
   7   2  -7 12600.4 1096.69   1
   7   2  -3 2652.96 502.953   1
  -7   2   3 1997.08 204.222   2
   7   2  -2 33626.8 1850.79   1
  -7   2   2 36407.7 1760.24   3
  -7   2   1 207.378 134.086   3
   7   2  -1 180.006 152.676   1
  -7   2   0 7141.83 754.846   3
  -7   2  -1 23020.7 1431.30   3
  -7   2  -2 5809.20 692.150   3
  -7   2  -3 75917.3 2944.56   3
  -7   2  -4 6916.02 785.930   3
  -7   2  -5 19270.7 1383.22   3
  -7   2  -6 13889.3 1187.12   3
  -7   2  -7 22597.7 1570.07   3
  -7   2  -8 13489.9 1226.47   3
  -7   2  -9 7148.41 912.378   3
  -7   2 -10 2966.98 597.780   3
  -7   2 -11 3120.46 639.885   3
  -7   2 -12 863.960 364.027   3
  -7   2 -13 77.8898 144.970   3
   7   3 -18 499.800 316.005   1
   7   3 -17 1253.99 465.425   1
   7   3 -16 701.770 351.353   1
   7   3 -15 8735.66 1146.76   1
   7   3 -14 4218.32 760.868   1
   7   3 -13 9260.93 1114.61   1
   7   3 -12 3375.48 657.029   1
   7   3 -11 16061.1 1415.02   1
   7   3 -10 3506.75 643.874   1
   7   3  -9 488.949 252.662   1
   7   3  -8 7898.34 942.228   1
   7   3  -7 9028.16 1002.55   1
   7   3  -6 2662.46 538.362   1
   7   3  -5 32081.8 1963.09   1
   7   3  -4 9290.09 1008.96   1
   7   3  -3 1062.58 360.431   1
  -7   3   3 651.885 125.635   2
  -7   3  -1 4958.48 684.673   3
  -7   3  -2 3714.10 597.680   3
  -7   3  -3 1426.52 399.796   3
  -7   3  -4 6674.16 825.642   3
  -7   3  -5 4013.99 658.512   3
  -7   3  -6 22048.2 1618.09   3
  -7   3  -7 2320.14 514.902   3
  -7   3  -8 24.9043 128.056   3
  -7   3  -9 9188.45 1109.55   3
  -7   3 -10 2371.20 572.656   3
  -7   3 -11 3941.09 763.107   3
  -7   3 -12 1048.46 397.629   3
   7   4 -17 1173.14 483.019   1
   7   4 -16 101.235 104.904   1
   7   4 -15 2438.35 628.122   1
   7   4 -14 4646.47 872.599   1
   7   4 -13 1120.06 426.748   1
   7   4 -12 4199.36 779.039   1
   7   4 -11 3477.07 705.374   1
   7   4 -10 279.789 202.869   1
   7   4  -9 12031.4 1286.94   1
   7   4  -8 7439.62 982.947   1
   7   4  -7 1003.28 334.080   1
   7   4  -6 3208.77 638.625   1
   7   4  -5 2415.76 565.725   1
  -7   4  -5-74.9763 193.480   3
  -7   4  -6 2793.61 587.861   3
  -7   4  -7-28.1819 156.993   3
  -7   4  -8 1055.00 396.649   3
  -7   4  -9 1860.29 513.058   3
  -7   4 -10 4393.59 833.676   3
  -7   4 -11 269.792 144.118   3
   7   5 -16 1086.77 454.260   1
   7   5 -15 2793.05 731.450   1
   7   5 -14 1461.85 509.467   1
   7   5 -13 183.744 163.115   1
   7   5 -12 2284.61 597.500   1
   7   5 -11 594.179 293.179   1
   7   5 -10 7856.85 1116.90   1
   7   5  -9-197.727 215.234   1
   7   5  -8 3663.62 751.381   1
   7   5  -7 5434.85 921.940   1
   7   6 -14 9.79079 188.275   1
   7   6 -13 666.152 375.906   1
   7   6 -12-53.7179 125.957   1
  -8  -8   8 626.154 294.672   2
  -8  -8   7 634.413 336.876   2
  -8  -8   6 1640.61 555.487   2
  -8  -8   5-54.7826 145.480   2
  -8  -8   4 1207.85 476.845   2
  -8  -8   3 3026.59 786.941   2
  -8  -8   2 301.203 255.724   2
  -8  -8   1 930.396 440.584   2
  -8  -8   0 2248.02 698.209   2
  -8  -7  12 722.098 364.733   2
  -8  -7  11 700.774 360.951   2
  -8  -7  10 1739.18 540.671   2
  -8  -7   9 1535.98 518.366   2
  -8  -7   8 1171.13 459.113   2
  -8  -7   7 415.696 260.515   2
  -8  -7   6 1609.41 513.172   2
  -8  -7   5 335.385 239.305   2
  -8  -7   4 662.736 322.528   2
  -8  -7   3 4241.38 875.742   2
  -8  -7   2 2046.27 597.078   2
  -8  -7   1 258.539 253.713   2
  -8  -7   0 1365.84 531.776   2
  -8  -7  -1 3883.66 885.197   2
  -8  -7  -2 1945.22 626.326   2
  -8  -7  -3 561.057 340.433   2
  -8  -7  -4 755.291 426.820   2
  -8  -7  -5 48.0995 102.295   2
  -8  -6  15 388.454 229.918   2
  -8  -6  14 552.378 297.191   2
  -8  -6  13 194.429 220.227   2
  -8  -6  12 1428.34 457.207   2
  -8  -6  11 771.881 341.081   2
  -8  -6  10 1284.02 450.802   2
  -8  -6   9 305.349 139.460   2
  -8  -6   8 2891.38 640.919   2
  -8  -6   7-81.8578 207.332   2
  -8  -6   6 1456.93 461.517   2
  -8  -6   5 497.360 301.113   2
  -8  -6   4 1192.42 437.846   2
  -8  -6   3 546.738 341.436   2
  -8  -6   2 2145.72 591.929   2
  -8  -6   1 6286.64 1032.93   2
  -8  -6   0 309.675 212.561   2
  -8  -6  -1 5768.25 1028.44   2
  -8  -6  -2 1146.33 490.212   2
  -8  -6  -3 3214.32 781.395   2
  -8  -6  -4 1181.63 507.063   2
  -8  -6  -5 2172.59 689.117   2
  -8  -6  -6 805.746 410.483   2
   8  -6   7 866.755 315.481   2
  -8  -6  -7 1230.69 549.530   2
   8  -6   8 73.5229 93.9879   2
   8  -6   9 79.8174 133.103   2
  -8  -5  18 140.260 160.867   2
  -8  -5  17 636.132 327.470   2
  -8  -5  16 950.527 392.319   2
  -8  -5  15 926.904 386.677   2
  -8  -5  14 2627.95 632.211   2
  -8  -5  13 175.979 151.377   2
  -8  -5  12 1953.35 532.953   2
  -8  -5  11 1675.37 497.115   2
  -8  -5  10 7704.26 1034.97   2
  -8  -5   9 1053.53 370.757   2
  -8  -5   8 3110.54 634.652   2
  -8  -5   7 172.921 69.0272   2
  -8  -5   6 942.374 362.537   2
  -8  -5   5 8643.91 1082.80   2
  -8  -5   4 3631.31 692.194   2
  -8  -5   3 158.608 134.525   2
  -8  -5   2 135.734 155.440   2
  -8  -5   1 28.2390 93.7686   2
  -8  -5   0 7029.62 1048.75   2
  -8  -5  -1 1383.79 491.197   2
  -8  -5  -2 8168.95 1180.62   2
   8  -5   2 6677.07 694.437   2
   8  -5   3 1649.03 356.752   2
  -8  -5  -3 2315.39 646.211   2
  -8  -5  -4 5362.15 990.478   2
   8  -5   4 4151.02 599.465   2
   8  -5   5 1894.42 425.710   2
  -8  -5  -5 341.183 263.895   2
   8  -5   6 2584.14 515.909   2
   8  -5   7 430.105 219.679   2
   8  -5   8 944.766 333.162   2
   8  -5   9 552.233 274.545   2
   8  -5  10 394.882 225.136   2
   8  -5  11 282.305 182.906   2
  -8  -4  19-306.778 221.112   2
  -8  -4  18 3720.68 745.015   2
  -8  -4  17 296.009 219.583   2
  -8  -4  16 2641.67 617.493   2
  -8  -4  15 1035.94 373.752   2
  -8  -4  14 390.205 261.122   2
  -8  -4  13 729.329 280.294   2
  -8  -4  12 1055.00 366.024   2
  -8  -4  11 156.426 68.2576   2
  -8  -4  10 23.0176 149.827   2
  -8  -4   9 359.590 215.101   2
  -8  -4   8 1054.48 366.257   2
  -8  -4   7 591.601 164.238   3
  -8  -4   7 526.801 233.413   2
  -8  -4   6 3846.34 676.104   2
  -8  -4   5 781.497 260.173   2
  -8  -4   4 1457.20 431.047   2
  -8  -4   3 6195.44 872.195   2
  -8  -4   2 19083.3 1581.55   2
   8  -4  -2 19043.8 1085.34   1
  -8  -4   1 6350.18 913.563   2
   8  -4  -1 7946.40 641.058   1
  -8  -4   0 32068.3 2163.07   2
   8  -4   0 27854.0 1236.40   1
   8  -4   0 27127.2 1266.39   2
  -8  -4  -1 3513.85 726.928   2
   8  -4   1 2868.89 409.768   2
  -8  -4  -2 27308.9 2080.56   2
   8  -4   2 25393.7 1364.52   2
  -8  -4  -3 11796.5 1381.52   2
   8  -4   3 10210.0 874.036   2
   8  -4   4 13397.3 1062.67   2
   8  -4   5 1619.11 376.041   2
   8  -4   6 595.861 244.815   2
   8  -4   7 1.87066 125.015   2
   8  -4   8 719.613 278.235   2
   8  -4   9 929.687 336.060   2
   8  -4  10 674.856 274.201   2
   8  -4  11 2526.05 599.371   2
  -8  -3  18 153.506 119.135   2
  -8  -3  17 1236.87 407.617   2
  -8  -3  16 378.224 232.875   2
  -8  -3  15 223.019 202.913   2
  -8  -3  14-3.60906 110.336   2
  -8  -3  13 2220.97 485.601   2
  -8  -3  12 2348.46 511.282   2
  -8  -3  11 60.2473 85.1385   2
  -8  -3  10 14775.3 1261.96   2
  -8  -3   9 22126.1 1551.50   2
  -8  -3   8 8079.83 598.730   3
  -8  -3   8 7971.02 901.046   2
  -8  -3   7 10013.0 1032.17   2
  -8  -3   7 11208.7 744.600   3
  -8  -3   6 20202.5 1467.71   2
  -8  -3   6 21909.6 1116.99   3
  -8  -3   5-28.1817 141.625   2
  -8  -3   5 357.448 163.554   3
  -8  -3   4 16198.4 1335.19   2
   8  -3  -4 19560.0 1157.35   1
  -8  -3   3 36302.8 2078.38   2
   8  -3  -3 39568.9 1666.64   1
  -8  -3   2 11810.9 1144.76   2
   8  -3  -2 11568.2 811.683   1
  -8  -3   1 17923.8 1449.74   2
   8  -3  -1 15240.6 827.452   2
   8  -3  -1 18990.0 1017.74   1
  -8  -3   0 34336.4 2090.27   2
   8  -3   0 30711.2 1329.34   2
   8  -3   0 31379.0 1364.35   1
  -8  -3  -1 17198.6 1479.32   2
   8  -3   1 15854.7 971.767   2
   8  -3   1 17690.6 947.350   1
   8  -3   2 27216.0 1379.60   2
   8  -3   3 7129.80 705.019   2
   8  -3   4 7425.04 761.779   2
   8  -3   5 320.433 177.945   2
   8  -3   6 257.497 155.035   2
   8  -3   7 6029.94 776.017   2
   8  -3   8 559.337 256.319   2
   8  -3   9-82.5683 154.258   2
   8  -3  10 585.883 289.963   2
   8  -3  11 1197.75 408.189   2
   8  -3  12 1652.06 491.261   2
  -8  -2  16 2708.10 535.801   2
  -8  -2  15 115.160 136.700   2
  -8  -2  14 2061.50 438.884   2
  -8  -2  13 3297.73 557.878   2
  -8  -2  12 1416.21 351.333   2
  -8  -2  11 21312.6 1424.44   2
  -8  -2  10 13647.9 1097.08   2
  -8  -2   9 25755.1 1165.67   3
  -8  -2   9 26541.1 1581.85   2
  -8  -2   8 2247.66 325.326   3
  -8  -2   8 2269.20 425.547   2
  -8  -2   7 3805.74 573.359   2
  -8  -2   7 3894.17 439.047   3
   8  -2  -7 4264.52 559.766   1
   8  -2  -6 2224.71 405.203   1
  -8  -2   6 1619.42 283.382   3
  -8  -2   6 1654.15 367.089   2
  -8  -2   5 2586.85 469.155   2
  -8  -2   5 3479.01 430.159   3
   8  -2  -5 3220.78 463.058   1
  -8  -2   4 2962.52 504.078   2
  -8  -2   4 3397.51 439.987   3
   8  -2  -4 3496.60 460.585   1
  -8  -2   3 17507.3 1286.17   2
  -8  -2   3 18822.3 1103.24   3
   8  -2  -3 18031.7 1078.02   1
  -8  -2   2 3191.59 549.346   2
  -8  -2   2 2916.94 424.061   3
   8  -2  -2 3081.45 415.383   1
  -8  -2   1 17442.8 1319.35   2
  -8  -2   1 16008.3 1060.25   3
   8  -2  -1 15518.2 961.012   1
   8  -2   0 6531.68 603.298   1
   8  -2   1 227.988 141.876   1
   8  -2   2 36992.7 1544.66   1
   8  -2   3 10131.9 858.735   2
   8  -2   4 10610.6 920.887   2
   8  -2   5 23594.7 1485.89   2
   8  -2   6 901.337 285.005   2
   8  -2   7 369.991 163.654   2
   8  -2   8 5978.73 811.742   2
   8  -2   9 164.691 163.415   2
   8  -2  10 4006.08 719.174   2
   8  -2  11 1770.90 502.328   2
   8  -2  12 465.611 266.806   2
  -8  -2 -13 1968.25 567.845   3
   8  -1 -20 572.675 341.343   1
   8  -1 -19 1058.74 425.750   1
   8  -1 -18 131.700 76.4698   1
   8  -1 -17-97.8703 168.594   1
   8  -1 -16 2628.87 596.540   1
   8  -1 -15-19.0470 128.518   1
   8  -1 -14 580.362 255.652   1
  -8  -1  14 587.589 225.780   2
   8  -1 -13 1511.93 424.254   1
  -8  -1  13 1775.06 354.729   2
   8  -1 -12 2481.66 518.035   1
  -8  -1  12 2085.85 385.596   2
   8  -1 -11 5192.73 714.507   1
  -8  -1  11 4332.43 547.164   2
   8  -1 -10 13163.0 1107.45   1
  -8  -1  10 10894.7 873.487   2
   8  -1  -9 19339.5 1333.49   1
  -8  -1   9 17104.8 1096.13   2
  -8  -1   8 10203.0 766.343   3
  -8  -1   8 9634.53 811.934   2
  -8  -1   7 5678.69 616.384   2
  -8  -1   7 5929.83 588.153   3
   8  -1  -7 7771.94 763.625   1
  -8  -1   6 15689.5 1068.44   2
  -8  -1   6 16417.1 1006.17   3
   8  -1  -6 16591.5 1125.09   1
  -8  -1   5 24011.9 1364.27   2
  -8  -1   5 27387.2 1341.82   3
   8  -1  -5 25471.8 1402.92   1
  -8  -1   4 803.643 248.353   2
  -8  -1   4 896.945 237.021   3
   8  -1  -4 1158.10 276.057   1
  -8  -1   3 24872.8 1431.66   2
  -8  -1   3 25590.1 1319.66   3
   8  -1  -3 26842.9 1399.54   1
  -8  -1   2 12897.6 1007.42   2
  -8  -1   2 12738.0 909.132   3
   8  -1  -2 12349.9 913.926   1
   8  -1  -1 1558.42 313.694   1
  -8  -1   1 1904.54 369.521   3
  -8  -1   0 11117.7 894.651   3
   8  -1   0 10910.7 858.707   1
   8  -1   1 5399.25 587.992   1
  -8  -1  -1 6317.26 675.344   3
   8  -1   2 13480.0 974.071   1
  -8  -1  -2 14047.2 1063.16   3
  -8  -1  -3 2233.76 447.547   3
  -8  -1  -4 35503.0 1847.75   3
  -8  -1  -5 6492.99 769.917   3
  -8  -1  -6 746.587 259.318   3
  -8  -1  -7 1476.67 383.575   3
  -8  -1  -8 6376.54 842.974   3
  -8  -1  -9 1448.01 424.157   3
  -8  -1 -10 1758.51 486.884   3
  -8  -1 -11 2324.88 572.091   3
  -8  -1 -12 2556.66 617.726   3
  -8  -1 -13 2801.17 652.376   3
  -8  -1 -14 2021.85 567.356   3
   8   0 -20 746.979 345.654   1
   8   0 -19 325.173 257.030   1
   8   0 -18 1687.33 504.511   1
   8   0 -17 3250.78 705.961   1
   8   0 -16 8138.42 1074.39   1
   8   0 -15 301.725 138.947   1
   8   0 -14 1617.03 460.809   1
   8   0 -13 2552.63 526.928   1
   8   0 -12 4016.70 659.448   1
  -8   0  12 2824.78 383.617   2
   8   0 -11 4294.83 642.805   1
  -8   0  11 3560.32 416.319   2
   8   0 -10 6041.93 742.992   1
  -8   0  10 4860.91 474.184   2
   8   0  -9 12355.2 1056.63   1
  -8   0   9 10082.2 681.896   2
   8   0  -8 2927.84 502.425   1
  -8   0   8 3127.39 373.707   2
   8   0  -7 4108.34 573.387   1
  -8   0   7 3747.14 414.505   2
  -8   0   6 7134.10 609.189   2
  -8   0   6 8163.69 734.703   3
   8   0  -6 7315.07 759.419   1
  -8   0   5 7299.25 623.150   2
  -8   0   5 8060.42 738.088   3
   8   0  -5 7479.22 757.814   1
  -8   0   4 3476.99 440.138   2
  -8   0   4 3942.44 510.419   3
   8   0  -4 3564.18 512.541   1
   8   0  -3 746.926 226.341   1
  -8   0   3 807.049 218.588   2
  -8   0   3 1004.05 262.107   3
  -8   0   2 33373.2 1608.40   3
   8   0  -2 31265.9 1651.40   1
  -8   0   1 1908.32 364.427   3
   8   0  -1 1812.85 378.146   1
   8   0   0 4498.58 604.437   1
  -8   0   0 3726.73 542.087   3
  -8   0  -1 1033.76 277.826   3
   8   0   1 912.597 274.826   1
  -8   0  -2 271.052 135.010   3
  -8   0  -3 71271.3 2741.46   3
  -8   0  -4 5568.20 692.537   3
  -8   0  -5 336.737 166.537   3
  -8   0  -6 1784.80 413.959   3
  -8   0  -7 2449.37 501.058   3
  -8   0  -8 957.227 360.272   3
  -8   0  -9 862.533 333.282   3
  -8   0 -10 950.713 323.042   3
  -8   0 -11 2479.18 585.907   3
  -8   0 -12 3617.41 720.709   3
  -8   0 -13 213.556 96.6721   3
  -8   0 -14 143.198 204.929   3
   8   1 -21 1708.77 595.900   1
   8   1 -20 669.780 371.646   1
   8   1 -19 470.262 296.476   1
   8   1 -18-39.9164 196.688   1
   8   1 -17 292.214 246.152   1
   8   1 -16 2248.60 552.084   1
   8   1 -15 84.3598 80.9777   1
   8   1 -14 1257.65 390.526   1
   8   1 -13 2673.86 576.283   1
   8   1 -12 2196.00 499.709   1
   8   1 -11 5127.63 746.422   1
   8   1 -10 12775.3 1156.14   1
   8   1  -9 17657.2 1348.64   1
   8   1  -8 11080.3 1020.69   1
  -8   1   8 7931.01 373.373   2
   8   1  -7 5790.99 716.253   1
  -8   1   7 4395.68 258.958   2
  -8   1   6 10807.8 466.772   2
  -8   1   6 12865.0 535.510   2
  -8   1   5 25013.8 939.850   2
  -8   1   5 27834.1 1509.68   3
   8   1  -5 26624.5 1578.11   1
  -8   1   4 1444.44 233.193   2
  -8   1   4 907.422 156.377   2
   8   1  -4 1556.83 376.522   1
  -8   1   4 978.620 286.594   3
  -8   1   3 26357.8 1514.68   3
   8   1  -3 27589.6 1637.52   1
   8   1  -2 11670.0 1052.87   1
  -8   1   2 13043.1 1015.31   3
  -8   1   1 1424.45 317.350   3
   8   1  -1 1539.45 367.598   1
   8   1   0 11527.0 1064.52   1
  -8   1   0 11914.9 987.253   3
  -8   1  -1 6081.35 704.699   3
  -8   1  -2 12351.6 1017.95   3
  -8   1  -3 2116.44 412.787   3
  -8   1  -4 33895.3 1851.35   3
  -8   1  -5 5458.97 718.855   3
  -8   1  -6 1133.91 324.221   3
  -8   1  -7 1715.93 420.417   3
  -8   1  -8 7069.84 891.097   3
  -8   1  -9 1551.95 434.829   3
  -8   1 -10 2051.17 511.786   3
  -8   1 -11 2249.78 568.225   3
  -8   1 -12 2907.60 655.638   3
  -8   1 -13 2201.16 588.357   3
  -8   1 -14 1923.09 567.311   3
   8   2 -20 334.651 274.215   1
   8   2 -19 962.612 435.636   1
   8   2 -18 200.555 193.805   1
   8   2 -17 189.578 170.011   1
   8   2 -16 3992.84 782.246   1
   8   2 -15 1399.55 436.225   1
   8   2 -14 1931.06 513.827   1
   8   2 -13 4548.90 764.693   1
   8   2 -12 1819.37 474.199   1
   8   2 -11 22155.1 1666.71   1
   8   2 -10 15488.1 1352.25   1
   8   2  -9 30834.1 1921.74   1
   8   2  -8 2708.59 538.766   1
   8   2  -7 3934.98 640.213   1
   8   2  -6 1963.85 464.195   1
   8   2  -5 2681.77 523.024   1
  -8   2   4 2518.28 195.812   2
   8   2  -4 2665.43 537.032   1
   8   2  -3 18558.7 1432.20   1
  -8   2   3 19428.3 1364.92   3
   8   2  -2 2576.86 534.594   1
  -8   2   2 3109.86 522.486   3
   8   2  -1 15613.3 1348.56   1
  -8   2   1 16346.9 1236.64   3
  -8   2   0 6917.89 793.870   3
  -8   2  -1 109.284 115.310   3
  -8   2  -2 42112.7 2167.44   3
  -8   2  -3 10126.4 1001.33   3
  -8   2  -4 11483.0 1097.55   3
  -8   2  -5 25964.7 1734.87   3
  -8   2  -6 986.609 330.639   3
  -8   2  -7 189.203 227.725   3
  -8   2  -8 6598.34 905.030   3
  -8   2  -9 312.026 120.783   3
  -8   2 -10 4591.26 804.811   3
  -8   2 -11 2026.73 546.673   3
  -8   2 -12 325.958 280.227   3
  -8   2 -13 2409.19 638.182   3
   8   3 -19 777.558 398.621   1
   8   3 -18-92.2469 253.640   1
   8   3 -17 808.034 377.054   1
   8   3 -16 494.235 281.440   1
   8   3 -15 264.934 240.268   1
   8   3 -14-514.473 284.369   1
   8   3 -13 2001.50 527.384   1
   8   3 -12 2172.45 520.635   1
   8   3 -11-80.3474 187.650   1
   8   3 -10 16654.5 1494.86   1
   8   3  -9 25414.5 1852.82   1
   8   3  -8 8988.70 1071.37   1
   8   3  -7 9754.46 1104.57   1
   8   3  -6 20689.3 1633.31   1
   8   3  -5-49.8166 171.981   1
   8   3  -4 17558.2 1497.72   1
   8   3  -3 42970.4 2463.24   1
  -8   3   0 33426.7 1981.36   3
  -8   3  -1 18717.9 1446.46   3
  -8   3  -2 33354.9 1997.50   3
  -8   3  -3 7755.01 947.181   3
  -8   3  -4 8337.82 992.734   3
  -8   3  -5 224.515 98.1586   3
  -8   3  -6 447.772 249.570   3
  -8   3  -7 6068.49 905.922   3
  -8   3  -8 1012.38 382.755   3
  -8   3  -9-141.627 236.661   3
  -8   3 -10 495.880 281.722   3
  -8   3 -11 1132.82 432.842   3
  -8   3 -12 2281.47 629.122   3
   8   4 -18 2654.58 741.261   1
   8   4 -17 57.1809 81.8210   1
   8   4 -16 4514.64 935.350   1
   8   4 -15 950.457 402.798   1
   8   4 -14 163.900 192.758   1
   8   4 -13 815.138 343.701   1
   8   4 -12 1429.03 491.829   1
   8   4 -11 132.778 138.499   1
   8   4 -10 149.307 114.957   1
   8   4  -9 173.987 125.924   1
   8   4  -8 841.774 318.542   1
   8   4  -7 262.300 109.119   1
   8   4  -6 4892.62 843.848   1
   8   4  -5 245.367 104.153   1
  -8   4  -5 2206.09 536.121   3
  -8   4  -6 567.044 273.123   3
  -8   4  -7 211.532 138.993   3
  -8   4  -8 1239.61 443.243   3
  -8   4  -9 1406.30 472.166   3
  -8   4 -10 698.475 321.527   3
  -8   4 -11 2213.69 647.052   3
   8   5 -16 677.572 393.873   1
   8   5 -15 949.273 448.131   1
   8   5 -14 2027.26 622.254   1
   8   5 -13 277.767 265.942   1
   8   5 -12 2064.16 595.215   1
   8   5 -11 1975.97 613.597   1
   8   5 -10 9256.67 1269.02   1
   8   5  -9 921.716 363.811   1
   8   5  -8 3103.25 723.160   1
   8   5  -7-299.097 360.769   1
   8   6 -15-43.9317 134.964   1
   8   6 -14 548.227 327.185   1
   8   6 -13-235.474 314.829   1
   8   6 -12 2391.76 708.845   1
   8   6 -11 370.179 298.331   1
  -9  -7  12 276.533 289.909   2
  -9  -7  11-94.8784 245.835   2
  -9  -7  10 1112.32 445.823   2
  -9  -7   9 1038.30 393.389   2
  -9  -7   8-60.6027 188.104   2
  -9  -7   7 1340.43 471.503   2
  -9  -7   6 569.236 271.619   2
  -9  -7   5 537.940 342.094   2
  -9  -7   4 2339.93 652.328   2
  -9  -7   3 548.841 358.878   2
  -9  -7   2 1882.85 623.304   2
  -9  -7   1 2079.23 663.840   2
  -9  -7   0 2062.52 639.983   2
  -9  -7  -1 1209.34 517.600   2
  -9  -7  -2 1841.05 638.581   2
  -9  -7  -3 282.377 291.215   2
  -9  -6  15 225.171 168.355   2
  -9  -6  14 451.817 287.117   2
  -9  -6  13 333.418 257.553   2
  -9  -6  12 1551.01 508.193   2
  -9  -6  11 201.483 226.652   2
  -9  -6  10 471.270 315.351   2
  -9  -6   9 278.622 229.273   2
  -9  -6   8 474.938 286.156   2
  -9  -6   7 2768.96 663.998   2
  -9  -6   6 1868.36 571.110   2
  -9  -6   5 3138.72 723.988   2
  -9  -6   4 1153.64 431.202   2
  -9  -6   3 307.491 207.256   2
  -9  -6   2 1808.36 562.598   2
  -9  -6   1 1653.45 545.496   2
  -9  -6   0 1330.81 510.280   2
  -9  -6  -1 896.536 443.543   2
  -9  -6  -2 478.048 324.403   2
  -9  -6  -3 211.397 217.731   2
  -9  -6  -4 1262.04 522.774   2
  -9  -6  -5 2445.23 765.289   2
  -9  -6  -6 744.413 446.827   2
  -9  -5  17 385.978 271.988   2
  -9  -5  16 787.905 333.445   2
  -9  -5  15 148.388 155.437   2
  -9  -5  14 1155.84 419.548   2
  -9  -5  13 3377.55 711.848   2
  -9  -5  12 53.1462 88.1292   2
  -9  -5  11 4040.15 777.848   2
  -9  -5  10 73.7083 86.7136   2
  -9  -5   9 225.098 187.476   2
  -9  -5   8 23.3846 173.238   2
  -9  -5   7 519.074 351.536   2
  -9  -5   6 2156.44 567.446   2
  -9  -5   5 5353.77 872.234   2
  -9  -5   4 5933.57 935.137   2
  -9  -5   3 3740.27 752.255   2
  -9  -5   2 3753.17 764.895   2
  -9  -5   1 160.143 210.786   2
  -9  -5   0 2214.52 613.743   2
  -9  -5  -1 939.214 466.973   2
  -9  -5  -2 5878.70 1045.02   2
  -9  -5  -3 5020.21 987.599   2
  -9  -5  -4 1651.26 602.734   2
  -9  -5  -5 21.8009 135.384   2
  -9  -5  -6 867.930 464.200   2
   9  -5   7 1124.83 354.952   2
   9  -5   8 43.7045 55.9303   2
   9  -5   9 388.265 233.575   2
  -9  -4  17 1025.35 380.805   2
  -9  -4  16 33.2981 74.3262   2
  -9  -4  15 163.216 166.233   2
  -9  -4  14 2382.66 563.860   2
  -9  -4  13 275.781 159.853   2
  -9  -4  12 9713.07 1120.15   2
  -9  -4  11 3701.56 697.916   2
  -9  -4  10 241.444 213.581   2
  -9  -4   9 5201.01 796.864   2
  -9  -4   8 4065.39 705.698   2
  -9  -4   7 6084.04 878.788   2
  -9  -4   7 7201.80 661.827   3
  -9  -4   6 6232.58 884.667   2
  -9  -4   6 6524.23 651.867   3
  -9  -4   5 3029.43 605.326   2
  -9  -4   4 2863.27 595.089   2
   9  -4  -4 3411.77 490.713   1
  -9  -4   3 1428.90 421.607   2
   9  -4  -3 931.994 242.575   1
  -9  -4   2 639.569 317.248   2
   9  -4  -2 1050.79 250.742   1
  -9  -4   1 6629.22 963.553   2
   9  -4  -1 6741.80 625.476   1
  -9  -4   0 881.069 396.360   2
  -9  -4  -1 1717.01 521.034   2
  -9  -4  -2 1443.18 471.144   2
   9  -4   3 2084.60 395.737   2
  -9  -4  -3 3605.81 804.339   2
   9  -4   4 3400.42 538.309   2
   9  -4   5 2345.75 472.360   2
   9  -4   6 1377.99 375.315   2
   9  -4   7 146.270 122.381   2
   9  -4   8 1050.49 351.068   2
   9  -4   9 401.346 221.037   2
   9  -4  10 816.952 346.113   2
   9  -4  11 248.390 191.170   2
  -9  -3  16 453.376 250.052   2
  -9  -3  15 4022.13 703.067   2
  -9  -3  14 348.414 212.692   2
  -9  -3  13 189.170 83.7467   2
  -9  -3  12 1081.27 371.146   2
  -9  -3  11 2824.81 568.101   2
  -9  -3  10 782.471 293.217   2
  -9  -3   9 6735.61 857.262   2
  -9  -3   8 1532.88 288.814   3
  -9  -3   8 2204.75 480.554   2
  -9  -3   7 1209.82 255.110   3
  -9  -3   7 951.588 332.239   2
  -9  -3   6 5636.08 789.053   2
  -9  -3   6 6664.20 634.159   3
   9  -3  -6 6041.12 702.288   1
  -9  -3   5 4183.14 671.358   2
  -9  -3   5 4100.82 517.829   3
   9  -3  -5 4359.64 568.429   1
  -9  -3   4 24208.4 1712.48   2
  -9  -3   4 27751.9 1454.43   3
   9  -3  -4 25994.7 1422.21   1
  -9  -3   3 1165.66 370.211   2
   9  -3  -3 1896.38 348.220   1
  -9  -3   3 1751.70 362.797   3
  -9  -3   2 6322.44 860.945   2
   9  -3  -2 7028.84 665.836   1
  -9  -3   1 23783.6 1772.30   2
   9  -3  -1 20202.0 1169.21   1
   9  -3   0 1252.00 269.603   1
  -9  -3   0 1045.20 363.143   2
  -9  -3  -1 5490.28 885.140   2
   9  -3   2 10640.0 871.358   2
   9  -3   3 4460.95 593.286   2
   9  -3   4 8824.71 880.358   2
   9  -3   5 1997.22 430.568   2
   9  -3   6 2916.70 553.387   2
   9  -3   7 19.1214 81.3280   2
   9  -3   8 634.964 294.198   2
   9  -3   9 2427.12 564.103   2
   9  -3  10 213.492 184.904   2
   9  -3  11-172.251 224.183   2
   9  -2 -18 2543.06 678.374   1
   9  -2 -17 572.518 332.491   1
   9  -2 -16 2332.19 613.183   1
  -9  -2  14 3546.44 586.861   2
  -9  -2  13 3381.61 561.504   2
   9  -2 -12 4030.89 682.480   1
  -9  -2  12 2999.69 526.413   2
   9  -2 -11 2222.73 485.545   1
  -9  -2  11 1257.23 341.131   2
   9  -2 -10 3522.71 597.925   1
  -9  -2  10 2434.17 468.146   2
  -9  -2   9 8244.79 693.489   3
   9  -2  -9 10608.9 1018.97   1
  -9  -2   9 8712.25 890.482   2
  -9  -2   8 5671.89 582.799   3
   9  -2  -8 6340.95 751.423   1
  -9  -2   8 5848.20 727.314   2
  -9  -2   7 19426.6 1389.18   2
  -9  -2   7 21892.7 1214.96   3
   9  -2  -7 21512.2 1385.85   1
  -9  -2   6 1178.79 320.485   2
   9  -2  -6 2055.41 409.837   1
  -9  -2   6 1688.69 320.475   3
  -9  -2   5 7713.20 859.167   2
  -9  -2   5 9357.63 786.525   3
   9  -2  -5 8765.26 814.345   1
  -9  -2   4-29.6876 67.6606   2
   9  -2  -4 184.604 143.055   1
  -9  -2   4 39.7779 67.8644   3
  -9  -2   3 65.2576 97.9869   2
  -9  -2   3 315.656 153.436   3
   9  -2  -3 289.687 151.065   1
  -9  -2   2 7170.58 865.321   2
  -9  -2   2 7770.07 763.640   3
   9  -2  -2 6149.78 647.939   1
   9  -2  -1 2474.38 405.225   1
  -9  -2   1 2767.83 549.748   2
  -9  -2   1 2630.80 452.782   3
  -9  -2   0 34864.3 1768.03   3
   9  -2   0 31046.7 1554.95   1
   9  -2   1 50323.8 2093.99   1
  -9  -2  -1 60628.2 2472.78   3
   9  -2   2 252.109 117.511   1
  -9  -2  -2 513.012 255.606   3
  -9  -2  -9 442.598 282.109   3
  -9  -2 -10 843.770 365.516   3
  -9  -2 -11 1050.55 389.719   3
   9  -1 -19 357.609 195.185   1
   9  -1 -18 227.403 161.000   1
   9  -1 -17 2095.51 579.559   1
   9  -1 -16 2713.17 647.828   1
   9  -1 -15 2423.57 578.563   1
   9  -1 -14 7309.58 977.053   1
   9  -1 -13 2213.80 511.975   1
   9  -1 -12 5824.72 820.855   1
   9  -1 -11 1707.65 432.750   1
  -9  -1  11 1622.71 342.002   2
   9  -1 -10 1409.98 386.517   1
  -9  -1  10 1106.33 278.451   2
   9  -1  -9 16097.0 1246.24   1
  -9  -1   9 13166.6 988.769   2
  -9  -1   8 25878.2 1395.67   3
   9  -1  -8 29103.5 1672.42   1
  -9  -1   8 25723.4 1432.19   2
   9  -1  -7 1636.14 375.645   1
  -9  -1   7 1171.73 272.493   3
  -9  -1   7 1461.05 326.973   2
  -9  -1   6 12475.9 988.113   2
  -9  -1   6 13510.0 986.915   3
   9  -1  -6 13653.2 1074.27   1
  -9  -1   5 3057.25 481.429   2
  -9  -1   5 3030.44 456.903   3
   9  -1  -5 3622.31 547.297   1
  -9  -1   4 7436.61 780.068   2
  -9  -1   4 8306.98 772.693   3
   9  -1  -4 8402.77 811.380   1
  -9  -1   3 5245.01 666.206   2
  -9  -1   3 5817.11 642.804   3
   9  -1  -3 4792.72 605.594   1
  -9  -1   2 5337.43 687.830   2
  -9  -1   2 6035.57 671.680   3
   9  -1  -2 5781.73 663.726   1
  -9  -1   1 6310.83 689.663   3
   9  -1  -1 4602.76 599.554   1
   9  -1   0 461.461 184.110   1
  -9  -1   0 313.457 156.953   3
   9  -1   1 3789.80 532.361   1
  -9  -1  -1 5051.34 644.007   3
  -9  -1  -2 8552.59 878.818   3
  -9  -1  -3 578.777 251.829   3
  -9  -1  -4 3029.91 537.199   3
  -9  -1  -5 8618.58 948.689   3
  -9  -1  -6 888.850 321.765   3
  -9  -1  -7 2273.97 510.614   3
  -9  -1  -8 4047.60 711.337   3
  -9  -1  -9 3451.86 699.072   3
  -9  -1 -10 2103.81 545.931   3
  -9  -1 -11 1599.79 495.622   3
  -9  -1 -12 316.114 220.948   3
   9   0 -19-123.891 164.747   1
   9   0 -18 343.757 212.227   1
   9   0 -17 1382.68 591.326   1
   9   0 -16-169.900 188.360   1
   9   0 -15 161.420 92.0858   1
   9   0 -14 2522.55 569.219   1
   9   0 -13 124.582 138.814   1
   9   0 -12 3920.76 677.088   1
   9   0 -11-44.4952 119.477   1
   9   0 -10 4054.33 648.553   1
   9   0  -9 4086.60 644.737   1
   9   0  -8 497.712 192.845   1
  -9   0   8 97.2718 59.5858   2
  -9   0   7 39.7877 98.3418   3
   9   0  -7 65.2146 124.427   1
  -9   0   7 67.0256 44.4532   2
  -9   0   6 21755.1 1178.79   2
  -9   0   6 23721.8 1421.68   3
   9   0  -6 23484.8 1498.36   1
   9   0  -5 2048.55 427.232   1
  -9   0   5 3010.94 422.042   2
  -9   0   5 3087.51 493.755   3
  -9   0   4 6894.94 670.921   2
  -9   0   4 7379.02 767.270   3
   9   0  -4 6572.71 764.441   1
  -9   0   3 1793.90 350.118   2
   9   0  -3 2032.38 420.537   1
  -9   0   3 1775.37 360.903   3
  -9   0   2 283.475 154.253   3
   9   0  -2 180.297 127.839   1
   9   0  -1 16341.6 1240.95   1
  -9   0   1 16046.6 1169.57   3
   9   0   0 3754.64 582.906   1
  -9   0   0 4363.93 599.795   3
   9   0   1 1873.04 404.032   1
  -9   0  -1 2491.50 455.826   3
  -9   0  -2 3139.88 519.903   3
  -9   0  -3 33085.4 1836.76   3
  -9   0  -4 1790.95 409.418   3
  -9   0  -5 13944.1 1212.81   3
  -9   0  -6 3304.77 588.565   3
  -9   0  -7 225.073 176.573   3
  -9   0  -8 2031.04 494.566   3
  -9   0  -9 337.748 181.471   3
  -9   0 -10 883.930 365.301   3
  -9   0 -11 583.460 297.042   3
  -9   0 -12 4719.93 867.911   3
   9   1 -20-335.103 270.293   1
   9   1 -19 29.9728 150.257   1
   9   1 -18 172.391 201.738   1
   9   1 -17 1641.94 510.308   1
   9   1 -16 2355.58 579.834   1
   9   1 -15 2033.64 536.404   1
   9   1 -14 7148.45 1017.79   1
   9   1 -13 2087.86 526.061   1
   9   1 -12 6139.87 872.466   1
   9   1 -11 2517.93 555.526   1
   9   1 -10 1933.88 488.853   1
   9   1  -9 12798.5 1185.37   1
   9   1  -8 24984.7 1674.53   1
   9   1  -7 1833.31 441.877   1
   9   1  -6 14571.0 1235.89   1
  -9   1   5 2766.19 325.163   2
  -9   1   5 3971.55 587.664   3
   9   1  -5 2469.16 498.590   1
  -9   1   4 7441.84 605.021   2
  -9   1   4 8056.36 865.177   3
   9   1  -4 8177.74 917.680   1
  -9   1   3 5611.96 559.727   2
  -9   1   3 5664.54 710.170   3
   9   1  -3 5688.40 778.115   1
   9   1  -2 6609.45 825.435   1
  -9   1   2 7576.03 834.724   3
   9   1  -1 5415.54 776.450   1
  -9   1   1 6519.74 758.678   3
   9   1   0 142.638 121.550   1
  -9   1   0 633.351 230.509   3
  -9   1  -1 4721.91 667.127   3
  -9   1  -2 8155.61 881.189   3
  -9   1  -3 323.131 163.690   3
  -9   1  -4 3752.77 620.445   3
  -9   1  -5 7743.34 920.753   3
  -9   1  -6 1032.33 362.907   3
  -9   1  -7 1966.88 478.889   3
  -9   1  -8 3597.83 675.886   3
  -9   1  -9 2311.23 564.481   3
  -9   1 -10 1359.62 444.115   3
  -9   1 -11 1620.32 503.085   3
  -9   1 -12 490.565 312.182   3
  -9   1 -13 514.175 280.739   3
   9   2 -20 2374.54 720.410   1
   9   2 -19 676.771 374.290   1
   9   2 -18 1985.57 642.771   1
   9   2 -17 839.056 426.133   1
   9   2 -16 1854.14 547.283   1
   9   2 -15 1408.80 472.829   1
   9   2 -14 4777.45 852.204   1
   9   2 -13 5043.36 831.599   1
   9   2 -12 3499.27 687.328   1
   9   2 -11 1965.35 499.423   1
   9   2 -10 2459.94 551.995   1
   9   2  -9 10194.2 1128.97   1
   9   2  -8 5151.06 783.255   1
   9   2  -7 21066.8 1614.67   1
   9   2  -6 1186.02 373.355   1
   9   2  -5 8012.36 970.003   1
   9   2  -4 100.552 143.664   1
  -9   2   3 728.781 260.389   3
   9   2  -3 304.822 226.399   1
   9   2  -2 6350.29 879.525   1
  -9   2   2 6577.13 834.119   3
  -9   2   1 2882.94 540.169   3
   9   2  -1 2443.19 517.790   1
  -9   2   0 33209.0 1949.16   3
  -9   2  -1 60039.2 2769.73   3
  -9   2  -2 251.187 220.346   3
  -9   2  -3 60222.8 2830.55   3
  -9   2  -4 473.308 239.202   3
  -9   2  -5 1942.50 476.668   3
  -9   2  -6 2455.70 556.319   3
  -9   2  -7 3130.31 646.142   3
  -9   2  -8 766.506 314.517   3
  -9   2  -9 166.007 114.997   3
  -9   2 -10-80.3013 164.026   3
  -9   2 -11 608.185 298.065   3
  -9   2 -12 3348.28 773.951   3
   9   3 -19 1879.63 657.348   1
   9   3 -18 814.280 414.160   1
   9   3 -17 589.322 363.704   1
   9   3 -16 355.921 216.766   1
   9   3 -15 3060.07 736.253   1
   9   3 -14-6.46305 160.640   1
   9   3 -13 129.393 127.658   1
   9   3 -12 493.447 275.760   1
   9   3 -11 3316.53 705.154   1
   9   3 -10 622.654 298.883   1
   9   3  -9 8551.73 1106.22   1
   9   3  -8 2281.44 566.684   1
   9   3  -7 1154.85 430.704   1
   9   3  -6 5258.08 839.623   1
   9   3  -5 3954.82 719.155   1
   9   3  -4 26133.2 1953.44   1
   9   3  -3 1401.48 466.178   1
  -9   3   0 868.856 353.259   3
  -9   3  -1 4961.67 772.061   3
  -9   3  -2 12625.7 1268.23   3
  -9   3  -3 4570.04 767.077   3
  -9   3  -4 10404.5 1176.36   3
  -9   3  -5 2541.94 583.518   3
  -9   3  -6 3382.60 706.159   3
  -9   3  -7 136.409 193.111   3
  -9   3  -8 564.116 313.176   3
  -9   3  -9 1933.79 557.510   3
  -9   3 -10 5.56602 141.445   3
  -9   3 -11 253.745 206.121   3
  -9   3 -12 1662.00 581.961   3
   9   4 -18 443.443 412.051   1
   9   4 -17 268.329 138.014   1
   9   4 -16-818.834 413.844   1
   9   4 -15-1.35783 145.378   1
   9   4 -14 2456.17 661.900   1
   9   4 -13 399.788 309.385   1
   9   4 -12 10046.1 1339.31   1
   9   4 -11 4444.98 862.325   1
   9   4 -10 714.418 366.944   1
   9   4  -9 5933.58 965.793   1
   9   4  -8 5239.75 898.997   1
   9   4  -7 6382.96 999.115   1
   9   4  -6 6508.69 1006.27   1
   9   4  -5 2685.69 650.469   1
  -9   4  -4 4664.20 832.854   3
  -9   4  -5 1885.60 532.704   3
  -9   4  -6 1602.29 529.820   3
  -9   4  -7 795.397 347.715   3
  -9   4  -8 829.806 386.728   3
  -9   4  -9 707.837 365.539   3
  -9   4 -10 1217.50 472.066   3
  -9   4 -11 238.816 229.822   3
   9   5 -17 622.022 373.868   1
   9   5 -16 1370.32 549.907   1
   9   5 -15-59.4154 142.069   1
   9   5 -14 510.465 357.134   1
   9   5 -13 3066.09 766.735   1
   9   5 -12 301.681 299.307   1
   9   5 -11 3544.91 802.535   1
   9   5 -10 7.68116 93.2697   1
   9   5  -9 634.764 344.653   1
   9   5  -8 291.092 252.808   1
   9   5  -7-195.092 287.016   1
   9   6 -15 496.401 406.389   1
   9   6 -14-174.286 221.794   1
   9   6 -13-306.436 276.820   1
   9   6 -12 1618.01 620.261   1
   9   6 -11 447.736 293.123   1
 -10  -7  10 321.486 241.828   2
 -10  -7   9 1025.42 440.634   2
 -10  -7   8 1103.67 433.648   2
 -10  -7   7 995.270 443.007   2
 -10  -7   6 446.423 256.091   2
 -10  -7   5 1095.82 457.363   2
 -10  -7   4 56.4799 139.187   2
 -10  -7   3 3679.89 866.452   2
 -10  -7   2 194.236 166.868   2
 -10  -7   1 721.944 445.782   2
 -10  -7   0 2209.58 724.512   2
 -10  -6  14 497.165 309.790   2
 -10  -6  13-168.815 131.539   2
 -10  -6  12 1648.65 562.899   2
 -10  -6  11 202.343 184.674   2
 -10  -6  10 35.6413 64.4497   2
 -10  -6   9-45.3002 147.222   2
 -10  -6   8 84.2831 173.769   2
 -10  -6   7 1652.61 501.077   2
 -10  -6   6 457.658 299.981   2
 -10  -6   5 1177.96 439.496   2
 -10  -6   4 1538.90 506.901   2
 -10  -6   3 825.701 396.381   2
 -10  -6   2 334.933 272.433   2
 -10  -6   1 1352.18 485.054   2
 -10  -6   0 604.116 337.127   2
 -10  -6  -1 3387.88 829.397   2
 -10  -6  -2 635.236 357.852   2
 -10  -6  -3 603.220 400.445   2
 -10  -6  -4-222.603 266.439   2
 -10  -5  16-74.0260 114.162   2
 -10  -5  15 634.346 317.311   2
 -10  -5  14 139.468 144.560   2
 -10  -5  13 302.543 207.516   2
 -10  -5  12 400.272 243.566   2
 -10  -5  11 1546.68 486.207   2
 -10  -5  10-114.252 185.244   2
 -10  -5   9 422.434 241.856   2
 -10  -5   8 211.332 150.741   2
 -10  -5   7 5204.72 883.638   2
 -10  -5   6 1632.89 493.735   2
 -10  -5   5 197.809 118.459   2
  10  -5  -5 154.319 111.659   1
 -10  -5   4 785.969 357.490   2
  10  -5  -4 717.851 244.960   1
 -10  -5   3 865.691 372.659   2
 -10  -5   2 2093.06 593.359   2
 -10  -5   1 7067.50 1111.43   2
 -10  -5   0 247.797 253.532   2
 -10  -5  -1 1435.56 500.580   2
 -10  -5  -2 737.537 406.060   2
 -10  -5  -3 143.580 173.833   2
 -10  -5  -4 2720.83 789.591   2
 -10  -5  -5 207.796 202.188   2
 -10  -5  -6 299.950 323.066   2
 -10  -4  15 846.895 352.652   2
 -10  -4  14 160.934 197.282   2
 -10  -4  13 661.775 312.143   2
 -10  -4  12 415.983 218.277   2
 -10  -4  11 482.642 233.975   2
 -10  -4  10 303.315 194.236   2
 -10  -4   9 1492.66 452.929   2
 -10  -4   8 150.710 60.3761   2
  10  -4  -7 3080.16 546.993   1
 -10  -4   7 2501.54 568.123   2
 -10  -4   6 3153.19 655.248   2
  10  -4  -6 3384.89 546.631   1
 -10  -4   6 3398.76 495.828   3
 -10  -4   5 3997.71 743.128   2
  10  -4  -5 3232.68 520.843   1
 -10  -4   5 4399.30 578.367   3
 -10  -4   4 2894.67 642.080   2
  10  -4  -4 2893.84 483.123   1
 -10  -4   4 2784.79 478.622   3
 -10  -4   3 356.173 230.338   2
  10  -4  -3 455.779 175.595   1
 -10  -4   2 629.145 266.142   2
 -10  -4   1 1108.06 415.477   2
 -10  -4   0 9468.03 1256.56   2
 -10  -4  -1 3294.69 754.078   2
 -10  -4  -2 562.005 316.524   2
 -10  -4  -3 2544.43 720.278   2
  10  -4   7 4577.46 742.507   2
  10  -4   8-116.497 191.595   2
  10  -4   9 151.680 172.044   2
 -10  -3  13 3218.60 616.939   2
 -10  -3  12 1546.96 416.622   2
  10  -3 -11 1505.04 420.914   1
 -10  -3  11 1320.75 394.516   2
  10  -3 -10 649.548 302.955   1
 -10  -3  10 384.063 224.210   2
  10  -3  -9 4370.81 682.817   1
 -10  -3   9 4321.77 701.208   2
 -10  -3   8 9917.52 1082.04   2
 -10  -3   8 11196.0 877.565   3
  10  -3  -8 11240.0 1069.96   1
 -10  -3   7 9761.76 1076.44   2
 -10  -3   7 11979.8 922.963   3
  10  -3  -7 11171.4 1027.52   1
 -10  -3   6 2847.93 564.624   2
  10  -3  -6 2642.19 496.692   1
 -10  -3   6 2548.89 426.316   3
 -10  -3   5 6930.71 913.467   2
 -10  -3   5 6824.39 722.877   3
  10  -3  -5 5915.58 695.823   1
 -10  -3   4 9283.47 1092.10   2
 -10  -3   4 10116.0 913.853   3
  10  -3  -4 8762.48 845.288   1
 -10  -3   3 25096.7 1849.81   2
 -10  -3   3 26132.2 1559.05   3
  10  -3  -3 26263.7 1488.54   1
 -10  -3   2 7187.63 967.790   2
 -10  -3   2 7935.91 837.794   3
  10  -3  -2 7184.18 726.646   1
  10  -3  -1 502.300 184.766   1
 -10  -3   1 211.101 169.082   2
 -10  -3   1 445.205 217.525   3
 -10  -3   0 9780.10 1207.93   2
 -10  -3   0 9526.78 966.378   3
 -10  -3  -1 569.006 296.762   2
  10  -2 -18 2089.67 617.360   1
  10  -2 -17 703.872 347.488   1
  10  -2 -16 3782.95 760.170   1
  10  -2 -15 3600.40 720.619   1
  10  -2 -14 1013.21 366.537   1
  10  -2 -13 1018.35 365.204   1
  10  -2 -12 2133.35 513.356   1
  10  -2 -11 6219.87 844.897   1
 -10  -2  11 4735.96 674.163   2
  10  -2 -10 6207.72 826.608   1
 -10  -2  10 5020.01 693.029   2
  10  -2  -9 3415.42 602.146   1
 -10  -2   9 3199.84 473.602   3
 -10  -2   9 3305.51 567.582   2
 -10  -2   8 6610.88 812.209   2
 -10  -2   8 7893.32 757.624   3
  10  -2  -8 8492.88 909.600   1
  10  -2  -7 533.505 201.582   1
 -10  -2   7 509.187 191.408   3
 -10  -2   7 326.757 163.425   2
 -10  -2   6 8381.88 918.417   2
 -10  -2   6 9052.65 829.773   3
  10  -2  -6 8742.33 886.889   1
 -10  -2   5 4089.42 651.847   2
 -10  -2   5 5853.05 673.704   3
  10  -2  -5 4644.34 626.028   1
 -10  -2   4 10626.2 1077.94   2
 -10  -2   4 11256.4 954.187   3
  10  -2  -4 11481.5 992.396   1
 -10  -2   3 2829.36 559.101   2
 -10  -2   3 3101.98 494.807   3
  10  -2  -3 2850.55 467.302   1
  10  -2  -2 2374.71 437.082   1
 -10  -2   2 2582.22 553.490   2
 -10  -2   2 2776.16 494.590   3
  10  -2  -1 1373.28 330.693   1
 -10  -2   1 1255.03 415.125   2
 -10  -2   1 1992.93 427.420   3
 -10  -2   0 9429.32 1108.29   2
 -10  -2   0 10573.9 1002.76   3
  10  -2   0 8916.00 844.730   1
 -10  -2  -1 5242.37 719.535   3
 -10  -2  -2 612.982 283.216   3
 -10  -2  -3 6855.24 858.524   3
 -10  -2  -4 1627.40 458.726   3
 -10  -2  -5 10244.9 1113.26   3
 -10  -2  -6 4287.89 746.493   3
 -10  -2  -7-95.7158 158.030   3
 -10  -2  -8 1895.16 535.723   3
 -10  -2  -9 1445.16 442.359   3
  10  -1 -18 178.239 227.098   1
  10  -1 -17 1559.65 494.661   1
  10  -1 -16-52.1172 90.6688   1
  10  -1 -15 4871.54 832.069   1
  10  -1 -14 3204.09 662.357   1
  10  -1 -13 8641.37 1061.51   1
  10  -1 -12 2414.49 555.103   1
  10  -1 -11 3463.32 650.790   1
  10  -1 -10 5298.92 766.880   1
  10  -1  -9 2433.77 503.575   1
 -10  -1   8 7242.86 760.635   3
  10  -1  -8 7847.21 888.125   1
 -10  -1   8 7952.96 786.077   2
 -10  -1   7 3986.51 559.332   3
  10  -1  -7 3987.76 628.319   1
 -10  -1   7 2915.31 485.711   2
 -10  -1   6 6998.22 772.507   2
 -10  -1   6 7968.47 810.559   3
  10  -1  -6 8001.28 874.177   1
 -10  -1   5 1034.61 296.705   2
 -10  -1   5 1506.13 330.516   3
  10  -1  -5 1042.24 301.545   1
 -10  -1   4 16082.5 1239.51   2
 -10  -1   4 18997.0 1286.20   3
  10  -1  -4 15765.4 1234.10   1
 -10  -1   3 8532.38 915.277   2
 -10  -1   3 9533.11 904.581   3
  10  -1  -3 9016.41 914.057   1
 -10  -1   2 3483.32 597.012   2
  10  -1  -2 3342.06 554.017   1
 -10  -1   2 3669.44 554.437   3
 -10  -1   1 26889.6 1603.54   3
  10  -1  -1 24995.9 1570.80   1
  10  -1   0 2750.96 497.134   1
 -10  -1   0 3189.70 530.508   3
 -10  -1  -1 329.502 165.023   3
  10  -1   1 5.79725 61.5702   1
 -10  -1  -2 20255.3 1451.02   3
 -10  -1  -3 2230.26 473.483   3
 -10  -1  -4 20786.0 1542.51   3
 -10  -1  -5 6855.60 899.279   3
 -10  -1  -6 545.062 270.971   3
 -10  -1  -7 302.602 228.016   3
 -10  -1  -8 2547.64 594.438   3
 -10  -1  -9 2955.30 663.247   3
 -10  -1 -10 353.827 181.174   3
  10   0 -18 1144.70 461.289   1
  10   0 -17 1888.09 534.939   1
  10   0 -16 2382.01 596.737   1
  10   0 -15-159.542 209.774   1
  10   0 -14-97.4120 119.189   1
  10   0 -13 2371.26 567.385   1
  10   0 -12-90.5652 171.023   1
  10   0 -11 6931.63 921.989   1
  10   0 -10 4113.94 699.927   1
  10   0  -9 13115.8 1230.45   1
  10   0  -8 5120.83 743.779   1
 -10   0   7 22336.1 1469.57   3
  10   0  -7 22270.0 1572.98   1
  10   0  -6 523.549 230.054   1
 -10   0   6 910.341 288.471   3
 -10   0   5 2517.71 419.704   2
  10   0  -5 1861.23 427.676   1
 -10   0   5 2758.70 501.300   3
 -10   0   4 827.421 262.472   2
  10   0  -4 359.020 177.016   1
 -10   0   4 1185.80 331.179   3
 -10   0   3 12707.2 1032.99   2
 -10   0   3 14258.9 1158.39   3
  10   0  -3 11936.8 1125.57   1
  10   0  -2 527.602 226.729   1
 -10   0   2 500.603 185.203   3
  10   0  -1 6126.22 789.902   1
 -10   0   1 6588.63 785.142   3
  10   0   0 56.7494 59.2264   1
 -10   0   0 566.415 266.235   3
 -10   0  -1-36.4906 84.5843   3
 -10   0  -2 5894.11 774.439   3
 -10   0  -3 240.960 173.707   3
 -10   0  -4 1716.71 413.562   3
 -10   0  -5 252.881 180.242   3
 -10   0  -6-55.5754 142.081   3
 -10   0  -7 1110.66 369.137   3
 -10   0  -8 1835.49 509.949   3
 -10   0  -9 1530.64 459.469   3
 -10   0 -10 731.133 331.843   3
  10   1 -19-2.85614 97.7159   1
  10   1 -18 220.914 250.603   1
  10   1 -17 1207.85 469.856   1
  10   1 -16 62.0562 79.9228   1
  10   1 -15 4460.51 850.481   1
  10   1 -14 2479.24 622.616   1
  10   1 -13 8444.30 1099.44   1
  10   1 -12 2808.11 614.753   1
  10   1 -11 3308.88 659.950   1
  10   1 -10 5059.70 791.310   1
  10   1  -9 2376.11 547.738   1
  10   1  -8 8232.79 995.735   1
  10   1  -7 2747.93 555.057   1
 -10   1   6 8065.44 914.152   3
  10   1  -6 7640.68 955.072   1
 -10   1   5 1251.86 352.605   3
  10   1  -5 1256.05 386.850   1
 -10   1   4 17294.3 1355.95   3
  10   1  -4 15053.6 1361.23   1
  10   1  -3 8511.10 1004.84   1
 -10   1   3 8382.87 933.554   3
 -10   1   2 3624.64 612.241   3
  10   1  -2 3293.63 615.815   1
  10   1  -1 25175.4 1812.65   1
 -10   1   1 26847.0 1746.53   3
 -10   1   0 3322.00 612.345   3
 -10   1  -1 24.5684 72.0813   3
 -10   1  -2 18368.7 1466.77   3
 -10   1  -3 1502.89 420.764   3
 -10   1  -4 20174.6 1589.74   3
 -10   1  -5 7063.53 935.305   3
 -10   1  -6 339.585 189.599   3
 -10   1  -7 730.498 324.678   3
 -10   1  -8 1379.96 445.050   3
 -10   1  -9 1427.91 470.023   3
 -10   1 -10 495.654 284.438   3
 -10   1 -11 154.964 105.644   3
  10   2 -19 2501.24 740.243   1
  10   2 -18 1654.67 611.362   1
  10   2 -17 513.999 308.458   1
  10   2 -16 4129.90 873.126   1
  10   2 -15 4300.91 874.093   1
  10   2 -14 262.537 212.048   1
  10   2 -13 464.463 314.672   1
  10   2 -12 1255.84 378.331   1
  10   2 -11 5446.19 884.656   1
  10   2 -10 6966.15 998.918   1
  10   2  -9 3779.00 715.668   1
  10   2  -8 6588.07 939.897   1
  10   2  -7 397.598 270.558   1
  10   2  -6 8754.60 1082.96   1
  10   2  -5 5623.05 871.698   1
  10   2  -4 11472.3 1238.40   1
  10   2  -3 2748.71 593.517   1
 -10   2   3 3273.68 598.004   3
  10   2  -2 2749.77 596.923   1
 -10   2   2 2709.86 542.375   3
 -10   2   1 2208.75 517.662   3
 -10   2   0 11210.4 1162.26   3
 -10   2  -1 5625.31 823.178   3
 -10   2  -2 436.929 253.099   3
 -10   2  -3 6539.13 919.636   3
 -10   2  -4 1854.72 522.976   3
 -10   2  -5 10337.8 1191.39   3
 -10   2  -6 3354.85 688.952   3
 -10   2  -7-69.5695 184.633   3
 -10   2  -8 1322.99 468.582   3
 -10   2  -9 2510.17 658.821   3
 -10   2 -10 220.363 235.222   3
  10   3 -18 1393.56 563.618   1
  10   3 -17 666.655 375.247   1
  10   3 -16 125.001 125.180   1
  10   3 -15 383.805 181.971   1
  10   3 -14 1562.59 521.649   1
  10   3 -13 3409.52 777.291   1
  10   3 -12 1593.20 526.633   1
  10   3 -11 1940.16 575.404   1
  10   3 -10 826.771 360.036   1
  10   3  -9 4894.31 887.544   1
  10   3  -8 9477.14 1207.63   1
  10   3  -7 9854.19 1222.64   1
  10   3  -6 3101.75 697.909   1
  10   3  -5 6109.60 973.310   1
  10   3  -4 8265.29 1133.73   1
  10   3  -3 26629.2 2097.53   1
 -10   3   1 453.943 193.227   3
 -10   3   0 9990.01 1158.06   3
 -10   3  -1 1067.80 377.739   3
 -10   3  -2 3148.58 661.816   3
 -10   3  -3 1597.41 471.695   3
 -10   3  -4 1310.71 427.417   3
 -10   3  -5 1908.58 539.470   3
 -10   3  -6 6647.86 1038.09   3
 -10   3  -7 973.957 418.647   3
 -10   3  -8 1418.12 495.594   3
 -10   3  -9 476.943 344.313   3
 -10   3 -10 146.349 232.183   3
  10   4 -17 355.128 302.603   1
  10   4 -16 605.499 363.034   1
  10   4 -15 1134.05 480.602   1
  10   4 -14 119.082 109.190   1
  10   4 -13 605.445 326.174   1
  10   4 -12 351.775 292.342   1
  10   4 -11 32.0166 96.8791   1
  10   4 -10 166.439 182.215   1
  10   4  -9 1839.83 587.498   1
  10   4  -8 503.090 299.766   1
  10   4  -7 3115.08 725.631   1
  10   4  -6 2589.73 658.874   1
  10   4  -5 4517.12 920.722   1
 -10   4  -4 136.229 107.772   3
 -10   4  -5 1334.26 449.138   3
 -10   4  -6 1681.83 574.035   3
 -10   4  -7 5819.08 1038.14   3
 -10   4  -8-12.8314 128.788   3
 -10   4  -9 146.283 178.505   3
  10   5 -16 102.021 211.285   1
  10   5 -15 831.173 409.991   1
  10   5 -14 438.755 341.661   1
  10   5 -13 376.865 200.115   1
  10   5 -12 419.497 279.376   1
  10   5 -11 1400.56 516.532   1
  10   5 -10-420.359 301.593   1
  10   5  -9-7.38873 159.583   1
  10   5  -8 782.761 423.476   1
  10   6 -14 280.939 122.762   1
  10   6 -13-32.7742 135.320   1
  10   6 -12 1501.01 609.448   1
 -11  -7   7 1223.89 507.007   2
 -11  -7   6 1250.65 507.074   2
 -11  -7   5 639.766 371.418   2
 -11  -7   4 749.650 413.922   2
 -11  -6  13 288.778 266.266   2
 -11  -6  12 337.668 269.328   2
 -11  -6  11-75.6659 199.470   2
 -11  -6  10 541.674 315.506   2
 -11  -6   9 135.308 159.040   2
 -11  -6   8 667.611 343.611   2
 -11  -6   7 3044.20 743.723   2
 -11  -6   6 534.768 284.854   2
 -11  -6   5 1009.66 444.331   2
 -11  -6   4 1926.49 593.424   2
 -11  -6   3-234.556 274.316   2
 -11  -6   2 1689.80 600.265   2
 -11  -6   1 210.966 279.942   2
 -11  -6   0 1809.56 607.787   2
 -11  -6  -1 1106.06 489.942   2
 -11  -6  -2-183.331 194.333   2
 -11  -5  14 237.415 199.737   2
 -11  -5  13 953.939 395.362   2
 -11  -5  12 404.115 212.386   2
 -11  -5  11 266.844 256.319   2
 -11  -5  10 133.243 170.585   2
 -11  -5   9 393.965 255.810   2
  11  -5  -8-113.502 74.4673   1
 -11  -5   8 219.695 231.446   2
  11  -5  -7 737.695 293.094   1
 -11  -5   7 1171.22 423.349   2
 -11  -5   6 207.551 219.215   2
  11  -5  -6 79.1630 83.4132   1
 -11  -5   5 402.915 192.272   2
 -11  -5   5 330.341 179.263   3
 -11  -5   4 2051.16 608.378   2
 -11  -5   4 1971.91 438.768   3
 -11  -5   3 3271.13 772.819   2
 -11  -5   2-22.8800 127.249   2
 -11  -5   1-80.9835 254.898   2
 -11  -5   0 1092.57 456.506   2
 -11  -5  -1 1178.02 497.379   2
 -11  -5  -2 924.289 438.177   2
 -11  -5  -3 1340.23 554.878   2
 -11  -5  -4 513.368 323.322   2
  11  -4 -12 2374.97 594.459   1
 -11  -4  12 1702.13 484.137   2
  11  -4 -11 1412.17 444.863   1
 -11  -4  11 1139.56 415.890   2
  11  -4 -10 1529.27 436.857   1
 -11  -4  10 1834.47 487.162   2
  11  -4  -9 3517.39 633.768   1
 -11  -4   9 2783.58 620.557   2
  11  -4  -8 894.405 310.252   1
 -11  -4   8 590.892 307.466   2
  11  -4  -7 2293.22 483.192   1
 -11  -4   7 1866.43 511.152   2
 -11  -4   6 1870.30 531.797   2
  11  -4  -6 2053.62 442.886   1
 -11  -4   6 2677.29 470.910   3
 -11  -4   5 2457.86 626.919   2
  11  -4  -5 2401.48 467.687   1
 -11  -4   5 3146.21 531.669   3
 -11  -4   4 489.657 298.118   2
  11  -4  -4 545.774 224.593   1
 -11  -4   4 262.332 166.355   3
 -11  -4   3 846.531 387.918   2
 -11  -4   3 939.603 302.850   3
 -11  -4   2 107.323 122.349   2
 -11  -4   2 166.575 91.9018   3
 -11  -4   1-130.379 163.725   2
 -11  -4   1 264.357 150.563   3
 -11  -4   0 1316.01 494.160   2
 -11  -4  -1 131.280 212.404   2
 -11  -4  -2 2500.47 698.729   2
 -11  -4  -3 1358.83 539.743   2
 -11  -4  -4 372.795 354.957   2
  11  -3 -16 414.001 242.644   1
  11  -3 -15 2410.68 629.425   1
  11  -3 -14 303.341 212.312   1
  11  -3 -13 77.2985 85.0061   1
  11  -3 -12 571.633 317.596   1
  11  -3 -11 1117.87 375.025   1
  11  -3 -10 1673.97 456.969   1
 -11  -3  10 1904.20 475.362   2
  11  -3  -9 945.904 328.167   1
 -11  -3   9 565.509 279.171   2
  11  -3  -8 500.062 249.975   1
 -11  -3   8 18.6476 132.174   2
  11  -3  -7 1052.63 344.814   1
 -11  -3   7 1404.56 335.950   3
 -11  -3   7 845.638 331.191   2
 -11  -3   6 14790.1 1409.10   2
 -11  -3   6 18558.2 1286.08   3
  11  -3  -6 17171.8 1319.47   1
 -11  -3   5 1230.16 427.432   2
 -11  -3   5 1356.65 355.615   3
  11  -3  -5 1370.09 362.993   1
 -11  -3   4 1831.69 489.474   2
 -11  -3   4 2455.16 470.267   3
  11  -3  -4 1754.68 395.524   1
 -11  -3   3 271.869 193.027   2
 -11  -3   3 68.7840 84.4292   3
  11  -3  -3 289.424 172.821   1
 -11  -3   2 653.278 309.049   2
 -11  -3   2 450.345 226.309   3
 -11  -3   1 6170.57 984.363   2
 -11  -3   1 7483.63 889.873   3
 -11  -3   0 3404.70 757.378   2
 -11  -3   0 3703.10 636.542   3
 -11  -3  -1 276.130 144.796   2
 -11  -3  -1 588.256 274.186   3
 -11  -3  -2 3742.03 815.453   2
 -11  -3  -2 3466.16 645.821   3
 -11  -3  -3 336.441 244.236   3
 -11  -3  -4 5192.87 826.167   3
 -11  -3  -5 3620.75 709.790   3
 -11  -3  -6 1382.20 461.704   3
  11  -2 -17 14.2373 136.985   1
  11  -2 -16 879.575 357.688   1
  11  -2 -15 66.8521 129.030   1
  11  -2 -14 2941.30 655.067   1
  11  -2 -13 73.5207 100.072   1
  11  -2 -12 2105.15 513.749   1
  11  -2 -11 1290.15 403.954   1
  11  -2 -10 2232.86 517.775   1
  11  -2  -9 4395.46 709.787   1
 -11  -2   8 1085.21 309.477   3
  11  -2  -8 1384.91 414.394   1
 -11  -2   8 1309.93 363.860   2
 -11  -2   7 13424.1 1233.10   2
 -11  -2   7 16517.1 1226.96   3
  11  -2  -7 15446.4 1285.08   1
 -11  -2   6 4008.10 657.707   2
 -11  -2   6 5103.68 673.749   3
  11  -2  -6 4335.42 674.623   1
 -11  -2   5 6197.06 850.747   2
 -11  -2   5 7417.01 821.386   3
  11  -2  -5 5631.21 759.394   1
 -11  -2   4 15119.8 1364.71   2
 -11  -2   4 17598.2 1298.52   3
  11  -2  -4 15688.5 1249.31   1
 -11  -2   3 16814.9 1464.65   2
 -11  -2   3 18144.1 1335.64   3
  11  -2  -3 16033.5 1264.56   1
 -11  -2   2 5059.66 822.260   2
 -11  -2   2 5891.57 760.823   3
  11  -2  -2 5787.67 736.304   1
 -11  -2   1 518.727 269.013   2
 -11  -2   1 501.788 229.624   3
  11  -2  -1 378.013 186.177   1
 -11  -2   0 1712.45 502.417   2
 -11  -2   0 1965.39 467.722   3
 -11  -2  -1 9254.59 1020.14   3
 -11  -2  -2 2803.75 581.908   3
 -11  -2  -3 3284.34 624.676   3
 -11  -2  -4 2292.48 538.084   3
 -11  -2  -5 1761.34 485.247   3
 -11  -2  -6 432.745 264.465   3
 -11  -2  -7 1693.42 525.481   3
  11  -1 -17 1297.49 495.131   1
  11  -1 -16 3397.09 735.120   1
  11  -1 -15 1877.24 549.142   1
  11  -1 -14 586.919 273.150   1
  11  -1 -13 3752.69 743.567   1
  11  -1 -12 4769.59 792.744   1
  11  -1 -11 94.7778 155.981   1
  11  -1 -10 636.431 293.177   1
 -11  -1   9 4990.04 666.035   3
  11  -1  -9 5090.75 771.495   1
 -11  -1   8 2836.97 516.108   3
  11  -1  -8 2229.96 496.984   1
 -11  -1   7 3674.26 587.819   3
  11  -1  -7 3927.82 653.316   1
 -11  -1   6 6919.90 814.430   3
  11  -1  -6 7379.62 892.804   1
 -11  -1   5 5415.17 730.565   2
 -11  -1   5 5282.16 707.558   3
  11  -1  -5 4698.08 706.045   1
 -11  -1   4 5686.67 754.970   2
 -11  -1   4 6508.27 795.750   3
  11  -1  -4 5124.36 735.887   1
 -11  -1   3 4070.59 672.348   2
 -11  -1   3 3992.51 622.542   3
  11  -1  -3 3582.83 609.307   1
 -11  -1   2 9028.57 1028.29   2
 -11  -1   2 10094.6 1012.62   3
  11  -1  -2 9090.16 983.466   1
  11  -1  -1 1491.70 377.819   1
 -11  -1   1 1273.29 394.767   2
 -11  -1   1 1859.19 427.131   3
  11  -1   0 1525.93 393.566   1
 -11  -1   0 1938.52 441.704   3
 -11  -1  -1 9769.42 1048.36   3
 -11  -1  -2 1345.95 381.299   3
 -11  -1  -3 148.836 135.722   3
 -11  -1  -4 1824.69 466.606   3
 -11  -1  -5 1694.57 465.936   3
 -11  -1  -6 2357.00 578.906   3
 -11  -1  -7 237.487 188.661   3
 -11  -1  -8 2627.35 632.320   3
  11   0 -17-268.272 231.979   1
  11   0 -16-3.55222 203.777   1
  11   0 -15 18.4755 167.703   1
  11   0 -14-497.286 282.980   1
  11   0 -13 1183.07 433.497   1
  11   0 -12 120.585 113.816   1
  11   0 -11 2659.19 606.927   1
  11   0 -10 5192.34 831.988   1
  11   0  -9 2679.65 602.622   1
  11   0  -8 7067.88 937.955   1
 -11   0   7 20086.1 1465.85   3
  11   0  -7 17363.0 1482.48   1
  11   0  -6 1389.62 410.113   1
 -11   0   6 2677.65 531.530   3
 -11   0   5 16048.4 1334.14   3
  11   0  -5 15249.5 1371.49   1
 -11   0   4 8852.89 971.173   3
  11   0  -4 6127.01 859.601   1
 -11   0   3 1066.91 332.370   3
  11   0  -3 535.266 263.654   1
  11   0  -2 7339.53 934.393   1
 -11   0   2 8911.47 948.830   2
 -11   0   2 9051.94 985.493   3
  11   0  -1 54.7462 108.182   1
 -11   0   1-64.7639 107.092   3
  11   0   0 119.513 227.706   1
 -11   0   0 55.8164 65.6163   3
 -11   0  -1 3556.65 619.053   3
 -11   0  -2-62.5787 136.514   3
 -11   0  -3 7028.22 924.918   3
 -11   0  -4 4231.54 727.559   3
 -11   0  -5 607.027 305.306   3
 -11   0  -6 510.301 281.027   3
 -11   0  -7 190.046 196.604   3
 -11   0  -8 181.374 186.932   3
  11   1 -17 1320.58 543.121   1
  11   1 -16 3471.18 803.311   1
  11   1 -15 1546.81 503.824   1
  11   1 -14 2070.34 587.053   1
  11   1 -13 3147.08 695.358   1
  11   1 -12 3423.36 712.863   1
  11   1 -11-707.814 323.823   1
  11   1 -10 301.431 81.2988   1
  11   1  -9 5703.66 881.374   1
  11   1  -8 2814.74 615.069   1
  11   1  -7 4060.69 740.640   1
 -11   1   6 7743.99 941.384   3
  11   1  -6 6313.97 926.871   1
 -11   1   5 5155.52 781.846   3
  11   1  -5 4318.59 766.665   1
  11   1  -4 5785.69 879.087   1
 -11   1   4 6457.04 865.119   3
 -11   1   3 4258.15 702.977   3
  11   1  -3 4282.05 745.852   1
  11   1  -2 9471.92 1137.51   1
 -11   1   2 10901.2 1151.85   3
  11   1  -1 1463.29 430.636   1
 -11   1   1 793.849 303.733   3
 -11   1   0 3240.44 629.616   3
 -11   1  -1 9754.61 1100.36   3
 -11   1  -2 1285.46 409.312   3
 -11   1  -3 53.9752 113.020   3
 -11   1  -4 2070.98 518.860   3
 -11   1  -5 939.156 329.110   3
 -11   1  -6 2218.97 558.149   3
 -11   1  -7 241.600 156.450   3
 -11   1  -8 2437.16 629.461   3
  11   2 -17 194.018 273.533   1
  11   2 -16 502.760 305.678   1
  11   2 -15-158.327 276.672   1
  11   2 -14 2603.24 672.132   1
  11   2 -13-273.352 323.568   1
  11   2 -12 1556.13 526.046   1
  11   2 -11 1420.26 485.596   1
  11   2 -10 2562.73 618.264   1
  11   2  -9 3497.60 727.432   1
  11   2  -8 1302.30 453.983   1
  11   2  -7 14286.7 1497.98   1
  11   2  -6 4841.99 851.537   1
  11   2  -5 7366.91 1044.09   1
  11   2  -4 15619.7 1532.74   1
 -11   2   4 16243.4 1469.84   3
  11   2  -3 15254.3 1554.19   1
 -11   2   3 18725.4 1583.31   3
  11   2  -2 5874.15 943.980   1
 -11   2   2 5857.41 876.742   3
 -11   2   1 197.462 234.839   3
 -11   2   0 1756.47 471.641   3
 -11   2  -1 8023.03 1049.20   3
 -11   2  -2 3135.68 652.621   3
 -11   2  -3 3864.61 756.521   3
 -11   2  -4 1434.22 461.446   3
 -11   2  -5 1653.79 509.721   3
 -11   2  -6 554.273 303.070   3
 -11   2  -7 1714.60 549.674   3
 -11   2  -8 2534.00 655.070   3
  11   3 -17 1530.02 610.226   1
  11   3 -16 73.5399 152.749   1
  11   3 -15 1489.21 575.439   1
  11   3 -14 39.4706 114.504   1
  11   3 -13 339.780 217.303   1
  11   3 -12 390.331 337.150   1
  11   3 -11 1136.66 454.680   1
  11   3 -10 1350.33 507.143   1
  11   3  -9 1203.54 458.739   1
  11   3  -8 565.138 222.630   1
  11   3  -7 1076.46 391.503   1
  11   3  -6 16121.7 1654.74   1
  11   3  -5 1194.69 438.384   1
  11   3  -4 2236.80 605.914   1
 -11   3   1 6677.51 988.496   3
 -11   3   0 3205.76 700.453   3
 -11   3  -1 955.944 386.313   3
 -11   3  -2 3400.27 720.553   3
 -11   3  -3-8.93575 188.629   3
 -11   3  -4 5949.91 993.641   3
 -11   3  -5 3509.62 772.501   3
 -11   3  -6 1306.08 437.927   3
 -11   3  -7-163.650 226.623   3
 -11   3  -8 1032.99 487.336   3
  11   4 -16 218.499 351.456   1
  11   4 -15 464.260 329.806   1
  11   4 -14 911.954 452.711   1
  11   4 -13 162.495 209.616   1
  11   4 -12 1959.66 634.358   1
  11   4 -11 176.942 193.492   1
  11   4 -10 2174.67 647.249   1
  11   4  -9 3097.13 774.380   1
  11   4  -8 834.512 378.447   1
  11   4  -7 2446.52 701.754   1
  11   4  -6 1545.41 547.215   1
 -11   4  -4 59.3094 233.095   3
 -11   4  -5 801.369 367.985   3
 -11   4  -6 1419.34 513.353   3
  11   5 -14-9.70453 236.800   1
  11   5 -13 802.027 439.428   1
  11   5 -12 922.756 434.367   1
  11   5 -11 373.264 560.808   1
  11   5 -10 793.592 428.064   1
  11   5  -9 441.258 259.883   1
  11   5  -8 286.695 287.934   1
 -12  -6  11 157.653 174.134   2
  12  -6 -10 49.3906 64.9340   1
 -12  -6  10-51.4447 142.978   2
  12  -6  -9 489.683 268.275   1
 -12  -6   9 352.411 227.128   2
 -12  -6   8 90.5762 211.876   2
 -12  -6   7 1290.61 497.627   2
 -12  -6   6 244.045 217.565   2
 -12  -6   5 1551.73 549.904   2
 -12  -6   4 480.315 340.427   2
 -12  -6   3 761.262 431.655   2
 -12  -6   2 1427.52 572.221   2
 -12  -6   1 1092.85 497.255   2
  12  -5 -12 448.086 276.510   1
  12  -5 -11 1256.11 429.847   1
 -12  -5  11 1740.06 540.836   2
  12  -5 -10 236.134 183.975   1
 -12  -5  10-588.863 309.630   2
  12  -5  -9 124.519 143.891   1
 -12  -5   9 56.6142 81.4983   2
  12  -5  -8-37.5251 75.6633   1
 -12  -5   8 0.77477 65.3568   2
  12  -5  -7 969.367 334.332   1
 -12  -5   7 760.363 374.074   2
 -12  -5   6 1067.46 453.576   2
 -12  -5   5 1407.07 506.183   2
 -12  -5   4 712.417 368.636   2
 -12  -5   4 508.676 237.428   3
 -12  -5   3 2333.12 682.583   2
 -12  -5   3 2198.32 515.406   3
 -12  -5   2 490.744 367.511   2
 -12  -5   2 156.703 151.239   3
 -12  -5   1 1935.28 645.703   2
 -12  -5   1 2895.84 613.585   3
 -12  -5   0 70.5953 225.331   2
 -12  -5  -1 218.036 280.823   2
 -12  -5  -2-240.094 251.512   2
  12  -4 -14 249.355 220.466   1
  12  -4 -13 294.837 251.797   1
  12  -4 -12 243.219 202.097   1
  12  -4 -11 27.1133 83.5370   1
  12  -4 -10 1265.97 414.970   1
  12  -4  -9 713.930 303.646   1
 -12  -4   9 863.635 362.161   2
  12  -4  -8-110.927 148.007   1
 -12  -4   8 79.5881 92.3292   2
  12  -4  -7 2410.05 518.536   1
 -12  -4   7 2313.27 603.206   2
 -12  -4   6 244.405 247.280   2
  12  -4  -6 545.395 254.387   1
 -12  -4   6 339.671 212.118   3
 -12  -4   5 454.087 280.084   2
 -12  -4   5 912.068 314.683   3
 -12  -4   4 9.03659 73.2214   2
 -12  -4   4 59.5959 116.395   3
 -12  -4   3 1123.75 433.453   2
 -12  -4   3 932.196 324.571   3
 -12  -4   2 271.525 157.464   2
 -12  -4   2 723.189 305.168   3
 -12  -4   1 561.608 309.126   2
 -12  -4   1 722.045 264.802   3
 -12  -4   0 1678.10 568.521   2
 -12  -4   0 2923.68 615.354   3
 -12  -4  -1 1042.31 454.095   2
 -12  -4  -1 686.099 297.331   3
 -12  -4  -2 2414.20 734.710   2
 -12  -4  -2 2951.90 650.335   3
 -12  -4  -3-69.4746 243.035   2
 -12  -4  -3 874.928 357.076   3
 -12  -4  -4 667.331 435.352   2
  12  -3 -15 2336.78 628.524   1
  12  -3 -14 506.519 291.026   1
  12  -3 -13 2264.53 590.992   1
  12  -3 -12 1005.60 396.339   1
  12  -3 -11 463.714 234.520   1
  12  -3 -10 467.726 228.647   1
  12  -3  -9 157.261 82.1226   1
  12  -3  -8 1242.59 373.907   1
 -12  -3   7 3557.34 579.319   3
  12  -3  -7 3297.17 618.019   1
 -12  -3   7 3041.49 640.845   2
 -12  -3   6 1866.28 507.005   2
 -12  -3   6 2866.13 532.075   3
  12  -3  -6 2577.78 532.083   1
 -12  -3   5 2822.99 546.148   3
  12  -3  -5 2202.36 479.473   1
 -12  -3   4 8127.56 1110.52   2
 -12  -3   4 9616.48 1006.62   3
  12  -3  -4 8202.08 928.485   1
 -12  -3   3 1152.95 418.336   2
 -12  -3   3 2337.91 496.886   3
 -12  -3   2 909.440 393.418   2
 -12  -3   2 1332.48 373.746   3
 -12  -3   1 247.224 204.895   2
 -12  -3   1 95.9571 170.702   3
 -12  -3   0 6309.16 1069.26   2
 -12  -3   0 7481.49 968.055   3
 -12  -3  -1 5132.67 998.168   2
 -12  -3  -1 7976.61 1012.71   3
 -12  -3  -2 97.2368 173.492   2
 -12  -3  -2 255.449 206.435   3
 -12  -3  -3 0.96777 100.155   2
 -12  -3  -3 242.022 267.200   3
 -12  -3  -4 430.418 275.748   3
  12  -2 -15 753.693 351.537   1
  12  -2 -14 748.684 363.076   1
  12  -2 -13 148.692 153.433   1
  12  -2 -12 318.676 212.246   1
  12  -2 -11 281.223 182.921   1
  12  -2 -10-43.1611 143.172   1
  12  -2  -9 78.2752 126.499   1
 -12  -2   8 4612.20 675.233   3
  12  -2  -8 4546.00 749.125   1
 -12  -2   7 1936.59 435.437   3
  12  -2  -7 2112.36 524.700   1
 -12  -2   6 1393.92 379.673   3
  12  -2  -6 1176.29 368.185   1
 -12  -2   5 7327.96 973.031   2
 -12  -2   5 8525.88 945.782   3
  12  -2  -5 6318.11 848.657   1
  12  -2  -4 255.799 136.498   1
 -12  -2   4 56.0789 131.235   2
 -12  -2   4 341.832 193.187   3
 -12  -2   3 926.228 352.459   2
  12  -2  -3 1119.11 331.986   1
 -12  -2   3 1384.54 371.560   3
 -12  -2   2 2335.00 602.442   2
 -12  -2   2 1852.42 450.733   3
  12  -2  -2 1520.28 399.027   1
 -12  -2   1 558.854 296.730   2
 -12  -2   1 586.750 266.802   3
 -12  -2   0 2159.09 582.811   2
 -12  -2   0 2673.97 555.279   3
 -12  -2  -1 1392.92 500.579   2
 -12  -2  -1 1193.80 363.693   3
 -12  -2  -2 2630.55 589.027   3
 -12  -2  -3 1539.75 458.467   3
 -12  -2  -4 1875.11 513.993   3
 -12  -2  -5 40.8200 120.722   3
  12  -1 -16 3206.28 772.465   1
  12  -1 -15 207.071 213.812   1
  12  -1 -14 1508.91 504.298   1
  12  -1 -13 2294.17 602.661   1
  12  -1 -12 1564.01 497.506   1
  12  -1 -11 4952.13 839.669   1
  12  -1 -10 2949.11 650.419   1
 -12  -1   9 4992.85 722.507   3
  12  -1  -9 5144.03 827.267   1
 -12  -1   8 2937.70 553.954   3
  12  -1  -8 3408.76 654.226   1
 -12  -1   7 167.405 79.3086   3
  12  -1  -7 149.779 170.098   1
 -12  -1   6 5498.88 776.064   3
  12  -1  -6 4965.60 797.576   1
  12  -1  -5 3316.67 638.365   1
 -12  -1   5 4139.28 670.190   3
  12  -1  -4 2958.25 597.470   1
 -12  -1   4 2950.49 571.342   3
 -12  -1   3 704.566 283.279   3
  12  -1  -3 620.567 263.635   1
  12  -1  -2 4148.84 696.896   1
 -12  -1   2 4491.42 770.340   2
 -12  -1   2 4870.73 745.975   3
 -12  -1   1 1557.89 459.454   2
 -12  -1   1 1447.79 428.547   3
  12  -1  -1 1028.53 344.048   1
 -12  -1   0 1626.92 436.175   3
 -12  -1  -1 813.573 323.278   3
 -12  -1  -2 2987.23 617.009   3
 -12  -1  -3 1489.75 442.688   3
 -12  -1  -4 174.550 139.947   3
 -12  -1  -5 1782.82 514.224   3
 -12  -1  -6 2464.02 616.255   3
  12   0 -16 2634.88 711.907   1
  12   0 -15 1179.79 453.505   1
  12   0 -14 224.229 145.663   1
  12   0 -13-51.7159 183.597   1
  12   0 -12 1617.81 494.150   1
  12   0 -11 4797.36 847.700   1
  12   0 -10 3742.93 734.232   1
  12   0  -9 147.269 98.0303   1
  12   0  -8 1715.48 492.456   1
  12   0  -7 2015.12 522.294   1
 -12   0   7 1827.93 459.188   3
  12   0  -6 2290.48 562.975   1
 -12   0   6 2140.32 489.026   3
 -12   0   5 1149.53 355.205   3
  12   0  -5 1806.21 486.501   1
 -12   0   4 61.2811 115.158   3
  12   0  -4 167.693 184.692   1
  12   0  -3 7927.76 1034.30   1
 -12   0   3 9446.31 1073.39   3
 -12   0   2 95.8667 90.2645   3
  12   0  -2-82.8377 135.101   1
 -12   0   1 679.082 314.757   3
  12   0  -1 13.2416 194.065   1
 -12   0   0 2202.65 531.455   3
 -12   0  -1 220.058 126.802   3
 -12   0  -2 54.2240 155.326   3
 -12   0  -3 673.704 320.917   3
 -12   0  -4 1244.39 423.226   3
 -12   0  -5 598.842 327.217   3
 -12   0  -6 3271.05 719.057   3
  12   1 -16 2070.81 660.579   1
  12   1 -15 428.066 292.921   1
  12   1 -14 1215.59 474.559   1
  12   1 -13 1784.54 557.035   1
  12   1 -12 923.637 377.847   1
  12   1 -11 4305.06 830.152   1
  12   1 -10 2245.54 591.765   1
  12   1  -9 4504.51 824.275   1
  12   1  -8 2388.11 624.058   1
  12   1  -7-80.8379 156.898   1
 -12   1   6 4454.56 753.587   3
  12   1  -6 3681.20 761.817   1
  12   1  -5 3477.22 724.731   1
 -12   1   5 3504.89 689.893   3
  12   1  -4 1999.06 570.383   1
 -12   1   4 2478.41 567.987   3
 -12   1   3 1213.87 411.361   3
  12   1  -3 1184.31 418.858   1
 -12   1   2 5324.07 841.920   3
  12   1  -2 3836.68 759.851   1
 -12   1   1 1606.12 465.255   3
  12   1  -1 1109.15 407.745   1
 -12   1   0 1061.23 352.084   3
 -12   1  -1 1313.27 443.727   3
 -12   1  -2 2340.71 583.672   3
 -12   1  -3 1238.50 416.229   3
 -12   1  -4 370.427 280.894   3
 -12   1  -5 2025.18 557.209   3
 -12   1  -6 1972.44 561.125   3
  12   2 -16 2068.23 689.830   1
  12   2 -15 721.504 381.324   1
  12   2 -14 598.349 312.195   1
  12   2 -13 344.908 212.269   1
  12   2 -12 277.798 146.565   1
  12   2 -11 502.957 324.594   1
  12   2 -10-29.9185 210.069   1
  12   2  -9 238.608 157.501   1
  12   2  -8 4844.43 902.034   1
  12   2  -7 1574.09 512.798   1
  12   2  -6 1504.41 496.623   1
  12   2  -5 7904.52 1144.89   1
 -12   2   4 518.511 245.670   3
  12   2  -4 626.213 357.772   1
  12   2  -3 501.184 209.323   1
 -12   2   3 843.694 323.235   3
 -12   2   2 1905.53 514.209   3
 -12   2   1 476.975 308.449   3
 -12   2   0 2764.01 635.804   3
 -12   2  -1 1343.58 442.580   3
 -12   2  -2 3744.74 770.244   3
 -12   2  -3 1001.28 413.398   3
 -12   2  -4 1745.71 509.281   3
 -12   2  -5 347.224 269.986   3
 -12   2  -6 581.473 337.273   3
  12   3 -15 1611.43 631.863   1
  12   3 -14 1062.71 489.670   1
  12   3 -13 1623.06 581.308   1
  12   3 -12 1165.74 478.048   1
  12   3 -11 1037.41 443.439   1
  12   3 -10 591.286 338.012   1
  12   3  -9 316.713 310.548   1
  12   3  -8 1498.99 559.066   1
  12   3  -7 3041.78 733.066   1
  12   3  -6 2556.50 667.701   1
  12   3  -5 2577.54 682.298   1
  12   3  -4 8713.23 1293.64   1
 -12   3   0 8042.20 1148.15   3
 -12   3  -1 7086.58 1092.29   3
 -12   3  -2 297.861 247.275   3
 -12   3  -3 162.063 217.746   3
 -12   3  -4 678.177 351.108   3
 -12   3  -5 1217.70 479.243   3
  12   4 -13 235.439 277.449   1
  12   4 -12 417.729 320.797   1
  12   4 -11 231.221 238.390   1
  12   4 -10 1187.28 479.906   1
  12   4  -9 875.021 458.687   1
  12   4  -8 461.831 358.952   1
  12   4  -7 1505.52 543.436   1
  12   4  -6 279.225 172.997   1
  12   5 -11 1411.29 604.515   1
  12   5 -10 134.246 112.797   1
  12   5  -9 511.654 343.057   1
 -13  -6   8 177.659 195.276   2
 -13  -6   7 1938.72 620.761   2
 -13  -6   6 606.765 338.690   2
 -13  -6   5 1097.63 496.156   2
  13  -5 -11 259.608 180.244   1
  13  -5 -10 900.888 357.383   1
  13  -5  -9 383.018 249.221   1
 -13  -5   8 961.518 459.109   2
 -13  -5   7 692.917 351.640   2
 -13  -5   6 229.785 243.115   2
 -13  -5   5-245.589 303.752   2
 -13  -5   4 892.010 430.529   2
 -13  -5   4 610.945 277.052   3
 -13  -5   3 288.047 226.330   2
 -13  -5   3 155.044 173.487   3
 -13  -5   2-233.833 225.606   2
 -13  -5   2-123.838 155.453   3
 -13  -5   1 349.666 223.874   2
 -13  -5   1-4.57293 98.0303   3
 -13  -5   0 322.625 305.501   2
  13  -4 -12 621.461 321.077   1
  13  -4 -11 434.198 268.782   1
  13  -4 -10 524.573 267.980   1
  13  -4  -9 383.927 248.886   1
  13  -4  -8 1127.70 389.992   1
  13  -4  -7 442.833 235.410   1
 -13  -4   6 418.722 320.457   2
 -13  -4   5 1115.56 465.592   2
 -13  -4   5 1245.70 387.784   3
 -13  -4   4 1240.10 499.790   2
 -13  -4   4 851.448 320.953   3
 -13  -4   3 130.141 72.1634   2
 -13  -4   3 279.680 200.738   3
 -13  -4   2 3469.22 824.010   2
 -13  -4   2 4113.32 727.729   3
 -13  -4   1 572.553 341.344   2
 -13  -4   1-8.65493 122.955   3
 -13  -4   0 2041.89 672.011   2
 -13  -4   0 2142.05 572.851   3
 -13  -4  -1 876.761 443.659   2
 -13  -4  -1 635.057 336.304   3
 -13  -4  -2 1697.88 628.721   2
 -13  -4  -3 545.510 428.805   2
  13  -3 -13 357.757 247.805   1
  13  -3 -12 9.95313 83.8517   1
  13  -3 -11 2198.70 568.073   1
  13  -3 -10 351.945 261.368   1
  13  -3  -9-332.036 217.301   1
  13  -3  -8 4189.25 747.770   1
  13  -3  -7 360.909 202.691   1
 -13  -3   6 2945.51 580.947   3
  13  -3  -6 2875.81 586.745   1
 -13  -3   5 2104.46 497.228   3
 -13  -3   4 724.999 347.233   2
 -13  -3   4 719.271 314.463   3
 -13  -3   3 669.038 339.495   2
 -13  -3   3 1334.21 412.197   3
 -13  -3   2 1644.49 527.021   2
 -13  -3   2 1910.55 495.659   3
 -13  -3   1 2230.86 655.976   2
 -13  -3   1 1477.62 430.785   3
 -13  -3   0-185.977 206.491   2
 -13  -3   0 147.070 149.096   3
 -13  -3  -1 379.538 216.011   2
 -13  -3  -1 853.866 329.852   3
 -13  -3  -2 378.898 270.166   2
 -13  -3  -2 781.697 379.566   3
 -13  -3  -3 1872.69 664.804   2
 -13  -3  -4 1790.55 681.429   2
  13  -2 -14 814.048 391.986   1
  13  -2 -13 462.133 275.760   1
  13  -2 -12 244.677 170.783   1
  13  -2 -11 565.301 324.473   1
  13  -2 -10 3830.96 751.973   1
  13  -2  -9 1759.30 484.519   1
 -13  -2   8 4253.01 696.962   3
  13  -2  -8 4480.81 793.539   1
 -13  -2   7 401.550 220.520   3
  13  -2  -7 307.155 222.452   1
  13  -2  -6 180.262 122.634   1
 -13  -2   6 430.879 230.712   3
  13  -2  -5 3177.55 631.282   1
 -13  -2   5 3904.16 693.842   3
  13  -2  -4 433.102 247.732   1
 -13  -2   4 375.706 224.861   3
 -13  -2   3 7225.59 952.489   3
 -13  -2   2 54.5442 123.088   3
 -13  -2   1 189.918 108.186   2
 -13  -2   1 190.035 165.986   3
 -13  -2   0 790.100 323.732   2
 -13  -2   0 1228.43 405.725   3
 -13  -2  -1 790.719 387.079   2
 -13  -2  -1 330.349 228.818   3
 -13  -2  -2 620.102 344.759   2
 -13  -2  -2 225.009 194.766   3
 -13  -2  -3 217.455 135.138   3
  13  -1 -14 773.283 409.156   1
  13  -1 -13 498.062 295.955   1
  13  -1 -12 657.912 354.807   1
  13  -1 -11 383.156 240.518   1
  13  -1 -10 2183.48 590.094   1
 -13  -1   9 2376.16 536.329   3
  13  -1  -9 2223.16 577.588   1
  13  -1  -8 515.330 278.435   1
 -13  -1   8 773.326 303.295   3
  13  -1  -7 286.294 127.227   1
 -13  -1   7 362.315 222.824   3
  13  -1  -6 167.249 159.577   1
 -13  -1   6 114.554 138.054   3
  13  -1  -5 477.278 275.998   1
 -13  -1   5 461.661 234.259   3
 -13  -1   4 6804.85 945.901   3
  13  -1  -4 6508.47 944.863   1
  13  -1  -3 593.780 280.360   1
 -13  -1   3 1334.01 415.318   3
 -13  -1   2 141.428 100.162   3
 -13  -1   1 1512.45 441.001   3
 -13  -1   0 463.788 300.890   3
 -13  -1  -1 1465.35 453.972   3
 -13  -1  -2 2313.56 574.206   3
 -13  -1  -3 775.502 333.683   3
  13   0 -15 859.737 442.237   1
  13   0 -14 445.451 300.849   1
  13   0 -13 359.503 303.982   1
  13   0 -12 202.452 142.308   1
  13   0 -11-222.949 194.044   1
  13   0 -10 2718.20 664.808   1
  13   0  -9-268.078 192.184   1
  13   0  -8 415.436 181.193   1
  13   0  -7 587.380 331.674   1
 -13   0   7 154.488 218.347   3
 -13   0   6 417.163 214.616   3
  13   0  -6 736.576 336.986   1
 -13   0   5 393.208 228.326   3
  13   0  -5 341.020 235.624   1
  13   0  -4 507.040 289.548   1
 -13   0   4-13.7206 101.418   3
 -13   0   3 1646.80 481.236   3
  13   0  -3 1436.53 486.357   1
  13   0  -2-100.495 152.788   1
 -13   0   2 236.390 180.908   3
  13   0  -1 2386.82 579.438   1
 -13   0   1 2453.91 588.864   3
 -13   0   0 1801.22 529.266   3
 -13   0  -1 2111.86 552.366   3
 -13   0  -2 1699.98 496.739   3
 -13   0  -3 182.085 229.928   3
  13   1 -14 986.445 539.991   1
  13   1 -13 217.653 292.007   1
  13   1 -12 785.200 378.531   1
  13   1 -11 416.026 176.511   1
  13   1 -10 2241.66 637.112   1
  13   1  -9 2542.00 649.823   1
  13   1  -8 583.623 302.728   1
  13   1  -7 311.656 264.724   1
  13   1  -6-18.2627 188.765   1
 -13   1   6 82.2807 119.229   3
  13   1  -5 236.232 236.063   1
 -13   1   5 152.818 191.510   3
  13   1  -4 6747.55 1042.24   1
 -13   1   4 7071.55 1022.26   3
 -13   1   3 964.306 368.637   3
  13   1  -3 1554.60 506.566   1
  13   1  -2 370.599 218.724   1
 -13   1   2 245.040 215.750   3
 -13   1   1 706.371 276.331   3
 -13   1   0 595.846 321.742   3
 -13   1  -1 1372.34 465.064   3
 -13   1  -2 2190.12 592.957   3
 -13   1  -3 432.292 293.657   3
  13   2 -14 1000.41 462.971   1
  13   2 -13 356.906 255.563   1
  13   2 -12 284.159 260.956   1
  13   2 -11 558.207 362.798   1
  13   2 -10 4019.30 890.388   1
  13   2  -9 1522.66 533.853   1
  13   2  -8 3666.53 823.680   1
  13   2  -7 706.978 405.229   1
  13   2  -6 433.730 276.319   1
  13   2  -5 2214.89 653.639   1
  13   2  -4 910.884 435.235   1
  13   2  -3 6265.17 1110.65   1
 -13   2   3 6894.91 1066.30   3
 -13   2   2 97.3793 99.2222   3
 -13   2   1 335.284 316.582   3
 -13   2   0 1364.10 482.455   3
 -13   2  -1 289.941 212.441   3
 -13   2  -2 670.748 356.572   3
 -13   2  -3 606.425 348.293   3
  13   3 -13 678.261 448.844   1
  13   3 -12-38.9989 117.847   1
  13   3 -11 1341.62 536.038   1
  13   3 -10 598.742 390.454   1
  13   3  -9 383.703 297.223   1
  13   3  -8 3673.84 846.619   1
  13   3  -7 279.493 271.579   1
  13   3  -6 2190.90 669.209   1
  13   3  -5 1822.07 600.721   1
 -13   3   0-93.2317 184.194   3
 -13   3  -1 193.276 184.034   3
 -13   3  -2 352.242 264.200   3
  13   4 -10 1502.95 609.970   1
  13   4  -9-324.589 346.530   1
  13   4  -8 628.393 320.118   1
  13   4  -7 266.415 197.846   1
  14  -4 -11 210.690 210.045   1
  14  -4 -10-145.206 158.948   1
  14  -4  -9-79.3928 121.748   1
 -14  -4   4 1044.16 380.463   3
 -14  -4   3 219.703 151.271   3
 -14  -4   2 152.156 189.427   2
 -14  -4   2-175.336 153.966   3
 -14  -4   1 721.593 384.328   2
  14  -3 -12 79.9685 132.357   1
  14  -3 -11 858.844 384.860   1
  14  -3 -10 490.518 335.328   1
  14  -3  -9 5186.35 902.337   1
  14  -3  -8 451.290 292.315   1
  14  -3  -7 3247.36 673.075   1
 -14  -3   6 335.931 231.937   3
 -14  -3   5 446.447 244.658   3
 -14  -3   4 6200.57 927.364   3
 -14  -3   3 1350.90 427.881   3
 -14  -3   2 251.557 195.852   3
 -14  -3   1 1262.48 428.613   3
  14  -2 -12 637.709 374.589   1
  14  -2 -11 322.228 275.325   1
  14  -2 -10 1602.61 499.023   1
  14  -2  -9 1297.36 484.689   1
  14  -2  -8 712.466 324.272   1
  14  -2  -7 780.158 348.274   1
 -14  -2   7 560.063 277.143   3
  14  -2  -6 2648.91 625.967   1
 -14  -2   6 3385.64 685.303   3
 -14  -2   5 288.324 117.966   3
 -14  -2   4 268.391 226.533   3
 -14  -2   3 327.855 140.705   3
 -14  -2   2 255.936 221.560   3
 -14  -2   1 675.461 285.104   3
 -14  -2   0 672.603 329.188   3
  14  -1 -13 1136.26 473.338   1
  14  -1 -12 1025.32 442.013   1
  14  -1 -11 160.514 200.231   1
  14  -1 -10 533.571 301.176   1
  14  -1  -9 1526.48 515.711   1
  14  -1  -8 93.1248 79.5246   1
 -14  -1   8 9.57983 135.655   3
  14  -1  -7 974.537 404.369   1
 -14  -1   7 953.507 371.888   3
 -14  -1   6 381.368 255.473   3
  14  -1  -6 96.4057 178.086   1
 -14  -1   5 659.897 295.295   3
  14  -1  -5 433.557 318.602   1
  14  -1  -4 1172.81 406.622   1
 -14  -1   4 2186.61 550.232   3
 -14  -1   3 635.293 310.107   3
 -14  -1   2 2440.37 606.726   3
 -14  -1   1 928.704 356.270   3
 -14  -1   0 49.9380 96.3893   3
 -14  -1  -1 337.593 212.366   3
  14   0 -13 533.769 368.149   1
  14   0 -12 121.727 162.947   1
  14   0 -11 341.265 241.686   1
  14   0 -10 982.322 412.392   1
  14   0  -9 528.578 327.443   1
  14   0  -8 159.287 147.394   1
 -14   0   7 413.847 218.133   3
  14   0  -7 672.190 381.540   1
 -14   0   6-152.899 149.964   3
  14   0  -6 246.299 205.947   1
  14   0  -5 2050.65 584.604   1
 -14   0   5 1834.59 542.870   3
 -14   0   4 117.298 192.742   3
  14   0  -4 100.920 139.662   1
  14   0  -3 533.402 284.098   1
 -14   0   3 135.193 149.076   3
 -14   0   2 60.3686 147.607   3
 -14   0   1 1208.17 448.204   3
 -14   0   0 2294.08 604.295   3
 -14   0  -1 212.928 180.281   3
  14   1 -12 1038.13 473.609   1
  14   1 -11 76.4840 227.338   1
  14   1 -10-152.624 237.774   1
  14   1  -9 885.321 406.685   1
  14   1  -8 115.297 132.966   1
  14   1  -7 650.650 350.536   1
 -14   1   6-518.709 297.480   3
  14   1  -6 289.873 246.070   1
 -14   1   5 122.111 121.247   3
  14   1  -5 213.281 182.848   1
  14   1  -4 2515.55 664.799   1
 -14   1   4 2381.72 623.189   3
  14   1  -3 217.996 142.375   1
 -14   1   3 935.185 390.572   3
 -14   1   2 3089.59 724.417   3
 -14   1   1 981.912 423.340   3
 -14   1   0 301.387 265.965   3
  14   2 -11 29.1493 95.1775   1
  14   2 -10 1199.27 513.638   1
  14   2  -9 1413.80 525.555   1
  14   2  -8 895.910 404.729   1
  14   2  -7 381.155 284.309   1
  14   2  -6 3270.10 805.825   1
  14   2  -5 1103.77 497.117   1
  14   2  -4 355.248 315.007   1
 -14   2   3 131.204 186.613   3
 -14   2   2 635.514 278.799   3
 -14   2   1 748.988 364.938   3
  14   3  -9 6393.86 1218.75   1
  14   3  -8 455.764 345.958   1
  14   3  -7 3609.36 915.152   1
  14   3  -6 968.849 483.719   1
  15  -3 -10 1647.68 548.634   1
  15  -3  -9-15.0677 137.303   1
 -15  -3   5 834.403 356.516   3
 -15  -3   4 495.454 309.940   3
  15  -2 -10 1854.76 594.039   1
  15  -2  -9 198.865 215.673   1
  15  -2  -8 857.551 373.895   1
  15  -2  -7 259.772 125.828   1
 -15  -2   6 582.359 314.971   3
 -15  -2   5 923.609 370.709   3
 -15  -2   4 742.689 371.714   3
 -15  -2   3 364.549 268.663   3
  15  -1 -10 204.867 195.008   1
  15  -1  -9 772.049 386.713   1
  15  -1  -8 461.706 323.728   1
 -15  -1   8 178.445 125.001   3
 -15  -1   7 702.822 354.438   3
  15  -1  -7 607.325 323.718   1
 -15  -1   6-368.865 249.365   3
  15  -1  -6 161.183 185.914   1
 -15  -1   5 1667.66 532.837   3
 -15  -1   4 117.850 172.626   3
 -15  -1   3 1163.25 463.321   3
  15   0 -10 492.154 317.027   1
  15   0  -9-324.768 261.250   1
  15   0  -8 753.885 391.130   1
  15   0  -7 335.404 234.520   1
 -15   0   7 304.522 240.983   3
  15   0  -6 61.7572 136.297   1
 -15   0   6 412.130 277.487   3
 -15   0   5 85.1030 195.000   3
  15   0  -5-331.812 255.529   1
  15   0  -4 193.432 86.9152   1
 -15   0   4 1284.26 457.592   3
 -15   0   3 2431.34 664.281   3
  15   1  -9 1935.39 651.027   1
  15   1  -8 121.489 166.823   1
  15   1  -7 494.813 332.480   1
  15   1  -6 183.184 199.403   1
  15   1  -5 1608.87 591.044   1
 -15   1   5 1976.68 594.554   3
  15   1  -4 476.296 327.784   1
 -15   1   4 118.561 173.553   3
  15   2  -7 22.0042 187.503   1
  15   2  -6-219.419 304.596   1
  15   2  -5 882.923 460.294   1
  16   0  -7 955.994 474.029   1
 -16   0   7 2474.07 665.825   3
   0   0   0    0.00    0.00   0
TITL yangyj0527 in P2(1)
REM P2(1) (#4 in standard setting)
CELL 0.71073  11.952454   7.823518  16.048020  90.0000 108.1109  90.0000
ZERR    6.00   0.000643   0.000460   0.001035   0.0000   0.0066   0.0000
LATT -1
SYMM -x, y+1/2,-z
SFAC C H N O
UNIT 66.00 60.00 6.00 6.00
TREF
HKLF 4
END
;
_shelx_hkl_checksum              34636
#END Tags that were not found in dictionaries
loop_
_space_group_symop_operation_xyz
'x, y, z'
'-x, y+1/2, -z'
loop_
_atom_site_label
_atom_site_type_symbol
_atom_site_fract_x
_atom_site_fract_y
_atom_site_fract_z
_atom_site_U_iso_or_equiv
_atom_site_adp_type
_atom_site_occupancy
_atom_site_site_symmetry_order
_atom_site_calc_flag
_atom_site_refinement_flags_posn
S1 S 0.54545(8) 0.89296(16) 0.21287(7) 0.0451(3) Uani 1 1 d .
Cl1 Cl 1.11030(9) 1.19708(18) 0.41713(8) 0.0609(4) Uani 1 1 d .
O6 O 0.4416(2) 0.8651(5) 0.1407(2) 0.0603(9) Uani 1 1 d .
O5 O 1.0829(2) 1.3890(5) 0.21262(18) 0.0501(8) Uani 1 1 d .
C24 C 0.5093(3) 0.8733(6) 0.3106(3) 0.0440(10) Uani 1 1 d .
O3 O 0.9495(2) 1.1021(4) 0.09015(18) 0.0451(7) Uani 1 1 d .
O7 O 0.6487(3) 0.7951(5) 0.2196(2) 0.0597(9) Uani 1 1 d .
N1 N 0.5811(2) 1.1037(5) 0.2086(2) 0.0387(8) Uani 1 1 d .
C11 C 0.8912(3) 1.2823(6) 0.1852(2) 0.0367(9) Uani 1 1 d .
C7 C 0.6984(3) 1.3913(6) 0.1651(2) 0.0381(9) Uani 1 1 d .
H7 H 0.7178 1.5128 0.1642 0.046 Uiso 1 1 calc R
C9 C 0.6875(3) 1.1543(6) 0.2712(2) 0.0365(10) Uani 1 1 d .
O4 O 0.9362(3) 1.5449(5) 0.1229(2) 0.0594(9) Uani 1 1 d .
C18 C 0.9415(3) 1.1080(6) 0.1716(3) 0.0422(10) Uani 1 1 d .
C1 C 0.5119(3) 1.2238(6) 0.1445(2) 0.0397(10) Uani 1 1 d .
N2 N 0.7706(3) 1.2884(5) 0.1239(2) 0.0395(8) Uani 1 1 d .
C21 C 0.9711(3) 1.4232(6) 0.1689(3) 0.0417(10) Uani 1 1 d .
C14 C 1.1168(4) 1.5303(7) 0.4578(3) 0.0529(13) Uani 1 1 d .
H14 H 1.1859 1.5025 0.5018 0.063 Uiso 1 1 calc R
O1 O 0.7337(2) 1.0640(5) 0.33277(18) 0.0526(9) Uani 1 1 d .
C10 C 0.8767(3) 1.2994(6) 0.2789(2) 0.0338(9) Uani 1 1 d .
H10 H 0.8989 1.1901 0.3094 0.041 Uiso 1 1 calc R
C5 C 0.5042(4) 1.4788(7) 0.0601(3) 0.0523(12) Uani 1 1 d .
H5 H 0.5419 1.5728 0.0455 0.063 Uiso 1 1 calc R
C6 C 0.5688(3) 1.3634(6) 0.1210(2) 0.0385(10) Uani 1 1 d .
C12 C 0.9481(3) 1.4394(6) 0.3367(2) 0.0366(10) Uani 1 1 d .
C28 C 0.5576(4) 0.7846(8) 0.4600(3) 0.0595(14) Uani 1 1 d .
H28 H 0.6117 0.7392 0.5099 0.071 Uiso 1 1 calc R
C8 C 0.7404(3) 1.3230(6) 0.2582(2) 0.0369(9) Uani 1 1 d .
H8 H 0.7251 1.4081 0.2981 0.044 Uiso 1 1 calc R
C15 C 1.0775(4) 1.6948(8) 0.4477(3) 0.0571(13) Uani 1 1 d .
H15 H 1.1201 1.7793 0.4849 0.069 Uiso 1 1 calc R
C25 C 0.3988(3) 0.9220(7) 0.3126(3) 0.0541(13) Uani 1 1 d .
H25 H 0.3451 0.9695 0.2631 0.065 Uiso 1 1 calc R
C16 C 0.9745(4) 1.7371(7) 0.3823(3) 0.0532(12) Uani 1 1 d .
H16 H 0.9477 1.8494 0.3754 0.064 Uiso 1 1 calc R
O2 O 0.9652(3) 0.9944(5) 0.2222(2) 0.0719(11) Uani 1 1 d .
C13 C 1.0531(3) 1.4045(6) 0.4021(3) 0.0426(10) Uani 1 1 d .
C2 C 0.3908(3) 1.2084(7) 0.1078(3) 0.0535(12) Uani 1 1 d .
H2A H 0.3510 1.1207 0.1256 0.064 Uiso 1 1 calc R
C26 C 0.3686(4) 0.9003(8) 0.3877(3) 0.0596(13) Uani 1 1 d .
H26 H 0.2937 0.9318 0.3881 0.071 Uiso 1 1 calc R
C3 C 0.3295(4) 1.3230(8) 0.0449(3) 0.0656(15) Uani 1 1 d .
H3 H 0.2490 1.3083 0.0188 0.079 Uiso 1 1 calc R
C4 C 0.3846(4) 1.4578(8) 0.0203(3) 0.0656(16) Uani 1 1 d .
H4 H 0.3425 1.5340 -0.0225 0.079 Uiso 1 1 calc R
C29 C 0.5883(3) 0.8030(7) 0.3847(3) 0.0516(12) Uani 1 1 d .
H29 H 0.6622 0.7681 0.3837 0.062 Uiso 1 1 calc R
C30 C 0.4138(5) 0.8093(10) 0.5455(4) 0.0842(19) Uani 1 1 d .
H30A H 0.4111 0.6894 0.5577 0.126 Uiso 1 1 calc GR
H30B H 0.3380 0.8593 0.5382 0.126 Uiso 1 1 calc GR
H30C H 0.4716 0.8639 0.5935 0.126 Uiso 1 1 calc GR
C19 C 0.9930(3) 0.9424(6) 0.0646(3) 0.0460(11) Uani 1 1 d .
H19A H 0.9611 0.9277 0.0016 0.055 Uiso 1 1 calc R
H19B H 0.9669 0.8470 0.0925 0.055 Uiso 1 1 calc R
C27 C 0.4464(4) 0.8330(7) 0.4624(3) 0.0572(14) Uani 1 1 d .
C23 C 1.2845(4) 1.4616(9) 0.2744(4) 0.090(2) Uani 1 1 d .
H23A H 1.3049 1.3547 0.2535 0.135 Uiso 1 1 calc GR
H23B H 1.2786 1.4466 0.3323 0.135 Uiso 1 1 calc GR
H23C H 1.3441 1.5448 0.2760 0.135 Uiso 1 1 calc GR
C22 C 1.1692(4) 1.5217(8) 0.2144(3) 0.0699(16) Uani 1 1 d .
H22A H 1.1466 1.6283 0.2355 0.084 Uiso 1 1 calc R
H22B H 1.1745 1.5403 0.1560 0.084 Uiso 1 1 calc R
C20 C 1.1238(4) 0.9435(9) 0.0909(4) 0.0752(19) Uani 1 1 d .
H20A H 1.1507 0.8422 0.0694 0.113 Uiso 1 1 calc GR
H20B H 1.1553 0.9467 0.1537 0.113 Uiso 1 1 calc GR
H20C H 1.1497 1.0425 0.0667 0.113 Uiso 1 1 calc GR
C17 C 0.9128(4) 1.6104(6) 0.3278(3) 0.0473(11) Uani 1 1 d .
H17 H 0.8448 1.6398 0.2831 0.057 Uiso 1 1 calc R
H2 H 0.777(4) 1.329(7) 0.078(3) 0.054(14) Uiso 1 1 d .
loop_
_atom_site_aniso_label
_atom_site_aniso_U_11
_atom_site_aniso_U_22
_atom_site_aniso_U_33
_atom_site_aniso_U_23
_atom_site_aniso_U_13
_atom_site_aniso_U_12
S1 0.0413(5) 0.0425(7) 0.0463(6) -0.0003(6) 0.0058(4) 0.0002(5)
Cl1 0.0465(6) 0.0603(8) 0.0642(7) -0.0016(7) 0.0002(5) 0.0104(6)
O6 0.0523(16) 0.058(2) 0.0548(19) -0.0071(18) -0.0060(14) -0.0105(18)
O5 0.0442(14) 0.051(2) 0.0555(17) -0.0015(18) 0.0164(14) -0.0150(17)
C24 0.0395(19) 0.038(3) 0.052(2) 0.003(2) 0.0102(18) 0.001(2)
O3 0.0531(16) 0.046(2) 0.0399(15) 0.0006(15) 0.0201(13) 0.0021(15)
O7 0.0565(18) 0.057(2) 0.065(2) -0.0037(19) 0.0181(16) 0.0130(17)
N1 0.0313(15) 0.042(2) 0.0371(18) 0.0058(17) 0.0016(13) -0.0034(16)
C11 0.041(2) 0.040(3) 0.0294(19) -0.0023(19) 0.0108(16) -0.0055(19)
C7 0.0392(18) 0.037(2) 0.036(2) 0.003(2) 0.0076(16) 0.000(2)
C9 0.0287(18) 0.045(3) 0.035(2) 0.004(2) 0.0085(16) -0.0040(18)
O4 0.074(2) 0.049(2) 0.0551(19) 0.0121(18) 0.0199(17) -0.0042(18)
C18 0.046(2) 0.042(3) 0.039(2) -0.003(2) 0.0124(19) -0.004(2)
C1 0.039(2) 0.041(3) 0.034(2) 0.005(2) 0.0036(16) 0.008(2)
N2 0.0398(17) 0.048(2) 0.0295(18) -0.0016(18) 0.0089(15) -0.0013(17)
C21 0.049(2) 0.044(3) 0.035(2) -0.002(2) 0.0175(18) -0.005(2)
C14 0.040(2) 0.069(4) 0.042(2) -0.014(3) 0.0028(19) -0.007(2)
O1 0.0409(15) 0.068(2) 0.0401(16) 0.0212(17) 0.0004(13) -0.0077(16)
C10 0.0318(18) 0.040(2) 0.0292(18) -0.0005(19) 0.0089(15) 0.0004(18)
C5 0.057(3) 0.048(3) 0.046(2) 0.010(2) 0.008(2) 0.004(2)
C6 0.0393(18) 0.042(3) 0.031(2) -0.002(2) 0.0057(16) 0.003(2)
C12 0.0361(19) 0.044(3) 0.0289(19) -0.0023(19) 0.0086(16) -0.0047(19)
C28 0.050(3) 0.067(4) 0.058(3) 0.018(3) 0.011(2) -0.005(3)
C8 0.0344(18) 0.044(3) 0.0306(19) -0.002(2) 0.0080(16) -0.0014(19)
C15 0.057(3) 0.058(3) 0.050(3) -0.018(3) 0.008(2) -0.010(3)
C25 0.038(2) 0.060(4) 0.057(3) 0.002(3) 0.0033(19) 0.003(2)
C16 0.066(3) 0.044(3) 0.047(3) -0.006(2) 0.014(2) -0.006(2)
O2 0.130(3) 0.042(2) 0.053(2) 0.0109(19) 0.043(2) 0.014(2)
C13 0.0369(19) 0.045(3) 0.042(2) -0.001(2) 0.0068(17) 0.002(2)
C2 0.0330(19) 0.059(3) 0.062(3) 0.009(3) 0.004(2) 0.001(2)
C26 0.049(2) 0.065(4) 0.068(3) -0.001(3) 0.023(2) -0.006(3)
C3 0.038(2) 0.077(4) 0.070(3) 0.014(3) -0.001(2) 0.011(3)
C4 0.055(3) 0.072(4) 0.057(3) 0.023(3) -0.002(2) 0.018(3)
C29 0.034(2) 0.054(3) 0.063(3) 0.013(3) 0.009(2) -0.001(2)
C30 0.084(4) 0.099(5) 0.076(4) 0.011(4) 0.034(3) -0.017(4)
C19 0.049(2) 0.045(3) 0.046(2) -0.011(2) 0.017(2) -0.001(2)
C27 0.054(3) 0.062(4) 0.058(3) 0.007(3) 0.020(2) -0.011(3)
C23 0.050(3) 0.099(6) 0.115(5) -0.021(4) 0.017(3) -0.026(3)
C22 0.070(3) 0.071(4) 0.071(3) -0.008(3) 0.025(3) -0.032(3)
C20 0.043(2) 0.095(5) 0.086(4) 0.003(4) 0.017(3) 0.006(3)
C17 0.049(2) 0.047(3) 0.039(2) -0.001(2) 0.0030(19) -0.003(2)
loop_
_atom_type_symbol
_atom_type_description
_atom_type_scat_dispersion_real
_atom_type_scat_dispersion_imag
_atom_type_scat_source
C C 0.0033 0.0016 'International Tables Vol C Tables 4.2.6.8 and 6.1.1.4'
H H 0.0000 0.0000 'International Tables Vol C Tables 4.2.6.8 and 6.1.1.4'
N N 0.0061 0.0033 'International Tables Vol C Tables 4.2.6.8 and 6.1.1.4'
O O 0.0106 0.0060 'International Tables Vol C Tables 4.2.6.8 and 6.1.1.4'
S S 0.1246 0.1234 'International Tables Vol C Tables 4.2.6.8 and 6.1.1.4'
Cl Cl 0.1484 0.1585 'International Tables Vol C Tables 4.2.6.8 and 6.1.1.4'
loop_
_geom_angle_atom_site_label_1
_geom_angle_atom_site_label_2
_geom_angle_atom_site_label_3
_geom_angle
O6 S1 C24 108.53(18)
O6 S1 O7 119.5(2)
O6 S1 N1 106.24(19)
O7 S1 C24 109.4(2)
O7 S1 N1 107.43(19)
N1 S1 C24 104.7(2)
C21 O5 C22 117.1(4)
C25 C24 S1 119.8(3)
C29 C24 S1 120.7(3)
C29 C24 C25 119.4(4)
C18 O3 C19 116.3(3)
C9 N1 S1 115.0(3)
C9 N1 C1 120.9(4)
C1 N1 S1 124.0(3)
C18 C11 C21 108.8(3)
C18 C11 C10 112.1(4)
N2 C11 C18 106.3(3)
N2 C11 C21 113.3(4)
N2 C11 C10 105.0(3)
C21 C11 C10 111.2(3)
N2 C7 H7 110.4
N2 C7 C6 111.7(3)
N2 C7 C8 100.8(3)
C6 C7 H7 110.4
C6 C7 C8 112.9(3)
C8 C7 H7 110.4
N1 C9 C8 118.1(3)
O1 C9 N1 120.2(4)
O1 C9 C8 121.7(3)
O3 C18 C11 108.6(4)
O2 C18 O3 124.9(4)
O2 C18 C11 126.4(4)
C6 C1 N1 118.7(3)
C2 C1 N1 122.4(4)
C2 C1 C6 118.9(4)
C11 N2 C7 107.8(3)
C11 N2 H2 105(3)
C7 N2 H2 115(3)
O5 C21 C11 110.0(4)
O4 C21 O5 125.9(4)
O4 C21 C11 124.1(4)
C15 C14 H14 120.2
C15 C14 C13 119.5(4)
C13 C14 H14 120.2
C11 C10 H10 108.1
C12 C10 C11 116.0(3)
C12 C10 H10 108.1
C12 C10 C8 113.2(3)
C8 C10 C11 102.9(3)
C8 C10 H10 108.1
C6 C5 H5 119.3
C6 C5 C4 121.4(5)
C4 C5 H5 119.3
C1 C6 C7 120.1(4)
C5 C6 C7 120.4(4)
C5 C6 C1 119.4(3)
C13 C12 C10 121.6(4)
C13 C12 C17 116.0(4)
C17 C12 C10 122.3(4)
C29 C28 H28 119.5
C29 C28 C27 120.9(4)
C27 C28 H28 119.5
C7 C8 C10 104.7(3)
C7 C8 H8 109.5
C9 C8 C7 114.9(3)
C9 C8 C10 108.7(3)
C9 C8 H8 109.5
C10 C8 H8 109.5
C14 C15 H15 119.7
C14 C15 C16 120.6(5)
C16 C15 H15 119.7
C24 C25 H25 120.0
C26 C25 C24 120.0(4)
C26 C25 H25 120.0
C15 C16 H16 120.5
C17 C16 C15 118.9(5)
C17 C16 H16 120.5
C14 C13 Cl1 117.2(3)
C14 C13 C12 122.2(5)
C12 C13 Cl1 120.6(3)
C1 C2 H2A 119.9
C3 C2 C1 120.1(5)
C3 C2 H2A 119.9
C25 C26 H26 119.3
C25 C26 C27 121.5(4)
C27 C26 H26 119.3
C2 C3 H3 119.3
C4 C3 C2 121.3(4)
C4 C3 H3 119.3
C5 C4 H4 120.7
C3 C4 C5 118.7(5)
C3 C4 H4 120.7
C24 C29 H29 120.0
C28 C29 C24 120.0(4)
C28 C29 H29 120.0
H30A C30 H30B 109.5
H30A C30 H30C 109.5
H30B C30 H30C 109.5
C27 C30 H30A 109.5
C27 C30 H30B 109.5
C27 C30 H30C 109.5
O3 C19 H19A 109.6
O3 C19 H19B 109.6
O3 C19 C20 110.5(4)
H19A C19 H19B 108.1
C20 C19 H19A 109.6
C20 C19 H19B 109.6
C28 C27 C30 120.0(5)
C26 C27 C28 118.2(4)
C26 C27 C30 121.8(4)
H23A C23 H23B 109.5
H23A C23 H23C 109.5
H23B C23 H23C 109.5
C22 C23 H23A 109.5
C22 C23 H23B 109.5
C22 C23 H23C 109.5
O5 C22 C23 107.1(5)
O5 C22 H22A 110.3
O5 C22 H22B 110.3
C23 C22 H22A 110.3
C23 C22 H22B 110.3
H22A C22 H22B 108.5
C19 C20 H20A 109.5
C19 C20 H20B 109.5
C19 C20 H20C 109.5
H20A C20 H20B 109.5
H20A C20 H20C 109.5
H20B C20 H20C 109.5
C12 C17 H17 118.7
C16 C17 C12 122.7(4)
C16 C17 H17 118.7
loop_
_geom_bond_atom_site_label_1
_geom_bond_atom_site_label_2
_geom_bond_distance
S1 O6 1.427(3)
S1 C24 1.759(4)
S1 O7 1.428(3)
S1 N1 1.709(4)
Cl1 C13 1.748(5)
O5 C21 1.329(5)
O5 C22 1.457(5)
C24 C25 1.384(5)
C24 C29 1.382(6)
O3 C18 1.341(5)
O3 C19 1.460(5)
N1 C9 1.410(4)
N1 C1 1.448(5)
C11 C18 1.533(6)
C11 N2 1.472(5)
C11 C21 1.533(6)
C11 C10 1.572(5)
C7 H7 0.9800
C7 N2 1.477(5)
C7 C6 1.505(5)
C7 C8 1.517(5)
C9 O1 1.200(5)
C9 C8 1.506(6)
O4 C21 1.198(5)
C18 O2 1.178(5)
C1 C6 1.399(6)
C1 C2 1.388(5)
N2 H2 0.83(5)
C14 H14 0.9300
C14 C15 1.362(7)
C14 C13 1.387(6)
C10 H10 0.9800
C10 C12 1.516(6)
C10 C8 1.570(5)
C5 H5 0.9300
C5 C6 1.377(6)
C5 C4 1.383(6)
C12 C13 1.390(5)
C12 C17 1.397(6)
C28 H28 0.9300
C28 C29 1.375(6)
C28 C27 1.394(6)
C8 H8 0.9800
C15 H15 0.9300
C15 C16 1.386(6)
C25 H25 0.9300
C25 C26 1.373(6)
C16 H16 0.9300
C16 C17 1.376(6)
C2 H2A 0.9300
C2 C3 1.378(7)
C26 H26 0.9300
C26 C27 1.373(6)
C3 H3 0.9300
C3 C4 1.365(7)
C4 H4 0.9300
C29 H29 0.9300
C30 H30A 0.9600
C30 H30B 0.9600
C30 H30C 0.9600
C30 C27 1.512(6)
C19 H19A 0.9700
C19 H19B 0.9700
C19 C20 1.487(5)
C23 H23A 0.9600
C23 H23B 0.9600
C23 H23C 0.9600
C23 C22 1.490(7)
C22 H22A 0.9700
C22 H22B 0.9700
C20 H20A 0.9600
C20 H20B 0.9600
C20 H20C 0.9600
C17 H17 0.9300
loop_
_geom_torsion_atom_site_label_1
_geom_torsion_atom_site_label_2
_geom_torsion_atom_site_label_3
_geom_torsion_atom_site_label_4
_geom_torsion
S1 C24 C25 C26 177.3(4)
S1 C24 C29 C28 -178.4(4)
S1 N1 C9 O1 -14.8(5)
S1 N1 C9 C8 165.1(3)
S1 N1 C1 C6 -152.2(3)
S1 N1 C1 C2 29.9(6)
O6 S1 C24 C25 -32.7(5)
O6 S1 C24 C29 144.6(4)
O6 S1 N1 C9 -175.4(3)
O6 S1 N1 C1 2.5(4)
C24 S1 N1 C9 69.9(3)
C24 S1 N1 C1 -112.3(3)
C24 C25 C26 C27 1.0(8)
O7 S1 C24 C25 -164.7(4)
O7 S1 C24 C29 12.6(5)
O7 S1 N1 C9 -46.3(3)
O7 S1 N1 C1 131.5(3)
N1 S1 C24 C25 80.4(4)
N1 S1 C24 C29 -102.3(4)
N1 C9 C8 C7 -20.4(5)
N1 C9 C8 C10 -137.3(3)
N1 C1 C6 C7 -2.9(6)
N1 C1 C6 C5 180.0(4)
N1 C1 C2 C3 -177.9(4)
C11 C10 C12 C13 -100.0(4)
C11 C10 C12 C17 80.0(5)
C11 C10 C8 C7 -23.1(4)
C11 C10 C8 C9 100.2(4)
C9 N1 C1 C6 25.5(5)
C9 N1 C1 C2 -152.4(4)
C18 O3 C19 C20 -87.0(4)
C18 C11 N2 C7 147.6(3)
C18 C11 C21 O5 -48.6(4)
C18 C11 C21 O4 131.2(4)
C18 C11 C10 C12 118.2(4)
C18 C11 C10 C8 -117.6(4)
C1 N1 C9 O1 167.3(4)
C1 N1 C9 C8 -12.9(5)
C1 C2 C3 C4 -3.1(8)
N2 C11 C18 O3 64.8(4)
N2 C11 C18 O2 -112.4(5)
N2 C11 C21 O5 -166.5(3)
N2 C11 C21 O4 13.2(6)
N2 C11 C10 C12 -126.8(4)
N2 C11 C10 C8 -2.6(5)
N2 C7 C6 C1 83.6(4)
N2 C7 C6 C5 -99.3(5)
N2 C7 C8 C9 -79.3(4)
N2 C7 C8 C10 39.8(4)
C21 O5 C22 C23 174.1(4)
C21 C11 C18 O3 -57.5(4)
C21 C11 C18 O2 125.3(5)
C21 C11 N2 C7 -92.9(4)
C21 C11 C10 C12 -3.9(5)
C21 C11 C10 C8 120.3(4)
C14 C15 C16 C17 -0.1(7)
O1 C9 C8 C7 159.5(4)
O1 C9 C8 C10 42.6(5)
C10 C11 C18 O3 179.0(3)
C10 C11 C18 O2 1.8(6)
C10 C11 N2 C7 28.7(5)
C10 C11 C21 O5 75.4(4)
C10 C11 C21 O4 -104.8(5)
C10 C12 C13 Cl1 2.8(5)
C10 C12 C13 C14 -177.3(4)
C10 C12 C17 C16 177.3(4)
C6 C7 N2 C11 -163.3(3)
C6 C7 C8 C9 40.0(5)
C6 C7 C8 C10 159.1(4)
C6 C1 C2 C3 4.3(7)
C6 C5 C4 C3 2.6(8)
C12 C10 C8 C7 103.0(4)
C12 C10 C8 C9 -133.8(4)
C8 C7 N2 C11 -43.2(4)
C8 C7 C6 C1 -29.2(5)
C8 C7 C6 C5 147.9(4)
C8 C10 C12 C13 141.3(4)
C8 C10 C12 C17 -38.7(5)
C15 C14 C13 Cl1 178.5(4)
C15 C14 C13 C12 -1.4(7)
C15 C16 C17 C12 1.5(7)
C25 C24 C29 C28 -1.1(8)
C25 C26 C27 C28 -0.9(8)
C25 C26 C27 C30 179.8(6)
C13 C14 C15 C16 0.0(7)
C13 C12 C17 C16 -2.7(6)
C2 C1 C6 C7 175.1(4)
C2 C1 C6 C5 -2.1(6)
C2 C3 C4 C5 -0.4(9)
C4 C5 C6 C7 -178.5(4)
C4 C5 C6 C1 -1.4(7)
C29 C24 C25 C26 0.0(8)
C29 C28 C27 C26 -0.3(9)
C29 C28 C27 C30 179.1(5)
C19 O3 C18 C11 -178.4(3)
C19 O3 C18 O2 -1.2(6)
C27 C28 C29 C24 1.3(8)
C22 O5 C21 C11 -171.6(4)
C22 O5 C21 O4 8.7(6)
C17 C12 C13 Cl1 -177.3(3)
C17 C12 C13 C14 2.6(6)
