#------------------------------------------------------------------------------
#$Date: 2016-02-18 17:37:37 +0200 (Thu, 18 Feb 2016) $
#$Revision: 176729 $
#$URL: svn://www.crystallography.net/cod/cif/1/51/75/1517503.cif $
#------------------------------------------------------------------------------
#
# This file is available in the Crystallography Open Database (COD),
# http://www.crystallography.net/
#
# All data on this site have been placed in the public domain by the
# contributors.
#
data_1517503
loop_
_publ_author_name
'Yuan, Yini'
'Bai, Lu'
'Nan, Jiang'
'Liu, Jingjing'
'Luan, Xinjun'
_publ_section_title
;
 Regiospecific Ficini [2 + 2] Cycloaddition of Ynamides with Cyclic
 Isoimidium Salts under Catalyst-Free Conditions.
;
_journal_issue                   16
_journal_name_full               'Organic letters'
_journal_page_first              4316
_journal_page_last               4319
_journal_paper_doi               10.1021/ol5020587
_journal_volume                  16
_journal_year                    2014
_chemical_formula_sum            'C31 H34 N2 O5 S'
_chemical_formula_weight         546.66
_chemical_name_systematic
;
 ?
;
_space_group_crystal_system      triclinic
_space_group_IT_number           2
_space_group_name_Hall           '-P 1'
_space_group_name_H-M_alt        'P -1'
_symmetry_space_group_name_Hall  '-P 1'
_symmetry_space_group_name_H-M   'P -1'
_atom_sites_solution_hydrogens   geom
_audit_creation_method           SHELXL-2013
_cell_angle_alpha                114.492(3)
_cell_angle_beta                 94.169(3)
_cell_angle_gamma                98.744(3)
_cell_formula_units_Z            2
_cell_length_a                   11.1930(18)
_cell_length_b                   12.098(2)
_cell_length_c                   12.443(2)
_cell_measurement_reflns_used    2193
_cell_measurement_temperature    296(2)
_cell_measurement_theta_max      24.56
_cell_measurement_theta_min      3.14
_cell_volume                     1498.2(4)
_computing_cell_refinement       'Bruker SAINT'
_computing_data_collection       'Bruker APEX2'
_computing_data_reduction        'Bruker SAINT'
_computing_molecular_graphics    'Bruker SHELXTL'
_computing_publication_material  'Bruker SHELXTL'
_computing_structure_refinement  'SHELXL-2013 (Sheldrick, 2013)'
_computing_structure_solution    'SHELXS-97 (Sheldrick, 2008)'
_diffrn_ambient_temperature      296(2)
_diffrn_measured_fraction_theta_full 0.980
_diffrn_measured_fraction_theta_max 0.913
_diffrn_measurement_device_type  'Bruker APEX-II CCD'
_diffrn_measurement_method       '\f and \w scans'
_diffrn_radiation_source         'fine-focus sealed tube'
_diffrn_radiation_type           MoK\a
_diffrn_radiation_wavelength     0.71073
_diffrn_reflns_av_R_equivalents  0.0302
_diffrn_reflns_av_unetI/netI     0.0654
_diffrn_reflns_Laue_measured_fraction_full 0.980
_diffrn_reflns_Laue_measured_fraction_max 0.913
_diffrn_reflns_limit_h_max       14
_diffrn_reflns_limit_h_min       -9
_diffrn_reflns_limit_k_max       15
_diffrn_reflns_limit_k_min       -15
_diffrn_reflns_limit_l_max       15
_diffrn_reflns_limit_l_min       -16
_diffrn_reflns_number            9358
_diffrn_reflns_point_group_measured_fraction_full 0.980
_diffrn_reflns_point_group_measured_fraction_max 0.913
_diffrn_reflns_theta_full        25.242
_diffrn_reflns_theta_max         28.442
_diffrn_reflns_theta_min         1.977
_exptl_absorpt_coefficient_mu    0.148
_exptl_absorpt_correction_T_max  0.971
_exptl_absorpt_correction_T_min  0.957
_exptl_absorpt_correction_type   multi-scan
_exptl_absorpt_process_details   SADABS
_exptl_crystal_colour            colorless
_exptl_crystal_density_diffrn    1.212
_exptl_crystal_description       block
_exptl_crystal_F_000             580
_exptl_crystal_size_max          0.300
_exptl_crystal_size_mid          0.260
_exptl_crystal_size_min          0.200
_refine_diff_density_max         0.450
_refine_diff_density_min         -0.604
_refine_diff_density_rms         0.139
_refine_ls_extinction_method     none
_refine_ls_goodness_of_fit_ref   1.107
_refine_ls_hydrogen_treatment    constr
_refine_ls_matrix_type           full
_refine_ls_number_parameters     356
_refine_ls_number_reflns         6900
_refine_ls_number_restraints     0
_refine_ls_restrained_S_all      1.107
_refine_ls_R_factor_all          0.1428
_refine_ls_R_factor_gt           0.0840
_refine_ls_shift/su_max          0.000
_refine_ls_shift/su_mean         0.000
_refine_ls_structure_factor_coef Fsqd
_refine_ls_weighting_details
;
 w=1/[\s^2^(Fo^2^)+(0.2000P)^2^]
 where P=(Fo^2^+2Fc^2^)/3
;
_refine_ls_weighting_scheme      calc
_refine_ls_wR_factor_gt          0.2387
_refine_ls_wR_factor_ref         0.3342
_reflns_Friedel_coverage         0.000
_reflns_number_gt                3871
_reflns_number_total             6900
_reflns_threshold_expression     'I > 2\s(I)'
_cod_data_source_file            ol5020587_si_002.cif
_cod_data_source_block           1
_cod_original_cell_volume        1498.1(4)
_cod_database_code               1517503
#BEGIN Tags that were not found in dictionaries:
_shelx_space_group_comment
;
The symmetry employed for this shelxl refinement is uniquely defined
by the following loop, which should always be used as a source of
symmetry information in preference to the above space-group names.
They are only intended as comments.
;
_shelx_estimated_absorpt_t_min   0.957
_shelx_estimated_absorpt_t_max   0.971
_shelxl_version_number           2013-2
_shelx_res_file
;
TITL 1 in P-1
CELL 0.71073  11.1930  12.0982  12.4426 114.492  94.169  98.744
ZERR   2.00   0.0018   0.0021   0.0021   0.003   0.003   0.003
LATT 1
SFAC C  H  N  O  S
UNIT 62  68  4  10  2
L.S. 15
ACTA
BOND
FMAP 2
PLAN 15
size 0.3 0.26 0.20
conf
htab
TEMP 23.000
WGHT    0.200000
FVAR       0.23676
MOLE 1
S1    5    0.582353    0.640054    0.358100    11.00000    0.03776    0.06531 =
         0.07660    0.02388    0.00909    0.01544
O1    4    0.564817    0.519699    0.353353    11.00000    0.06546    0.05605 =
         0.09940    0.01435   -0.00218    0.02335
O2    4    0.657094    0.672493    0.282997    11.00000    0.04627    0.11264 =
         0.09770    0.04049    0.03034    0.01481
C1    1    0.639615    0.743994    0.505700    11.00000    0.03773    0.06196 =
         0.09320    0.04108    0.00216    0.01549
C2    1    0.635125    0.708552    0.598793    11.00000    0.06585    0.05313 =
         0.08192    0.03209   -0.00909    0.01458
AFIX  43
H2    2    0.602195    0.626944    0.582610    11.00000   -1.20000
AFIX   0
C6    1    0.687735    0.866465    0.533086    11.00000    0.07977    0.05800 =
         0.09972    0.03932    0.00089    0.00416
AFIX  43
H6    2    0.691885    0.892257    0.472438    11.00000   -1.20000
AFIX   0
C3    1    0.679034    0.793473    0.714034    11.00000    0.09644    0.07428 =
         0.08152    0.03879   -0.01121    0.02813
AFIX  43
H3    2    0.676684    0.768230    0.775135    11.00000   -1.20000
AFIX   0
C4    1    0.726508    0.915251    0.741259    11.00000    0.08308    0.06140 =
         0.08889    0.01781   -0.02265    0.01620
C5    1    0.729339    0.949929    0.649520    11.00000    0.09358    0.04041 =
         0.09918    0.01388   -0.00722    0.00414
AFIX  43
H5    2    0.760283    1.032217    0.666664    11.00000   -1.20000
AFIX   0
C7    1    0.772979    1.007792    0.869155    11.00000    0.14902    0.10814 =
         0.09039    0.01730   -0.02048    0.02748
AFIX 137
H7A   2    0.706791    1.015442    0.915020    11.00000   -1.50000
H7B   2    0.806011    1.086931    0.871530    11.00000   -1.50000
H7C   2    0.835669    0.979815    0.902197    11.00000   -1.50000
AFIX   0
N1    3    0.447486    0.666235    0.327292    11.00000    0.03718    0.07404 =
         0.07557    0.04282    0.00970    0.01237
C8    1    0.435799    0.762339    0.283670    11.00000    0.05435    0.07783 =
         0.06264    0.03664    0.01431    0.01137
AFIX  23
H8A   2    0.515543    0.795890    0.271915    11.00000   -1.20000
H8B   2    0.406230    0.829652    0.343395    11.00000   -1.20000
AFIX   0
C9    1    0.349628    0.709105    0.168732    11.00000    0.08016    0.06799 =
         0.06443    0.03570    0.01463    0.02738
C10   1    0.225309    0.699260    0.171493    11.00000    0.07451    0.06443 =
         0.08040    0.03012   -0.01091    0.01720
AFIX  43
H10   2    0.195289    0.728435    0.243865    11.00000   -1.20000
AFIX   0
C14   1    0.391668    0.663168    0.061336    11.00000    0.18240    0.13109 =
         0.08594    0.06052    0.05837    0.08472
AFIX  43
H14   2    0.474972    0.669340    0.057675    11.00000   -1.20000
AFIX   0
C13   1    0.302404    0.604461   -0.046834    11.00000    0.31990    0.14843 =
         0.04939    0.03321    0.04349    0.12871
AFIX  43
H13   2    0.327687    0.569495   -0.121187    11.00000   -1.20000
AFIX   0
C11   1    0.144905    0.643995    0.062155    11.00000    0.12167    0.09047 =
         0.11058    0.03440   -0.04574    0.01400
AFIX  43
H11   2    0.061326    0.638697    0.063649    11.00000   -1.20000
AFIX   0
C12   1    0.182824    0.601102   -0.038538    11.00000    0.29279    0.10025 =
         0.08375    0.00869   -0.05526    0.07401
AFIX  43
H12   2    0.126323    0.566548   -0.108162    11.00000   -1.20000
AFIX   0
C16   1    0.253153    0.533702    0.334664    11.00000    0.03745    0.05154 =
         0.05154    0.02455    0.01093    0.01347
C15   1    0.350257    0.628838    0.379924    11.00000    0.03570    0.06428 =
         0.04791    0.02753    0.00617    0.01085
C17   1    0.202375    0.573483    0.453071    11.00000    0.05564    0.05257 =
         0.05456    0.02579    0.01439    0.00520
AFIX  13
H17   2    0.205196    0.513043    0.486186    11.00000   -1.20000
AFIX   0
C18   1    0.320832    0.682565    0.506415    11.00000    0.05097    0.07118 =
         0.04802    0.02890    0.00664    0.00169
AFIX  13
H18   2    0.378610    0.670927    0.562035    11.00000   -1.20000
AFIX   0
C19   1    0.206306    0.425129    0.220635    11.00000    0.04189    0.05027 =
         0.05500    0.02149    0.01075    0.01630
C20   1    0.099878    0.341357    0.209131    11.00000    0.04487    0.07979 =
         0.06119    0.02090    0.01199    0.00695
AFIX  43
H20   2    0.058505    0.355506    0.274301    11.00000   -1.20000
AFIX   0
C24   1    0.266474    0.402459    0.121476    11.00000    0.06134    0.06341 =
         0.07272    0.02944    0.02806    0.02025
AFIX  43
H24   2    0.337168    0.456926    0.126421    11.00000   -1.20000
AFIX   0
C21   1    0.056122    0.240475    0.105350    11.00000    0.06061    0.08222 =
         0.08095    0.01084    0.01259    0.00059
AFIX  43
H21   2   -0.015421    0.186656    0.099609    11.00000   -1.20000
AFIX   0
C22   1    0.116340    0.216111    0.007410    11.00000    0.08343    0.08948 =
         0.07104    0.01062    0.00951    0.01319
AFIX  43
H22   2    0.087582    0.145265   -0.063530    11.00000   -1.20000
AFIX   0
C23   1    0.220962    0.300131    0.017568    11.00000    0.09500    0.07334 =
         0.07278    0.02086    0.03137    0.02396
AFIX  43
H23   2    0.260937    0.286004   -0.048473    11.00000   -1.20000
AFIX   0
C25   1    0.294039    0.811993    0.557641    11.00000    0.07595    0.07068 =
         0.05130    0.02150    0.01337   -0.01066
O3    4    0.286138    0.867547    0.493798    11.00000    0.15340    0.08026 =
         0.07249    0.03924    0.04657    0.03037
N2    3    0.275976    0.867206    0.673104    11.00000    0.10637    0.07494 =
         0.05211    0.01699    0.02045   -0.01270
C26   1    0.279735    0.808589    0.755604    11.00000    0.12195    0.11479 =
         0.06877    0.03257    0.02455   -0.00844
AFIX  23
H26A  2    0.271000    0.719794    0.709742    11.00000   -1.20000
H26B  2    0.211167    0.822793    0.799561    11.00000   -1.20000
AFIX   0
C29   1    0.108308    0.983648    0.679813    11.00000    0.21219    0.11144 =
         0.10761    0.00887    0.01909    0.07427
AFIX 137
H29A  2    0.086221    0.930440    0.595945    11.00000   -1.50000
H29B  2    0.095133    1.065153    0.695377    11.00000   -1.50000
H29C  2    0.058891    0.950944    0.723934    11.00000   -1.50000
AFIX   0
C28   1    0.239277    0.990466    0.717214    11.00000    0.17873    0.06430 =
         0.06416    0.00486    0.03699   -0.00074
AFIX  23
H28A  2    0.256534    1.030332    0.803786    11.00000   -1.20000
H28B  2    0.288918    1.042092    0.688131    11.00000   -1.20000
AFIX   0
C27   1    0.399831    0.859075    0.845143    11.00000    0.14675    0.31250 =
         0.07732    0.06569   -0.00935   -0.01192
AFIX 137
H27A  2    0.463325    0.819833    0.806870    11.00000   -1.50000
H27B  2    0.387785    0.841701    0.912627    11.00000   -1.50000
H27C  2    0.422963    0.947043    0.871537    11.00000   -1.50000
AFIX   0
C30   1    0.084678    0.616469    0.462925    11.00000    0.05381    0.04813 =
         0.07228    0.01410    0.02618   -0.00010
O4    4    0.035694    0.643204    0.550508    11.00000    0.09305    0.09332 =
         0.09806    0.02740    0.05754    0.01414
O5    4    0.041894    0.625172    0.365380    11.00000    0.05756    0.11347 =
         0.08791    0.03897    0.02289    0.04566
C31   1   -0.071504    0.670883    0.367164    11.00000    0.07661    0.18149 =
         0.16349    0.07200    0.03681    0.08309
AFIX 137
H31A  2   -0.138181    0.609398    0.364867    11.00000   -1.50000
H31B  2   -0.085962    0.687678    0.298919    11.00000   -1.50000
H31C  2   -0.065054    0.745679    0.438882    11.00000   -1.50000
AFIX   0
HKLF 4

REM  1 in P-1
REM R1 =  0.0840 for    3871 Fo > 4sig(Fo)  and  0.1428 for all    6900 data
REM    356 parameters refined using      0 restraints

END

WGHT      0.2000      0.0000

REM Instructions for potential hydrogen bonds
HTAB C8 O2
HTAB C8 O3

REM Highest difference peak  0.450,  deepest hole -0.604,  1-sigma level  0.139
Q1    1   0.3225  0.6752  0.7059  11.00000  0.05    0.45
Q2    1   0.6911  1.0735  0.8982  11.00000  0.05    0.43
Q3    1   0.0363  0.3158  0.1308  11.00000  0.05    0.42
Q4    1   0.1762  0.6407  0.7577  11.00000  0.05    0.41
Q5    1   0.5295  0.5478  0.3433  11.00000  0.05    0.40
Q6    1   0.5767  0.6740  0.8498  11.00000  0.05    0.39
Q7    1   0.4442  0.5851  0.4810  11.00000  0.05    0.37
Q8    1   0.0296  1.0568  0.7275  11.00000  0.05    0.37
Q9    1   0.2157  0.7582  0.1874  11.00000  0.05    0.37
Q10   1   0.3890  1.0595  0.8253  11.00000  0.05    0.36
Q11   1   0.1489  0.3765  0.3289  11.00000  0.05    0.36
Q12   1  -0.0668  0.3637  0.2631  11.00000  0.05    0.36
Q13   1   0.5256  0.4546  0.3939  11.00000  0.05    0.36
Q14   1   0.2142  0.5670  0.5317  11.00000  0.05    0.36
Q15   1   0.4701  0.8966  0.2337  11.00000  0.05    0.36
;
_shelx_res_checksum              99170
_shelx_hkl_file
;
   2   0   0  369.27   16.76
   2   0   0  482.29   18.31
   3   0   0  345.53   13.28
   3   0   0  323.62   14.15
   4   0   0    0.24    0.08
   5   0   0    1.16    0.14
   5   0   0    0.89    0.06
   6   0   0   79.82    3.38
   6   0   0   80.07    3.25
   7   0   0    0.17    0.11
   8   0   0   14.11    0.71
   9   0   0    5.19    0.38
  10   0   0    2.40    0.30
  11   0   0    0.02    0.16
  12   0   0    0.69    0.23
  13   0   0    4.27    0.46
  14   0   0    0.88    0.27
  14  -1   0    1.44    0.31
  13  -1   0    2.92    0.40
  12  -1   0    0.74    0.22
  11  -1   0   -0.20    0.14
  10  -1   0    2.35    0.31
   9  -1   0   14.78    0.76
   8  -1   0    2.61    0.27
   7  -1   0    2.78    0.24
   6  -1   0   13.93    0.66
   5  -1   0  174.94    7.03
  -5   1   0  178.57    7.48
   4  -1   0   61.05    2.45
  -4   1   0   60.35    2.57
   3  -1   0   75.18    3.04
  -3   1   0   76.90    3.22
  -2   1   0  107.87    4.59
  -1   1   0   27.80    1.19
   1   1   0   52.12    2.23
   2   1   0  210.09    8.96
   3   1   0    8.22    0.38
   6   1   0    0.19    0.05
   6   1   0   -0.04    0.06
   8   1   0   -0.05    0.04
   9   1   0    0.23    0.15
  10   1   0    0.30    0.17
  11   1   0    0.48    0.22
  12   1   0    0.75    0.26
  13   1   0    0.55    0.24
  14   1   0    0.51    0.27
  14  -2   0    0.23    0.20
  13  -2   0   -0.14    0.17
  13  -2   0    0.00    0.16
  12  -2   0    0.28    0.19
  12  -2   0    0.14    0.16
  11  -2   0    0.98    0.23
  10  -2   0   -0.13    0.15
   9  -2   0    6.93    0.44
   8  -2   0    0.39    0.14
   7  -2   0   76.00    3.11
   6  -2   0    1.44    0.16
  -6   2   0    1.40    0.10
   5  -2   0    0.00    0.04
   5  -2   0    0.11    0.08
  -5   2   0    0.09    0.06
   4  -2   0  286.19   11.19
   4  -2   0  273.04   11.18
  -4   2   0  289.80   12.03
   3  -2   0  162.13    6.54
   3  -2   0  164.46    6.54
  -3   2   0  169.19    7.04
   2  -2   0    0.19    0.05
   2  -2   0    0.39    0.06
  -2   2   0    0.13    0.07
  -1   2   0   52.70    2.26
   1   2   0   29.74    1.19
   1   2   0   28.76    1.27
   2   2   0  214.25    9.37
   2   2   0  226.29    8.71
   4   2   0    8.13    0.39
   4   2   0    8.12    0.40
   5   2   0   13.18    0.61
   5   2   0   13.27    0.63
   6   2   0   19.47    0.91
   6   2   0   20.53    0.90
   9   2   0   12.62    0.69
  10   2   0    1.38    0.24
  11   2   0   -0.03    0.18
  12   2   0    0.13    0.21
  13   2   0    0.46    0.23
  14   2   0    1.03    0.30
  14  -3   0   -0.04    0.22
  13  -3   0    1.10    0.25
  12  -3   0    1.63    0.26
  12  -3   0    2.00    0.29
  11  -3   0    2.10    0.26
  11  -3   0    1.65    0.27
  10  -3   0    0.27    0.17
  10  -3   0    0.19    0.14
   9  -3   0    1.72    0.23
   9  -3   0    1.85    0.23
   8  -3   0    3.16    0.26
   7  -3   0   38.90    1.62
   7  -3   0   37.88    1.63
   6  -3   0   66.28    2.62
   6  -3   0   63.24    2.63
  -6   3   0   63.58    2.76
   5  -3   0   67.29    2.76
  -5   3   0   68.63    2.91
   4  -3   0  242.65    9.84
   4  -3   0  251.08    9.84
  -4   3   0  252.35   10.57
   3  -3   0    8.13    0.37
   3  -3   0    7.56    0.37
  -3   3   0    8.39    0.40
   2  -3   0    4.94    0.24
   2  -3   0    5.20    0.25
  -2   3   0    5.04    0.28
   1  -3   0    1.08    0.10
  -1   3   0    1.12    0.13
   1   3   0   76.59    3.29
   2   3   0  149.63    5.97
   2   3   0  150.78    6.39
   3   3   0   27.17    1.16
   3   3   0   27.72    1.22
   4   3   0    0.02    0.08
   4   3   0    0.03    0.07
   5   3   0    2.60    0.19
   5   3   0    2.47    0.21
   6   3   0    6.46    0.39
   6   3   0    6.41    0.35
   7   3   0    3.55    0.29
   8   3   0    5.50    0.40
   9   3   0   13.96    0.76
  10   3   0    3.15    0.36
  11   3   0    0.08    0.19
  12   3   0    0.24    0.20
  13   3   0    0.80    0.28
  14  -4   0    0.45    0.27
  13  -4   0    3.44    0.41
  12  -4   0    0.53    0.23
  12  -4   0    0.49    0.19
  11  -4   0    0.19    0.15
  11  -4   0    0.34    0.17
  10  -4   0    5.80    0.40
  10  -4   0    5.54    0.38
   9  -4   0    0.77    0.17
   9  -4   0    0.64    0.17
   8  -4   0   13.55    0.66
   8  -4   0   13.77    0.68
   7  -4   0   35.85    1.51
   7  -4   0   35.64    1.52
  -7   4   0   35.63    1.57
   6  -4   0    3.85    0.26
   6  -4   0    3.96    0.25
  -6   4   0    3.64    0.24
   5  -4   0    7.49    0.38
   5  -4   0    7.22    0.38
  -5   4   0    7.57    0.39
   4  -4   0   15.15    0.67
  -4   4   0   15.50    0.72
   3  -4   0  107.81    4.71
   3  -4   0  122.47    4.71
  -3   4   0  124.83    5.06
   2  -4   0   11.67    0.51
   2  -4   0   11.82    0.52
   1   4   0   34.24    1.52
   2   4   0   -0.02    0.08
   2   4   0   -0.02    0.06
   3   4   0    2.05    0.17
   3   4   0    1.84    0.16
   4   4   0    0.44    0.12
   4   4   0    0.44    0.11
   5   4   0    0.08    0.10
   5   4   0   -0.02    0.09
   6   4   0    1.74    0.18
   6   4   0    1.45    0.21
   7   4   0    0.08    0.14
   8   4   0    0.06    0.16
   9   4   0    0.58    0.22
  10   4   0    0.22    0.17
  11   4   0    0.29    0.19
  12   4   0    1.32    0.28
  13   4   0   -0.16    0.22
  14  -5   0    0.65    0.26
  13  -5   0    4.75    0.42
  12  -5   0   -0.11    0.17
  11  -5   0    0.25    0.15
  11  -5   0    0.54    0.18
  10  -5   0   -0.07    0.11
  10  -5   0    0.16    0.14
   9  -5   0    6.38    0.42
   9  -5   0    6.01    0.39
   8  -5   0    0.32    0.13
   8  -5   0    0.23    0.14
   7  -5   0   17.16    0.79
   7  -5   0   16.82    0.79
   6  -5   0    0.02    0.09
   6  -5   0   -0.01    0.09
  -6   5   0   -0.09    0.10
   5  -5   0    0.27    0.09
   5  -5   0    0.35    0.10
  -5   5   0    0.35    0.12
   4  -5   0   41.45    1.72
   4  -5   0   42.31    1.73
  -4   5   0   42.03    1.86
   3  -5   0   15.80    0.70
   3  -5   0   15.62    0.69
  -3   5   0   16.26    0.77
   2  -5   0    0.92    0.12
  -2   5   0    1.14    0.15
  -1   5   0  155.47    6.64
   0   5   0    7.72    0.43
   1   5   0    1.15    0.17
   2   5   0    0.15    0.12
   2   5   0    0.22    0.08
   3   5   0    0.57    0.14
   3   5   0    0.65    0.12
   4   5   0   16.24    0.73
   4   5   0   14.59    0.75
   5   5   0    0.41    0.13
   5   5   0    0.13    0.12
   6   5   0    1.78    0.24
   6   5   0    1.87    0.21
   7   5   0    1.17    0.21
   8   5   0    0.15    0.15
   9   5   0    7.38    0.52
  10   5   0    5.09    0.43
  11   5   0    0.29    0.23
  12   5   0    0.02    0.22
  14  -6   0    1.38    0.30
  13  -6   0    1.34    0.26
  12  -6   0    1.49    0.27
  11  -6   0    3.24    0.35
  10  -6   0    0.66    0.17
  10  -6   0    0.45    0.17
   9  -6   0   -0.05    0.12
   9  -6   0   -0.15    0.11
   8  -6   0    0.07    0.12
   8  -6   0    0.08    0.12
   7  -6   0    2.33    0.23
   7  -6   0    2.40    0.23
  -7   6   0    2.39    0.24
   6  -6   0   26.25    1.13
   6  -6   0   26.08    1.13
  -6   6   0   25.01    1.20
   5  -6   0    1.18    0.15
   5  -6   0    1.06    0.15
  -5   6   0    1.21    0.18
   4  -6   0   15.37    0.68
   4  -6   0   14.40    0.66
  -4   6   0   14.11    0.73
   3  -6   0    4.33    0.25
  -3   6   0    3.67    0.30
  -2   6   0    0.14    0.12
  -1   6   0    3.46    0.28
   0   6   0   47.01    2.10
   1   6   0   22.69    1.08
   2   6   0   13.59    0.63
   2   6   0   13.47    0.69
   3   6   0   10.06    0.55
   3   6   0    9.94    0.51
   4   6   0    0.33    0.15
   4   6   0    0.18    0.13
   5   6   0    3.14    0.30
   5   6   0    2.96    0.30
   6   6   0    0.11    0.14
   6   6   0    0.33    0.16
   7   6   0    9.93    0.57
   8   6   0    2.76    0.32
   9   6   0    2.66    0.34
  10   6   0    0.16    0.18
  11   6   0    0.20    0.22
  12   6   0    0.42    0.23
  14  -7   0    0.12    0.22
  13  -7   0    1.07    0.26
  12  -7   0    2.54    0.33
  11  -7   0    0.63    0.19
  10  -7   0    0.46    0.17
  10  -7   0    0.61    0.18
   9  -7   0    0.54    0.16
   9  -7   0    0.52    0.16
   8  -7   0    1.90    0.23
   8  -7   0    2.06    0.24
   7  -7   0    8.17    0.46
   7  -7   0    8.06    0.47
  -7   7   0    8.29    0.49
   6  -7   0   13.53    0.65
   6  -7   0   13.05    0.64
  -6   7   0   13.06    0.70
   5  -7   0    0.09    0.10
   5  -7   0   -0.05    0.09
  -5   7   0   -0.06    0.12
   4  -7   0   13.74    0.66
   4  -7   0   13.74    0.64
  -4   7   0   13.68    0.73
   3  -7   0    2.67    0.24
  -3   7   0    2.62    0.28
  -2   7   0   56.26    2.51
  -1   7   0    0.40    0.17
   0   7   0    8.40    0.50
   1   7   0    5.36    0.38
   2   7   0   57.07    2.61
   2   7   0   60.08    2.43
   3   7   0    5.61    0.41
   3   7   0    5.54    0.35
   4   7   0    6.91    0.47
   4   7   0    7.22    0.44
   5   7   0    0.83    0.20
   5   7   0    0.39    0.18
   6   7   0    3.28    0.32
   6   7   0    3.29    0.31
   7   7   0    4.72    0.39
   8   7   0    1.40    0.27
   9   7   0    0.01    0.16
  10   7   0    0.17    0.20
  11   7   0    0.06    0.24
  13  -8   0    2.08    0.33
  12  -8   0    0.73    0.22
  11  -8   0   -0.07    0.15
  10  -8   0    3.23    0.33
   9  -8   0    3.19    0.31
   9  -8   0    2.95    0.30
   8  -8   0    0.61    0.16
   8  -8   0    0.91    0.18
   7  -8   0    6.10    0.38
   7  -8   0    6.01    0.40
  -7   8   0    6.44    0.43
   6  -8   0    1.30    0.20
   6  -8   0    1.08    0.18
  -6   8   0    0.98    0.20
   5  -8   0    0.27    0.14
   5  -8   0    0.41    0.13
  -5   8   0    0.37    0.20
   4  -8   0    2.86    0.26
  -4   8   0    3.16    0.32
  -3   8   0    2.15    0.27
  -2   8   0   12.13    0.68
  -1   8   0    0.05    0.06
   0   8   0   -0.04    0.04
   1   8   0    1.20    0.23
   2   8   0    7.73    0.44
   2   8   0    7.46    0.50
   3   8   0    5.96    0.44
   3   8   0    5.75    0.38
   4   8   0    1.66    0.26
   4   8   0    1.73    0.24
   5   8   0    0.24    0.16
   5   8   0    0.35    0.19
   6   8   0    2.43    0.31
   6   8   0    3.15    0.34
   7   8   0   -0.01    0.17
   8   8   0    0.21    0.20
   9   8   0    1.61    0.31
  10   8   0   -0.23    0.19
  10  -9   0    3.55    0.35
   9  -9   0    1.37    0.23
   9  -9   0    1.41    0.22
   8  -9   0   -0.05    0.12
   8  -9   0    0.12    0.15
   7  -9   0    0.05    0.14
   7  -9   0    0.06    0.13
  -7   9   0    0.03    0.16
   6  -9   0    0.34    0.14
   6  -9   0    0.37    0.16
  -6   9   0    0.29    0.17
   5  -9   0    0.16    0.14
  -5   9   0    0.19    0.19
  -4   9   0    6.14    0.48
  -3   9   0    3.73    0.37
  -2   9   0    3.86    0.37
  -1   9   0    0.36    0.19
   0   9   0    0.79    0.22
   1   9   0    0.27    0.18
   1   9   0    0.34    0.14
   2   9   0    3.02    0.29
   2   9   0    2.53    0.34
   3   9   0    7.41    0.51
   3   9   0    6.99    0.45
   4   9   0    0.76    0.19
   4   9   0    0.68    0.23
   5   9   0    0.27    0.20
   5   9   0    0.24    0.17
   6   9   0    0.25    0.18
   6   9   0   -0.08    0.16
   7   9   0   -0.27    0.15
   8   9   0    0.55    0.23
   9   9   0    2.08    0.32
   8 -10   0    0.48    0.19
   7 -10   0    0.48    0.18
  -7  10   0    0.27    0.19
   6 -10   0    4.86    0.37
  -6  10   0    4.51    0.40
  -5  10   0    3.45    0.37
  -4  10   0   14.33    0.81
  -3  10   0    0.86    0.25
  -2  10   0   -0.05    0.16
  -1  10   0    0.32    0.19
   0  10   0    0.34    0.19
   1  10   0    0.88    0.19
   1  10   0    0.66    0.25
   2  10   0    9.19    0.62
   2  10   0    9.13    0.54
   3  10   0   -0.14    0.16
   3  10   0    0.11    0.14
   4  10   0    0.99    0.21
   4  10   0    1.45    0.29
   5  10   0    0.09    0.20
   5  10   0   -0.16    0.15
   6  10   0    0.43    0.23
   6  10   0    0.18    0.17
   7  10   0   -0.01    0.15
   8  10   0    0.40    0.24
   7 -11   0    0.71    0.21
  -7  11   0    1.04    0.26
  -6  11   0    2.23    0.33
  -5  11   0    1.92    0.31
  -4  11   0    4.51    0.46
  -3  11   0    0.36    0.21
  -2  11   0    0.38    0.20
  -1  11   0    1.90    0.31
   0  11   0    0.00    0.18
   1  11   0    0.17    0.14
   1  11   0    0.19    0.24
   2  11   0    1.50    0.24
   2  11   0    1.06    0.29
   3  11   0    0.04    0.16
   3  11   0   -0.05    0.19
   4  11   0   -0.09    0.13
   4  11   0    0.00    0.18
   5  11   0    1.03    0.26
   5  11   0    0.95    0.26
   6  11   0   -0.45    0.16
   7  11   0    0.32    0.20
  -7  12   0    0.26    0.23
  -6  12   0    0.11    0.20
  -5  12   0    0.15    0.24
  -4  12   0    0.05    0.24
  -3  12   0    0.00    0.20
  -2  12   0    0.24    0.24
  -1  12   0   -0.09    0.21
   0  12   0    0.55    0.24
   1  12   0   -0.30    0.18
   2  12   0    0.53    0.24
   3  12   0    1.79    0.37
   4  12   0    0.37    0.26
   5  12   0    0.53    0.23
  -7  13   0    0.16    0.24
  -6  13   0   -0.13    0.22
  -5  13   0    0.04    0.24
  -4  13   0    0.98    0.29
  -3  13   0    0.12    0.26
  -2  13   0   -0.11    0.20
  -1  13   0   -0.14    0.18
   0  13   0    0.14    0.21
   1  13   0    0.18    0.21
   2  13   0    0.18    0.25
   3  13   0    0.12    0.23
  -7  14   0    0.08    0.25
  -6  14   0    0.07    0.27
  -5  14   0    0.80    0.29
  -4  14   0    0.28    0.25
  -3  14   0    0.27    0.25
   0  14  -1    0.22    0.24
  -1  14  -1    0.26    0.28
  -2  14  -1   -0.06    0.19
  -3  14  -1    0.16    0.26
  -4  14  -1    0.22    0.23
  -5  14  -1    0.35    0.24
  -6  14  -1    0.51    0.25
  -7  14  -1    0.79    0.29
   4  13  -1    0.16    0.25
   3  13  -1    0.12    0.24
   2  13  -1    0.35    0.25
   1  13  -1    0.42    0.24
   0  13  -1    0.28    0.22
  -1  13  -1   -0.02    0.19
  -2  13  -1    0.11    0.20
  -3  13  -1   -0.04    0.19
  -4  13  -1   -0.01    0.22
  -5  13  -1    0.37    0.25
  -6  13  -1    0.65    0.26
  -7  13  -1    0.00    0.19
   5  12  -1   -0.01    0.19
   4  12  -1    0.32    0.24
   3  12  -1    1.44    0.32
   2  12  -1    0.02    0.22
   1  12  -1    0.50    0.23
   0  12  -1    0.42    0.21
  -1  12  -1   -0.09    0.17
  -2  12  -1    0.17    0.23
  -3  12  -1    0.24    0.21
  -4  12  -1    1.99    0.33
  -5  12  -1    2.34    0.35
  -6  12  -1    0.10    0.17
  -7  12  -1    0.63    0.24
   7 -12   1    0.44    0.21
   8 -12   1    0.63    0.22
   8  11  -1    0.36    0.24
   7  11  -1    1.15    0.27
   6  11  -1    1.16    0.26
   6  11  -1    1.33    0.29
   5  11  -1    1.35    0.29
   5  11  -1    1.00    0.24
   4  11  -1    0.12    0.18
   4  11  -1   -0.05    0.15
   3  11  -1    0.18    0.19
   2  11  -1   -0.23    0.19
   1  11  -1    1.40    0.28
   0  11  -1    0.80    0.25
  -1  11  -1   -0.02    0.17
  -2  11  -1    0.53    0.22
  -3  11  -1    0.94    0.24
  -4  11  -1    0.70    0.25
  -5  11  -1    0.32    0.22
  -6  11  -1    0.55    0.21
   6 -11   1    0.85    0.21
  -7  11  -1    0.39    0.19
   7 -11   1    0.47    0.20
   8 -11   1    0.05    0.18
   9 -11   1    0.53    0.21
   9  10  -1   -0.04    0.20
   8  10  -1   -0.08    0.19
   7  10  -1    0.00    0.16
   6  10  -1    0.76    0.22
   6  10  -1    0.10    0.15
   5  10  -1    0.47    0.20
   5  10  -1    0.43    0.19
   4  10  -1    1.67    0.25
   4  10  -1    1.52    0.27
   3  10  -1    0.10    0.18
   3  10  -1   -0.04    0.13
   2  10  -1    2.09    0.24
   2  10  -1    1.71    0.28
   1  10  -1    1.10    0.24
   1  10  -1    1.35    0.20
   0  10  -1   14.39    0.83
  -1  10  -1    0.22    0.19
  -2  10  -1    0.31    0.19
  -3  10  -1    0.64    0.22
  -4  10  -1    0.88    0.22
  -5  10  -1    3.70    0.39
   5 -10   1    3.98    0.34
  -6  10  -1    9.53    0.58
   6 -10   1    8.82    0.54
  -7  10  -1    0.60    0.20
   7 -10   1    0.09    0.14
   8 -10   1    0.04    0.17
   9 -10   1    0.00    0.17
  10 -10   1    0.08    0.18
  10   9  -1    0.10    0.24
   9   9  -1    2.28    0.35
   7   9  -1    0.77    0.20
   6   9  -1    0.37    0.18
   6   9  -1    0.40    0.17
   5   9  -1    0.96    0.21
   5   9  -1    1.10    0.22
   4   9  -1    9.31    0.59
   4   9  -1    8.25    0.51
   3   9  -1    1.48    0.25
   3   9  -1    1.37    0.21
   2   9  -1   -0.06    0.11
   2   9  -1   -0.06    0.14
   1   9  -1   12.68    0.73
   1   9  -1   12.45    0.62
  -1   9  -1    5.69    0.43
  -2   9  -1    5.13    0.40
  -3   9  -1    1.98    0.29
  -4   9  -1    7.84    0.51
   4  -9   1    7.73    0.45
  -5   9  -1    4.70    0.37
   5  -9   1    4.62    0.34
  -6   9  -1    9.57    0.58
   6  -9   1    9.48    0.54
   6  -9   1    9.20    0.49
  -7   9  -1    5.06    0.40
   7  -9   1    6.71    0.41
   7  -9   1    5.36    0.36
   8  -9   1    1.78    0.24
   9  -9   1    4.20    0.37
  10  -9   1    2.39    0.31
  11   8  -1    0.02    0.19
  10   8  -1    0.43    0.25
   9   8  -1    0.98    0.26
   8   8  -1    0.91    0.24
   7   8  -1    3.41    0.36
   6   8  -1    0.09    0.15
   6   8  -1    0.08    0.13
   5   8  -1    0.90    0.21
   5   8  -1    1.14    0.21
   4   8  -1   16.93    0.88
   4   8  -1   16.12    0.80
   3   8  -1    0.90    0.17
   3   8  -1    0.49    0.20
   2   8  -1    0.28    0.12
   2   8  -1    0.10    0.15
   1   8  -1   14.94    0.81
   1   8  -1   15.98    0.72
   0   8  -1    0.08    0.05
  -1   8  -1    0.20    0.14
  -2   8  -1    5.62    0.40
  -3   8  -1    5.78    0.41
   3  -8   1    6.24    0.38
  -4   8  -1   18.48    0.90
   4  -8   1   16.36    0.81
  -5   8  -1   11.74    0.63
   5  -8   1   10.20    0.56
   5  -8   1   11.14    0.54
  -6   8  -1    4.45    0.34
   6  -8   1    4.01    0.28
   6  -8   1    3.96    0.32
  -7   8  -1    0.28    0.16
   7  -8   1    0.39    0.16
   7  -8   1    0.30    0.13
   8  -8   1    0.45    0.17
   8  -8   1    0.36    0.14
   9  -8   1    9.23    0.53
   9  -8   1    9.89    0.56
  10  -8   1    0.98    0.20
  10  -8   1    0.93    0.20
  11  -8   1   -0.03    0.14
  11  -8   1    0.12    0.16
  11   7  -1    0.28    0.23
  10   7  -1    0.14    0.21
   9   7  -1    0.59    0.22
   8   7  -1    0.13    0.18
   7   7  -1    0.01    0.13
   6   7  -1    0.11    0.14
   6   7  -1    0.10    0.13
   5   7  -1    7.19    0.43
   5   7  -1    7.08    0.46
   4   7  -1    6.86    0.44
   4   7  -1    6.27    0.39
   3   7  -1    6.78    0.43
   3   7  -1    6.79    0.39
   2   7  -1    7.63    0.40
   2   7  -1    7.00    0.45
   1   7  -1    0.12    0.12
   0   7  -1    0.04    0.07
  -1   7  -1    0.54    0.15
  -2   7  -1   24.78    1.15
   2  -7   1   23.42    1.05
  -3   7  -1    8.30    0.49
   3  -7   1    8.50    0.45
  -4   7  -1   13.38    0.68
   4  -7   1   13.03    0.60
   4  -7   1   12.74    0.63
  -5   7  -1    0.07    0.13
   5  -7   1    0.04    0.09
   5  -7   1    0.03    0.12
  -6   7  -1   19.49    0.95
   6  -7   1   20.04    0.88
   6  -7   1   19.41    0.90
  -7   7  -1    2.79    0.25
   7  -7   1    3.25    0.26
   7  -7   1    2.69    0.27
   8  -7   1    3.45    0.29
   8  -7   1    3.37    0.27
   9  -7   1    3.82    0.30
   9  -7   1    3.87    0.32
  10  -7   1    0.28    0.16
  10  -7   1    0.05    0.13
  11  -7   1    0.12    0.16
  11  -7   1    0.17    0.16
  12  -7   1    0.98    0.23
  13  -7   1    0.75    0.24
  14  -7   1    1.48    0.30
  12   6  -1    0.13    0.21
  11   6  -1    0.60    0.21
  10   6  -1   -0.08    0.16
   9   6  -1    0.06    0.19
   8   6  -1    2.99    0.34
   7   6  -1    9.85    0.57
   6   6  -1   -0.09    0.11
   6   6  -1   -0.07    0.12
   5   6  -1    1.67    0.22
   5   6  -1    1.63    0.21
   4   6  -1    4.22    0.32
   4   6  -1    4.58    0.30
   3   6  -1   22.76    0.99
   3   6  -1   22.37    1.07
   2   6  -1    4.43    0.32
   2   6  -1    4.72    0.27
   1   6  -1    2.07    0.16
   1   6  -1    2.16    0.22
   0   6  -1    0.15    0.07
  -1   6  -1   50.66    2.24
  -2   6  -1   49.43    2.18
   2  -6   1   48.82    2.02
  -3   6  -1   11.46    0.59
   3  -6   1   11.03    0.51
   3  -6   1   12.01    0.55
  -4   6  -1   28.83    1.33
   4  -6   1   29.66    1.25
   4  -6   1   29.05    1.22
  -5   6  -1   -0.03    0.10
   5  -6   1    0.10    0.10
   5  -6   1   -0.02    0.07
  -6   6  -1   15.87    0.76
   6  -6   1   15.46    0.73
   6  -6   1   15.45    0.71
  -7   6  -1    3.44    0.25
   7  -6   1    3.01    0.24
   7  -6   1    2.66    0.26
   8  -6   1    6.02    0.38
   8  -6   1    6.20    0.38
   9  -6   1    0.70    0.17
   9  -6   1    0.81    0.17
  10  -6   1    0.50    0.17
  10  -6   1    0.37    0.16
  11  -6   1    1.03    0.23
  11  -6   1    1.29    0.23
  12  -6   1   -0.15    0.16
  12  -6   1   -0.13    0.15
  13  -6   1    0.05    0.19
  14  -6   1    0.95    0.27
  13   5  -1    0.11    0.25
  12   5  -1    0.55    0.25
  11   5  -1    0.54    0.21
  10   5  -1    2.33    0.31
   9   5  -1    1.96    0.28
   8   5  -1    4.01    0.38
   7   5  -1    8.71    0.52
   6   5  -1    0.82    0.15
   6   5  -1    0.41    0.16
   5   5  -1    0.29    0.11
   5   5  -1    0.22    0.11
   4   5  -1    8.65    0.48
   4   5  -1    9.06    0.46
   3   5  -1    6.66    0.36
   3   5  -1    6.86    0.39
   2   5  -1    4.32    0.26
   2   5  -1    5.14    0.30
   1   5  -1   23.48    0.97
   1   5  -1   22.32    1.06
   0   5  -1   -0.02    0.03
  -1   5  -1    5.31    0.32
   1  -5   1    5.46    0.29
  -2   5  -1    0.08    0.08
   2  -5   1    0.28    0.08
   3  -5   1    7.57    0.36
   3  -5   1    6.76    0.33
   4  -5   1   88.20    3.59
   4  -5   1   89.99    3.57
   5  -5   1    2.31    0.18
   5  -5   1    2.31    0.19
  -6   5  -1    1.05    0.13
   6  -5   1    1.15    0.15
   6  -5   1    1.15    0.15
   7  -5   1   11.03    0.56
   7  -5   1   10.79    0.55
   8  -5   1   -0.10    0.11
   8  -5   1    0.09    0.12
   9  -5   1    6.03    0.39
   9  -5   1    5.70    0.38
  10  -5   1   -0.04    0.12
  10  -5   1    0.01    0.14
  11  -5   1    0.49    0.19
  11  -5   1    0.24    0.16
  12  -5   1    0.31    0.20
  12  -5   1    0.29    0.17
  13  -5   1    0.32    0.18
  13  -5   1    0.02    0.19
  14  -5   1   -0.21    0.19
  13   4  -1    0.06    0.24
  12   4  -1    0.49    0.25
  11   4  -1    1.52    0.27
  10   4  -1    0.81    0.24
   9   4  -1    3.36    0.36
   8   4  -1    1.64    0.26
   7   4  -1    2.96    0.29
   6   4  -1    2.08    0.23
   6   4  -1    2.37    0.21
   5   4  -1    2.23    0.22
   5   4  -1    2.38    0.19
   4   4  -1    1.21    0.15
   4   4  -1    1.40    0.16
   3   4  -1    3.78    0.24
   3   4  -1    3.61    0.23
   2   4  -1    1.89    0.13
   2   4  -1    1.68    0.17
   1   4  -1  268.19   10.31
   1   4  -1  252.76   11.04
   0   4  -1    0.03    0.02
  -1   4  -1    0.50    0.10
   1  -4   1    0.71    0.10
  -2   4  -1  171.74    7.17
   2  -4   1  163.37    6.69
   2  -4   1  170.80    6.67
  -3   4  -1    5.12    0.29
   3  -4   1    5.49    0.26
  -4   4  -1   27.63    1.21
   4  -4   1   27.61    1.13
   4  -4   1   26.39    1.15
  -5   4  -1    4.93    0.27
   5  -4   1    4.96    0.29
   5  -4   1    4.77    0.27
  -6   4  -1   38.97    1.66
   6  -4   1   35.81    1.59
   6  -4   1   39.63    1.60
   7  -4   1   31.31    1.37
   7  -4   1   32.66    1.37
   8  -4   1    5.46    0.34
   8  -4   1    4.64    0.32
   9  -4   1   -0.08    0.11
   9  -4   1    0.03    0.13
  10  -4   1    0.15    0.14
  10  -4   1   -0.03    0.12
  11  -4   1    0.24    0.16
  11  -4   1   -0.08    0.13
  12  -4   1    0.71    0.20
  12  -4   1    0.54    0.21
  13  -4   1    0.17    0.21
  13  -4   1    1.00    0.23
  14  -4   1    0.43    0.24
  13   3  -1   -0.03    0.22
  12   3  -1    1.53    0.30
  11   3  -1    3.06    0.35
  10   3  -1    0.05    0.18
   9   3  -1   -0.02    0.17
   8   3  -1    5.60    0.39
   7   3  -1    1.40    0.21
   6   3  -1   24.13    1.08
   6   3  -1   23.29    1.06
   5   3  -1    0.07    0.10
   5   3  -1    0.12    0.08
   4   3  -1   20.87    0.89
   4   3  -1   20.12    0.93
   3   3  -1   21.92    0.99
   2   3  -1  342.44   14.96
   2   3  -1  361.05   13.99
   1   3  -1    4.80    0.26
   1   3  -1    4.47    0.22
   0   3  -1    0.02    0.01
  -1   3  -1   63.72    2.78
   1  -3   1   66.03    2.60
  -2   3  -1  521.67   21.88
   2  -3   1  508.52   20.49
  -3   3  -1   67.27    2.89
   3  -3   1   67.31    2.72
   3  -3   1   68.38    2.70
  -4   3  -1  240.67   10.29
   4  -3   1  242.31    9.55
  -5   3  -1   23.17    1.02
   5  -3   1   23.96    1.00
   5  -3   1   22.83    0.99
  -6   3  -1   37.65    1.65
   6  -3   1   39.32    1.62
   6  -3   1   39.02    1.62
   7  -3   1    0.65    0.15
   7  -3   1    0.89    0.14
   8  -3   1    1.62    0.20
   8  -3   1    1.51    0.20
   9  -3   1    0.10    0.13
   9  -3   1    0.31    0.15
  10  -3   1    0.57    0.19
  10  -3   1    0.68    0.18
  11  -3   1    0.53    0.17
  11  -3   1    0.39    0.20
  12  -3   1    1.87    0.28
  12  -3   1    2.33    0.31
  13  -3   1    1.89    0.32
  13  -3   1    2.20    0.30
  14  -3   1    1.18    0.28
  14  -3   1    0.98    0.29
  14   2  -1    0.33    0.24
  13   2  -1    0.54    0.25
  12   2  -1    1.53    0.29
  11   2  -1    0.10    0.19
  10   2  -1    4.93    0.39
   9   2  -1    1.14    0.23
   8   2  -1    7.37    0.45
   7   2  -1   17.78    0.84
   6   2  -1   14.48    0.69
   6   2  -1   15.90    0.72
   5   2  -1    3.44    0.24
   5   2  -1    3.16    0.20
   4   2  -1   21.33    0.93
   4   2  -1   21.88    0.96
   3   2  -1    4.54    0.25
   3   2  -1    4.86    0.25
   2   2  -1   15.37    0.65
   2   2  -1   15.38    0.69
   1   2  -1  421.68   17.91
   0   2  -1    0.01    0.01
  -1   2  -1  211.04    8.96
  -2   2  -1   70.28    2.98
   2  -2   1   69.61    2.80
  -3   2  -1 1000.00   41.76
   3  -2   1  982.29   39.10
   3  -2   1  980.91   39.12
  -4   2  -1  144.07    6.13
   4  -2   1  145.78    5.76
  -5   2  -1   12.75    0.54
   5  -2   1   12.60    0.58
   6  -2   1   13.04    0.62
   7  -2   1    0.08    0.12
   8  -2   1    3.05    0.30
   9  -2   1    3.56    0.34
  10  -2   1    0.37    0.17
  11  -2   1    2.19    0.30
  12  -2   1    1.47    0.29
  13  -2   1    2.76    0.34
  13  -2   1    2.22    0.36
  14  -2   1    1.08    0.31
  14  -2   1    1.12    0.26
  14   1  -1    0.58    0.24
  13   1  -1    0.35    0.22
  12   1  -1    0.71    0.23
  11   1  -1    1.05    0.24
  10   1  -1    4.55    0.38
   9   1  -1    8.42    0.53
   8   1  -1    0.03    0.05
   6   1  -1    2.16    0.14
   6   1  -1    1.49    0.17
   5   1  -1   55.71    2.38
   5   1  -1   55.72    2.28
   3   1  -1  133.17    5.28
   3   1  -1  133.02    5.64
   2   1  -1  317.47   12.63
   2   1  -1  317.15   13.51
   1   1  -1    0.27    0.04
   0   1  -1   -0.95    0.01
  -1   1  -1  290.37   12.33
  -2   1  -1  452.25   19.11
   3  -1   1   28.13    1.16
   4  -1   1  132.96    5.29
   5  -1   1   45.94    1.89
   6  -1   1    0.59    0.12
   7  -1   1    0.04    0.11
   8  -1   1    4.81    0.34
   9  -1   1    1.00    0.20
  10  -1   1   -0.05    0.16
  11  -1   1    3.94    0.41
  12  -1   1   -0.26    0.19
  13  -1   1    0.28    0.24
  14  -1   1    0.17    0.23
  14   0  -1    0.55    0.27
  13   0  -1   -0.18    0.16
  12   0  -1    0.08    0.19
  11   0  -1    0.62    0.22
  10   0  -1    0.40    0.20
   9   0  -1    4.45    0.38
   8   0  -1    0.04    0.06
   7   0  -1    0.13    0.11
   6   0  -1    9.30    0.41
   6   0  -1    8.14    0.45
   5   0  -1   13.43    0.60
   1   0  -1  308.98   13.14
  -1   0  -1    0.05    0.03
   2   0   1   87.70    3.71
   2   0   1   87.08    3.48
   3   0   1   66.53    2.91
   3   0   1   71.10    2.76
   4   0   1    3.31    0.16
   4   0   1    3.21    0.21
   5   0   1    0.01    0.02
   5   0   1   -0.06    0.07
   6   0   1    1.37    0.18
   7   0   1    5.60    0.36
   8   0   1   41.49    1.79
   9   0   1    6.88    0.45
  10   0   1    2.49    0.30
  11   0   1    0.59    0.22
  12   0   1    2.61    0.37
  13   0   1    2.06    0.34
  14   0   1    1.52    0.32
  14  -1  -1    0.52    0.25
  13  -1  -1    1.38    0.28
  12  -1  -1    2.74    0.35
  11  -1  -1    3.13    0.36
  10  -1  -1    1.27    0.24
   9  -1  -1    3.18    0.31
   8  -1  -1    6.90    0.42
   7  -1  -1    1.32    0.19
   6  -1  -1   58.92    2.42
  -6   1   1   58.84    2.51
   5  -1  -1  337.77   13.29
  -5   1   1  333.90   14.24
   4  -1  -1    7.26    0.34
   4  -1  -1    7.21    0.36
   3  -1  -1   49.85    2.19
   3  -1  -1   53.12    2.05
   3  -1  -1   51.60    2.07
  -3   1   1   50.20    2.19
   2  -1  -1  818.61   32.56
  -2   1   1  826.28   34.84
  -1   1   1  164.23    7.00
   0   1   1   33.49    1.45
   1   1   1    3.63    0.19
   2   1   1  352.13   14.98
   3   1   1    7.34    0.35
   4   1   1   91.00    3.71
   4   1   1   83.08    3.51
   5   1   1   26.83    1.16
   5   1   1   26.66    1.15
   6   1   1    0.22    0.06
   6   1   1    0.16    0.12
   7   1   1    7.14    0.42
   8   1   1   16.38    0.82
   9   1   1   16.67    0.84
  10   1   1    5.33    0.43
  11   1   1    0.65    0.20
  12   1   1    3.02    0.40
  13   1   1    1.58    0.33
  14   1   1    0.63    0.29
  14  -2  -1    2.10    0.35
  13  -2  -1    3.88    0.44
  12  -2  -1    3.63    0.41
  11  -2  -1    0.95    0.23
  11  -2  -1    0.76    0.18
  10  -2  -1    0.77    0.21
  10  -2  -1    0.75    0.17
   9  -2  -1    4.61    0.35
   9  -2  -1    4.57    0.32
   8  -2  -1   31.18    1.34
   8  -2  -1   29.56    1.30
   7  -2  -1   50.41    2.05
   7  -2  -1   50.52    2.08
  -7   2   1   48.51    2.14
   6  -2  -1   10.91    0.51
   6  -2  -1    8.83    0.47
  -6   2   1   10.76    0.48
   5  -2  -1   16.65    0.75
   5  -2  -1   17.24    0.73
  -5   2   1   17.02    0.76
   4  -2  -1    7.81    0.39
   4  -2  -1    8.52    0.37
  -4   2   1    8.02    0.39
   3  -2  -1   71.09    2.82
   3  -2  -1   70.14    2.83
  -3   2   1   70.74    3.02
   2  -2  -1    9.97    0.44
  -2   2   1    9.65    0.46
   1  -2  -1   37.72    1.58
  -1   2   1   40.91    1.71
   0   2   1  566.10   24.09
   1   2   1    1.08    0.13
   2   2   1    2.93    0.18
   2   2   1    2.16    0.15
   3   2   1   51.03    2.20
   4   2   1    0.47    0.09
   4   2   1    0.30    0.08
   5   2   1    0.03    0.06
   5   2   1   -0.01    0.03
   7   2   1    0.04    0.05
   8   2   1    3.12    0.31
   9   2   1    0.00    0.15
  10   2   1    0.97    0.24
  11   2   1    1.22    0.26
  12   2   1    0.41    0.21
  13   2   1    0.10    0.23
  14  -3  -1    1.05    0.31
  13  -3  -1    1.19    0.30
  12  -3  -1    2.04    0.33
  11  -3  -1    1.47    0.27
  11  -3  -1    1.08    0.20
  10  -3  -1    7.12    0.47
  10  -3  -1    6.82    0.42
   9  -3  -1   13.15    0.63
   9  -3  -1   11.72    0.65
   8  -3  -1    3.65    0.30
   8  -3  -1    4.24    0.28
   7  -3  -1    5.57    0.33
   7  -3  -1    5.65    0.36
  -7   3   1    5.41    0.31
   6  -3  -1   13.94    0.62
   6  -3  -1   14.00    0.65
  -6   3   1   13.50    0.64
   5  -3  -1    3.68    0.24
  -5   3   1    3.89    0.23
   4  -3  -1   24.51    1.03
   4  -3  -1   24.59    1.02
  -4   3   1   24.15    1.09
   3  -3  -1   14.31    0.60
   3  -3  -1   14.31    0.62
  -3   3   1   13.32    0.65
   2  -3  -1   69.78    2.85
   2  -3  -1   70.52    2.84
  -2   3   1   73.16    3.06
  -1   3   1    0.03    0.06
   0   3   1    7.47    0.40
   1   3   1   41.61    1.82
   2   3   1   40.97    1.80
   3   3   1   -0.01    0.08
   3   3   1    0.15    0.08
   4   3   1    0.59    0.11
   4   3   1    0.55    0.12
   5   3   1    2.98    0.21
   5   3   1    2.81    0.24
   6   3   1    0.31    0.11
   6   3   1    0.26    0.10
   7   3   1   -0.01    0.09
   8   3   1    6.68    0.44
   9   3   1    6.49    0.47
  10   3   1    4.27    0.38
  11   3   1    0.86    0.25
  12   3   1    1.25    0.29
  13   3   1    1.52    0.33
  14  -4  -1    0.99    0.30
  13  -4  -1    0.25    0.23
  12  -4  -1    0.08    0.19
  11  -4  -1   11.51    0.65
  10  -4  -1    4.31    0.36
  10  -4  -1    4.47    0.33
   9  -4  -1   -0.10    0.12
   9  -4  -1    0.24    0.16
   8  -4  -1   13.31    0.63
   8  -4  -1   12.80    0.65
   7  -4  -1   -0.01    0.09
   7  -4  -1    0.16    0.13
  -7   4   1    0.01    0.05
   6  -4  -1   -0.07    0.07
   6  -4  -1   -0.05    0.07
  -6   4   1   -0.11    0.05
   5  -4  -1    0.11    0.07
   5  -4  -1    0.19    0.09
  -5   4   1    0.00    0.07
   4  -4  -1    1.51    0.14
   4  -4  -1    0.75    0.10
  -4   4   1    0.33    0.10
   3  -4  -1   50.98    2.08
   3  -4  -1   51.26    2.07
   2  -4  -1   25.10    1.00
   2  -4  -1   25.75    1.01
  -2   4   1   20.58    1.08
  -1   4   1    6.71    0.37
   0   4   1  212.45    9.04
   1   4   1   10.34    0.53
   2   4   1   16.19    0.76
   2   4   1   15.32    0.71
   3   4   1   18.13    0.86
   3   4   1   17.85    0.81
   4   4   1    2.77    0.22
   4   4   1    2.66    0.22
   5   4   1    0.02    0.10
   5   4   1   -0.16    0.11
   6   4   1    0.17    0.14
   6   4   1    0.22    0.12
   7   4   1    0.82    0.19
   8   4   1   16.66    0.85
   9   4   1    2.39    0.30
  10   4   1    0.33    0.19
  11   4   1    0.09    0.21
  12   4   1    0.20    0.20
  13   4   1    0.58    0.28
  14  -5  -1    3.83    0.44
  13  -5  -1    1.85    0.32
  12  -5  -1    2.07    0.32
  11  -5  -1    1.67    0.27
  10  -5  -1    0.53    0.18
   9  -5  -1    8.26    0.50
   9  -5  -1    8.37    0.46
   8  -5  -1    5.38    0.34
   8  -5  -1    5.63    0.37
   7  -5  -1    5.81    0.34
   7  -5  -1    5.55    0.36
  -7   5   1    5.96    0.36
   6  -5  -1    4.45    0.30
   6  -5  -1    5.20    0.30
  -6   5   1    4.50    0.31
   5  -5  -1   19.80    0.86
   5  -5  -1   19.43    0.85
  -5   5   1   18.84    0.92
   4  -5  -1    4.12    0.24
   4  -5  -1    4.02    0.25
  -4   5   1    3.88    0.29
   3  -5  -1    9.91    0.47
   3  -5  -1    9.70    0.47
  -3   5   1   10.41    0.54
  -2   5   1    3.93    0.28
  -1   5   1    4.06    0.28
   0   5   1    4.48    0.31
   1   5   1    2.08    0.22
   2   5   1   20.91    0.91
   2   5   1   20.14    0.98
   3   5   1    7.26    0.40
   3   5   1    7.27    0.44
   4   5   1   18.10    0.81
   4   5   1   16.47    0.84
   5   5   1    5.52    0.36
   5   5   1    5.51    0.37
   6   5   1    0.26    0.15
   6   5   1   -0.02    0.13
   7   5   1    0.04    0.16
   8   5   1    0.69    0.20
   9   5   1    1.60    0.28
  10   5   1    0.92    0.24
  11   5   1    0.16    0.23
  12   5   1   -0.23    0.22
  14  -6  -1    2.70    0.37
  13  -6  -1    0.62    0.23
  12  -6  -1   -0.01    0.15
  11  -6  -1    0.33    0.18
  10  -6  -1    0.09    0.15
   9  -6  -1    6.87    0.44
   9  -6  -1    7.07    0.42
   8  -6  -1    2.00    0.24
   8  -6  -1    1.98    0.22
   7  -6  -1    0.16    0.13
   7  -6  -1    0.07    0.13
  -7   6   1    0.08    0.13
   6  -6  -1    2.92    0.24
   6  -6  -1    2.68    0.24
  -6   6   1    2.93    0.28
   5  -6  -1    1.56    0.18
   5  -6  -1    1.83    0.19
  -5   6   1    1.59    0.22
   4  -6  -1    0.37    0.11
   4  -6  -1    0.29    0.10
  -4   6   1    0.54    0.16
  -3   6   1    5.00    0.35
  -2   6   1   45.83    2.06
  -1   6   1   40.43    1.83
   0   6   1   21.97    1.06
   1   6   1   19.86    0.97
   2   6   1    1.11    0.17
   2   6   1    1.07    0.19
   3   6   1   18.43    0.92
   3   6   1   18.50    0.86
   4   6   1   27.15    1.21
   4   6   1   27.10    1.28
   5   6   1   20.31    1.00
   5   6   1   20.19    0.96
   6   6   1    0.04    0.14
   6   6   1   -0.09    0.15
   7   6   1    1.85    0.27
   8   6   1    4.90    0.40
   9   6   1    0.97    0.24
  10   6   1    1.06    0.28
  11   6   1    0.04    0.23
  14  -7  -1   -0.21    0.19
  13  -7  -1    0.00    0.19
  12  -7  -1    1.80    0.29
  11  -7  -1   -0.05    0.15
  10  -7  -1    0.32    0.17
   9  -7  -1    1.02    0.20
   8  -7  -1    1.94    0.23
   8  -7  -1    1.47    0.21
   7  -7  -1    0.16    0.12
   7  -7  -1    0.01    0.12
  -7   7   1    0.17    0.16
   6  -7  -1    1.49    0.20
   6  -7  -1    1.98    0.21
  -6   7   1    1.93    0.26
   5  -7  -1    2.63    0.24
   5  -7  -1    2.35    0.23
  -5   7   1    3.00    0.31
   4  -7  -1    2.96    0.25
  -4   7   1    3.49    0.33
  -3   7   1    0.00    0.16
  -2   7   1    3.69    0.35
  -1   7   1    0.48    0.11
   0   7   1    4.11    0.33
   1   7   1    8.26    0.52
   2   7   1   15.85    0.84
   2   7   1   15.65    0.76
   3   7   1    0.15    0.16
   3   7   1   -0.15    0.10
   4   7   1   15.48    0.76
   4   7   1   14.92    0.80
   5   7   1    6.48    0.45
   5   7   1    6.61    0.44
   6   7   1    4.98    0.40
   6   7   1    5.14    0.40
   7   7   1   -0.21    0.16
   8   7   1    0.45    0.21
   9   7   1    0.73    0.26
  10   7   1    2.34    0.36
  11   7   1   -0.04    0.24
  13  -8  -1    1.40    0.30
  12  -8  -1    1.73    0.30
  11  -8  -1    0.19    0.18
  10  -8  -1    0.23    0.16
   9  -8  -1    0.93    0.20
   8  -8  -1    1.72    0.23
   8  -8  -1    1.66    0.23
   7  -8  -1    1.96    0.23
   7  -8  -1    2.17    0.24
  -7   8   1    1.82    0.27
   6  -8  -1    9.38    0.52
   6  -8  -1   10.00    0.52
  -6   8   1    9.35    0.59
   5  -8  -1    5.10    0.34
  -5   8   1    5.25    0.43
  -4   8   1    2.19    0.31
  -3   8   1    0.20    0.20
  -2   8   1    0.86    0.24
  -1   8   1   -0.04    0.05
   0   8   1   20.12    1.05
   1   8   1   20.70    1.06
   2   8   1    2.55    0.27
   2   8   1    2.88    0.33
   3   8   1    0.36    0.18
   3   8   1    0.51    0.15
   4   8   1   -0.10    0.17
   4   8   1    0.02    0.11
   5   8   1    1.30    0.24
   5   8   1    1.15    0.23
   6   8   1    2.72    0.33
   6   8   1    2.31    0.30
   7   8   1    1.27    0.27
   8   8   1    0.08    0.19
   9   8   1    0.26    0.22
  10   8   1    0.46    0.23
  12  -9  -1    0.37    0.21
  11  -9  -1    0.21    0.17
  10  -9  -1    0.54    0.19
   9  -9  -1    0.43    0.17
   8  -9  -1    0.38    0.16
   7  -9  -1    4.21    0.33
   7  -9  -1    4.30    0.34
  -7   9   1    3.99    0.40
   6  -9  -1    6.23    0.39
  -6   9   1    5.25    0.43
  -5   9   1    4.04    0.37
  -4   9   1    0.10    0.20
  -3   9   1   -0.03    0.17
  -2   9   1    7.92    0.55
  -1   9   1    7.32    0.55
   0   9   1    8.52    0.57
   1   9   1    0.21    0.19
   2   9   1    0.22    0.15
   2   9   1    0.18    0.21
   3   9   1    0.05    0.20
   3   9   1   -0.01    0.12
   4   9   1    1.19    0.27
   4   9   1    1.02    0.22
   5   9   1   -0.08    0.18
   5   9   1   -0.11    0.13
   6   9   1    1.12    0.23
   7   9   1    0.02    0.18
   8   9   1    0.42    0.23
   9   9   1    0.51    0.25
   8 -10  -1    0.61    0.18
  -7  10   1   -0.03    0.20
  -6  10   1    0.05    0.21
  -5  10   1    0.09    0.21
  -4  10   1    0.04    0.18
  -3  10   1    0.74    0.26
  -2  10   1    6.20    0.49
  -1  10   1    0.38    0.20
   0  10   1   -0.12    0.17
   1  10   1    2.23    0.35
   2  10   1    0.43    0.22
   2  10   1    0.33    0.17
   3  10   1   -0.08    0.15
   3  10   1    0.35    0.23
   4  10   1    2.57    0.36
   4  10   1    2.05    0.29
   5  10   1    0.08    0.18
   5  10   1    0.28    0.22
   6  10   1    0.08    0.17
   7  10   1    0.09    0.20
   8  10   1    0.23    0.22
  -7  11   1    0.99    0.28
  -6  11   1    0.29    0.24
  -5  11   1    2.60    0.37
  -4  11   1    5.47    0.49
  -3  11   1    0.33    0.22
  -2  11   1    0.09    0.23
  -1  11   1    0.14    0.23
   0  11   1   -0.03    0.22
   1  11   1    0.33    0.22
   1  11   1    0.60    0.19
   2  11   1    1.18    0.29
   2  11   1    1.36    0.25
   3  11   1   -0.12    0.15
   3  11   1    0.29    0.21
   4  11   1    0.63    0.22
   4  11   1    0.10    0.18
   5  11   1    0.07    0.20
   5  11   1    0.14    0.20
   6  11   1   -0.04    0.19
  -7  12   1    1.41    0.33
  -6  12   1    0.80    0.26
  -5  12   1    0.39    0.23
  -4  12   1    1.23    0.29
  -3  12   1    0.40    0.23
  -2  12   1    0.33    0.25
  -1  12   1    0.66    0.27
   0  12   1    0.21    0.23
   1  12   1    0.02    0.24
   2  12   1   -0.09    0.24
   3  12   1    0.36    0.20
   3  12   1    0.32    0.24
   4  12   1   -0.11    0.19
   4  12   1    0.27    0.24
   5  12   1    0.58    0.27
   5  12   1    0.20    0.21
  -7  13   1    0.04    0.22
  -6  13   1    0.08    0.21
  -5  13   1    0.48    0.28
  -4  13   1    0.18    0.23
  -3  13   1   -0.06    0.21
  -2  13   1    0.91    0.30
  -1  13   1    0.15    0.26
   0  13   1    0.06    0.23
   1  13   1    0.32    0.26
   1  14  -2    0.34    0.27
   0  14  -2    0.56    0.24
  -1  14  -2   -0.16    0.22
  -2  14  -2    0.08    0.22
  -3  14  -2   -0.19    0.20
  -4  14  -2    0.47    0.25
  -5  14  -2    0.46    0.24
  -6  14  -2    0.07    0.20
   4  13  -2    0.37    0.25
   3  13  -2    0.62    0.24
   2  13  -2    0.31    0.22
   1  13  -2   -0.01    0.22
   0  13  -2    0.41    0.22
  -1  13  -2    0.52    0.23
  -2  13  -2    0.55    0.24
  -3  13  -2    1.00    0.28
  -4  13  -2   -0.01    0.19
  -5  13  -2    0.52    0.23
  -6  13  -2    0.41    0.24
  -7  13  -2    0.56    0.26
   7 -13   2    0.41    0.23
   8 -13   2    0.31    0.22
   9 -13   2   -0.32    0.20
   6  12  -2    0.28    0.22
   5  12  -2    1.01    0.28
   4  12  -2   -0.14    0.19
   3  12  -2   -0.04    0.21
   2  12  -2    0.12    0.22
   1  12  -2    0.02    0.18
   0  12  -2    0.55    0.22
  -1  12  -2    3.41    0.41
  -2  12  -2   -0.02    0.18
  -3  12  -2    0.37    0.24
  -4  12  -2    2.13    0.32
  -5  12  -2    1.69    0.32
  -6  12  -2    0.03    0.16
   6 -12   2    0.13    0.19
  -7  12  -2    0.19    0.19
   7 -12   2   -0.07    0.15
   8 -12   2   -0.04    0.18
   9 -12   2    0.25    0.21
  10 -12   2    0.09    0.22
   6  11  -2    0.95    0.25
   5  11  -2    0.29    0.19
   4  11  -2    0.24    0.21
   3  11  -2    2.82    0.36
   2  11  -2    0.46    0.22
   1  11  -2   -0.07    0.16
   0  11  -2    2.02    0.31
  -1  11  -2    1.13    0.27
  -2  11  -2    7.79    0.55
  -3  11  -2    5.54    0.45
  -4  11  -2    0.89    0.22
  -5  11  -2   -0.02    0.18
   5 -11   2   -0.03    0.14
  -6  11  -2    2.30    0.31
   6 -11   2    2.37    0.29
  -7  11  -2   -0.02    0.16
   7 -11   2   -0.02    0.14
   8 -11   2    0.39    0.21
   9 -11   2    1.08    0.25
  10 -11   2    1.98    0.32
   9  10  -2   -0.07    0.21
   8  10  -2    1.09    0.26
   7  10  -2    0.14    0.18
   6  10  -2    0.50    0.19
   6  10  -2    0.25    0.17
   5  10  -2    0.63    0.22
   5  10  -2    0.77    0.20
   4  10  -2   -0.05    0.18
   4  10  -2    0.07    0.15
   3  10  -2   16.43    0.82
   3  10  -2   17.76    0.94
   2  10  -2   -0.02    0.12
   2  10  -2   -0.12    0.14
   1  10  -2    3.95    0.40
   0  10  -2    2.03    0.30
  -1  10  -2    0.18    0.19
  -2  10  -2    0.22    0.17
  -3  10  -2    5.97    0.44
  -4  10  -2    0.23    0.16
   4 -10   2   -0.08    0.15
  -5  10  -2    0.11    0.15
   5 -10   2    0.22    0.14
  -6  10  -2    0.38    0.18
   6 -10   2    0.24    0.17
  -7  10  -2    1.56    0.26
   7 -10   2    1.23    0.22
   8 -10   2    2.22    0.29
   9 -10   2    0.99    0.21
  10 -10   2    1.46    0.28
  11 -10   2    0.01    0.20
  10   9  -2    0.07    0.23
   9   9  -2   -0.14    0.19
   8   9  -2   -0.12    0.17
   7   9  -2    0.07    0.17
   6   9  -2    0.10    0.16
   6   9  -2   -0.12    0.11
   5   9  -2    0.82    0.21
   5   9  -2    1.15    0.21
   4   9  -2    0.34    0.16
   4   9  -2    0.18    0.18
   3   9  -2    6.54    0.40
   3   9  -2    6.46    0.46
   2   9  -2    9.83    0.59
   2   9  -2    9.30    0.50
   1   9  -2    7.80    0.43
   1   9  -2    8.42    0.53
  -1   9  -2    5.31    0.40
  -2   9  -2   -0.15    0.13
  -3   9  -2    0.66    0.20
   3  -9   2    0.56    0.16
  -4   9  -2    5.50    0.41
   4  -9   2    4.94    0.36
  -5   9  -2    4.07    0.35
   5  -9   2    3.84    0.31
  -6   9  -2   10.31    0.60
   6  -9   2   10.37    0.57
  -7   9  -2    7.24    0.47
   7  -9   2    6.98    0.46
   8  -9   2    1.46    0.24
   9  -9   2   -0.05    0.15
  10  -9   2   -0.02    0.16
  11  -9   2    1.72    0.29
  12  -9   2    1.90    0.31
  11   8  -2   -0.06    0.18
  10   8  -2   -0.10    0.17
   9   8  -2    0.98    0.26
   8   8  -2    3.76    0.38
   7   8  -2    4.63    0.38
   6   8  -2    1.43    0.22
   6   8  -2    1.15    0.22
   5   8  -2    0.92    0.19
   5   8  -2    1.43    0.23
   4   8  -2    7.05    0.48
   4   8  -2    7.87    0.45
   3   8  -2    1.78    0.20
   3   8  -2    1.79    0.24
   2   8  -2    1.23    0.21
   2   8  -2    0.73    0.14
   1   8  -2    9.21    0.45
   1   8  -2    8.32    0.54
   0   8  -2    0.04    0.03
  -1   8  -2   20.61    1.01
  -2   8  -2   12.14    0.68
   2  -8   2   12.84    0.63
  -3   8  -2    1.50    0.21
   3  -8   2    1.53    0.21
  -4   8  -2   30.75    1.47
   4  -8   2   32.56    1.38
  -5   8  -2   31.01    1.43
   5  -8   2   30.80    1.30
   5  -8   2   30.21    1.35
  -6   8  -2   33.40    1.57
   6  -8   2   34.18    1.44
   6  -8   2   35.02    1.50
   7  -8   2    0.20    0.15
   7  -8   2    0.37    0.12
   8  -8   2    0.25    0.16
   8  -8   2    0.27    0.12
   9  -8   2    0.13    0.14
  10  -8   2   -0.07    0.14
  11  -8   2    1.02    0.23
  12  -8   2    1.82    0.29
  12   7  -2   -0.19    0.21
  11   7  -2   -0.29    0.14
  10   7  -2    0.27    0.21
   9   7  -2    3.76    0.38
   8   7  -2    4.04    0.38
   7   7  -2    5.53    0.39
   7   7  -2    5.46    0.39
   6   7  -2    0.16    0.14
   6   7  -2    0.22    0.14
   5   7  -2    4.48    0.33
   5   7  -2    4.87    0.36
   4   7  -2   11.32    0.57
   4   7  -2   11.13    0.62
   3   7  -2   10.47    0.58
   3   7  -2   10.71    0.53
   2   7  -2    2.15    0.18
   2   7  -2    1.70    0.22
   1   7  -2   15.57    0.81
   1   7  -2   16.44    0.71
   0   7  -2    0.04    0.02
  -1   7  -2   35.00    1.60
  -2   7  -2    2.53    0.23
   2  -7   2    2.89    0.23
  -3   7  -2   11.21    0.61
   3  -7   2   12.27    0.58
  -4   7  -2   16.16    0.82
   4  -7   2   16.84    0.73
   4  -7   2   17.66    0.79
  -5   7  -2    1.47    0.19
   5  -7   2    1.45    0.15
   5  -7   2    1.51    0.20
  -6   7  -2    2.55    0.24
   6  -7   2    2.61    0.25
   6  -7   2    2.91    0.22
   7  -7   2    0.35    0.12
   7  -7   2    0.20    0.14
   8  -7   2    0.62    0.15
   8  -7   2    1.16    0.18
   9  -7   2    2.18    0.27
   9  -7   2    2.17    0.24
  10  -7   2    0.40    0.17
  10  -7   2    0.16    0.14
  11  -7   2    0.11    0.17
  11  -7   2    0.25    0.16
  12  -7   2    0.07    0.17
  12  -7   2    0.36    0.19
  13  -7   2    0.70    0.23
  12   6  -2    0.25    0.23
  11   6  -2    1.62    0.30
  10   6  -2    0.82    0.24
   9   6  -2    1.90    0.29
   8   6  -2    0.11    0.18
   7   6  -2    0.18    0.12
   7   6  -2    0.14    0.13
   6   6  -2    0.09    0.12
   6   6  -2   -0.11    0.10
   5   6  -2    2.48    0.25
   5   6  -2    2.40    0.24
   4   6  -2    0.08    0.10
   4   6  -2    0.16    0.11
   3   6  -2   27.55    1.13
   3   6  -2   25.02    1.22
   2   6  -2    1.12    0.13
   2   6  -2    1.00    0.16
   1   6  -2   29.84    1.27
   1   6  -2   31.54    1.40
  -1   6  -2  129.47    5.53
   1  -6   2  128.15    5.15
  -2   6  -2    9.15    0.49
   2  -6   2    9.15    0.45
  -3   6  -2    1.83    0.17
   3  -6   2    2.02    0.19
   3  -6   2    1.86    0.13
  -4   6  -2    0.16    0.10
   4  -6   2    0.08    0.09
   4  -6   2    0.15    0.07
  -5   6  -2    4.45    0.28
   5  -6   2    3.88    0.24
   5  -6   2    4.10    0.27
  -6   6  -2    2.38    0.20
   6  -6   2    2.53    0.24
   6  -6   2    2.53    0.21
   7  -6   2    3.48    0.27
   7  -6   2    3.47    0.26
   8  -6   2    2.40    0.27
   8  -6   2    2.69    0.26
   9  -6   2    0.48    0.16
   9  -6   2    0.39    0.15
  10  -6   2    0.29    0.15
  10  -6   2    0.18    0.15
  11  -6   2    0.53    0.18
  11  -6   2    0.44    0.17
  12  -6   2    0.09    0.17
  12  -6   2    0.23    0.18
  13  -6   2    2.08    0.32
  13  -6   2    1.65    0.29
  14  -6   2    0.59    0.25
  13   5  -2    0.05    0.25
  12   5  -2    1.41    0.31
  11   5  -2    2.45    0.34
  10   5  -2    0.82    0.22
   9   5  -2    1.46    0.25
   8   5  -2    6.03    0.42
   7   5  -2    1.47    0.23
   7   5  -2    1.89    0.22
   6   5  -2    0.49    0.15
   6   5  -2    0.45    0.13
   5   5  -2    0.11    0.11
   5   5  -2    0.31    0.13
   4   5  -2    2.10    0.18
   4   5  -2    2.17    0.20
   3   5  -2   87.49    3.57
   3   5  -2   89.96    3.83
   2   5  -2    0.06    0.08
   2   5  -2    0.05    0.06
   1   5  -2    3.31    0.18
   1   5  -2    3.27    0.23
  -1   5  -2  128.43    5.49
   2  -5   2    9.83    0.47
   3  -5   2   31.62    1.31
   3  -5   2   30.70    1.27
  -4   5  -2   49.82    2.49
   4  -5   2   62.30    2.36
   4  -5   2   60.97    2.32
  -5   5  -2   16.77    0.77
   5  -5   2   17.11    0.76
   5  -5   2   15.74    0.72
  -6   5  -2   11.52    0.55
   6  -5   2   11.15    0.54
   6  -5   2   11.37    0.56
   7  -5   2    0.88    0.17
   7  -5   2    1.17    0.17
   8  -5   2    0.04    0.11
   8  -5   2    0.20    0.13
   9  -5   2   -0.08    0.11
   9  -5   2    0.02    0.13
  10  -5   2   -0.06    0.11
  10  -5   2   -0.13    0.13
  11  -5   2    0.13    0.16
  11  -5   2    0.21    0.17
  12  -5   2    0.06    0.16
  12  -5   2    0.16    0.17
  13  -5   2    0.37    0.22
  13  -5   2    0.57    0.21
  14  -5   2    0.09    0.20
  14  -5   2    0.53    0.22
  13   4  -2    0.20    0.22
  12   4  -2   -0.22    0.20
  11   4  -2    0.24    0.21
  10   4  -2   -0.03    0.15
   9   4  -2    3.89    0.34
   8   4  -2    4.00    0.33
   7   4  -2    6.37    0.38
   7   4  -2    6.72    0.42
   6   4  -2    0.21    0.11
   6   4  -2    0.18    0.12
   5   4  -2    5.48    0.33
   5   4  -2    5.70    0.33
   4   4  -2    6.96    0.39
   4   4  -2    7.32    0.38
   2   4  -2   85.16    3.31
   2   4  -2   80.40    3.56
   1   4  -2    2.25    0.18
   1   4  -2    2.17    0.14
  -1   4  -2    0.43    0.09
  -3   4  -2   56.40    2.44
   3  -4   2   56.52    2.26
  -4   4  -2  191.81    8.08
   4  -4   2  190.82    7.58
   4  -4   2  189.41    7.55
  -5   4  -2    0.18    0.07
   5  -4   2    0.05    0.08
   5  -4   2   -0.03    0.07
  -6   4  -2   -0.01    0.05
   6  -4   2    0.12    0.10
   6  -4   2    0.13    0.10
   7  -4   2    7.00    0.40
   7  -4   2    7.12    0.42
   8  -4   2   -0.18    0.11
   8  -4   2    0.02    0.12
   9  -4   2    4.59    0.35
   9  -4   2    4.28    0.34
  10  -4   2    1.53    0.24
  10  -4   2    1.20    0.22
  11  -4   2   -0.12    0.14
  11  -4   2   -0.20    0.14
  12  -4   2   -0.16    0.17
  12  -4   2    0.11    0.15
  13  -4   2    0.24    0.19
  13  -4   2    0.01    0.19
  14  -4   2   -0.02    0.19
  14  -4   2    0.33    0.24
  14   3  -2    0.29    0.24
  13   3  -2   -0.11    0.22
  12   3  -2    0.81    0.24
  11   3  -2    0.19    0.17
  10   3  -2    3.01    0.35
   9   3  -2    4.97    0.39
   8   3  -2    0.15    0.14
   7   3  -2   16.57    0.78
   7   3  -2   16.39    0.80
   6   3  -2   12.54    0.62
   6   3  -2   13.02    0.62
   5   3  -2   52.83    2.33
   5   3  -2   54.18    2.21
   4   3  -2   23.84    1.02
   4   3  -2   23.69    1.07
   3   3  -2   30.98    1.31
   3   3  -2   32.45    1.40
   2   3  -2    9.59    0.47
   2   3  -2    9.43    0.42
   1   3  -2  258.66   10.98
   0   3  -2   68.59    2.94
  -1   3  -2  992.83   36.48
   1  -3   2  725.77   33.98
  -2   3  -2   75.13    3.21
  -3   3  -2    0.14    0.06
   3  -3   2    0.03    0.05
   3  -3   2   -0.01    0.04
  -4   3  -2   21.15    0.92
   4  -3   2   20.85    0.88
   4  -3   2   20.58    0.90
  -5   3  -2   17.65    0.79
   5  -3   2   18.40    0.80
   5  -3   2   18.08    0.79
  -6   3  -2   20.48    0.87
   6  -3   2   19.93    0.90
   6  -3   2   20.07    0.89
   7  -3   2   17.82    0.80
   7  -3   2   16.92    0.80
   8  -3   2    0.15    0.12
   8  -3   2    0.30    0.12
   9  -3   2    4.10    0.35
   9  -3   2    4.15    0.33
  10  -3   2    3.20    0.32
  10  -3   2    3.22    0.33
  11  -3   2   -0.18    0.13
  11  -3   2   -0.02    0.14
  12  -3   2   -0.02    0.16
  12  -3   2   -0.01    0.18
  13  -3   2    0.41    0.21
  13  -3   2    0.34    0.22
  14  -3   2    1.24    0.26
  14  -3   2    1.59    0.33
  14   2  -2   -0.39    0.20
  13   2  -2    0.03    0.21
  12   2  -2    0.53    0.23
  11   2  -2    0.12    0.17
  10   2  -2    0.48    0.20
   9   2  -2    2.63    0.30
   8   2  -2    3.01    0.31
   7   2  -2    3.04    0.20
   7   2  -2    3.16    0.26
   6   2  -2    3.84    0.23
   6   2  -2    4.16    0.29
   5   2  -2   12.37    0.57
   5   2  -2   12.02    0.57
   4   2  -2   59.02    2.40
   3   2  -2   70.35    3.02
   3   2  -2   70.52    2.83
   2   2  -2    0.03    0.05
   2   2  -2   -0.02    0.06
   1   2  -2  289.90   12.34
   0   2  -2  642.50   27.29
  -1   2  -2  151.91    6.39
   1  -2   2  149.86    5.97
  -2   2  -2  214.09    9.05
  -3   2  -2    1.17    0.09
   3  -2   2    1.38    0.11
  -4   2  -2   20.44    0.88
   4  -2   2   20.28    0.87
   5  -2   2   -0.07    0.08
   6  -2   2  105.80    4.26
   7  -2   2    4.04    0.29
   8  -2   2    0.79    0.18
   9  -2   2    1.50    0.24
  10  -2   2    0.83    0.21
  11  -2   2   -0.16    0.17
  12  -2   2    2.27    0.33
  13  -2   2    5.93    0.49
  14  -2   2    2.03    0.35
  14  -2   2    1.64    0.31
  14   1  -2    0.50    0.26
  13   1  -2    0.84    0.25
  12   1  -2    1.25    0.27
  11   1  -2    0.19    0.17
  10   1  -2    2.39    0.30
   9   1  -2    4.76    0.37
   7   1  -2   20.87    0.95
   7   1  -2   21.62    0.98
   6   1  -2   13.32    0.62
   6   1  -2   13.50    0.64
   5   1  -2    1.59    0.17
   5   1  -2    1.32    0.12
   3   1  -2   85.93    3.31
   3   1  -2   79.70    3.53
   2   1  -2  578.58   25.07
   2   1  -2  603.75   23.43
   1   1  -2   -0.13    0.04
   0   1  -2    3.12    0.16
  -1   1  -2   95.98    4.07
  -2   1  -2   42.43    1.84
   2  -1   2   43.52    1.73
  -3   1  -2   35.02    1.48
   3  -1   2   34.17    1.42
   4  -1   2  183.43    7.19
   4  -1   2  179.13    7.66
   5  -1   2   33.92    1.42
   6  -1   2   44.44    1.86
   7  -1   2    1.65    0.22
   8  -1   2    4.63    0.34
   9  -1   2    0.45    0.19
  10  -1   2    0.34    0.18
  11  -1   2    2.11    0.31
  12  -1   2    2.35    0.36
  13  -1   2    3.55    0.43
  14  -1   2    0.04    0.21
  14   0  -2    1.07    0.31
  13   0  -2    1.53    0.32
  12   0  -2    0.95    0.24
  11   0  -2    1.01    0.24
  10   0  -2    8.23    0.53
   9   0  -2   19.85    0.96
   8   0  -2   -0.02    0.03
   5   0  -2    8.06    0.39
   3   0  -2   85.61    3.42
   3   0  -2   85.50    3.65
   2   0  -2   18.16    0.81
   2   0  -2   18.18    0.76
   1   0  -2  353.22   14.71
   1   0  -2  337.29   13.67
   0   0  -2    0.03    0.04
  -1   0  -2    0.17    0.06
   2   0   2   17.33    0.75
   2   0   2   16.85    0.72
   3   0   2    2.72    0.18
   3   0   2    2.73    0.16
   4   0   2    1.36    0.10
   4   0   2    1.59    0.16
   5   0   2   20.72    0.89
   5   0   2   19.76    0.87
   6   0   2   21.23    0.95
   6   0   2   21.12    0.91
   7   0   2    0.21    0.14
   8   0   2    1.87    0.27
   9   0   2    2.60    0.31
  10   0   2    1.12    0.24
  11   0   2    0.08    0.19
  12   0   2    0.04    0.20
  13   0   2    0.26    0.21
  14   0   2    0.67    0.31
  14  -1  -2    0.07    0.19
  13  -1  -2    0.19    0.22
  12  -1  -2    0.94    0.26
  11  -1  -2    0.90    0.22
  10  -1  -2    1.79    0.26
   9  -1  -2   19.52    0.94
   8  -1  -2    0.06    0.11
   7  -1  -2    0.77    0.15
  -7   1   2    0.93    0.11
   6  -1  -2   60.71    2.48
   6  -1  -2   60.05    2.60
   5  -1  -2    4.52    0.28
   5  -1  -2    4.72    0.25
   4  -1  -2    5.62    0.29
   4  -1  -2    5.70    0.26
   3  -1  -2   24.08    1.06
   2  -1  -2    0.22    0.07
   1  -1  -2   50.60    1.97
  -1   1   2   40.71    1.96
   0   1   2  355.36   15.20
   1   1   2    0.97    0.10
   2   1   2  177.00    7.32
   2   1   2  168.28    6.84
   3   1   2   66.71    2.74
   3   1   2   68.99    2.91
   4   1   2    1.57    0.16
   4   1   2    1.21    0.12
   5   1   2   11.34    0.54
   5   1   2   10.65    0.51
   6   1   2    6.24    0.31
   6   1   2    6.16    0.38
   7   1   2    0.35    0.15
   8   1   2   15.74    0.78
   9   1   2    6.09    0.44
  10   1   2    2.65    0.32
  11   1   2   -0.16    0.15
  12   1   2    1.53    0.29
  13   1   2    2.80    0.39
  14  -2  -2    0.74    0.26
  13  -2  -2    3.18    0.40
  12  -2  -2    8.29    0.57
  11  -2  -2   -0.12    0.14
  10  -2  -2    0.75    0.20
   9  -2  -2    0.51    0.19
   9  -2  -2    0.78    0.15
   8  -2  -2   46.65    2.02
   8  -2  -2   48.39    1.97
   7  -2  -2   22.09    0.97
   7  -2  -2   21.45    0.92
  -7   2   2   20.37    0.96
   6  -2  -2   16.66    0.79
  -6   2   2   18.16    0.80
   5  -2  -2   19.14    0.80
   5  -2  -2   18.47    0.84
  -5   2   2   19.12    0.86
   4  -2  -2    4.38    0.22
   4  -2  -2    4.34    0.25
  -4   2   2    4.41    0.25
   3  -2  -2  169.43    6.75
   3  -2  -2  177.99    6.72
  -3   2   2  162.24    7.21
   2  -2  -2    0.80    0.10
  -2   2   2    0.73    0.10
  -1   2   2    0.65    0.09
   0   2   2  163.95    6.97
   1   2   2  151.12    6.43
   2   2   2    0.06    0.08
   3   2   2   52.38    2.27
   4   2   2   12.31    0.59
   5   2   2    3.02    0.20
   5   2   2    2.03    0.22
   6   2   2    9.83    0.49
   7   2   2   -0.02    0.07
   8   2   2    3.99    0.37
   9   2   2    4.83    0.38
  10   2   2    0.28    0.17
  11   2   2    0.24    0.18
  12   2   2    0.45    0.22
  13   2   2    1.20    0.32
  14  -3  -2    1.78    0.35
  13  -3  -2   12.39    0.77
  12  -3  -2    5.62    0.47
  11  -3  -2    1.37    0.26
  10  -3  -2    2.30    0.29
   9  -3  -2   10.45    0.54
   9  -3  -2   10.57    0.58
   8  -3  -2    5.28    0.32
   8  -3  -2    5.58    0.37
   7  -3  -2    6.90    0.36
   7  -3  -2    6.90    0.40
   5  -3  -2    3.23    0.19
   5  -3  -2    3.58    0.23
   4  -3  -2   15.48    0.70
   4  -3  -2   15.84    0.67
   3  -3  -2    0.04    0.07
   3  -3  -2    0.08    0.05
  -3   3   2    0.04    0.06
  -1   3   2    0.00    0.03
   0   3   2   98.76    4.24
   1   3   2   83.99    3.62
   2   3   2   19.52    0.91
   3   3   2    0.98    0.14
   3   3   2    0.84    0.13
   4   3   2    4.01    0.26
   4   3   2    4.08    0.27
   5   3   2    0.11    0.10
   5   3   2   -0.02    0.08
   6   3   2    1.33    0.17
   7   3   2    2.12    0.26
   8   3   2    1.68    0.26
   9   3   2   -0.08    0.17
  10   3   2    4.09    0.42
  11   3   2   -0.03    0.20
  12   3   2    0.82    0.25
  13   3   2    0.68    0.27
  14  -4  -2    0.85    0.29
  13  -4  -2    5.83    0.48
  12  -4  -2    1.51    0.27
  11  -4  -2    4.12    0.41
  10  -4  -2    1.43    0.25
   9  -4  -2    0.63    0.18
   8  -4  -2    0.65    0.14
   8  -4  -2    0.81    0.18
   7  -4  -2    5.36    0.30
   7  -4  -2    5.19    0.34
  -7   4   2    5.23    0.34
   6  -4  -2   16.90    0.75
   6  -4  -2   17.83    0.79
  -6   4   2   16.69    0.82
   5  -4  -2   12.24    0.58
  -5   4   2   11.86    0.60
   4  -4  -2    8.09    0.39
   4  -4  -2    8.54    0.43
  -4   4   2    8.92    0.46
   3  -4  -2   14.05    0.64
   3  -4  -2   14.61    0.67
  -3   4   2   15.87    0.73
  -2   4   2    5.01    0.32
  -1   4   2    0.35    0.07
   0   4   2    0.20    0.12
   1   4   2    0.31    0.12
   2   4   2   26.57    1.23
   3   4   2    1.20    0.17
   3   4   2    1.17    0.18
   4   4   2    1.72    0.21
   4   4   2    1.89    0.21
   5   4   2    2.49    0.24
   5   4   2    2.61    0.26
   6   4   2   10.60    0.58
   6   4   2   10.11    0.55
   7   4   2   17.85    0.89
   8   4   2   19.24    0.96
   9   4   2    0.47    0.20
  10   4   2    0.08    0.15
  11   4   2   -0.02    0.18
  12   4   2    0.36    0.21
  14  -5  -2    0.35    0.22
  13  -5  -2    0.28    0.19
  12  -5  -2    4.33    0.43
  11  -5  -2   -0.02    0.17
  10  -5  -2    0.02    0.15
   9  -5  -2    0.68    0.18
   8  -5  -2    0.18    0.12
   8  -5  -2    0.55    0.16
   7  -5  -2    5.54    0.36
   7  -5  -2    5.01    0.32
  -7   5   2    5.16    0.36
   6  -5  -2   14.63    0.72
   6  -5  -2   15.20    0.69
  -6   5   2   15.62    0.77
   5  -5  -2    0.09    0.09
   5  -5  -2    0.06    0.10
  -5   5   2    0.18    0.13
   4  -5  -2    5.47    0.29
   4  -5  -2    5.60    0.32
  -4   5   2    5.08    0.35
   3  -5  -2    9.48    0.47
  -3   5   2    9.53    0.52
  -2   5   2   16.83    0.83
  -1   5   2    0.13    0.05
   0   5   2    8.07    0.47
   1   5   2   16.45    0.82
   2   5   2   10.93    0.59
   3   5   2    6.69    0.41
   3   5   2    6.28    0.39
   4   5   2   16.08    0.78
   4   5   2   16.65    0.83
   5   5   2    0.03    0.15
   5   5   2    0.30    0.16
   6   5   2    3.12    0.32
   6   5   2    2.72    0.28
   7   5   2    4.68    0.38
   8   5   2    0.29    0.19
   9   5   2    0.00    0.18
  10   5   2    0.08    0.19
  11   5   2    0.29    0.25
  12   5   2    0.48    0.27
  14  -6  -2    1.59    0.32
  13  -6  -2    1.77    0.31
  12  -6  -2    0.84    0.24
  11  -6  -2    0.05    0.14
  10  -6  -2    3.33    0.34
   9  -6  -2    5.62    0.40
   8  -6  -2    0.87    0.19
   7  -6  -2    0.49    0.14
   7  -6  -2    0.71    0.17
  -7   6   2    0.62    0.19
   6  -6  -2    0.08    0.10
   6  -6  -2   -0.01    0.09
  -6   6   2    0.02    0.16
   5  -6  -2    0.78    0.15
   5  -6  -2    0.46    0.12
  -5   6   2    0.94    0.20
   4  -6  -2    1.86    0.20
  -4   6   2    1.95    0.26
  -3   6   2    0.30    0.15
  -2   6   2    3.05    0.28
  -1   6   2   -0.04    0.03
   0   6   2   25.51    1.22
   1   6   2    0.97    0.20
   2   6   2    1.75    0.26
   3   6   2    3.52    0.30
   3   6   2    3.74    0.35
   4   6   2   25.23    1.20
   4   6   2   24.07    1.12
   5   6   2    1.68    0.25
   5   6   2    1.56    0.24
   6   6   2    2.61    0.29
   6   6   2    2.81    0.33
   7   6   2    1.31    0.24
   8   6   2    0.03    0.18
   9   6   2   -0.14    0.15
  10   6   2    0.43    0.24
  11   6   2   -0.05    0.23
  12  -7  -2   -0.13    0.14
  11  -7  -2    0.25    0.18
  10  -7  -2    1.82    0.27
   9  -7  -2    1.60    0.25
   8  -7  -2    5.63    0.39
   7  -7  -2    0.46    0.16
  -7   7   2    0.55    0.19
   6  -7  -2    0.04    0.11
   6  -7  -2    0.19    0.11
  -6   7   2   -0.19    0.16
   5  -7  -2   -0.16    0.11
  -5   7   2    0.05    0.18
  -4   7   2    3.36    0.32
  -3   7   2   13.84    0.75
  -2   7   2    2.51    0.29
  -1   7   2   -0.05    0.04
   0   7   2    7.02    0.48
   1   7   2    2.77    0.32
   2   7   2   19.51    1.02
   3   7   2   34.95    1.52
   3   7   2   33.94    1.63
   4   7   2    0.23    0.16
   4   7   2    0.13    0.15
   5   7   2    1.73    0.25
   5   7   2    2.15    0.27
   6   7   2    0.01    0.14
   7   7   2    0.40    0.19
   8   7   2   -0.08    0.18
   9   7   2    1.26    0.30
  10   7   2    0.14    0.23
  13  -8  -2   -0.10    0.16
  12  -8  -2    0.88    0.26
  11  -8  -2    0.01    0.16
  10  -8  -2    0.05    0.16
   9  -8  -2    0.00    0.14
   8  -8  -2    0.32    0.16
  -8   8   2    0.35    0.21
   7  -8  -2    1.72    0.24
  -7   8   2    1.78    0.27
   6  -8  -2    2.77    0.28
  -6   8   2    2.82    0.34
  -5   8   2    0.37    0.18
  -4   8   2    5.51    0.43
  -3   8   2    9.97    0.62
  -2   8   2    2.40    0.32
  -1   8   2    0.18    0.20
   0   8   2   16.59    0.92
   1   8   2    9.86    0.63
   2   8   2    3.31    0.32
   2   8   2    3.11    0.36
   3   8   2   -0.04    0.14
   3   8   2    0.02    0.17
   4   8   2   -0.08    0.14
   4   8   2   -0.08    0.18
   5   8   2    0.43    0.22
   5   8   2    0.78    0.22
   6   8   2    0.69    0.21
   7   8   2   -0.06    0.15
   8   8   2    0.37    0.23
   9   8   2   -0.07    0.18
  12  -9  -2    1.71    0.30
  11  -9  -2    0.03    0.18
  10  -9  -2   -0.21    0.14
   9  -9  -2    1.03    0.23
   8  -9  -2    0.59    0.20
  -8   9   2    0.50    0.22
   7  -9  -2    0.18    0.15
  -7   9   2   -0.04    0.19
  -6   9   2    8.44    0.57
  -5   9   2    3.97    0.43
  -4   9   2    5.78    0.47
  -3   9   2    1.23    0.26
  -2   9   2    1.33    0.27
  -1   9   2   13.57    0.80
   0   9   2    9.44    0.63
   1   9   2   -0.16    0.18
   2   9   2    1.14    0.29
   2   9   2    0.84    0.19
   3   9   2    0.22    0.15
   3   9   2    0.43    0.21
   4   9   2   -0.07    0.13
   4   9   2   -0.01    0.17
   5   9   2    0.16    0.18
   5   9   2   -0.16    0.19
   6   9   2    0.48    0.20
   7   9   2    0.04    0.20
   8   9   2    0.35    0.25
  10 -10  -2    0.03    0.17
   9 -10  -2    1.21    0.25
  -8  10   2    0.31    0.25
  -7  10   2    0.97    0.28
  -6  10   2    9.44    0.64
  -5  10   2    1.70    0.32
  -4  10   2    0.02    0.19
  -3  10   2    2.71    0.37
  -2  10   2    0.67    0.24
  -1  10   2    0.41    0.21
   0  10   2    1.17    0.30
   1  10   2    0.66    0.25
   2  10   2   -0.03    0.15
   2  10   2   -0.12    0.23
   3  10   2    0.55    0.26
   3  10   2    0.38    0.19
   4  10   2    0.16    0.17
   4  10   2    0.06    0.22
   5  10   2    0.46    0.24
   5  10   2    0.45    0.23
   6  10   2    0.15    0.21
   7  10   2    0.54    0.25
  -7  11   2    2.28    0.36
  -6  11   2    0.40    0.22
  -5  11   2    1.17    0.32
  -4  11   2    3.21    0.42
  -3  11   2   -0.01    0.20
  -2  11   2    0.28    0.26
  -1  11   2    1.07    0.29
   0  11   2   -0.14    0.19
   1  11   2    1.15    0.32
   1  11   2    1.00    0.23
   2  11   2   -0.09    0.15
   2  11   2    0.00    0.24
   3  11   2    0.11    0.16
   3  11   2    0.21    0.25
   4  11   2    0.27    0.21
   4  11   2    0.80    0.31
   5  11   2    0.06    0.21
   5  11   2    0.16    0.24
   6  11   2   -0.31    0.18
  -7  12   2   -0.11    0.24
  -6  12   2    0.17    0.25
  -5  12   2    0.73    0.27
  -4  12   2    2.26    0.39
  -3  12   2   -0.32    0.23
  -2  12   2    0.01    0.22
  -1  12   2    0.26    0.26
   0  12   2    0.84    0.28
   1  12   2   -0.08    0.25
   1  12   2    0.22    0.19
   2  12   2    0.13    0.18
   2  12   2    0.07    0.27
   3  12   2    0.31    0.21
   3  12   2    0.01    0.23
   4  12   2   -0.08    0.19
  -7  13   2    0.52    0.30
  -6  13   2    0.34    0.29
  -5  13   2   -0.14    0.26
  -4  13   2    0.50    0.27
  -3  13   2    0.57    0.28
  -3  15  -3    0.20    0.23
  -4  15  -3    0.30    0.28
  -5  15  -3    0.29    0.22
  -6  15  -3    0.41    0.24
   2  14  -3    0.38    0.23
   1  14  -3    0.14    0.22
   0  14  -3    0.05    0.22
  -1  14  -3    0.05    0.23
  -2  14  -3    0.77    0.26
  -3  14  -3    0.01    0.22
  -4  14  -3    2.09    0.35
  -5  14  -3    0.62    0.27
  -6  14  -3    0.15    0.20
   8 -14   3   -0.10    0.22
   9 -14   3    0.28    0.24
   6  13  -3    0.23    0.23
   5  13  -3    0.35    0.25
   4  13  -3   -0.08    0.18
   3  13  -3   -0.17    0.19
   2  13  -3    0.65    0.23
   1  13  -3    1.12    0.27
   0  13  -3    0.46    0.21
  -1  13  -3    1.19    0.28
  -2  13  -3    0.07    0.18
  -3  13  -3    0.55    0.23
  -4  13  -3    0.06    0.18
  -5  13  -3    0.11    0.21
  -6  13  -3   -0.05    0.18
   6 -13   3    0.08    0.18
   7 -13   3    0.48    0.22
   8 -13   3   -0.01    0.21
   9 -13   3   -0.11    0.23
  10 -13   3    0.16    0.24
   6  12  -3    0.63    0.25
   5  12  -3    0.82    0.26
   4  12  -3   -0.18    0.17
   3  12  -3    0.01    0.16
   2  12  -3    2.38    0.36
   1  12  -3    0.20    0.18
   0  12  -3    3.81    0.43
  -1  12  -3    0.81    0.24
  -2  12  -3    0.34    0.20
  -3  12  -3    0.44    0.22
  -4  12  -3    0.08    0.20
  -5  12  -3    0.25    0.20
   5 -12   3    0.37    0.18
  -6  12  -3    0.59    0.19
   6 -12   3    0.41    0.19
   7 -12   3    0.15    0.20
   8 -12   3    0.11    0.20
   9 -12   3   -0.26    0.19
  10 -12   3   -0.03    0.21
  11 -12   3    0.12    0.23
   6  11  -3    0.00    0.15
   5  11  -3    0.35    0.18
   4  11  -3    0.08    0.16
   3  11  -3    0.82    0.23
   2  11  -3   -0.23    0.14
   1  11  -3    3.61    0.39
   0  11  -3    2.92    0.34
  -1  11  -3    0.30    0.18
  -2  11  -3    5.63    0.45
  -3  11  -3    0.39    0.19
  -4  11  -3   -0.04    0.17
   4 -11   3    0.17    0.17
  -5  11  -3    2.98    0.34
   5 -11   3    2.65    0.31
  -6  11  -3    1.72    0.27
   6 -11   3    1.05    0.22
   7 -11   3    0.02    0.15
   8 -11   3    0.06    0.16
   9 -11   3    0.39    0.19
  10 -11   3    1.92    0.32
  11 -11   3    0.76    0.27
  12 -11   3    0.74    0.27
   9  10  -3    0.19    0.22
   8  10  -3    0.48    0.22
   7  10  -3    1.00    0.23
   6  10  -3   -0.02    0.17
   6  10  -3   -0.01    0.14
   5  10  -3    1.35    0.23
   5  10  -3    1.60    0.27
   4  10  -3    7.13    0.50
   3  10  -3    7.84    0.53
   2  10  -3    0.28    0.18
   1  10  -3    0.85    0.21
   0  10  -3    1.17    0.25
  -1  10  -3    0.42    0.18
  -2  10  -3    5.68    0.43
  -3  10  -3    4.60    0.40
   3 -10   3    4.27    0.36
  -4  10  -3    3.25    0.35
   4 -10   3    4.07    0.35
  -5  10  -3   12.61    0.72
   5 -10   3   12.58    0.68
  -6  10  -3    3.34    0.34
   6 -10   3    2.91    0.32
   7 -10   3    0.97    0.23
   8 -10   3   -0.06    0.14
   9 -10   3    1.95    0.30
  10 -10   3    1.97    0.31
  11 -10   3    0.96    0.27
  12 -10   3    0.98    0.28
  10   9  -3    0.08    0.21
   9   9  -3    0.27    0.21
   8   9  -3    1.51    0.28
   7   9  -3    0.34    0.18
   7   9  -3    0.58    0.20
   6   9  -3    0.35    0.17
   6   9  -3    0.07    0.13
   5   9  -3    1.69    0.23
   5   9  -3    2.38    0.30
   4   9  -3    5.18    0.40
   4   9  -3    5.94    0.38
   3   9  -3   10.56    0.54
   3   9  -3    9.97    0.62
   2   9  -3    0.68    0.19
   2   9  -3    0.68    0.14
   1   9  -3    2.82    0.32
   0   9  -3    0.09    0.05
  -1   9  -3    3.49    0.34
  -2   9  -3   -0.05    0.13
   2  -9   3    0.45    0.16
  -3   9  -3    8.26    0.50
   3  -9   3    7.29    0.45
  -4   9  -3    2.05    0.27
   4  -9   3    1.63    0.22
  -5   9  -3    2.29    0.28
   5  -9   3    2.52    0.28
  -6   9  -3    1.19    0.21
   6  -9   3    1.28    0.23
   7  -9   3    1.65    0.25
   8  -9   3    3.28    0.34
   9  -9   3    2.85    0.33
  10  -9   3    0.28    0.18
  11  -9   3    0.18    0.19
  12  -9   3   -0.32    0.16
  13  -9   3    0.54    0.24
  11   8  -3    0.06    0.21
  10   8  -3    0.13    0.20
   9   8  -3   -0.02    0.17
   8   8  -3    0.05    0.17
   7   8  -3    4.24    0.36
   7   8  -3    3.77    0.37
   6   8  -3    2.14    0.26
   6   8  -3    2.19    0.27
   5   8  -3    0.38    0.15
   5   8  -3    0.09    0.14
   4   8  -3    0.99    0.17
   4   8  -3    0.29    0.15
   3   8  -3    0.07    0.10
   3   8  -3    0.02    0.14
   2   8  -3    0.02    0.12
   2   8  -3    0.06    0.09
   1   8  -3    2.56    0.19
   0   8  -3   10.33    0.53
   0   8  -3    8.42    0.42
  -1   8  -3   17.60    0.89
  -2   8  -3    1.03    0.20
   2  -8   3    1.15    0.18
  -3   8  -3    1.57    0.22
   3  -8   3    1.27    0.19
  -4   8  -3   15.75    0.80
   4  -8   3   15.40    0.75
  -5   8  -3    5.53    0.38
   5  -8   3    5.78    0.39
  -6   8  -3    2.45    0.25
   6  -8   3    1.61    0.22
   7  -8   3    2.42    0.27
   8  -8   3    3.12    0.31
   9  -8   3    1.26    0.21
  10  -8   3    0.12    0.16
  11  -8   3    1.11    0.22
  12  -8   3    1.54    0.29
  13  -8   3    1.21    0.29
  12   7  -3   -0.18    0.21
  11   7  -3    0.12    0.22
  10   7  -3    0.12    0.15
   9   7  -3    2.34    0.32
   8   7  -3    3.62    0.35
   7   7  -3    7.94    0.50
   7   7  -3    7.96    0.50
   6   7  -3    0.60    0.17
   6   7  -3    0.85    0.17
   5   7  -3   -0.04    0.11
   5   7  -3    0.22    0.13
   4   7  -3    1.62    0.19
   4   7  -3    1.54    0.23
   3   7  -3    4.04    0.25
   3   7  -3    3.19    0.28
   2   7  -3    0.25    0.09
   2   7  -3    0.30    0.12
   1   7  -3   14.37    0.64
   1   7  -3   15.25    0.75
   0   7  -3  100.15    4.35
   0   7  -3  100.75    4.00
  -2   7  -3   -0.08    0.10
   2  -7   3   -0.03    0.10
  -3   7  -3    0.66    0.14
   3  -7   3    0.69    0.14
  -4   7  -3    9.33    0.52
   4  -7   3    9.90    0.52
   4  -7   3    9.99    0.44
  -5   7  -3   26.04    1.22
   5  -7   3   26.79    1.18
   5  -7   3   26.72    1.11
  -6   7  -3   30.15    1.37
   6  -7   3   30.96    1.27
   6  -7   3   28.87    1.31
   7  -7   3    0.10    0.10
   7  -7   3    0.08    0.13
   8  -7   3    1.52    0.20
   8  -7   3    1.35    0.22
   9  -7   3    0.29    0.14
   9  -7   3    0.27    0.15
  10  -7   3    0.21    0.17
  11  -7   3    1.48    0.26
  12  -7   3    0.74    0.22
  13  -7   3   -0.24    0.16
  14  -7   3    0.72    0.26
  12   6  -3   -0.05    0.19
  11   6  -3    0.23    0.22
  10   6  -3    0.52    0.22
   9   6  -3    2.10    0.29
   8   6  -3    7.91    0.50
   7   6  -3    3.37    0.30
   7   6  -3    4.02    0.31
   6   6  -3   -0.17    0.11
   6   6  -3    0.16    0.15
   5   6  -3    0.36    0.12
   5   6  -3    0.30    0.13
   4   6  -3    0.68    0.14
   4   6  -3    0.51    0.13
   3   6  -3   37.75    1.57
   3   6  -3   37.84    1.71
   2   6  -3    0.17    0.06
   2   6  -3    0.27    0.11
   1   6  -3    1.47    0.17
   1   6  -3    1.09    0.11
   0   6  -3    4.61    0.31
   0   6  -3    4.93    0.23
   0  -6   3    4.60    0.28
  -1   6  -3   53.04    2.34
   2  -6   3    7.08    0.37
  -3   6  -3    0.19    0.10
   3  -6   3    0.17    0.05
   3  -6   3    0.23    0.10
  -4   6  -3   11.27    0.56
   4  -6   3   11.08    0.49
   4  -6   3   10.47    0.53
  -5   6  -3   31.96    1.48
   5  -6   3   34.06    1.43
   5  -6   3   33.99    1.38
   6  -6   3   31.81    1.35
   6  -6   3   32.26    1.39
   7  -6   3    3.40    0.25
   7  -6   3    3.36    0.28
   8  -6   3    2.66    0.26
   8  -6   3    2.37    0.27
   9  -6   3    5.73    0.39
   9  -6   3    5.77    0.39
  10  -6   3    0.04    0.14
  10  -6   3    0.27    0.16
  11  -6   3    0.30    0.18
  11  -6   3    0.19    0.17
  12  -6   3    0.25    0.19
  12  -6   3    0.30    0.19
  13  -6   3    0.80    0.24
  13  -6   3    0.51    0.21
  14  -6   3   -0.02    0.18
  13   5  -3   -0.21    0.22
  12   5  -3    0.66    0.26
  11   5  -3    3.37    0.40
  10   5  -3    0.24    0.17
   9   5  -3    0.17    0.17
   8   5  -3    0.71    0.18
   7   5  -3    1.32    0.20
   7   5  -3    1.22    0.19
   6   5  -3    0.66    0.14
   6   5  -3    0.81    0.17
   5   5  -3    4.39    0.29
   5   5  -3    4.52    0.30
   4   5  -3   39.23    1.78
   4   5  -3   40.59    1.67
   3   5  -3   10.85    0.56
   2   5  -3   22.88    0.96
   2   5  -3   23.16    1.07
   1   5  -3    4.06    0.21
   1   5  -3    4.54    0.27
   0   5  -3   34.47    1.57
   0  -5   3   36.07    1.46
  -1   5  -3    2.61    0.20
   1  -5   3    3.26    0.20
   2  -5   3   -0.01    0.03
   3  -5   3    2.53    0.19
   3  -5   3    2.25    0.13
  -4   5  -3   68.48    2.98
   4  -5   3   69.65    2.76
   4  -5   3   68.90    2.81
  -5   5  -3   33.80    1.49
   5  -5   3   34.38    1.44
   5  -5   3   33.23    1.40
  -6   5  -3    2.72    0.18
   6  -5   3    2.37    0.19
   6  -5   3    2.43    0.23
   7  -5   3   13.96    0.71
   7  -5   3   15.22    0.69
   8  -5   3    2.49    0.26
   8  -5   3    2.81    0.26
   9  -5   3    0.34    0.16
   9  -5   3    0.44    0.17
  10  -5   3    0.00    0.14
  10  -5   3    0.19    0.15
  11  -5   3   -0.05    0.13
  11  -5   3    0.01    0.15
  12  -5   3    1.02    0.24
  12  -5   3    0.73    0.22
  13  -5   3    1.88    0.31
  13  -5   3    1.61    0.29
  14  -5   3    0.82    0.25
  14  -5   3    1.02    0.27
  13   4  -3    0.44    0.23
  12   4  -3   -0.12    0.18
  11   4  -3    2.61    0.34
  10   4  -3    0.03    0.16
   9   4  -3    0.58    0.18
   8   4  -3    0.81    0.20
   7   4  -3    6.79    0.40
   7   4  -3    6.88    0.43
   6   4  -3    0.31    0.12
   6   4  -3    0.50    0.12
   5   4  -3   -0.04    0.08
   5   4  -3    0.07    0.09
   4   4  -3    0.01    0.09
   4   4  -3    0.18    0.09
   3   4  -3   14.86    0.63
   3   4  -3   10.64    0.55
   2   4  -3    0.18    0.07
   2   4  -3    0.07    0.07
   1   4  -3    8.72    0.44
   0   4  -3   -0.01    0.04
   0  -4   3   -0.01    0.06
  -1   4  -3   79.86    3.37
   1  -4   3   76.82    3.15
   2  -4   3   58.97    2.39
  -3   4  -3   32.85    1.41
   3  -4   3   31.53    1.30
  -4   4  -3   37.87    1.68
   4  -4   3   39.35    1.57
   4  -4   3   38.52    1.61
  -5   4  -3   15.94    0.73
   5  -4   3   16.00    0.74
   5  -4   3   16.38    0.71
  -6   4  -3   17.90    0.82
   6  -4   3   19.00    0.86
   6  -4   3   18.69    0.82
   7  -4   3    0.98    0.17
   7  -4   3    0.93    0.18
   8  -4   3    0.27    0.15
   8  -4   3    0.08    0.14
   9  -4   3    9.93    0.57
   9  -4   3   10.88    0.60
  10  -4   3    1.37    0.23
  10  -4   3    1.52    0.24
  11  -4   3   -0.01    0.16
  11  -4   3    0.30    0.18
  12  -4   3    1.16    0.25
  12  -4   3    0.92    0.21
  13  -4   3    1.10    0.27
  13  -4   3    1.80    0.31
  14  -4   3    1.42    0.31
  14  -4   3    0.87    0.24
  14   3  -3    0.07    0.25
  13   3  -3    0.29    0.23
  12   3  -3    0.23    0.19
  11   3  -3    0.53    0.24
  10   3  -3    0.18    0.17
   9   3  -3    3.89    0.37
   8   3  -3   11.91    0.64
   7   3  -3   13.61    0.67
   7   3  -3   14.22    0.70
   6   3  -3    1.67    0.17
   6   3  -3    1.75    0.20
   5   3  -3   20.25    0.90
   5   3  -3   20.13    0.93
   4   3  -3   18.93    0.87
   4   3  -3   18.38    0.82
   3   3  -3   23.71    1.08
   3   3  -3   24.14    1.00
   2   3  -3    3.87    0.23
   2   3  -3    3.76    0.20
   1   3  -3   42.35    1.86
  -1  -3   3   43.01    1.72
   0   3  -3   -0.03    0.07
   0  -3   3    0.04    0.05
  -1   3  -3  361.36   14.74
   1  -3   3  335.90   13.76
  -2   3  -3    0.46    0.08
   2  -3   3    0.48    0.08
  -3   3  -3  119.58    5.06
   3  -3   3  118.85    4.73
  -4   3  -3   36.53    1.56
   4  -3   3   35.70    1.48
  -5   3  -3   21.16    0.92
   5  -3   3   21.37    0.93
   5  -3   3   20.46    0.90
   6  -3   3    1.08    0.15
   6  -3   3    1.14    0.16
   7  -3   3    1.35    0.18
   7  -3   3    1.53    0.20
   8  -3   3    2.37    0.26
   8  -3   3    3.20    0.29
   9  -3   3   22.18    1.04
   9  -3   3   21.77    1.03
  10  -3   3   -0.01    0.14
  10  -3   3    0.16    0.15
  11  -3   3    1.24    0.23
  11  -3   3    0.88    0.20
  12  -3   3    0.03    0.19
  12  -3   3    0.22    0.16
  13  -3   3    0.15    0.20
  13  -3   3    0.28    0.22
  14  -3   3    0.14    0.23
  14  -3   3    0.02    0.21
  14   2  -3   -0.06    0.22
  13   2  -3    0.56    0.23
  12   2  -3    0.15    0.18
  11   2  -3    0.83    0.22
  10   2  -3    8.54    0.54
   9   2  -3   15.31    0.79
   8   2  -3    0.10    0.14
   7   2  -3    1.14    0.14
   7   2  -3    1.00    0.19
   6   2  -3    3.50    0.22
   6   2  -3    3.16    0.25
   5   2  -3    3.41    0.25
   5   2  -3    4.16    0.24
   4   2  -3   19.94    0.97
   4   2  -3   25.59    1.03
   3   2  -3    3.51    0.21
   3   2  -3    3.50    0.20
   2   2  -3    9.44    0.41
   2   2  -3    9.03    0.45
   1   2  -3    2.96    0.19
   0   2  -3   79.20    3.35
   0  -2   3   77.43    3.11
  -1   2  -3    0.81    0.09
   1  -2   3    1.04    0.10
  -2   2  -3   23.45    1.04
   2  -2   3   23.20    0.99
   2  -2   3   24.46    0.97
  -3   2  -3    0.81    0.08
   3  -2   3    0.94    0.10
  -4   2  -3    2.74    0.15
   4  -2   3    2.49    0.18
  -5   2  -3    1.76    0.11
   5  -2   3    1.61    0.16
   6  -2   3    7.73    0.42
   7  -2   3    0.07    0.11
   8  -2   3    0.87    0.19
   9  -2   3   15.13    0.76
  10  -2   3    4.73    0.37
  11  -2   3    0.32    0.18
  12  -2   3    1.12    0.25
  13  -2   3    1.26    0.30
  14  -2   3    0.58    0.27
  14  -2   3    0.49    0.24
  14   1  -3    0.01    0.19
  13   1  -3    0.05    0.18
  12   1  -3    0.87    0.26
  11   1  -3    2.12    0.30
  10   1  -3    0.87    0.21
   9   1  -3    1.64    0.24
   8   1  -3    6.10    0.40
   7   1  -3    6.71    0.35
   7   1  -3    6.44    0.39
   6   1  -3    7.58    0.44
   6   1  -3    8.61    0.42
   5   1  -3    2.00    0.20
   5   1  -3    2.07    0.16
   4   1  -3    2.17    0.16
   4   1  -3    1.79    0.17
   3   1  -3    3.08    0.19
   3   1  -3    3.15    0.19
   2   1  -3    1.71    0.13
   1   1  -3    2.46    0.16
   0   1  -3   81.90    3.50
  -1   1  -3  197.91    8.38
  -2   1  -3   76.32    3.23
   2  -1   3   75.02    3.02
  -3   1  -3    9.36    0.43
   3  -1   3    9.11    0.43
   4  -1   3   37.90    1.64
   4  -1   3   38.39    1.58
   5  -1   3   41.21    1.74
   5  -1   3   40.09    1.69
   6  -1   3   25.77    1.13
   7  -1   3   18.50    0.86
   8  -1   3    2.48    0.28
   9  -1   3    2.18    0.28
  10  -1   3    0.77    0.22
  11  -1   3    0.77    0.24
  12  -1   3    2.94    0.36
  13  -1   3    1.90    0.35
  14  -1   3    0.58    0.28
  14   0  -3   -0.05    0.18
  13   0  -3    3.02    0.40
  12   0  -3    2.25    0.34
  11   0  -3    2.03    0.29
  10   0  -3   12.58    0.69
   9   0  -3   14.26    0.75
   8   0  -3    0.04    0.05
   7   0  -3   25.16    1.11
   7   0  -3   24.00    1.10
   6   0  -3   13.84    0.64
   6   0  -3   13.14    0.64
   5   0  -3    0.78    0.10
   5   0  -3    0.66    0.13
   4   0  -3   12.51    0.59
   4   0  -3   12.23    0.56
   3   0  -3   94.32    4.00
   3   0  -3   92.66    3.74
   2   0  -3   73.58    3.14
   2   0  -3   72.72    2.93
   1   0  -3    0.26    0.06
   1   0  -3    0.07    0.04
   0   0  -3  142.10    6.04
  -1   0  -3  133.24    5.66
  -2   0  -3   51.58    2.22
   3   0   3    1.61    0.13
   3   0   3    1.62    0.14
   4   0   3   20.57    0.92
   4   0   3   20.75    0.90
   5   0   3   30.99    1.36
   5   0   3   31.69    1.34
   6   0   3   69.00    2.83
   7   0   3   23.48    1.07
   8   0   3    0.39    0.16
   9   0   3    4.60    0.39
  10   0   3    0.11    0.16
  11   0   3    0.18    0.21
  12   0   3    1.43    0.29
  13   0   3    0.46    0.25
  14  -1  -3    0.29    0.26
  13  -1  -3    2.38    0.37
  12  -1  -3    2.44    0.34
  11  -1  -3    0.78    0.23
  10  -1  -3   33.16    1.51
   9  -1  -3   16.05    0.81
   8  -1  -3    0.08    0.06
   7  -1  -3   16.16    0.76
   6  -1  -3    0.16    0.08
   6  -1  -3    0.02    0.04
   6  -1  -3    0.34    0.07
   5  -1  -3    1.91    0.13
   5  -1  -3    1.82    0.16
   4  -1  -3    3.77    0.23
   2  -1  -3   19.48    0.89
   1  -1  -3  443.70   17.52
   0   1   3   36.74    1.61
   1   1   3    5.96    0.32
   2   1   3   23.14    1.04
   3   1   3   14.60    0.66
   3   1   3   14.26    0.67
   4   1   3    8.58    0.43
   4   1   3    8.67    0.44
   5   1   3   29.37    1.31
   5   1   3   29.91    1.28
   6   1   3    0.23    0.15
   7   1   3   -0.04    0.12
   8   1   3    0.07    0.14
   9   1   3    9.65    0.57
  10   1   3    0.31    0.19
  11   1   3    0.32    0.19
  12   1   3    0.44    0.24
  13   1   3    0.44    0.25
  14  -2  -3   -0.21    0.23
  13  -2  -3    0.25    0.21
  12  -2  -3    0.54    0.23
  11  -2  -3    4.66    0.44
  10  -2  -3   14.08    0.75
   9  -2  -3    1.11    0.23
   8  -2  -3    8.03    0.48
   7  -2  -3    0.96    0.17
  -7   2   3    0.84    0.14
   6  -2  -3    1.05    0.16
   6  -2  -3    1.12    0.11
  -6   2   3    0.93    0.14
   5  -2  -3    3.68    0.19
   5  -2  -3    3.38    0.23
  -5   2   3    3.03    0.22
   4  -2  -3   33.46    1.33
   4  -2  -3   32.47    1.39
   3  -2  -3    5.90    0.31
  -1   2   3    0.00    0.01
   0   2   3    0.76    0.12
   1   2   3   15.98    0.75
   2   2   3   88.02    3.79
   3   2   3  115.86    4.93
   3   2   3  114.21    4.62
   4   2   3   11.86    0.60
   4   2   3   12.43    0.59
   5   2   3    9.83    0.51
   5   2   3   10.40    0.54
   7   2   3    0.00    0.13
   8   2   3    4.92    0.38
   9   2   3    5.62    0.44
  10   2   3    0.31    0.18
  11   2   3    0.08    0.17
  12   2   3    0.11    0.20
  13   2   3    0.20    0.25
  14  -3  -3    2.33    0.37
  13  -3  -3    3.77    0.45
  12  -3  -3    0.22    0.18
  11  -3  -3    4.15    0.40
  10  -3  -3   -0.18    0.14
   9  -3  -3   -0.05    0.12
   8  -3  -3   16.93    0.82
   7  -3  -3    0.71    0.17
  -7   3   3    0.80    0.15
   6  -3  -3    4.11    0.28
   6  -3  -3    4.17    0.23
  -6   3   3    3.77    0.27
   5  -3  -3   12.96    0.63
   5  -3  -3   13.14    0.57
  -5   3   3   13.46    0.65
   4  -3  -3   32.84    1.36
   4  -3  -3   33.85    1.41
  -4   3   3   33.46    1.50
   3  -3  -3   10.19    0.49
  -3   3   3    9.97    0.52
  -2   3   3    9.70    0.50
  -1   3   3   -0.01    0.02
   0   3   3  135.89    5.82
   1   3   3   10.16    0.53
   2   3   3   43.22    1.92
   3   3   3   10.47    0.55
   4   3   3    0.23    0.12
   6   3   3   -0.02    0.09
   7   3   3   -0.02    0.13
   8   3   3    2.56    0.30
   9   3   3    0.02    0.15
  10   3   3    0.01    0.16
  11   3   3    0.03    0.22
  12   3   3    0.16    0.24
  14  -4  -3    2.87    0.39
  13  -4  -3    3.20    0.42
  12  -4  -3    0.61    0.23
  11  -4  -3    0.04    0.18
  10  -4  -3    3.41    0.34
   9  -4  -3    1.49    0.23
   8  -4  -3    5.62    0.37
  -8   4   3    5.75    0.39
   7  -4  -3    3.59    0.28
  -7   4   3    3.46    0.28
   6  -4  -3    0.41    0.14
   6  -4  -3    0.02    0.04
  -6   4   3    0.22    0.13
   5  -4  -3   11.28    0.51
   5  -4  -3   12.16    0.57
  -5   4   3   10.74    0.59
   4  -4  -3   11.20    0.53
  -4   4   3   10.55    0.57
   3  -4  -3   42.97    1.75
  -3   4   3   41.05    1.88
  -2   4   3    1.23    0.17
  -1   4   3   -0.03    0.03
   0   4   3    0.20    0.13
   1   4   3    3.50    0.28
   2   4   3    0.43    0.14
   3   4   3    1.69    0.22
   3   4   3    1.93    0.22
   4   4   3    0.90    0.15
   4   4   3    1.70    0.22
   5   4   3   23.88    1.27
   5   4   3   34.30    1.37
   6   4   3   13.18    0.70
   7   4   3    7.30    0.49
   8   4   3    0.13    0.17
   9   4   3   -0.17    0.14
  10   4   3   -0.02    0.17
  11   4   3    0.06    0.21
  12   4   3    0.16    0.25
  14  -5  -3    0.00    0.19
  13  -5  -3    0.24    0.23
  12  -5  -3    0.12    0.20
  11  -5  -3   -0.13    0.15
  10  -5  -3    0.90    0.22
   9  -5  -3    6.69    0.44
   8  -5  -3    0.79    0.19
  -8   5   3    0.78    0.18
   7  -5  -3    0.31    0.14
  -7   5   3   -0.07    0.13
   6  -5  -3    9.41    0.45
   6  -5  -3    8.85    0.49
  -6   5   3    8.87    0.52
   5  -5  -3    0.54    0.13
   5  -5  -3    0.37    0.10
  -5   5   3    0.46    0.16
   4  -5  -3    0.09    0.10
  -4   5   3    0.11    0.12
  -3   5   3    0.19    0.12
  -2   5   3    1.91    0.23
  -1   5   3    0.02    0.06
   0   5   3    0.77    0.19
   1   5   3    0.07    0.14
   2   5   3   37.39    1.72
   3   5   3   14.62    0.78
   3   5   3   15.60    0.75
   4   5   3    1.16    0.22
   4   5   3    0.58    0.18
   5   5   3    1.29    0.22
   5   5   3    1.41    0.23
   6   5   3   13.67    0.73
   7   5   3    0.06    0.18
   8   5   3    0.38    0.20
   9   5   3   -0.02    0.16
  10   5   3    1.98    0.33
  11   5   3    0.94    0.26
  14  -6  -3    0.52    0.25
  13  -6  -3    0.03    0.21
  12  -6  -3    0.43    0.22
  11  -6  -3    0.55    0.19
  10  -6  -3    0.27    0.18
   9  -6  -3    0.04    0.14
   8  -6  -3    0.17    0.15
  -8   6   3   -0.22    0.15
   7  -6  -3    6.52    0.40
  -7   6   3    6.14    0.43
   6  -6  -3   11.87    0.61
  -6   6   3   11.64    0.67
   5  -6  -3    2.93    0.26
  -5   6   3    3.25    0.33
  -4   6   3   22.24    1.10
  -3   6   3    0.99    0.23
  -2   6   3   -0.01    0.13
  -1   6   3   -0.01    0.05
   0   6   3   21.45    1.07
   1   6   3   16.29    0.86
   2   6   3    4.25    0.37
   3   6   3    3.69    0.34
   3   6   3    2.82    0.32
   4   6   3    3.38    0.35
   4   6   3    3.55    0.34
   5   6   3    1.04    0.21
   5   6   3    1.22    0.23
   6   6   3    0.22    0.15
   7   6   3    0.34    0.18
   8   6   3    0.84    0.23
   9   6   3    0.42    0.23
  10   6   3    0.19    0.21
  13  -7  -3    1.16    0.27
  12  -7  -3    0.16    0.20
  11  -7  -3   -0.07    0.18
  10  -7  -3    0.93    0.22
   9  -7  -3    2.53    0.30
   8  -7  -3    4.01    0.33
  -8   7   3    4.12    0.40
   7  -7  -3    0.22    0.13
  -7   7   3    0.01    0.18
   6  -7  -3    0.42    0.16
  -6   7   3    0.46    0.19
  -5   7   3   -0.04    0.19
  -4   7   3    3.78    0.37
  -3   7   3    3.91    0.40
  -2   7   3    8.71    0.56
  -1   7   3    0.27    0.14
   0   7   3   15.99    0.87
   1   7   3    0.33    0.23
   2   7   3    9.22    0.60
   3   7   3   -0.18    0.11
   3   7   3   -0.06    0.18
   4   7   3    0.35    0.20
   4   7   3    0.35    0.17
   5   7   3    1.48    0.27
   5   7   3    1.26    0.23
   6   7   3    0.07    0.18
   7   7   3    0.68    0.22
   8   7   3    0.26    0.22
   9   7   3    0.09    0.22
  10   7   3    0.16    0.25
  13  -8  -3    1.25    0.31
  12  -8  -3    0.25    0.20
  11  -8  -3    0.16    0.20
  10  -8  -3    1.29    0.24
   9  -8  -3    5.09    0.41
   8  -8  -3    8.74    0.52
  -8   8   3    7.57    0.55
   7  -8  -3    0.04    0.15
  -7   8   3    0.04    0.18
  -6   8   3    0.53    0.20
  -5   8   3    3.21    0.37
  -4   8   3    4.41    0.40
  -3   8   3   13.25    0.78
  -2   8   3    6.62    0.52
  -1   8   3    0.30    0.22
   0   8   3    0.04    0.19
   1   8   3    0.23    0.23
   2   8   3    0.19    0.23
   3   8   3    1.04    0.27
   3   8   3    0.60    0.20
   4   8   3    1.23    0.23
   4   8   3    1.05    0.25
   5   8   3    1.23    0.27
   5   8   3    0.83    0.22
   6   8   3   -0.24    0.17
   7   8   3    0.02    0.17
   8   8   3    0.23    0.23
   9   8   3   -0.15    0.21
  12  -9  -3    0.30    0.20
  11  -9  -3    0.07    0.19
  10  -9  -3    0.17    0.19
   9  -9  -3    1.93    0.29
   8  -9  -3    6.29    0.45
  -8   9   3    5.35    0.49
  -7   9   3   -0.05    0.21
  -6   9   3    3.29    0.40
  -5   9   3    0.39    0.21
  -4   9   3   14.56    0.86
  -3   9   3    1.02    0.26
  -2   9   3   -0.07    0.18
  -1   9   3    4.40    0.48
   0   9   3    0.66    0.24
   1   9   3    0.00    0.20
   2   9   3    0.57    0.19
   2   9   3    0.42    0.27
   3   9   3    0.65    0.20
   3   9   3    0.59    0.24
   4   9   3    0.31    0.21
   4   9   3    0.07    0.15
   5   9   3    0.25    0.21
   5   9   3    0.47    0.25
   6   9   3    0.11    0.21
   7   9   3    0.35    0.22
  11 -10  -3    0.09    0.21
  10 -10  -3    0.04    0.16
   9 -10  -3    0.72    0.22
  -8  10   3   -0.04    0.23
  -7  10   3    2.65    0.38
  -6  10   3    4.47    0.47
  -5  10   3   -0.09    0.19
  -4  10   3    0.61    0.28
  -3  10   3    2.00    0.36
  -2  10   3    0.14    0.25
  -1  10   3    1.04    0.28
   0  10   3    1.39    0.31
   1  10   3    1.55    0.32
   2  10   3    0.58    0.29
   2  10   3    0.71    0.23
   3  10   3    0.18    0.24
   3  10   3    0.08    0.17
   4  10   3    0.10    0.23
   4  10   3    0.29    0.20
   5  10   3    0.14    0.21
   5  10   3    0.78    0.28
   6  10   3   -0.47    0.18
  -8  11   3    3.39    0.45
  -7  11   3    1.00    0.29
  -6  11   3    0.02    0.26
  -5  11   3    0.31    0.22
  -4  11   3    0.26    0.23
  -3  11   3    0.62    0.27
  -2  11   3    0.42    0.25
  -1  11   3    0.25    0.24
   0  11   3   -0.06    0.22
   1  11   3    0.12    0.24
   1  11   3    0.37    0.18
   2  11   3    0.09    0.22
   2  11   3   -0.06    0.18
   3  11   3   -0.02    0.21
   3  11   3   -0.18    0.18
   4  11   3   -0.17    0.24
   4  11   3   -0.13    0.19
   5  11   3   -0.16    0.21
  -8  12   3    0.20    0.29
  -7  12   3    0.05    0.23
  -6  12   3   -0.19    0.26
  -5  12   3    0.13    0.29
  -4  12   3    0.33    0.26
  -3  12   3   -0.46    0.20
  -2  12   3    0.27    0.26
  -1  12   3   -0.14    0.22
   0  12   3    0.26    0.26
   1  12   3   -0.01    0.28
   1  12   3   -0.21    0.15
   2  12   3   -0.14    0.18
   3  12   3    0.11    0.21
  -1  15  -4    0.64    0.27
  -2  15  -4    0.53    0.28
  -3  15  -4    0.34    0.22
  -4  15  -4    0.53    0.25
  -5  15  -4    0.59    0.27
  -6  15  -4   -0.23    0.17
   3  14  -4    0.38    0.23
   2  14  -4    0.02    0.18
   1  14  -4    0.15    0.19
   0  14  -4    0.19    0.22
  -1  14  -4    2.66    0.39
  -2  14  -4    1.66    0.32
  -3  14  -4    1.44    0.30
  -4  14  -4    0.78    0.26
  -5  14  -4    0.32    0.20
  -6  14  -4    0.23    0.21
   6 -14   4   -0.05    0.18
   7 -14   4   -0.02    0.22
   8 -14   4   -0.14    0.19
   9 -14   4    0.11    0.25
   6  13  -4    0.54    0.22
   5  13  -4    0.18    0.22
   4  13  -4    0.17    0.21
   3  13  -4    0.52    0.22
   2  13  -4    0.98    0.28
   1  13  -4    0.00    0.20
   0  13  -4    0.43    0.20
  -1  13  -4    0.16    0.22
  -2  13  -4    0.11    0.20
  -3  13  -4    0.06    0.18
  -4  13  -4    0.21    0.18
  -5  13  -4    0.19    0.17
   5 -13   4   -0.11    0.16
  -6  13  -4    0.14    0.17
   6 -13   4   -0.13    0.19
   7 -13   4    0.09    0.18
   8 -13   4    0.34    0.24
   9 -13   4    0.14    0.23
  10 -13   4    0.19    0.24
   6  12  -4    0.09    0.19
   5  12  -4    0.79    0.26
   4  12  -4    0.29    0.22
   3  12  -4    1.88    0.32
   2  12  -4    1.84    0.30
   1  12  -4    1.65    0.28
   0  12  -4    0.29    0.17
  -1  12  -4    0.61    0.22
  -2  12  -4    1.12    0.27
  -3  12  -4    0.42    0.19
  -4  12  -4   -0.06    0.17
   4 -12   4    0.24    0.16
  -5  12  -4    0.88    0.23
   5 -12   4    0.49    0.19
  -6  12  -4   -0.17    0.15
   6 -12   4   -0.19    0.15
   7 -12   4   -0.12    0.19
   8 -12   4    0.04    0.17
   9 -12   4    0.15    0.20
  10 -12   4    1.80    0.32
  11 -12   4    0.45    0.27
   7  11  -4    0.32    0.21
   6  11  -4    0.42    0.21
   5  11  -4    0.98    0.24
   4  11  -4    2.02    0.30
   3  11  -4    1.88    0.30
   2  11  -4    0.22    0.19
   1  11  -4    4.73    0.42
   0  11  -4    0.05    0.15
  -1  11  -4   -0.04    0.14
  -2  11  -4    0.19    0.16
  -3  11  -4    0.17    0.16
   3 -11   4    0.03    0.14
  -4  11  -4   -0.07    0.15
   4 -11   4   -0.15    0.14
  -5  11  -4    0.26    0.17
   5 -11   4    0.36    0.18
  -6  11  -4    0.13    0.15
   6 -11   4   -0.06    0.14
   7 -11   4    0.78    0.23
   8 -11   4    0.45    0.21
   9 -11   4    0.01    0.20
  10 -11   4    0.37    0.24
  11 -11   4   -0.03    0.22
  12 -11   4    0.64    0.29
   7  10  -4    1.75    0.28
   6  10  -4    1.85    0.28
   5  10  -4    0.24    0.16
   4  10  -4    6.43    0.48
   3  10  -4    2.42    0.30
   2  10  -4    0.87    0.22
   1  10  -4    0.30    0.16
   0  10  -4    2.15    0.28
  -1  10  -4    1.18    0.23
  -2  10  -4   -0.09    0.14
   2 -10   4    0.07    0.13
  -3  10  -4    1.08    0.21
   3 -10   4    0.92    0.21
  -4  10  -4    2.90    0.31
   4 -10   4    2.94    0.30
  -5  10  -4    1.30    0.23
   5 -10   4    0.91    0.20
  -6  10  -4    3.16    0.30
   6 -10   4    3.13    0.32
   7 -10   4    2.47    0.31
   8 -10   4    1.18    0.26
   9 -10   4    0.56    0.23
  10 -10   4    1.61    0.28
  11 -10   4    1.58    0.29
  12 -10   4    1.07    0.25
  10   9  -4    0.19    0.18
   8   9  -4    0.57    0.19
   7   9  -4    0.14    0.16
   7   9  -4    0.20    0.15
   6   9  -4    0.31    0.17
   6   9  -4    0.40    0.18
   5   9  -4    0.18    0.16
   5   9  -4    0.14    0.13
   4   9  -4    5.17    0.41
   4   9  -4    5.77    0.35
   3   9  -4   22.58    1.13
   2   9  -4    8.65    0.54
   1   9  -4   -0.02    0.05
   0   9  -4    0.07    0.06
  -1   9  -4    2.43    0.28
  -2   9  -4    0.48    0.16
  -3   9  -4    1.18    0.20
   3  -9   4    1.36    0.22
  -4   9  -4   12.30    0.67
   4  -9   4   11.86    0.63
  -5   9  -4   19.60    0.99
   5  -9   4   20.27    0.96
  -6   9  -4    8.23    0.49
   6  -9   4    8.36    0.52
   7  -9   4    0.36    0.19
   8  -9   4    0.35    0.16
   9  -9   4    2.94    0.34
  10  -9   4    1.92    0.28
  11  -9   4    1.84    0.30
  12  -9   4    0.44    0.23
  13  -9   4   -0.06    0.20
  11   8  -4    1.03    0.28
  10   8  -4    0.54    0.22
   9   8  -4    2.96    0.35
   8   8  -4    0.41    0.19
   7   8  -4   -0.04    0.13
   7   8  -4    0.06    0.15
   6   8  -4   -0.06    0.13
   6   8  -4   -0.03    0.13
   5   8  -4    3.32    0.28
   5   8  -4    3.15    0.30
   4   8  -4    1.41    0.23
   4   8  -4    1.85    0.21
   3   8  -4    5.93    0.34
   3   8  -4    5.21    0.40
   2   8  -4    8.14    0.40
   2   8  -4    7.98    0.49
   1   8  -4    0.40    0.10
   0   8  -4   13.38    0.71
  -1   8  -4   -0.11    0.10
   1  -8   4   -0.04    0.10
  -3   8  -4    4.46    0.30
   3  -8   4    3.10    0.25
  -4   8  -4    5.02    0.35
   4  -8   4    5.15    0.36
  -5   8  -4    0.54    0.15
   5  -8   4    0.53    0.16
  -6   8  -4    4.44    0.34
   6  -8   4    5.07    0.37
   7  -8   4    0.05    0.13
   8  -8   4    6.69    0.45
   9  -8   4    5.17    0.40
  10  -8   4    0.39    0.19
  11  -8   4    0.34    0.21
  12  -8   4    0.11    0.17
  13  -8   4    1.07    0.28
  12   7  -4   -0.16    0.21
  11   7  -4    1.80    0.31
  10   7  -4    0.12    0.18
   9   7  -4    0.08    0.15
   8   7  -4    1.13    0.22
   7   7  -4   -0.25    0.13
   7   7  -4   -0.10    0.12
   6   7  -4    0.74    0.18
   6   7  -4    0.87    0.17
   5   7  -4    2.65    0.28
   5   7  -4    2.64    0.26
   4   7  -4    0.18    0.11
   4   7  -4    0.13    0.14
   3   7  -4    1.76    0.18
   3   7  -4    1.72    0.23
   2   7  -4    0.92    0.16
   1   7  -4   45.76    2.19
   1   7  -4   52.08    1.99
   0   7  -4    0.69    0.08
   0   7  -4    0.56    0.14
   0  -7   4    0.76    0.15
  -1   7  -4   21.97    1.05
   1  -7   4   22.09    0.98
   2  -7   4    6.24    0.35
  -3   7  -4   17.31    0.84
  -4   7  -4    0.04    0.09
   4  -7   4   -0.02    0.10
  -5   7  -4   26.10    1.20
   5  -7   4   26.00    1.16
  -6   7  -4    0.69    0.14
   6  -7   4    1.08    0.18
   7  -7   4    1.83    0.25
   8  -7   4    9.92    0.57
   9  -7   4    0.82    0.21
  10  -7   4    0.82    0.22
  11  -7   4    2.09    0.30
  12  -7   4   -0.19    0.17
  13  -7   4    0.75    0.26
  14  -7   4    1.13    0.30
  12   6  -4   -0.32    0.20
  11   6  -4    0.44    0.22
  10   6  -4    0.14    0.20
   9   6  -4    2.16    0.30
   8   6  -4    4.57    0.37
   7   6  -4    5.16    0.36
   7   6  -4    4.69    0.36
   6   6  -4    5.89    0.39
   6   6  -4    5.77    0.37
   5   6  -4    1.64    0.20
   5   6  -4    1.89    0.22
   4   6  -4    8.73    0.50
   4   6  -4    8.84    0.45
   3   6  -4    0.83    0.12
   3   6  -4    0.56    0.13
   2   6  -4   11.06    0.58
   2   6  -4   10.99    0.50
   1   6  -4   41.73    1.47
   1   6  -4   30.04    1.62
   0   6  -4   25.85    1.17
   0  -6   4   24.17    1.07
  -1   6  -4    0.71    0.14
   1  -6   4    0.94    0.13
  -2   6  -4    9.36    0.50
   2  -6   4    9.91    0.48
  -4   6  -4   36.02    1.59
   4  -6   4   36.10    1.45
   4  -6   4   34.90    1.51
  -5   6  -4   67.19    2.98
   5  -6   4   68.26    2.84
   5  -6   4   71.22    2.77
   6  -6   4    7.30    0.44
   6  -6   4    7.34    0.38
   7  -6   4   -0.05    0.10
   7  -6   4    0.11    0.14
   8  -6   4    0.20    0.12
   8  -6   4    0.01    0.15
   9  -6   4    0.37    0.14
   9  -6   4    0.18    0.15
  10  -6   4   -0.01    0.13
  10  -6   4    0.16    0.14
  11  -6   4    0.34    0.18
  11  -6   4    0.08    0.17
  12  -6   4   -0.05    0.16
  13  -6   4    1.14    0.26
  14  -6   4    0.40    0.23
  13   5  -4    0.27    0.25
  12   5  -4   -0.08    0.21
  11   5  -4    0.10    0.18
  10   5  -4    0.18    0.19
   9   5  -4    5.87    0.45
   8   5  -4    2.40    0.29
   7   5  -4    6.70    0.43
   7   5  -4    6.64    0.42
   6   5  -4    1.10    0.18
   6   5  -4    0.93    0.18
   5   5  -4    0.27    0.12
   5   5  -4    0.30    0.13
   4   5  -4    3.84    0.28
   4   5  -4    3.96    0.25
   3   5  -4    2.19    0.22
   2   5  -4    4.13    0.22
   2   5  -4    4.51    0.29
   1   5  -4    0.15    0.05
   1   5  -4    0.07    0.06
   0   5  -4   73.91    3.08
   0  -5   4   67.89    2.86
  -1   5  -4    0.99    0.13
   1  -5   4    1.07    0.13
  -2   5  -4   51.64    2.45
   2  -5   4   61.22    2.31
   3  -5   4    8.91    0.45
   4  -5   4  103.03    4.10
  -5   5  -4    4.66    0.27
   5  -5   4    4.44    0.30
   5  -5   4    4.78    0.26
  -6   5  -4    0.02    0.07
   6  -5   4   -0.14    0.08
   6  -5   4    0.09    0.12
   7  -5   4   11.30    0.56
   7  -5   4   11.06    0.59
   8  -5   4    0.12    0.15
   8  -5   4   -0.04    0.12
   9  -5   4    1.74    0.23
   9  -5   4    1.65    0.24
  10  -5   4    0.39    0.17
  10  -5   4    0.61    0.19
  11  -5   4   -0.03    0.15
  11  -5   4   -0.12    0.15
  12  -5   4    0.64    0.21
  12  -5   4    0.12    0.16
  13  -5   4    1.28    0.28
  13  -5   4    0.87    0.26
  14  -5   4    0.10    0.21
  13   4  -4   -0.54    0.17
  12   4  -4   -0.19    0.19
  11   4  -4    1.70    0.29
  10   4  -4    0.13    0.17
   9   4  -4    8.89    0.54
   8   4  -4    2.85    0.31
   7   4  -4    0.02    0.10
   7   4  -4    0.10    0.14
   6   4  -4   14.61    0.74
   6   4  -4   15.15    0.72
   5   4  -4    9.60    0.48
   5   4  -4    9.33    0.50
   4   4  -4    7.84    0.40
   4   4  -4    7.70    0.43
   3   4  -4    0.42    0.11
   3   4  -4    0.23    0.08
   2   4  -4    5.03    0.25
   2   4  -4    5.21    0.30
   1  -4   4   30.85    1.28
  -2   4  -4    2.60    0.18
   2  -4   4    2.77    0.19
  -3   4  -4    0.07    0.06
   3  -4   4    0.01    0.04
   3  -4   4   -0.07    0.06
  -4   4  -4    3.38    0.21
   4  -4   4    3.50    0.20
  -5   4  -4   15.96    0.69
   5  -4   4   12.33    0.69
   5  -4   4   16.39    0.67
   6  -4   4    3.53    0.28
   6  -4   4    3.19    0.23
   7  -4   4    3.43    0.30
   7  -4   4    3.36    0.26
   8  -4   4   -0.01    0.13
   8  -4   4    0.12    0.15
   9  -4   4    6.04    0.42
   9  -4   4    5.88    0.41
  10  -4   4    1.03    0.22
  10  -4   4    1.09    0.21
  11  -4   4    0.19    0.18
  11  -4   4    0.35    0.18
  12  -4   4    1.35    0.28
  12  -4   4    1.45    0.28
  13  -4   4    4.20    0.45
  13  -4   4    3.66    0.42
  14  -4   4    1.63    0.31
  14  -4   4    1.54    0.32
  14   3  -4   -0.23    0.21
  13   3  -4    0.36    0.25
  12   3  -4   -0.22    0.18
  11   3  -4    4.16    0.42
  10   3  -4   -0.06    0.16
   9   3  -4    1.18    0.23
   8   3  -4    5.25    0.39
   7   3  -4    1.26    0.19
   7   3  -4    1.44    0.18
   6   3  -4   -0.01    0.11
   6   3  -4    0.05    0.08
   5   3  -4    0.08    0.08
   5   3  -4   -0.05    0.07
   4   3  -4   18.09    0.86
   4   3  -4   18.46    0.80
   3   3  -4    1.83    0.16
   3   3  -4    1.82    0.14
   2   3  -4    5.37    0.26
   2   3  -4    5.02    0.29
   0   3  -4   56.53    2.45
   0  -3   4   56.67    2.28
  -1   3  -4    9.21    0.44
   1  -3   4    8.57    0.41
  -2   3  -4    5.26    0.29
   2  -3   4    5.71    0.29
  -3   3  -4   11.96    0.55
   3  -3   4   11.51    0.51
   3  -3   4   11.84    0.55
  -4   3  -4   34.63    1.53
   4  -3   4   35.97    1.49
   4  -3   4   35.21    1.45
  -5   3  -4   11.44    0.51
   5  -3   4   10.58    0.51
   6  -3   4   22.97    1.01
   6  -3   4   23.02    1.04
   7  -3   4    1.84    0.21
   8  -3   4    0.10    0.14
   9  -3   4   -0.02    0.14
  10  -3   4   -0.12    0.12
  10  -3   4    0.21    0.16
  11  -3   4    2.61    0.33
  11  -3   4    2.16    0.30
  12  -3   4    0.12    0.17
  12  -3   4    0.24    0.22
  13  -3   4    1.51    0.30
  13  -3   4    1.77    0.33
  14  -3   4    0.25    0.21
  14  -3   4    0.56    0.26
  14   2  -4   -0.27    0.21
  13   2  -4    0.35    0.21
  12   2  -4    0.24    0.22
  11   2  -4    0.26    0.21
  10   2  -4    3.22    0.35
   9   2  -4   13.53    0.73
   8   2  -4   13.94    0.71
   7   2  -4    0.93    0.18
   7   2  -4    0.46    0.12
   6   2  -4    1.08    0.16
   6   2  -4    1.15    0.15
   5   2  -4    0.13    0.08
   5   2  -4    0.06    0.10
   4   2  -4   43.75    1.90
   4   2  -4   42.84    1.78
   3   2  -4   67.49    2.92
   3   2  -4   67.42    2.72
   2   2  -4  141.04    5.52
   2   2  -4  137.11    5.93
   1   2  -4    1.67    0.11
  -1  -2   4    1.75    0.11
   0   2  -4    0.11    0.07
   0  -2   4    0.15    0.06
  -1   2  -4   60.91    2.65
   1  -2   4   61.96    2.47
  -2   2  -4   64.88    2.76
   2  -2   4   64.21    2.59
   2  -2   4   63.47    2.57
  -3   2  -4   74.97    3.16
   3  -2   4   72.35    2.95
  -4   2  -4   54.70    2.32
   4  -2   4   53.16    2.20
  -5   2  -4   37.88    1.62
   5  -2   4   37.11    1.57
   6  -2   4   26.45    1.15
   7  -2   4    0.36    0.15
   8  -2   4    6.89    0.44
   9  -2   4   25.85    1.19
  10  -2   4    0.58    0.20
  11  -2   4    0.63    0.23
  12  -2   4   -0.02    0.18
  13  -2   4    0.19    0.20
  14  -2   4   -0.35    0.20
  14  -2   4   -0.10    0.20
  14   1  -4    0.23    0.25
  13   1  -4    0.24    0.19
  12   1  -4    0.12    0.17
  11   1  -4    0.87    0.24
  10   1  -4   -0.13    0.16
   9   1  -4   46.33    2.01
   8   1  -4    9.73    0.55
   8   1  -4   10.41    0.53
   7   1  -4    0.10    0.11
   7   1  -4    0.08    0.08
   6   1  -4   17.99    0.84
   6   1  -4   17.87    0.82
   5   1  -4    0.74    0.12
   5   1  -4    0.73    0.12
   4   1  -4    0.00    0.06
   4   1  -4    0.42    0.09
   3   1  -4   19.55    0.90
   2   1  -4  111.42    4.66
   2   1  -4  106.70    4.34
   0   1  -4    1.35    0.14
   0  -1   4    1.42    0.10
  -1   1  -4    7.03    0.36
  -2   1  -4    1.82    0.14
  -3   1  -4    1.69    0.14
   3  -1   4    1.80    0.15
  -4   1  -4   69.99    2.89
   4  -1   4   64.44    2.73
   5  -1   4   22.56    1.02
   5  -1   4   23.76    1.02
   6  -1   4    1.85    0.22
   7  -1   4    2.49    0.25
   8  -1   4    3.39    0.30
   9  -1   4   10.40    0.61
  10  -1   4    1.45    0.27
  11  -1   4   -0.09    0.16
  12  -1   4    0.92    0.24
  13  -1   4    0.59    0.25
  14   0  -4   -0.29    0.21
  13   0  -4    0.57    0.26
  12   0  -4    2.29    0.33
  11   0  -4    1.28    0.26
  10   0  -4    1.99    0.29
   9   0  -4   19.67    0.96
   8   0  -4   13.82    0.71
   8   0  -4   14.64    0.70
   7   0  -4    0.34    0.11
   7   0  -4    0.18    0.12
   6   0  -4   22.34    1.00
   6   0  -4   22.48    1.03
   5   0  -4    2.65    0.20
   5   0  -4    2.67    0.22
   4   0  -4    0.76    0.11
   4   0  -4    0.72    0.12
   3   0  -4    2.08    0.15
   2   0  -4  190.18    8.08
   0   0  -4    0.03    0.07
  -1   0  -4  104.95    4.49
  -2   0  -4  107.27    4.59
   3   0   4    1.05    0.14
   3   0   4    1.15    0.13
   4   0   4    0.09    0.08
   4   0   4   -0.01    0.08
   5   0   4   67.64    2.95
   5   0   4   69.85    2.82
   6   0   4   55.28    2.31
   7   0   4    8.28    0.49
   8   0   4    3.07    0.32
   9   0   4    0.31    0.18
  10   0   4    1.80    0.30
  11   0   4    0.94    0.26
  12   0   4    0.41    0.21
  13   0   4    0.84    0.28
  14  -1  -4   -0.12    0.19
  13  -1  -4    4.07    0.46
  12  -1  -4    2.72    0.35
  11  -1  -4    0.33    0.17
  10  -1  -4    1.05    0.23
   9  -1  -4    0.53    0.17
   7  -1  -4   41.55    1.85
   6  -1  -4    0.58    0.13
   6  -1  -4    0.87    0.15
   6  -1  -4    0.89    0.09
   5  -1  -4   36.28    1.53
   5  -1  -4   36.20    1.61
   4  -1  -4   12.41    0.61
   4  -1  -4   12.17    0.58
   3  -1  -4   21.33    0.93
   3  -1  -4   22.05    1.00
   2  -1  -4   60.08    2.54
   2  -1  -4   65.40    2.73
   1   1   4  188.28    8.01
   2   1   4   74.10    3.20
   3   1   4   17.55    0.81
   3   1   4   18.73    0.85
   4   1   4    5.33    0.31
   4   1   4    5.06    0.32
   5   1   4   23.16    1.08
   5   1   4   24.22    1.06
   6   1   4   19.67    0.93
   7   1   4   15.07    0.76
   8   1   4    3.59    0.34
   9   1   4    0.25    0.18
  10   1   4    0.68    0.21
  11   1   4    0.96    0.27
  12   1   4    0.57    0.24
  13   1   4    0.15    0.21
  14  -2  -4    0.13    0.21
  13  -2  -4    7.08    0.55
  12  -2  -4    0.79    0.24
  11  -2  -4    1.46    0.27
  10  -2  -4    2.21    0.29
   9  -2  -4   10.71    0.61
  -8   2   4    2.40    0.22
   6  -2  -4    0.05    0.08
  -6   2   4    0.23    0.10
   5  -2  -4   -0.01    0.04
   5  -2  -4    0.08    0.05
  -5   2   4    0.49    0.11
  -4   2   4    0.32    0.10
  -3   2   4    2.12    0.20
  -2   2   4   30.71    1.39
   0   2   4  160.99    6.87
   1   2   4   10.76    0.55
   2   2   4   16.82    0.81
   3   2   4    6.63    0.38
   3   2   4    6.53    0.37
   4   2   4    0.52    0.13
   4   2   4    0.64    0.14
   5   2   4    2.64    0.25
   5   2   4    2.57    0.27
   6   2   4    2.18    0.27
   7   2   4    0.07    0.14
   8   2   4    3.79    0.34
   9   2   4   -0.10    0.14
  10   2   4    0.10    0.19
  11   2   4    0.28    0.21
  12   2   4   -0.10    0.22
  14  -3  -4    0.26    0.25
  13  -3  -4    0.24    0.20
  12  -3  -4    0.36    0.21
  11  -3  -4    0.84    0.21
  10  -3  -4    0.59    0.18
   9  -3  -4    8.81    0.53
   8  -3  -4    5.43    0.37
  -8   3   4    5.36    0.37
   7  -3  -4    3.44    0.29
  -7   3   4    5.01    0.32
   6  -3  -4   12.95    0.64
  -6   3   4   12.23    0.64
   5  -3  -4   17.75    0.74
   5  -3  -4   17.97    0.81
  -5   3   4   16.53    0.84
   4  -3  -4    0.00    0.08
  -4   3   4   -0.01    0.10
   3  -3  -4    0.02    0.08
  -3   3   4    0.16    0.10
  -2   3   4   19.98    0.95
  -1   3   4    4.12    0.28
   0   3   4   21.45    1.02
   1   3   4   46.38    2.07
   2   3   4    0.27    0.12
   3   3   4   -0.04    0.12
   3   3   4   -0.10    0.08
   4   3   4    0.25    0.15
   5   3   4    1.92    0.23
   6   3   4    1.37    0.21
   7   3   4   12.93    0.70
   8   3   4   -0.07    0.17
   9   3   4    0.03    0.16
  10   3   4    0.19    0.18
  11   3   4    0.43    0.21
  12   3   4   -0.13    0.20
  14  -4  -4    0.05    0.20
  13  -4  -4    1.50    0.31
  12  -4  -4    1.78    0.31
  11  -4  -4    2.30    0.32
  10  -4  -4    0.75    0.19
   9  -4  -4    0.29    0.15
   8  -4  -4    2.80    0.30
  -8   4   4    2.95    0.29
   7  -4  -4    0.07    0.14
  -7   4   4   -0.23    0.13
   6  -4  -4    7.20    0.42
  -6   4   4    7.37    0.46
   5  -4  -4   20.32    0.92
  -5   4   4   19.70    0.98
   4  -4  -4   13.42    0.64
  -4   4   4   12.71    0.68
  -3   4   4    7.13    0.43
  -2   4   4   20.55    1.00
  -1   4   4    0.62    0.14
   0   4   4    5.89    0.39
   1   4   4   29.95    1.40
   2   4   4   16.39    0.83
   5   4   4    0.33    0.16
   5   4   4    0.32    0.17
   6   4   4    0.81    0.20
   7   4   4    1.23    0.25
   8   4   4   -0.05    0.14
   9   4   4    0.85    0.24
  10   4   4    0.29    0.22
  11   4   4    0.13    0.23
  14  -5  -4    0.13    0.24
  13  -5  -4    1.37    0.29
  12  -5  -4   -0.30    0.17
  11  -5  -4    0.75    0.22
  10  -5  -4    0.35    0.19
   9  -5  -4    0.42    0.16
   8  -5  -4    5.64    0.39
  -8   5   4    5.41    0.40
   7  -5  -4    2.26    0.26
  -7   5   4    2.70    0.30
   6  -5  -4    0.82    0.17
  -6   5   4    0.78    0.20
   5  -5  -4    0.84    0.18
  -5   5   4    0.83    0.19
   4  -5  -4    2.84    0.24
  -4   5   4    3.03    0.31
  -3   5   4    5.27    0.38
  -2   5   4   16.66    0.85
  -1   5   4   -0.07    0.04
   0   5   4   17.54    0.90
   1   5   4    2.31    0.28
   2   5   4    5.04    0.40
   3   5   4    4.42    0.34
   3   5   4    4.34    0.39
   4   5   4    0.09    0.16
   4   5   4    0.05    0.17
   5   5   4    0.30    0.18
   5   5   4    0.17    0.14
   6   5   4    0.05    0.16
   7   5   4   -0.06    0.14
   8   5   4    0.09    0.17
   9   5   4   -0.10    0.17
  10   5   4    0.09    0.20
  11   5   4    0.03    0.22
  13  -6  -4    1.61    0.31
  12  -6  -4    0.08    0.17
  11  -6  -4    0.67    0.21
  10  -6  -4    0.43    0.20
   9  -6  -4    0.82    0.22
   8  -6  -4    0.12    0.13
  -8   6   4   -0.22    0.16
   7  -6  -4    5.98    0.41
  -7   6   4    5.79    0.43
   6  -6  -4    3.86    0.31
  -6   6   4    4.09    0.37
   5  -6  -4    7.23    0.45
  -5   6   4    7.90    0.52
  -4   6   4    8.02    0.52
  -3   6   4    1.85    0.29
  -2   6   4   -0.12    0.10
  -1   6   4   -0.07    0.09
   0   6   4    2.02    0.32
   1   6   4    5.85    0.48
   2   6   4    1.94    0.30
   3   6   4    1.53    0.23
   3   6   4    1.57    0.26
   4   6   4   -0.10    0.18
   4   6   4   -0.16    0.12
   5   6   4    1.41    0.23
   5   6   4    1.48    0.27
   6   6   4    0.10    0.16
   7   6   4    0.90    0.25
   8   6   4    0.61    0.25
   9   6   4    0.80    0.27
  10   6   4    0.13    0.24
  13  -7  -4   -0.08    0.16
  12  -7  -4    0.79    0.24
  11  -7  -4    2.06    0.32
  10  -7  -4    0.03    0.15
   9  -7  -4    1.12    0.22
   8  -7  -4    2.48    0.31
  -8   7   4    2.66    0.35
   7  -7  -4    0.73    0.18
  -7   7   4    0.55    0.20
   6  -7  -4    8.47    0.51
  -6   7   4    9.35    0.59
  -5   7   4    4.46    0.40
  -4   7   4    1.44    0.29
  -3   7   4    3.17    0.37
  -2   7   4    0.98    0.25
  -1   7   4   19.09    1.02
   0   7   4   10.06    0.64
   1   7   4    1.16    0.26
   2   7   4    0.15    0.19
   3   7   4    2.88    0.36
   3   7   4    2.46    0.30
   4   7   4    0.81    0.26
   4   7   4    1.03    0.23
   5   7   4    0.12    0.20
   5   7   4   -0.09    0.13
   6   7   4    0.42    0.21
   7   7   4    1.76    0.32
   8   7   4    0.78    0.24
   9   7   4    0.32    0.25
  12  -8  -4    0.86    0.26
  11  -8  -4    0.75    0.24
  10  -8  -4    1.38    0.26
   9  -8  -4    2.66    0.34
   8  -8  -4    0.43    0.18
  -8   8   4    0.47    0.24
   7  -8  -4    0.09    0.16
  -7   8   4    0.31    0.23
  -6   8   4   18.57    1.03
  -5   8   4    2.00    0.31
  -4   8   4    4.35    0.44
  -3   8   4    3.80    0.41
  -2   8   4   -0.08    0.19
  -1   8   4    0.70    0.23
   0   8   4   16.16    0.92
   1   8   4    5.22    0.47
   2   8   4    0.02    0.20
   3   8   4    0.50    0.23
   3   8   4    0.53    0.21
   4   8   4    1.73    0.33
   4   8   4    2.43    0.33
   5   8   4    0.25    0.23
   5   8   4    0.44    0.20
   6   8   4   -0.02    0.20
   7   8   4    1.12    0.29
   8   8   4    0.24    0.25
  11  -9  -4    0.34    0.20
  10  -9  -4    1.90    0.32
   9  -9  -4    4.99    0.44
  -8   9   4    0.57    0.27
  -7   9   4    0.92    0.26
  -6   9   4    0.00    0.19
  -5   9   4    0.70    0.24
  -4   9   4    1.84    0.34
  -3   9   4    0.14    0.20
  -2   9   4    0.06    0.19
  -1   9   4    1.46    0.32
   0   9   4    4.36    0.47
   1   9   4    0.01    0.22
   2   9   4    0.13    0.18
   2   9   4   -0.02    0.21
   3   9   4    0.11    0.18
   3   9   4   -0.24    0.23
   4   9   4    1.67    0.34
   4   9   4    1.52    0.27
   5   9   4    0.78    0.22
   6   9   4   -0.11    0.18
   7   9   4   -0.12    0.21
  10 -10  -4    0.88    0.27
  -8  10   4    0.16    0.26
  -7  10   4    0.54    0.25
  -6  10   4    0.92    0.28
  -5  10   4    0.02    0.21
  -4  10   4    2.20    0.37
  -3  10   4    0.61    0.26
  -2  10   4    0.19    0.23
  -1  10   4    0.08    0.23
   0  10   4   -0.32    0.19
   1  10   4   -0.19    0.21
   2  10   4    0.64    0.27
   2  10   4    0.37    0.21
   3  10   4    0.41    0.22
   3  10   4    0.48    0.26
   4  10   4   -0.10    0.19
   4  10   4    0.39    0.24
   5  10   4    0.20    0.23
  -8  11   4    0.74    0.29
  -7  11   4   -0.01    0.27
  -6  11   4    0.01    0.22
  -5  11   4   -0.09    0.23
  -4  11   4    1.49    0.37
  -3  11   4    0.35    0.25
  -2  11   4   -0.04    0.21
  -1  11   4    0.55    0.27
   0  11   4    1.60    0.38
   1  11   4    0.17    0.26
   2  11   4    0.47    0.28
   2  11   4    0.25    0.22
   3  11   4    0.61    0.28
   3  11   4    0.07    0.22
   1  12   4    0.37    0.22
   0  15  -5    0.43    0.27
  -1  15  -5    0.78    0.28
  -2  15  -5    0.50    0.24
  -3  15  -5   -0.06    0.23
  -4  15  -5    1.04    0.28
  -5  15  -5   -0.04    0.22
  -6  15  -5    0.20    0.23
   7 -15   5    0.18    0.21
   4  14  -5    0.36    0.23
   3  14  -5   -0.15    0.21
   2  14  -5    0.68    0.25
   1  14  -5    0.47    0.24
   0  14  -5    0.61    0.26
  -1  14  -5    1.13    0.28
  -2  14  -5    0.20    0.18
  -3  14  -5    0.64    0.25
  -4  14  -5   -0.05    0.17
  -5  14  -5    0.13    0.17
  -6  14  -5    0.34    0.19
   6 -14   5    0.01    0.18
   7 -14   5    0.00    0.23
   8 -14   5   -0.18    0.19
   9 -14   5    0.14    0.25
   6  13  -5   -0.15    0.16
   5  13  -5   -0.08    0.16
   4  13  -5    0.92    0.27
   3  13  -5    0.11    0.18
   2  13  -5   -0.04    0.21
   1  13  -5   -0.02    0.16
   0  13  -5    0.43    0.20
  -1  13  -5    0.23    0.18
  -2  13  -5   -0.06    0.19
  -3  13  -5    0.14    0.17
  -4  13  -5    0.10    0.16
   4 -13   5    0.00    0.16
  -5  13  -5    0.01    0.15
   5 -13   5   -0.10    0.19
  -6  13  -5    0.93    0.24
   6 -13   5    0.65    0.22
   7 -13   5    0.05    0.18
   8 -13   5   -0.17    0.20
   9 -13   5    0.65    0.27
  10 -13   5    0.42    0.26
   7  12  -5    1.03    0.27
   6  12  -5    0.38    0.22
   5  12  -5    0.89    0.26
   4  12  -5    0.24    0.18
   3  12  -5    0.22    0.18
   2  12  -5   -0.05    0.18
   1  12  -5    0.60    0.21
   0  12  -5   -0.05    0.14
  -1  12  -5   -0.07    0.18
  -2  12  -5    0.32    0.20
  -3  12  -5    1.05    0.24
   3 -12   5    0.45    0.18
  -4  12  -5   -0.20    0.15
   4 -12   5   -0.04    0.17
  -5  12  -5    0.34    0.17
   5 -12   5    0.12    0.19
  -6  12  -5    2.52    0.32
   6 -12   5    2.82    0.34
   7 -12   5    1.19    0.28
   8 -12   5   -0.16    0.17
   9 -12   5    2.14    0.35
  10 -12   5    3.01    0.41
  11 -12   5    0.22    0.27
   7  11  -5    0.14    0.19
   6  11  -5   -0.09    0.14
   5  11  -5    0.26    0.19
   4  11  -5    1.44    0.27
   3  11  -5    6.21    0.48
   2  11  -5    3.16    0.38
   1  11  -5    2.54    0.32
   0  11  -5    8.03    0.54
  -1  11  -5    3.16    0.35
  -2  11  -5    1.18    0.24
   2 -11   5    1.28    0.22
  -3  11  -5    0.90    0.21
   3 -11   5    0.63    0.18
  -4  11  -5    3.14    0.33
   4 -11   5    3.17    0.33
  -5  11  -5    1.07    0.21
   5 -11   5    0.51    0.18
  -6  11  -5    2.77    0.31
   6 -11   5    2.67    0.33
   7 -11   5   -0.03    0.18
   8 -11   5    1.92    0.31
   9 -11   5    4.05    0.44
  10 -11   5    2.42    0.37
  11 -11   5   -0.11    0.23
  12 -11   5   -0.20    0.23
   7  10  -5    0.73    0.21
   6  10  -5    1.60    0.26
   5  10  -5    0.25    0.18
   4  10  -5    0.02    0.14
   3  10  -5    0.21    0.16
   2  10  -5    2.82    0.34
   1  10  -5    4.86    0.41
   0  10  -5    1.34    0.25
  -1  10  -5   13.90    0.77
  -2  10  -5    1.55    0.24
   2 -10   5    1.18    0.20
  -3  10  -5   -0.07    0.13
   3 -10   5   -0.21    0.14
  -4  10  -5    3.02    0.32
   4 -10   5    2.46    0.28
  -5  10  -5    0.09    0.15
   5 -10   5   -0.03    0.17
  -6  10  -5    3.91    0.32
   6 -10   5    3.21    0.33
   7 -10   5    4.31    0.41
   8 -10   5    0.28    0.18
   9 -10   5    0.09    0.20
  10 -10   5    0.04    0.21
  11 -10   5    0.49    0.23
  12 -10   5    0.54    0.24
  11   9  -5    0.16    0.22
  10   9  -5    0.28    0.22
   9   9  -5    0.05    0.17
   8   9  -5    0.00    0.14
   7   9  -5    1.14    0.23
   7   9  -5    0.87    0.21
   6   9  -5    0.17    0.16
   5   9  -5    0.09    0.13
   4   9  -5    0.03    0.13
   3   9  -5    2.75    0.31
   2   9  -5    6.39    0.46
   1   9  -5    0.08    0.05
   0   9  -5    1.93    0.25
  -1   9  -5    0.60    0.18
   1  -9   5    0.05    0.12
  -3   9  -5    1.14    0.20
  -4   9  -5    3.31    0.29
   4  -9   5    3.30    0.29
  -5   9  -5   17.21    0.85
   5  -9   5   15.56    0.81
  -6   9  -5   26.26    1.28
   6  -9   5   28.43    1.27
   7  -9   5    0.15    0.15
   8  -9   5    0.03    0.17
   9  -9   5    0.47    0.21
  10  -9   5    1.89    0.30
  11  -9   5    1.54    0.29
  12  -9   5    0.83    0.26
  13  -9   5    0.13    0.18
  11   8  -5    0.35    0.25
  10   8  -5    0.03    0.19
   9   8  -5    0.53    0.21
   8   8  -5    0.99    0.22
   7   8  -5    4.53    0.37
   7   8  -5    5.04    0.37
   6   8  -5   -0.08    0.12
   6   8  -5    0.08    0.15
   5   8  -5    1.57    0.24
   5   8  -5    2.29    0.23
   4   8  -5    7.90    0.43
   4   8  -5    7.64    0.49
   3   8  -5   10.47    0.61
   2   8  -5    3.43    0.30
   1   8  -5    0.12    0.05
   0   8  -5   37.75    1.74
   0  -8   5   38.06    1.62
  -1   8  -5    3.93    0.31
   1  -8   5    4.36    0.31
  -2   8  -5   12.57    0.64
   2  -8   5   10.87    0.59
  -4   8  -5   -0.07    0.11
   4  -8   5   -0.02    0.05
  -5   8  -5    4.05    0.31
   5  -8   5    4.16    0.33
  -6   8  -5   63.29    2.81
   6  -8   5   64.62    2.68
   7  -8   5    0.34    0.18
   8  -8   5    1.42    0.23
   9  -8   5    1.56    0.25
  10  -8   5    1.20    0.26
  11  -8   5    0.33    0.20
  12  -8   5    0.63    0.25
  13  -8   5    0.05    0.22
  12   7  -5   -0.23    0.20
  11   7  -5    1.61    0.31
  10   7  -5    0.42    0.22
   9   7  -5    0.87    0.23
   8   7  -5    0.49    0.19
   7   7  -5    2.19    0.27
   7   7  -5    2.21    0.26
   6   7  -5    0.69    0.18
   6   7  -5    0.65    0.17
   5   7  -5    0.02    0.11
   5   7  -5    0.28    0.16
   4   7  -5   10.28    0.51
   4   7  -5   10.73    0.60
   3   7  -5   32.66    1.35
   3   7  -5   31.93    1.50
   2   7  -5    4.50    0.32
   2   7  -5    4.58    0.25
   0   7  -5    2.44    0.24
   0  -7   5    2.22    0.21
  -1   7  -5    1.49    0.19
   1  -7   5    1.47    0.18
  -2   7  -5    4.23    0.30
   2  -7   5    4.75    0.31
  -3   7  -5    3.76    0.27
   3  -7   5    4.04    0.28
  -4   7  -5    0.15    0.11
   4  -7   5   -0.01    0.04
  -6   7  -5    2.50    0.22
   6  -7   5    2.35    0.27
   7  -7   5   10.62    0.59
   8  -7   5   -0.14    0.14
   9  -7   5    0.53    0.19
  10  -7   5    0.13    0.18
  11  -7   5    1.19    0.25
  12  -7   5   -0.08    0.18
  13  -7   5    0.79    0.24
  12   6  -5    0.05    0.20
  11   6  -5    0.28    0.22
  10   6  -5    0.06    0.16
   9   6  -5    0.60    0.19
   8   6  -5    0.61    0.19
   7   6  -5    0.87    0.18
   7   6  -5    0.92    0.19
   6   6  -5    4.98    0.37
   6   6  -5    4.63    0.34
   5   6  -5    2.51    0.24
   5   6  -5    2.49    0.27
   4   6  -5    0.18    0.11
   4   6  -5    0.42    0.15
   2   6  -5    1.28    0.18
   2   6  -5    1.15    0.12
   1   6  -5    3.54    0.17
  -1  -6   5    2.87    0.22
   0   6  -5    2.89    0.23
   0  -6   5    2.69    0.20
  -1   6  -5    4.12    0.28
   1  -6   5    4.48    0.28
  -2   6  -5   59.42    2.61
   2  -6   5   59.59    2.45
  -3   6  -5    5.08    0.32
   3  -6   5    5.59    0.32
  -4   6  -5   12.25    0.61
   4  -6   5   12.41    0.53
   4  -6   5   11.89    0.60
  -5   6  -5    5.70    0.34
   5  -6   5    6.13    0.30
   7  -6   5    1.34    0.22
   7  -6   5    1.31    0.18
   8  -6   5    5.86    0.41
   9  -6   5    2.16    0.28
  10  -6   5    0.64    0.21
  11  -6   5    0.03    0.17
  12  -6   5    0.47    0.20
  13  -6   5    1.96    0.33
  13   5  -5    0.73    0.27
  12   5  -5   -0.03    0.17
  11   5  -5    0.12    0.17
  10   5  -5   -0.15    0.17
   9   5  -5    1.48    0.24
   8   5  -5    0.14    0.12
   8   5  -5    0.07    0.14
   7   5  -5    2.94    0.30
   7   5  -5    2.65    0.27
   6   5  -5    7.59    0.46
   6   5  -5    7.70    0.45
   5   5  -5   15.99    0.80
   5   5  -5   15.71    0.74
   4   5  -5    2.86    0.24
   4   5  -5    3.02    0.22
   3   5  -5   24.74    1.16
   2   5  -5   16.24    0.70
   2   5  -5   16.56    0.80
   0   5  -5   18.56    0.86
   0  -5   5   17.32    0.78
  -1   5  -5    2.13    0.19
   1  -5   5    2.56    0.18
  -2   5  -5   26.15    1.17
   2  -5   5   24.99    1.09
  -3   5  -5   23.35    1.08
   3  -5   5   23.90    1.03
  -4   5  -5    0.12    0.06
   4  -5   5    0.48    0.12
   4  -5   5    0.42    0.08
  -5   5  -5    0.14    0.06
   5  -5   5    0.27    0.10
   7  -5   5    1.00    0.17
   7  -5   5    0.93    0.18
   8  -5   5    9.66    0.52
   8  -5   5    9.93    0.58
   9  -5   5    0.94    0.19
   9  -5   5    1.16    0.22
  10  -5   5    1.43    0.26
  10  -5   5    1.46    0.24
  11  -5   5    1.15    0.26
  11  -5   5    1.06    0.24
  12  -5   5    0.01    0.19
  13  -5   5    0.03    0.21
  13   4  -5   -0.03    0.21
  12   4  -5    0.46    0.21
  11   4  -5    0.19    0.20
  10   4  -5    0.42    0.20
   9   4  -5   10.33    0.61
   8   4  -5    2.00    0.27
   8   4  -5    2.32    0.25
   7   4  -5   12.88    0.67
   7   4  -5   12.68    0.65
   6   4  -5    3.96    0.29
   6   4  -5    3.66    0.27
   5   4  -5    3.02    0.24
   5   4  -5    3.08    0.24
   4   4  -5    5.30    0.30
   4   4  -5    5.45    0.33
   3   4  -5    0.06    0.08
   3   4  -5    0.10    0.06
   2   4  -5    6.69    0.32
   2   4  -5    6.62    0.38
   1   4  -5   43.46    1.70
  -1  -4   5   41.38    1.73
   0   4  -5    0.29    0.09
   0  -4   5    0.45    0.09
  -1   4  -5   39.16    1.70
   1  -4   5   37.68    1.58
   2  -4   5   11.23    0.53
   3  -4   5    0.65    0.08
   3  -4   5    0.49    0.11
  -4   4  -5    1.13    0.13
   4  -4   5    1.28    0.16
   4  -4   5    1.49    0.13
  -5   4  -5    0.30    0.09
   5  -4   5    0.61    0.11
   5  -4   5   -0.04    0.11
   7  -4   5    5.42    0.34
   8  -4   5    1.74    0.23
   8  -4   5    1.79    0.24
   9  -4   5    4.02    0.33
   9  -4   5    4.68    0.38
  10  -4   5    0.43    0.18
  10  -4   5    0.69    0.19
  11  -4   5    0.14    0.18
  11  -4   5    0.09    0.18
  12  -4   5    0.98    0.26
  12  -4   5    1.05    0.25
  13  -4   5    1.02    0.28
  13  -4   5    1.33    0.31
  14   3  -5   -0.19    0.22
  13   3  -5    0.21    0.23
  12   3  -5    0.03    0.20
  11   3  -5    2.30    0.33
  10   3  -5   -0.11    0.14
   8   3  -5    1.06    0.18
   8   3  -5    1.51    0.22
   7   3  -5    5.57    0.37
   7   3  -5    5.49    0.35
   6   3  -5   22.71    1.08
   6   3  -5   23.60    1.04
   5   3  -5    5.38    0.32
   5   3  -5    5.37    0.34
   4   3  -5    4.53    0.30
   4   3  -5    4.83    0.28
   3   3  -5   35.51    1.59
   2   3  -5   31.52    1.41
   2   3  -5   31.28    1.29
   1   3  -5   42.62    1.72
  -1  -3   5   43.00    1.73
   0   3  -5   15.25    0.82
   0  -3   5   20.44    0.76
   1  -3   5   25.76    1.08
  -2   3  -5    0.00    0.04
   2  -3   5    0.02    0.05
   2  -3   5    0.05    0.06
  -3   3  -5    2.01    0.16
   3  -3   5    2.09    0.15
   3  -3   5    2.22    0.18
  -4   3  -5   10.54    0.51
   4  -3   5   10.97    0.53
   4  -3   5   10.35    0.49
  -5   3  -5   11.79    0.54
   5  -3   5   11.52    0.57
   5  -3   5   10.66    0.53
   6  -3   5   -0.06    0.10
   7  -3   5   16.32    0.78
   8  -3   5    9.94    0.55
   9  -3   5    0.31    0.17
  10  -3   5    0.21    0.16
  11  -3   5    0.14    0.19
  11  -3   5    0.05    0.14
  12  -3   5    0.66    0.23
  12  -3   5    0.56    0.23
  13  -3   5    2.29    0.36
  13  -3   5    2.27    0.36
  14   2  -5    0.82    0.31
  13   2  -5    0.29    0.21
  12   2  -5    0.41    0.23
  11   2  -5    5.29    0.43
  10   2  -5    0.82    0.22
   9   2  -5    6.24    0.43
   8   2  -5    5.78    0.37
   8   2  -5    5.70    0.39
   7   2  -5    0.08    0.10
   7   2  -5    0.39    0.14
   6   2  -5   22.56    1.07
   6   2  -5   23.31    1.03
   5   2  -5   19.93    0.94
   5   2  -5   20.01    0.89
   4   2  -5   27.15    1.15
   4   2  -5   26.89    1.23
   3   2  -5   47.60    2.10
   2   2  -5    1.26    0.15
   2   2  -5    1.37    0.12
   1   2  -5    7.28    0.34
  -1  -2   5    7.24    0.32
   0  -2   5  141.01    5.59
  -2   2  -5    1.42    0.13
  -3   2  -5    8.30    0.42
   3  -2   5    8.36    0.40
  -4   2  -5    2.72    0.19
   4  -2   5    3.13    0.21
  -5   2  -5   31.92    1.38
   5  -2   5   30.73    1.34
   6  -2   5   39.09    1.65
   7  -2   5    3.81    0.31
   8  -2   5   -0.13    0.14
   9  -2   5    4.36    0.37
  10  -2   5    0.91    0.23
  11  -2   5    0.05    0.15
  12  -2   5    0.29    0.19
  13  -2   5    1.03    0.26
  14   1  -5    0.25    0.22
  13   1  -5    0.12    0.23
  12   1  -5    0.34    0.20
  11   1  -5    2.41    0.34
  10   1  -5    4.96    0.42
   9   1  -5   31.93    1.45
   8   1  -5    1.61    0.19
   8   1  -5    1.58    0.23
   7   1  -5   32.71    1.46
   7   1  -5   31.47    1.40
   6   1  -5   10.92    0.58
   6   1  -5   11.71    0.57
   5   1  -5   11.76    0.59
   5   1  -5   13.19    0.63
   4   1  -5  155.46    6.67
   4   1  -5  156.73    6.22
   3   1  -5    0.83    0.13
   3   1  -5    0.89    0.12
   2   1  -5    0.49    0.11
   1   1  -5   13.06    0.63
   0   1  -5   16.36    0.77
  -1   1  -5    0.09    0.05
  -2   1  -5    0.14    0.06
   3  -1   5   67.25    2.73
  -4   1  -5   59.87    2.91
   4  -1   5   75.59    2.76
   5  -1   5   10.61    0.52
   5  -1   5   10.28    0.52
   6  -1   5    9.52    0.51
   7  -1   5    0.58    0.18
   8  -1   5    0.71    0.19
   9  -1   5    8.76    0.54
  10  -1   5    1.08    0.24
  11  -1   5    0.24    0.17
  12  -1   5    0.29    0.23
  13  -1   5    0.29    0.19
  14   0  -5   -0.21    0.17
  13   0  -5    0.08    0.18
  12   0  -5    0.38    0.20
  11   0  -5    0.19    0.17
  10   0  -5    7.64    0.50
   9   0  -5   26.96    1.26
   8   0  -5    0.93    0.16
   8   0  -5    0.98    0.19
   7   0  -5   30.61    1.32
   7   0  -5   28.82    1.36
   6   0  -5    2.36    0.23
   6   0  -5    2.23    0.21
   5   0  -5   14.56    0.74
   5   0  -5   16.21    0.72
   4   0  -5  172.84    7.25
   4   0  -5  166.70    6.77
   3   0  -5   10.13    0.49
   3   0  -5   10.43    0.53
   2   0  -5   12.01    0.56
   2   0  -5   12.65    0.61
   1   0  -5   10.61    0.54
   0   0  -5   69.52    3.02
  -1   0  -5   17.89    0.84
  -2   0  -5   21.81    1.01
   3   0   5  138.40    5.90
   3   0   5  137.99    5.53
   4   0   5    9.23    0.48
   4   0   5    9.47    0.48
   5   0   5   11.26    0.57
   5   0   5   11.09    0.56
   6   0   5    0.37    0.16
   7   0   5    0.00    0.13
   8   0   5   -0.05    0.15
   9   0   5   10.56    0.61
  10   0   5    0.02    0.15
  11   0   5   -0.02    0.20
  12   0   5    0.23    0.22
  13   0   5    0.05    0.19
  14  -1  -5    0.09    0.24
  13  -1  -5    1.78    0.31
  12  -1  -5    0.11    0.17
  11  -1  -5    4.53    0.44
  10  -1  -5    0.23    0.16
   9  -1  -5    1.52    0.24
   8  -1  -5    8.95    0.52
   8  -1  -5    9.14    0.51
   7  -1  -5    0.70    0.14
   7  -1  -5    1.28    0.19
   6  -1  -5    2.37    0.24
   6  -1  -5    2.77    0.24
   5  -1  -5    0.02    0.09
   5  -1  -5    0.17    0.10
   4  -1  -5    1.33    0.17
   4  -1  -5    1.22    0.16
   3  -1  -5   33.38    1.40
   3  -1  -5   32.99    1.50
   2  -1  -5   13.09    0.60
   2  -1  -5   12.84    0.65
   1  -1  -5    5.31    0.33
   0  -1  -5  244.55   10.14
   0   1   5  232.38   10.14
   1   1   5    0.95    0.14
   2   1   5    1.68    0.18
   3   1   5    3.89    0.27
   4   1   5    6.72    0.38
   4   1   5    6.14    0.38
   5   1   5    4.83    0.33
   5   1   5    5.10    0.32
   6   1   5   11.99    0.63
   7   1   5   -0.22    0.15
   8   1   5    1.25    0.22
   9   1   5    1.95    0.28
  10   1   5    0.07    0.17
  11   1   5    0.17    0.22
  12   1   5    0.03    0.19
  14  -2  -5   -0.04    0.23
  13  -2  -5    3.27    0.43
  12  -2  -5    1.37    0.27
  11  -2  -5    1.78    0.28
  10  -2  -5    3.98    0.38
   9  -2  -5    4.10    0.33
   8  -2  -5   12.46    0.65
  -8   2   5   12.41    0.66
   6  -2  -5    0.08    0.05
  -6   2   5    0.71    0.15
   5  -2  -5    8.35    0.45
  -5   2   5    8.67    0.48
   4  -2  -5   10.70    0.52
  -4   2   5   10.21    0.56
   3  -2  -5    3.62    0.26
  -3   2   5    4.21    0.29
  -2   2   5   30.40    1.40
  -1   2   5   13.01    0.66
   0   2   5   32.42    1.48
   1   2   5   15.29    0.76
   2   2   5   57.56    2.54
   3   2   5   12.24    0.64
   4   2   5    3.84    0.29
   4   2   5    4.00    0.32
   5   2   5   13.88    0.71
   5   2   5   13.55    0.70
   6   2   5    1.69    0.24
   7   2   5   -0.05    0.16
   8   2   5    2.62    0.32
   9   2   5    0.03    0.15
  11   2   5    0.19    0.19
  12   2   5    0.08    0.25
  14  -3  -5    0.48    0.22
  13  -3  -5    0.95    0.25
  12  -3  -5    0.77    0.23
  11  -3  -5    0.63    0.20
  10  -3  -5    0.24    0.17
   9  -3  -5   13.98    0.74
   8  -3  -5    3.97    0.37
  -8   3   5    3.88    0.32
   7  -3  -5   18.88    1.03
  -7   3   5   26.91    1.12
   6  -3  -5    0.03    0.05
  -6   3   5    0.67    0.17
  -5   3   5    2.62    0.26
  -4   3   5    0.79    0.16
  -2   3   5    4.95    0.34
  -1   3   5    0.16    0.13
   0   3   5    0.13    0.14
   1   3   5    2.08    0.24
   2   3   5   10.81    0.60
   3   3   5    0.31    0.14
   4   3   5    0.19    0.13
   4   3   5    0.10    0.15
   5   3   5    1.64    0.24
   5   3   5    1.89    0.25
   6   3   5    0.06    0.16
   7   3   5   -0.10    0.16
   8   3   5    0.17    0.18
   9   3   5    0.81    0.22
  10   3   5    0.11    0.18
  11   3   5   -0.03    0.18
  14  -4  -5    0.37    0.24
  13  -4  -5   -0.15    0.19
  12  -4  -5    0.02    0.19
  11  -4  -5    1.30    0.26
  10  -4  -5    0.17    0.16
   9  -4  -5    1.30    0.24
   8  -4  -5    2.03    0.25
  -8   4   5    1.48    0.24
   7  -4  -5   23.15    1.10
  -7   4   5   24.78    1.18
   6  -4  -5    2.66    0.28
  -6   4   5    2.59    0.28
   5  -4  -5    5.31    0.35
  -4   4   5    7.19    0.46
  -3   4   5    7.18    0.46
  -2   4   5    6.53    0.41
  -1   4   5    2.92    0.25
   0   4   5    2.52    0.28
   1   4   5    1.89    0.26
   2   4   5    7.23    0.47
   3   4   5    0.00    0.14
   4   4   5   -0.18    0.13
   4   4   5    0.07    0.18
   5   4   5    2.38    0.28
   5   4   5    2.31    0.29
   6   4   5    1.34    0.23
   7   4   5    0.22    0.16
   8   4   5    1.30    0.26
   9   4   5    1.08    0.25
  10   4   5   -0.14    0.18
  11   4   5   -0.02    0.20
  13  -5  -5    0.68    0.28
  12  -5  -5    0.36    0.22
  11  -5  -5    1.42    0.26
  10  -5  -5    1.70    0.27
   9  -5  -5   -0.04    0.16
   8  -5  -5   21.62    1.03
  -8   5   5   20.96    1.07
   7  -5  -5    5.21    0.38
  -7   5   5    4.38    0.40
   6  -5  -5    2.18    0.27
  -6   5   5    2.54    0.31
   5  -5  -5    2.19    0.26
  -5   5   5    2.38    0.31
  -4   5   5    7.88    0.51
  -3   5   5    5.82    0.43
  -2   5   5    0.02    0.06
  -1   5   5    0.03    0.10
   0   5   5    3.56    0.33
   1   5   5    0.14    0.17
   2   5   5    0.66    0.23
   3   5   5   -0.17    0.19
   4   5   5    0.73    0.22
   4   5   5    0.47    0.17
   5   5   5    1.46    0.25
   5   5   5    1.49    0.26
   6   5   5    1.53    0.25
   7   5   5    1.34    0.25
   8   5   5    0.08    0.18
   9   5   5    0.39    0.24
  10   5   5    0.03    0.22
  13  -6  -5    1.81    0.32
  12  -6  -5    0.06    0.21
  11  -6  -5    0.54    0.22
  10  -6  -5    0.30    0.20
   9  -6  -5    2.69    0.33
   8  -6  -5    3.04    0.33
  -8   6   5    3.46    0.36
   7  -6  -5    8.55    0.52
  -7   6   5    8.41    0.55
   6  -6  -5    4.20    0.36
  -6   6   5    4.24    0.37
  -5   6   5    2.67    0.32
  -4   6   5    3.10    0.35
  -3   6   5   10.00    0.62
  -2   6   5    0.27    0.18
  -1   6   5    0.82    0.23
   0   6   5    2.41    0.33
   1   6   5    5.40    0.46
   2   6   5   -0.09    0.20
   3   6   5    9.38    0.56
   3   6   5    9.11    0.60
   4   6   5    1.56    0.29
   4   6   5    1.43    0.24
   5   6   5    0.37    0.19
   5   6   5    0.33    0.22
   6   6   5    0.12    0.19
   7   6   5    0.21    0.20
   8   6   5   -0.16    0.21
   9   6   5   -0.02    0.20
  12  -7  -5    0.44    0.24
  11  -7  -5    0.30    0.22
  10  -7  -5    0.95    0.23
   9  -7  -5    3.22    0.37
   8  -7  -5    0.93    0.22
  -8   7   5    0.74    0.23
   7  -7  -5   -0.09    0.13
  -7   7   5   -0.04    0.20
  -6   7   5   11.14    0.72
  -5   7   5    2.80    0.36
  -4   7   5    1.51    0.28
  -3   7   5    2.80    0.35
  -2   7   5    3.27    0.38
  -1   7   5    0.41    0.22
   0   7   5    3.18    0.39
   1   7   5    0.40    0.26
   2   7   5   -0.25    0.21
   3   7   5    1.99    0.29
   3   7   5    2.35    0.36
   4   7   5    3.58    0.43
   4   7   5    3.21    0.37
   5   7   5    1.59    0.29
   5   7   5    1.15    0.27
   6   7   5    0.10    0.18
   7   7   5    1.08    0.26
   8   7   5    0.28    0.26
  12  -8  -5    0.73    0.27
  11  -8  -5    0.78    0.23
  10  -8  -5   -0.13    0.18
   9  -8  -5    0.64    0.21
   8  -8  -5    0.47    0.19
  -8   8   5    0.10    0.24
  -7   8   5    2.05    0.35
  -6   8   5    3.73    0.43
  -5   8   5    0.02    0.19
  -4   8   5   -0.07    0.19
  -3   8   5    0.15    0.20
  -2   8   5   -0.04    0.21
  -1   8   5    0.18    0.20
   0   8   5    0.25    0.22
   1   8   5    3.36    0.42
   2   8   5    4.94    0.51
   3   8   5    0.08    0.15
   3   8   5    0.12    0.25
   4   8   5   -0.03    0.16
   4   8   5    0.33    0.23
   5   8   5    0.26    0.22
   6   8   5    0.42    0.24
   7   8   5    0.57    0.25
  11  -9  -5    0.59    0.26
  10  -9  -5    0.32    0.23
  -8   9   5    2.96    0.40
  -7   9   5    1.68    0.34
  -6   9   5    0.14    0.22
  -5   9   5    0.54    0.25
  -4   9   5    0.04    0.21
  -3   9   5    1.18    0.29
  -2   9   5    0.82    0.27
  -1   9   5    4.84    0.51
   0   9   5    1.90    0.38
   1   9   5    0.03    0.27
   2   9   5    0.44    0.19
   2   9   5    0.27    0.23
   3   9   5   -0.09    0.19
   3   9   5    0.01    0.26
   4   9   5   -0.25    0.19
   4   9   5   -0.13    0.25
   5   9   5    1.15    0.29
   6   9   5    0.72    0.28
  -8  10   5    0.36    0.26
  -7  10   5    0.18    0.24
  -6  10   5    0.00    0.26
  -5  10   5    0.54    0.29
  -4  10   5    0.48    0.26
  -3  10   5    0.04    0.26
  -2  10   5    0.40    0.28
  -1  10   5    0.44    0.27
   0  10   5    1.44    0.37
   1  10   5    0.46    0.31
   2  10   5    0.45    0.23
   2  10   5    0.37    0.30
   3  10   5    0.29    0.20
   3  10   5    0.36    0.31
   4  10   5    0.05    0.23
   4  10   5   -0.05    0.26
  -8  11   5   -0.14    0.24
  -7  11   5    0.03    0.24
  -6  11   5    0.23    0.30
  -5  11   5    0.49    0.32
  -4  11   5    0.10    0.29
  -3  11   5    0.69    0.30
  -2  11   5   -0.25    0.27
  -1  11   5    0.07    0.25
   2  11   5    0.29    0.22
   0  15  -6    0.01    0.19
  -1  15  -6    0.21    0.24
  -3  15  -6   -0.15    0.17
  -4  15  -6   -0.07    0.22
  -5  15  -6    0.07    0.20
   6 -15   6    0.14    0.20
   7 -15   6    0.28    0.25
   4  14  -6    0.22    0.23
   3  14  -6    0.16    0.18
   2  14  -6    0.31    0.19
   1  14  -6    0.03    0.20
   0  14  -6   -0.06    0.19
  -1  14  -6    0.47    0.23
  -2  14  -6   -0.05    0.19
  -3  14  -6    0.20    0.21
  -4  14  -6    0.42    0.23
  -5  14  -6    0.53    0.23
   5 -14   6   -0.03    0.18
   6 -14   6    0.83    0.27
   7 -14   6    0.69    0.25
   8 -14   6    0.12    0.21
   9 -14   6    0.39    0.28
   6  13  -6    0.06    0.21
   5  13  -6    0.17    0.21
   4  13  -6    0.61    0.24
   3  13  -6    0.28    0.18
   2  13  -6    0.14    0.17
   1  13  -6    0.05    0.18
   0  13  -6    0.66    0.22
  -1  13  -6    0.34    0.22
  -2  13  -6    0.12    0.16
  -3  13  -6   -0.25    0.13
  -4  13  -6    0.23    0.17
   4 -13   6    0.13    0.20
  -5  13  -6    0.20    0.19
   5 -13   6    0.09    0.17
  -6  13  -6    0.49    0.21
   6 -13   6    0.32    0.23
   7 -13   6   -0.16    0.16
   8 -13   6    0.40    0.25
   9 -13   6    0.71    0.29
  10 -13   6   -0.12    0.24
   7  12  -6    0.50    0.20
   6  12  -6    0.49    0.23
   5  12  -6    0.09    0.17
   4  12  -6    0.20    0.20
   3  12  -6    0.01    0.16
   2  12  -6    1.02    0.24
   1  12  -6    1.03    0.25
   0  12  -6    2.94    0.35
  -1  12  -6    1.67    0.28
  -2  12  -6    0.14    0.16
  -3  12  -6    0.07    0.18
   3 -12   6    0.10    0.15
  -4  12  -6    0.00    0.16
   4 -12   6   -0.05    0.17
  -5  12  -6    0.19    0.16
   5 -12   6   -0.18    0.13
  -6  12  -6    3.31    0.35
   6 -12   6    2.67    0.33
   7 -12   6    1.95    0.32
   8 -12   6   -0.03    0.18
   9 -12   6    1.62    0.33
  10 -12   6    0.25    0.23
  11 -12   6    0.09    0.27
   7  11  -6    0.03    0.15
   6  11  -6    0.07    0.18
   5  11  -6    0.15    0.19
   4  11  -6   -0.10    0.17
   3  11  -6    0.91    0.22
   2  11  -6    2.91    0.34
   1  11  -6    2.20    0.30
   0  11  -6    3.19    0.35
  -1  11  -6    2.13    0.29
  -2  11  -6    5.96    0.45
   2 -11   6    5.13    0.40
  -3  11  -6    0.12    0.14
   3 -11   6   -0.04    0.13
  -4  11  -6    9.91    0.61
   4 -11   6    9.42    0.57
  -5  11  -6    6.41    0.45
   5 -11   6    6.54    0.46
  -6  11  -6    3.18    0.33
   6 -11   6    2.50    0.31
   7 -11   6    0.38    0.19
   8 -11   6    1.26    0.27
   9 -11   6    5.21    0.50
  10 -11   6    0.16    0.26
  11 -11   6    0.48    0.27
  12 -11   6    0.09    0.26
   7  10  -6   -0.06    0.15
   6  10  -6   -0.16    0.15
   5  10  -6    3.30    0.37
   4  10  -6    2.34    0.32
   3  10  -6    0.07    0.14
   2  10  -6    2.27    0.28
   1  10  -6    1.75    0.25
   0  10  -6    0.61    0.18
  -1  10  -6    0.08    0.14
   1 -10   6    0.12    0.14
  -2  10  -6    7.89    0.50
   2 -10   6    7.52    0.48
  -3  10  -6   12.59    0.71
   3 -10   6   13.37    0.69
  -4  10  -6    2.93    0.31
   4 -10   6    3.13    0.31
  -5  10  -6    1.46    0.22
   5 -10   6    1.31    0.24
  -6  10  -6    0.19    0.16
   6 -10   6    0.14    0.19
   7 -10   6    1.26    0.26
   8 -10   6    0.97    0.25
   9 -10   6    7.63    0.55
  10 -10   6    1.18    0.28
  11 -10   6    0.20    0.20
  12 -10   6    0.12    0.23
   7   9  -6   -0.03    0.15
   6   9  -6    0.72    0.19
   5   9  -6    2.55    0.30
   4   9  -6    4.18    0.38
   3   9  -6    4.78    0.38
   2   9  -6    6.19    0.44
   1   9  -6    0.08    0.05
   0   9  -6   10.96    0.64
   0  -9   6   11.89    0.60
  -1   9  -6    1.23    0.21
   1  -9   6    1.08    0.19
  -2   9  -6   13.40    0.73
   2  -9   6   14.12    0.69
  -3   9  -6    4.24    0.34
   3  -9   6    3.42    0.30
  -4   9  -6    0.04    0.12
   4  -9   6   -0.07    0.13
  -5   9  -6   16.21    0.83
   5  -9   6   16.12    0.82
   6  -9   6    1.58    0.24
   7  -9   6    2.57    0.30
   8  -9   6    0.01    0.17
   9  -9   6   -0.06    0.18
  10  -9   6    0.39    0.19
  11  -9   6    0.50    0.21
  12  -9   6   -0.07    0.20
  11   8  -6   -0.02    0.20
  10   8  -6    0.48    0.23
   9   8  -6    0.19    0.18
   8   8  -6    0.11    0.18
   7   8  -6    0.75    0.20
   7   8  -6    0.22    0.16
   6   8  -6    0.10    0.14
   6   8  -6    0.66    0.17
   5   8  -6    0.04    0.14
   4   8  -6    0.29    0.17
   3   8  -6    3.28    0.31
   2   8  -6    0.44    0.14
   1   8  -6    0.36    0.08
   0   8  -6   22.99    1.15
   0  -8   6   24.26    1.06
  -1   8  -6    0.12    0.12
   1  -8   6    0.14    0.12
  -2   8  -6    2.80    0.26
   2  -8   6    2.93    0.26
  -3   8  -6    0.15    0.13
   3  -8   6    0.23    0.13
   5  -8   6    9.43    0.52
   6  -8   6    6.86    0.44
   7  -8   6    0.27    0.18
   8  -8   6    0.50    0.17
   9  -8   6    2.97    0.35
  10  -8   6    0.15    0.20
  11  -8   6    0.44    0.20
  12  -8   6    0.17    0.21
  13  -8   6    0.35    0.22
  12   7  -6    0.07    0.23
  11   7  -6    0.80    0.26
  10   7  -6   -0.04    0.17
   9   7  -6    1.51    0.27
   8   7  -6    0.35    0.17
   8   7  -6    0.29    0.16
   7   7  -6    3.67    0.32
   7   7  -6    3.18    0.34
   6   7  -6    3.58    0.33
   6   7  -6    3.08    0.30
   5   7  -6    2.79    0.26
   5   7  -6    2.38    0.28
   4   7  -6    7.24    0.39
   4   7  -6    6.70    0.45
   3   7  -6   15.89    0.70
   2   7  -6   48.93    2.21
  -1  -7   6    2.72    0.23
   0   7  -6    2.95    0.26
   0  -7   6    3.16    0.24
  -1   7  -6    0.79    0.16
   1  -7   6    0.53    0.13
  -2   7  -6   -0.04    0.09
   2  -7   6    0.02    0.12
  -3   7  -6    1.33    0.17
   3  -7   6    1.27    0.18
  -4   7  -6   22.61    1.00
   4  -7   6   18.87    0.95
   6  -7   6    2.77    0.29
   7  -7   6    0.88    0.19
   8  -7   6    7.11    0.48
   9  -7   6    0.74    0.22
  10  -7   6    4.41    0.39
  11  -7   6    1.64    0.28
  12  -7   6    0.34    0.22
  13  -7   6    0.07    0.21
  12   6  -6    0.20    0.22
  11   6  -6    0.46    0.23
  10   6  -6    0.23    0.20
   9   6  -6    1.60    0.27
   8   6  -6    7.59    0.48
   8   6  -6    7.05    0.46
   7   6  -6    5.54    0.38
   7   6  -6    5.36    0.40
   6   6  -6   -0.15    0.11
   6   6  -6    0.12    0.14
   5   6  -6    6.96    0.39
   5   6  -6    6.52    0.43
   4   6  -6    4.61    0.29
   4   6  -6    4.45    0.34
   3   6  -6    2.03    0.24
   2   6  -6   13.11    0.57
   2   6  -6   12.91    0.68
   1   6  -6   24.99    1.02
  -1  -6   6   25.07    1.08
   0   6  -6    0.47    0.12
   0  -6   6    0.27    0.10
  -1   6  -6    3.89    0.28
   1  -6   6    3.80    0.26
  -2   6  -6   20.78    1.01
   2  -6   6   21.91    0.95
  -3   6  -6   20.18    0.98
   3  -6   6   21.14    0.93
  -4   6  -6    3.08    0.24
   4  -6   6    3.20    0.26
  -5   6  -6    0.16    0.10
   5  -6   6    0.03    0.07
   6  -6   6    0.06    0.06
   7  -6   6    0.13    0.15
   8  -6   6    0.42    0.18
   9  -6   6   -0.02    0.16
  10  -6   6    2.12    0.31
  11  -6   6    0.11    0.16
  12  -6   6    0.29    0.20
  13  -6   6    0.95    0.28
  13   5  -6    0.48    0.26
  12   5  -6   -0.03    0.19
  11   5  -6    0.48    0.23
  10   5  -6    1.38    0.27
   9   5  -6   -0.03    0.17
   8   5  -6    1.02    0.21
   8   5  -6    0.75    0.18
   7   5  -6    1.56    0.22
   7   5  -6    2.27    0.25
   6   5  -6    0.51    0.15
   6   5  -6    0.67    0.16
   5   5  -6   21.23    0.94
   5   5  -6   20.90    1.02
   4   5  -6    9.18    0.44
   4   5  -6    8.14    0.49
   3   5  -6    0.04    0.04
   3   5  -6    0.23    0.11
   2   5  -6   68.25    2.78
   2   5  -6   70.75    3.05
   1   5  -6   12.23    0.70
   1   5  -6   15.75    0.61
  -1  -5   6   14.82    0.65
   0   5  -6    0.12    0.09
   0  -5   6    0.03    0.07
  -1   5  -6   28.56    1.28
   1  -5   6   26.96    1.18
  -2   5  -6    3.07    0.23
   2  -5   6    3.14    0.22
  -3   5  -6    2.96    0.22
   3  -5   6    2.98    0.17
   3  -5   6    3.30    0.23
  -4   5  -6    5.86    0.35
   4  -5   6    6.22    0.31
   4  -5   6    6.47    0.38
  -5   5  -6    6.58    0.37
   5  -5   6    6.89    0.41
   5  -5   6    6.42    0.34
   7  -5   6    2.83    0.23
   7  -5   6    2.51    0.28
   8  -5   6    2.80    0.32
   8  -5   6    2.79    0.27
   9  -5   6    1.03    0.24
   9  -5   6    1.54    0.23
  10  -5   6    0.14    0.17
  11  -5   6    0.66    0.23
  12  -5   6    0.26    0.22
  13  -5   6    0.80    0.25
  13   4  -6    0.25    0.21
  12   4  -6    0.20    0.19
  11   4  -6    1.10    0.24
  10   4  -6    2.02    0.29
   9   4  -6    2.06    0.28
   8   4  -6    5.64    0.40
   8   4  -6    5.02    0.37
   7   4  -6    6.62    0.43
   7   4  -6    6.91    0.44
   6   4  -6    1.89    0.22
   6   4  -6    2.22    0.24
   5   4  -6   14.51    0.67
   5   4  -6   13.83    0.72
   4   4  -6    4.57    0.28
   4   4  -6    4.75    0.32
   3   4  -6    0.03    0.04
   3   4  -6    0.05    0.10
   2   4  -6   25.88    1.17
   2   4  -6   25.08    1.05
  -2  -4   6   24.71    1.05
   1   4  -6   15.04    0.64
   1   4  -6   15.15    0.73
  -1  -4   6   15.16    0.66
   0   4  -6    3.25    0.24
   0  -4   6    3.51    0.21
  -1   4  -6    8.73    0.46
   1  -4   6    8.49    0.42
  -2   4  -6    0.02    0.08
   2  -4   6    0.14    0.08
   2  -4   6    0.05    0.05
  -3   4  -6   15.88    0.75
   3  -4   6   15.75    0.73
   3  -4   6   15.66    0.68
  -4   4  -6    0.91    0.13
   4  -4   6    1.20    0.13
   4  -4   6    0.97    0.15
   5  -4   6    9.61    0.51
   5  -4   6    8.88    0.45
   6  -4   6    9.37    0.53
   7  -4   6   -0.02    0.13
   7  -4   6   -0.12    0.14
   8  -4   6    4.53    0.36
   8  -4   6    4.54    0.33
   9  -4   6    5.17    0.37
   9  -4   6    5.10    0.39
  10  -4   6    1.90    0.30
  10  -4   6    1.87    0.27
  11  -4   6    1.54    0.26
  11  -4   6    1.05    0.26
  12  -4   6   -0.10    0.16
  12  -4   6   -0.42    0.16
  13  -4   6   -0.06    0.18
  13   3  -6    0.28    0.22
  12   3  -6   -0.08    0.20
  11   3  -6    0.13    0.19
  10   3  -6    2.42    0.32
   9   3  -6   12.47    0.68
   8   3  -6   17.37    0.84
   8   3  -6   16.56    0.85
   7   3  -6    0.66    0.15
   7   3  -6    0.54    0.17
   6   3  -6    2.99    0.26
   6   3  -6    2.84    0.25
   5   3  -6    1.46    0.20
   5   3  -6    1.45    0.18
   4   3  -6   31.21    1.30
   4   3  -6   30.08    1.40
   3   3  -6   29.82    1.33
   3   3  -6   34.33    1.46
   2   3  -6    3.30    0.24
   2   3  -6    2.98    0.19
  -2  -3   6    3.09    0.17
   1   3  -6   96.02    3.88
   1   3  -6   98.45    4.20
  -1  -3   6   97.91    3.89
   0   3  -6    0.41    0.11
   0  -3   6    0.52    0.09
  -1   3  -6   12.92    0.63
   1  -3   6   12.36    0.57
  -2   3  -6   15.95    0.77
   2  -3   6   16.31    0.73
  -3   3  -6    0.17    0.08
   3  -3   6    0.22    0.09
   3  -3   6    0.28    0.08
   4  -3   6    5.45    0.34
   4  -3   6    5.20    0.29
   5  -3   6    2.49    0.22
   5  -3   6    2.49    0.25
   6  -3   6    0.74    0.15
   7  -3   6    8.00    0.46
   8  -3   6    0.57    0.18
   9  -3   6    1.71    0.25
  10  -3   6    3.67    0.37
  10  -3   6    3.35    0.37
  11  -3   6    0.59    0.20
  11  -3   6    0.85    0.25
  12  -3   6    1.12    0.25
  12  -3   6    1.09    0.26
  13  -3   6    0.61    0.24
  13  -3   6    0.90    0.29
  14   2  -6    0.44    0.23
  13   2  -6    1.64    0.33
  12   2  -6    0.23    0.22
  11   2  -6    2.48    0.33
  10   2  -6    1.90    0.28
   9   2  -6   15.98    0.82
   8   2  -6    7.97    0.49
   8   2  -6    8.69    0.50
   7   2  -6    4.57    0.34
   7   2  -6    4.56    0.32
   6   2  -6   10.34    0.56
   6   2  -6   10.48    0.55
   5   2  -6   27.78    1.29
   5   2  -6   27.95    1.21
   4   2  -6    0.13    0.09
   4   2  -6    0.20    0.10
   3   2  -6   26.31    1.20
   3   2  -6   25.49    1.10
   2   2  -6   43.16    1.91
  -2  -2   6   42.75    1.72
   1   2  -6    0.51    0.09
   1   2  -6    0.86    0.13
  -1  -2   6    0.84    0.08
   0   2  -6    0.81    0.13
   0  -2   6    0.98    0.10
  -1   2  -6    0.20    0.09
   1  -2   6    0.19    0.08
  -2   2  -6   62.49    2.68
   2  -2   6   60.58    2.50
  -3   2  -6    0.38    0.11
   3  -2   6    0.41    0.10
  -4   2  -6    4.63    0.29
   4  -2   6    5.16    0.29
  -5   2  -6   -0.05    0.04
   5  -2   6    0.05    0.11
   6  -2   6    5.91    0.38
   7  -2   6   13.65    0.69
   8  -2   6    4.57    0.36
   9  -2   6    0.10    0.14
  10  -2   6    2.20    0.32
  11  -2   6    0.14    0.20
  12  -2   6    1.05    0.26
  13  -2   6    0.66    0.27
  14   1  -6   -0.13    0.19
  13   1  -6    1.02    0.28
  12   1  -6    0.92    0.24
  11   1  -6    0.66    0.21
  10   1  -6    0.15    0.15
   9   1  -6    0.70    0.21
   8   1  -6    2.13    0.24
   8   1  -6    2.66    0.30
   7   1  -6   12.25    0.63
   7   1  -6   12.24    0.65
   6   1  -6   -0.02    0.10
   6   1  -6   -0.11    0.08
   5   1  -6    0.38    0.11
   5   1  -6    0.48    0.13
   4   1  -6    6.90    0.37
   4   1  -6    6.48    0.40
   3   1  -6   46.28    1.95
   3   1  -6   48.27    2.10
   2   1  -6   48.99    2.25
   2   1  -6   53.06    2.09
   1   1  -6   35.51    1.61
  -1  -1   6   36.24    1.45
   0   1  -6   27.20    1.25
  -1   1  -6    0.42    0.11
  -2   1  -6    0.19    0.10
  -3   1  -6   10.16    0.52
   3  -1   6   10.22    0.50
  -4   1  -6    0.07    0.10
   4  -1   6    0.08    0.09
   5  -1   6   13.61    0.65
   5  -1   6   12.97    0.65
   6  -1   6    7.24    0.43
   7  -1   6    4.69    0.37
   8  -1   6    1.08    0.21
   9  -1   6    1.54    0.26
  10  -1   6    0.70    0.23
  11  -1   6    2.93    0.38
  12  -1   6    0.62    0.25
  14   0  -6   -0.11    0.18
  13   0  -6    0.00    0.21
  12   0  -6    1.09    0.26
  11   0  -6    1.08    0.24
  10   0  -6   -0.04    0.16
   9   0  -6   21.66    1.04
   8   0  -6    3.81    0.31
   8   0  -6    4.07    0.35
   7   0  -6   10.88    0.60
   7   0  -6   11.32    0.60
   6   0  -6    0.37    0.14
   6   0  -6    0.18    0.13
   5   0  -6   10.29    0.53
   5   0  -6   10.18    0.55
   4   0  -6   23.61    1.04
   4   0  -6   23.62    1.11
   3   0  -6    0.86    0.16
   3   0  -6    0.67    0.13
   2   0  -6    0.19    0.08
   2   0  -6    0.06    0.09
   1   0  -6   18.30    0.88
   0   0  -6   67.99    2.97
  -1   0  -6   10.24    0.54
  -2   0  -6    9.12    0.50
   3   0   6    0.49    0.11
   4   0   6   11.68    0.62
   4   0   6   12.78    0.62
   5   0   6   15.16    0.75
   5   0   6   15.52    0.75
   6   0   6   13.43    0.69
   7   0   6    0.61    0.19
   8   0   6    0.94    0.20
   9   0   6    0.53    0.19
  10   0   6   -0.13    0.18
  11   0   6    1.10    0.26
  12   0   6    0.04    0.23
  14  -1  -6    0.22    0.25
  13  -1  -6    0.11    0.21
  12  -1  -6    0.22    0.21
  11  -1  -6    1.92    0.29
  10  -1  -6    0.00    0.13
   9  -1  -6   27.12    1.25
   8  -1  -6    4.07    0.35
   8  -1  -6    4.49    0.34
   7  -1  -6    8.97    0.50
   7  -1  -6    8.35    0.50
   6  -1  -6    1.90    0.22
   6  -1  -6    1.49    0.20
   5  -1  -6    1.70    0.20
   5  -1  -6    1.70    0.22
   4  -1  -6   33.13    1.41
   4  -1  -6   32.45    1.51
   3  -1  -6   56.75    2.33
   3  -1  -6   56.25    2.50
   2  -1  -6    0.74    0.13
   1  -1  -6    1.20    0.17
   0  -1  -6    5.06    0.34
   0   1   6    5.79    0.36
   1   1   6    2.45    0.22
   2   1   6    0.04    0.12
   3   1   6    2.47    0.24
   4   1   6   10.30    0.54
   4   1   6    9.96    0.55
   5   1   6    3.07    0.29
   5   1   6    2.47    0.25
   6   1   6    5.74    0.40
   7   1   6    4.14    0.35
   8   1   6    2.66    0.33
   9   1   6    0.16    0.20
  10   1   6   -0.10    0.16
  11   1   6    0.37    0.23
  12   1   6    0.08    0.24
  14  -2  -6    0.14    0.22
  13  -2  -6    0.61    0.24
  12  -2  -6    0.41    0.22
  11  -2  -6    1.31    0.25
  10  -2  -6    0.37    0.16
   9  -2  -6    1.62    0.26
   8  -2  -6    2.16    0.28
  -8   2   6    2.31    0.27
   7  -2  -6    0.10    0.14
  -7   2   6    0.01    0.15
   6  -2  -6    0.29    0.11
  -6   2   6    0.52    0.17
   5  -2  -6   11.33    0.59
  -5   2   6   11.81    0.63
   4  -2  -6    1.50    0.19
  -4   2   6    1.36    0.20
   3  -2  -6    2.92    0.24
  -3   2   6    2.78    0.25
  -2   2   6    2.81    0.23
  -1   2   6    1.02    0.18
   0   2   6    0.26    0.13
   1   2   6   10.28    0.57
   2   2   6    9.84    0.56
   3   2   6    0.24    0.13
   4   2   6   -0.06    0.14
   4   2   6   -0.08    0.12
   5   2   6    3.60    0.31
   5   2   6    3.81    0.34
   6   2   6    0.13    0.14
   7   2   6    3.48    0.36
   8   2   6    0.51    0.19
   9   2   6    0.41    0.19
  10   2   6    0.09    0.21
  11   2   6    0.77    0.27
  14  -3  -6   -0.03    0.22
  13  -3  -6    0.30    0.21
  12  -3  -6    0.79    0.25
  11  -3  -6    1.18    0.24
  10  -3  -6    0.20    0.15
   9  -3  -6    3.92    0.34
   8  -3  -6    7.54    0.49
  -8   3   6    7.55    0.49
   7  -3  -6   19.22    0.90
  -7   3   6   17.61    0.93
  -6   3   6    1.62    0.25
   5  -3  -6   -0.04    0.04
  -5   3   6    0.19    0.14
  -4   3   6    2.84    0.30
  -3   3   6    7.50    0.47
  -2   3   6    0.05    0.05
  -1   3   6    3.06    0.29
   0   3   6    1.40    0.22
   1   3   6    6.48    0.44
   2   3   6    7.48    0.48
   3   3   6   -0.06    0.16
   4   3   6    2.23    0.27
   4   3   6    2.42    0.29
   5   3   6    4.79    0.36
   5   3   6    4.30    0.38
   6   3   6    2.36    0.30
   7   3   6   -0.01    0.17
   8   3   6   -0.05    0.18
   9   3   6   -0.20    0.19
  10   3   6   -0.06    0.18
  11   3   6   -0.07    0.18
  13  -4  -6    0.89    0.27
  12  -4  -6    2.08    0.33
  11  -4  -6    0.19    0.19
  10  -4  -6   -0.02    0.14
   9  -4  -6    2.48    0.32
   8  -4  -6    3.89    0.34
  -8   4   6    4.00    0.39
   7  -4  -6   23.01    1.11
  -7   4   6   24.43    1.19
   6  -4  -6   -0.09    0.15
  -6   4   6    0.04    0.14
   5  -4  -6   12.86    0.67
  -5   4   6   13.41    0.73
  -4   4   6   10.55    0.62
  -3   4   6   16.62    0.88
  -2   4   6    0.02    0.05
  -1   4   6    2.01    0.27
   0   4   6    0.10    0.15
   1   4   6    2.67    0.31
   2   4   6    0.71    0.22
   3   4   6    1.44    0.26
   4   4   6    1.47    0.26
   4   4   6    1.56    0.25
   5   4   6   -0.03    0.16
   5   4   6    0.01    0.17
   6   4   6   -0.04    0.15
   7   4   6    0.16    0.17
   8   4   6    0.39    0.20
   9   4   6    1.49    0.30
  10   4   6   -0.09    0.21
  13  -5  -6   -0.13    0.17
  12  -5  -6   -0.08    0.17
  11  -5  -6    2.66    0.35
  10  -5  -6    0.10    0.16
   9  -5  -6    1.25    0.23
   8  -5  -6    1.40    0.24
  -8   5   6    1.13    0.26
   7  -5  -6    0.58    0.18
  -7   5   6    0.61    0.23
   6  -5  -6   -0.04    0.14
  -6   5   6    0.16    0.19
  -5   5   6    6.75    0.50
  -4   5   6    1.23    0.25
  -3   5   6    3.92    0.37
  -2   5   6    2.27    0.30
  -1   5   6    1.31    0.25
   0   5   6   17.43    0.93
   1   5   6    5.49    0.44
   2   5   6    3.42    0.39
   3   5   6    0.01    0.20
   4   5   6    2.86    0.35
   4   5   6    2.97    0.35
   5   5   6    0.51    0.19
   6   5   6    0.59    0.20
   7   5   6    0.78    0.25
   8   5   6    0.70    0.28
   9   5   6    0.65    0.24
  12  -6  -6    0.98    0.27
  11  -6  -6    1.40    0.27
  10  -6  -6    0.09    0.16
   9  -6  -6    1.04    0.23
   8  -6  -6    0.46    0.18
  -8   6   6    1.07    0.27
   7  -6  -6   -0.20    0.15
  -7   6   6    0.00    0.19
  -6   6   6    3.79    0.40
  -5   6   6    4.00    0.40
  -4   6   6    9.98    0.65
  -3   6   6    0.76    0.22
  -2   6   6    0.98    0.25
  -1   6   6    7.92    0.56
   0   6   6    8.17    0.58
   1   6   6   23.85    1.26
   2   6   6    0.66    0.24
   3   6   6    0.97    0.24
   3   6   6    1.50    0.28
   4   6   6    0.86    0.22
   4   6   6    0.61    0.25
   5   6   6    1.16    0.25
   6   6   6    0.08    0.20
   7   6   6    0.46    0.25
   8   6   6    0.69    0.27
  12  -7  -6    0.09    0.20
  11  -7  -6   -0.16    0.18
  10  -7  -6    0.32    0.19
   9  -7  -6    3.25    0.38
   8  -7  -6    0.85    0.24
  -8   7   6    0.83    0.27
  -7   7   6    0.76    0.24
  -6   7   6   -0.06    0.18
  -5   7   6    0.18    0.19
  -4   7   6    0.80    0.24
  -3   7   6    1.15    0.27
  -2   7   6    3.56    0.42
  -1   7   6    0.45    0.23
   0   7   6    0.10    0.25
   1   7   6    0.15    0.23
   2   7   6    0.43    0.24
   3   7   6    0.21    0.17
   3   7   6    0.15    0.21
   4   7   6    1.33    0.31
   4   7   6    1.30    0.26
   5   7   6    3.41    0.41
   6   7   6    0.12    0.22
   7   7   6    0.06    0.21
  11  -8  -6    0.23    0.23
  10  -8  -6    0.19    0.19
   9  -8  -6    1.08    0.27
  -8   8   6   -0.07    0.24
  -7   8   6    1.72    0.35
  -6   8   6    0.01    0.22
  -5   8   6    1.41    0.31
  -4   8   6    0.09    0.22
  -3   8   6    2.27    0.39
  -2   8   6    0.00    0.25
  -1   8   6    1.53    0.36
   0   8   6    0.28    0.24
   1   8   6    0.09    0.23
   2   8   6    0.54    0.26
   3   8   6    2.69    0.42
   3   8   6    2.03    0.32
   4   8   6    0.18    0.27
   4   8   6   -0.05    0.17
   5   8   6    0.41    0.24
   6   8   6    0.01    0.19
  -8   9   6    0.53    0.30
  -7   9   6   -0.31    0.24
  -6   9   6   -0.12    0.21
  -5   9   6    0.32    0.25
  -4   9   6    0.36    0.26
  -3   9   6    0.40    0.29
  -2   9   6    0.15    0.26
  -1   9   6   -0.21    0.20
   0   9   6    1.25    0.35
   1   9   6    0.53    0.31
   2   9   6    0.27    0.26
   2   9   6    0.33    0.20
   3   9   6    0.47    0.23
   3   9   6    0.31    0.32
   4   9   6    0.09    0.20
   4   9   6    0.20    0.30
  -8  10   6   -0.04    0.24
  -7  10   6    0.95    0.31
  -6  10   6    0.62    0.32
  -5  10   6    0.74    0.33
  -4  10   6    0.06    0.29
  -3  10   6    0.05    0.25
  -2  10   6   -0.03    0.24
  -1  10   6    0.34    0.27
   0  10   6    1.05    0.34
   1  10   6    1.28    0.35
   2  10   6    0.27    0.19
   0  15  -7    0.62    0.24
  -1  15  -7   -0.13    0.17
  -2  15  -7    1.04    0.28
  -3  15  -7    0.99    0.30
  -4  15  -7   -0.04    0.16
  -5  15  -7    0.01    0.20
   5 -15   7    0.17    0.22
   6 -15   7   -0.10    0.23
   7 -15   7    0.39    0.23
   4  14  -7   -0.04    0.17
   3  14  -7   -0.02    0.20
   2  14  -7    0.05    0.17
   1  14  -7    0.18    0.20
   0  14  -7    0.21    0.19
  -1  14  -7    0.16    0.19
  -2  14  -7   -0.28    0.14
  -3  14  -7    0.24    0.19
  -4  14  -7    0.16    0.18
   4 -14   7    0.32    0.22
  -5  14  -7    0.15    0.19
   5 -14   7    0.10    0.18
   6 -14   7    0.47    0.25
   7 -14   7    0.65    0.29
   8 -14   7    0.01    0.24
   9 -14   7    0.18    0.27
   6  13  -7    0.08    0.19
   5  13  -7    0.05    0.20
   4  13  -7    0.27    0.19
   3  13  -7    0.49    0.23
   2  13  -7    0.85    0.23
   1  13  -7   -0.02    0.18
   0  13  -7    0.37    0.19
  -1  13  -7    0.01    0.15
  -2  13  -7    0.50    0.20
  -3  13  -7    0.02    0.18
   3 -13   7    0.03    0.16
  -4  13  -7    1.79    0.31
   4 -13   7    2.31    0.33
  -5  13  -7    2.27    0.32
   5 -13   7    1.53    0.30
   6 -13   7    0.11    0.18
   7 -13   7   -0.21    0.21
   8 -13   7    0.92    0.29
   9 -13   7    0.23    0.22
  10 -13   7    0.23    0.28
   7  12  -7    0.13    0.21
   6  12  -7    0.02    0.19
   5  12  -7   -0.08    0.18
   4  12  -7    0.28    0.20
   3  12  -7    0.62    0.21
   2  12  -7    0.67    0.23
   1  12  -7    0.58    0.22
   0  12  -7    0.17    0.16
  -1  12  -7    0.21    0.16
  -2  12  -7    1.12    0.23
   2 -12   7    1.03    0.24
  -3  12  -7    0.51    0.18
   3 -12   7    0.50    0.20
  -4  12  -7    1.92    0.29
   4 -12   7    2.44    0.31
  -5  12  -7    0.03    0.16
   5 -12   7    0.10    0.15
   6 -12   7    5.33    0.46
   7 -12   7    0.49    0.24
   8 -12   7   -0.05    0.19
   9 -12   7   -0.20    0.21
  10 -12   7    0.42    0.29
  11 -12   7    0.22    0.27
   7  11  -7   -0.04    0.17
   6  11  -7    0.22    0.19
   5  11  -7    0.13    0.16
   4  11  -7    1.19    0.24
   3  11  -7    0.09    0.15
   2  11  -7    0.44    0.18
   1  11  -7    0.75    0.20
   0  11  -7    0.38    0.18
  -1  11  -7    6.07    0.46
   1 -11   7    6.61    0.45
  -2  11  -7    2.59    0.32
   2 -11   7    2.45    0.29
  -3  11  -7    0.01    0.16
   3 -11   7    0.28    0.17
  -4  11  -7    4.93    0.41
   4 -11   7    5.07    0.39
  -5  11  -7    1.42    0.24
   5 -11   7    1.26    0.25
   6 -11   7    2.80    0.34
   7 -11   7   -0.06    0.17
   8 -11   7    1.68    0.30
   9 -11   7    0.02    0.19
  10 -11   7    0.28    0.26
  11 -11   7    0.50    0.29
   7  10  -7    0.15    0.18
   6  10  -7    0.10    0.17
   5  10  -7    0.30    0.17
   4  10  -7    0.51    0.19
   3  10  -7    0.30    0.19
   2  10  -7    0.61    0.18
   1  10  -7    2.86    0.32
   0  10  -7   13.23    0.75
  -1  10  -7   -0.03    0.16
   1 -10   7    0.02    0.14
  -2  10  -7   20.48    1.03
   2 -10   7   19.64    0.96
  -3  10  -7    4.94    0.40
   3 -10   7    4.86    0.37
  -4  10  -7    0.40    0.15
   4 -10   7    0.30    0.15
  -5  10  -7    1.50    0.23
   5 -10   7    1.36    0.23
   6 -10   7    9.31    0.57
   7 -10   7    0.04    0.19
   8 -10   7    3.73    0.39
   9 -10   7    0.26    0.19
  10 -10   7    0.21    0.19
  11 -10   7    0.21    0.20
  12 -10   7    0.68    0.28
   8   9  -7    0.18    0.18
   7   9  -7    0.26    0.18
   6   9  -7    0.14    0.18
   5   9  -7    1.77    0.26
   4   9  -7    2.48    0.31
   3   9  -7   12.51    0.71
   2   9  -7   14.30    0.78
   1   9  -7    0.71    0.19
   0   9  -7    6.41    0.46
   0  -9   7    6.54    0.40
  -1   9  -7    5.67    0.41
   1  -9   7    4.68    0.35
  -2   9  -7    7.12    0.47
   2  -9   7    6.77    0.43
  -3   9  -7    1.53    0.23
   3  -9   7    1.64    0.24
  -4   9  -7    3.11    0.31
   4  -9   7    2.70    0.29
  -5   9  -7    0.07    0.11
   5  -9   7   -0.10    0.13
   6  -9   7    2.70    0.30
   7  -9   7    0.40    0.19
   8  -9   7    0.59    0.20
   9  -9   7    2.24    0.32
  11  -9   7    0.89    0.27
  12  -9   7    1.24    0.31
  11   8  -7   -0.06    0.21
  10   8  -7    0.77    0.26
   8   8  -7    0.95    0.23
   7   8  -7    0.59    0.18
   6   8  -7    0.53    0.20
   5   8  -7    8.11    0.53
   4   8  -7   12.72    0.73
   3   8  -7   12.98    0.73
   2   8  -7    0.03    0.06
   1   8  -7    0.04    0.05
   0   8  -7    6.77    0.45
   0  -8   7    7.64    0.43
  -1   8  -7    2.01    0.25
   1  -8   7    1.67    0.21
  -2   8  -7    0.63    0.15
   2  -8   7    0.75    0.16
  -3   8  -7    0.34    0.14
   3  -8   7    0.18    0.13
  -4   8  -7    0.30    0.14
   4  -8   7    0.16    0.13
  -5   8  -7    2.94    0.29
   5  -8   7    3.24    0.31
   6  -8   7   -0.03    0.15
   7  -8   7    0.56    0.17
   8  -8   7    0.04    0.15
   9  -8   7    0.83    0.24
  10  -8   7    0.74    0.22
  11  -8   7   -0.25    0.15
  12  -8   7   -0.09    0.21
  12   7  -7    0.46    0.24
  11   7  -7    0.20    0.20
  10   7  -7    0.57    0.21
   9   7  -7    0.05    0.16
   8   7  -7   -0.01    0.15
   8   7  -7    0.13    0.16
   7   7  -7    0.27    0.15
   7   7  -7    0.28    0.17
   6   7  -7    2.20    0.24
   6   7  -7    1.97    0.28
   5   7  -7    3.26    0.26
   5   7  -7    3.40    0.35
   4   7  -7    0.23    0.15
   3   7  -7    6.45    0.44
   2   7  -7    0.10    0.06
   1   7  -7    0.42    0.13
  -1  -7   7    0.92    0.15
   0   7  -7    1.37    0.20
   0  -7   7    1.24    0.18
  -1   7  -7    0.04    0.10
   1  -7   7    0.14    0.12
  -2   7  -7    0.26    0.12
   2  -7   7    0.34    0.14
  -3   7  -7    1.37    0.19
   3  -7   7    1.52    0.19
  -4   7  -7   10.51    0.58
   4  -7   7   11.36    0.58
  -5   7  -7   -0.07    0.10
   5  -7   7   -0.18    0.14
   6  -7   7   10.16    0.59
   7  -7   7    0.54    0.19
   8  -7   7    0.21    0.16
   9  -7   7    0.30    0.19
  10  -7   7    0.62    0.22
  11  -7   7    1.24    0.28
  12  -7   7    0.72    0.26
  13  -7   7    0.23    0.21
  12   6  -7    0.29    0.23
  11   6  -7    0.97    0.26
  10   6  -7    0.42    0.20
   9   6  -7    0.48    0.20
   8   6  -7    8.85    0.57
   8   6  -7    8.53    0.53
   7   6  -7   14.21    0.77
   7   6  -7   13.49    0.70
   6   6  -7    1.26    0.20
   6   6  -7    1.07    0.21
   5   6  -7   23.90    1.03
   5   6  -7   22.15    1.13
   4   6  -7    0.23    0.14
   4   6  -7    0.23    0.12
   3   6  -7    1.16    0.21
   2   6  -7   20.79    1.02
   1   6  -7   18.45    0.95
  -1  -6   7   20.13    0.86
   0   6  -7    0.07    0.10
   0  -6   7    0.08    0.10
  -1   6  -7    3.44    0.27
   1  -6   7    3.35    0.25
  -2   6  -7    0.20    0.11
   2  -6   7    0.53    0.13
  -3   6  -7    9.08    0.51
   3  -6   7    9.74    0.50
  -4   6  -7    4.86    0.33
   4  -6   7    5.68    0.36
  -5   6  -7    3.75    0.28
   5  -6   7    3.49    0.29
   6  -6   7   18.67    0.90
   7  -6   7    4.87    0.37
   8  -6   7    0.02    0.13
   9  -6   7    0.99    0.23
  10  -6   7    0.72    0.23
  11  -6   7    1.97    0.32
  12  -6   7    0.37    0.24
  13  -6   7    0.06    0.22
  13   5  -7    0.40    0.25
  12   5  -7    0.10    0.18
  11   5  -7    1.27    0.27
  10   5  -7    0.65    0.22
   9   5  -7    0.23    0.18
   8   5  -7    2.52    0.29
   8   5  -7    2.71    0.30
   7   5  -7   11.25    0.64
   7   5  -7   11.04    0.60
   6   5  -7    1.63    0.21
   6   5  -7    1.24    0.21
   5   5  -7   14.21    0.67
   5   5  -7   13.96    0.75
   4   5  -7    1.24    0.19
   4   5  -7    1.58    0.17
   3   5  -7   20.80    0.91
   3   5  -7   15.97    0.78
   2   5  -7    0.04    0.07
   2   5  -7    0.05    0.09
  -2  -5   7    0.06    0.07
   1   5  -7    0.58    0.08
   1   5  -7    0.49    0.12
  -1  -5   7    0.54    0.11
   0   5  -7    4.71    0.32
   0  -5   7    4.71    0.28
  -1   5  -7    6.35    0.39
   1  -5   7    6.96    0.36
  -2   5  -7    5.10    0.33
   2  -5   7    5.48    0.31
   2  -5   7    4.86    0.24
  -3   5  -7    2.83    0.22
   3  -5   7    2.98    0.25
  -4   5  -7    1.46    0.18
   4  -5   7    1.86    0.20
  -5   5  -7    0.06    0.10
   5  -5   7    0.30    0.15
   6  -5   7    0.27    0.14
   7  -5   7    0.27    0.16
   8  -5   7    0.03    0.13
   9  -5   7    0.25    0.16
  10  -5   7    0.95    0.23
  11  -5   7    0.09    0.20
  12  -5   7    0.22    0.24
  13  -5   7    1.95    0.36
  13   4  -7   -0.24    0.20
  12   4  -7    2.17    0.34
  11   4  -7    1.23    0.26
  10   4  -7    0.81    0.22
   9   4  -7    6.50    0.47
   8   4  -7    1.50    0.23
   8   4  -7    1.31    0.23
   7   4  -7    2.02    0.25
   7   4  -7    1.65    0.24
   6   4  -7    8.12    0.46
   6   4  -7    8.16    0.50
   5   4  -7    5.55    0.38
   5   4  -7    6.09    0.35
   4   4  -7    9.68    0.55
   4   4  -7    9.56    0.48
   3   4  -7   10.34    0.56
   3   4  -7   10.26    0.48
   2   4  -7    1.26    0.18
  -2  -4   7    1.68    0.14
   1   4  -7   15.90    0.78
   1   4  -7   15.90    0.67
  -1  -4   7   15.27    0.69
   0   4  -7   47.96    2.12
   0  -4   7   47.41    1.95
  -1   4  -7   -0.15    0.07
   1  -4   7    0.12    0.08
  -2   4  -7   -0.02    0.09
   2  -4   7    0.09    0.09
   2  -4   7    0.06    0.06
  -3   4  -7    2.84    0.23
   3  -4   7    2.71    0.18
   3  -4   7    2.78    0.23
  -4   4  -7    3.18    0.24
   4  -4   7    3.39    0.23
   4  -4   7    3.45    0.28
  -5   4  -7    0.24    0.11
   5  -4   7    0.30    0.12
   5  -4   7    0.10    0.14
   6  -4   7    4.12    0.29
   6  -4   7    3.49    0.31
   7  -4   7    7.43    0.48
   7  -4   7    7.80    0.45
   8  -4   7    6.00    0.40
   8  -4   7    5.38    0.41
   9  -4   7    0.38    0.17
   9  -4   7    0.23    0.16
  10  -4   7    1.60    0.29
  10  -4   7    1.30    0.24
  11  -4   7    0.60    0.23
  12  -4   7    0.41    0.24
  13  -4   7    2.06    0.37
  13   3  -7   -0.13    0.21
  12   3  -7    0.75    0.25
  11   3  -7    0.54    0.22
  10   3  -7    1.40    0.26
   9   3  -7    7.46    0.50
   8   3  -7    0.04    0.13
   8   3  -7    0.16    0.14
   7   3  -7    6.53    0.42
   7   3  -7    6.29    0.42
   6   3  -7    7.30    0.45
   6   3  -7    7.58    0.43
   5   3  -7    0.27    0.10
   5   3  -7    0.37    0.13
   4   3  -7    6.74    0.43
   4   3  -7    7.57    0.39
   3   3  -7   29.36    1.35
   3   3  -7   28.73    1.23
   2   3  -7    2.85    0.19
  -2  -3   7    3.23    0.18
   1   3  -7   -0.01    0.10
  -1  -3   7    0.15    0.07
   0   3  -7    1.54    0.19
   0  -3   7    1.56    0.14
  -1   3  -7    1.10    0.15
   1  -3   7    1.34    0.14
  -2   3  -7    8.63    0.48
   2  -3   7    9.60    0.46
  -3   3  -7    0.07    0.09
   3  -3   7   -0.02    0.10
   3  -3   7    0.07    0.08
  -4   3  -7   39.01    1.73
   4  -3   7   39.53    1.66
   4  -3   7   37.82    1.62
  -5   3  -7   -0.03    0.10
   5  -3   7    0.02    0.12
   5  -3   7    0.03    0.11
   6  -3   7    5.40    0.36
   6  -3   7    5.49    0.38
   7  -3   7    3.35    0.29
   8  -3   7    1.94    0.25
   9  -3   7    5.09    0.40
  10  -3   7    4.34    0.40
  10  -3   7    3.43    0.38
  11  -3   7   -0.33    0.16
  11  -3   7    0.14    0.18
  12  -3   7    0.11    0.21
  12  -3   7   -0.31    0.19
  13   2  -7    0.35    0.24
  12   2  -7   -0.02    0.19
  11   2  -7    0.23    0.17
  10   2  -7   -0.09    0.13
   9   2  -7    3.61    0.37
   8   2  -7    0.32    0.15
   8   2  -7   -0.02    0.16
   7   2  -7    2.70    0.27
   7   2  -7    2.27    0.26
   6   2  -7    0.18    0.13
   6   2  -7   -0.04    0.11
   5   2  -7    4.69    0.34
   5   2  -7    4.95    0.31
   4   2  -7   11.86    0.63
   4   2  -7   11.93    0.57
   3   2  -7   11.44    0.60
   3   2  -7   11.38    0.54
   2   2  -7    3.37    0.22
  -2  -2   7    3.41    0.18
   1   2  -7    7.91    0.44
  -1  -2   7    7.39    0.35
   0   2  -7   -0.01    0.08
   0  -2   7    0.09    0.06
  -1   2  -7    0.70    0.14
   1  -2   7    0.53    0.11
  -2   2  -7   -0.01    0.09
   2  -2   7    0.11    0.09
  -3   2  -7    0.07    0.08
   3  -2   7   -0.07    0.09
  -4   2  -7   14.63    0.74
   4  -2   7   15.87    0.71
  -5   2  -7    3.31    0.26
   5  -2   7    3.16    0.26
   6  -2   7    2.56    0.28
   7  -2   7    3.73    0.32
   8  -2   7   -0.04    0.14
   9  -2   7    4.58    0.39
  10  -2   7    1.16    0.26
  11  -2   7   -0.02    0.18
  12  -2   7    0.12    0.21
  14   1  -7    0.00    0.20
  13   1  -7    0.35    0.25
  12   1  -7    0.97    0.27
  11   1  -7    1.64    0.27
  10   1  -7    2.30    0.31
   9   1  -7    0.26    0.16
   8   1  -7    2.53    0.28
   8   1  -7    2.07    0.25
   7   1  -7    2.12    0.24
   7   1  -7    1.86    0.24
   6   1  -7   -0.12    0.08
   6   1  -7    0.02    0.11
   5   1  -7    8.13    0.49
   5   1  -7    8.97    0.47
   4   1  -7   12.44    0.67
   4   1  -7   12.95    0.62
   3   1  -7   12.86    0.68
   3   1  -7   13.52    0.62
   2   1  -7    0.13    0.09
   2   1  -7   -0.03    0.03
   1   1  -7   12.97    0.68
  -1  -1   7   13.50    0.57
   0   1  -7   23.46    1.11
  -1   1  -7    4.00    0.29
  -2   1  -7    6.95    0.41
  -3   1  -7   10.50    0.56
  -4   1  -7    0.84    0.16
   4  -1   7    0.77    0.15
   4  -1   7    0.62    0.14
   5  -1   7    0.34    0.13
   5  -1   7    0.35    0.14
   6  -1   7    2.71    0.29
   7  -1   7    2.54    0.29
   8  -1   7    2.47    0.29
   9  -1   7    2.75    0.32
  10  -1   7    0.30    0.20
  11  -1   7    0.61    0.23
  12  -1   7   -0.02    0.23
  14   0  -7    0.56    0.24
  13   0  -7    0.48    0.25
  12   0  -7    0.76    0.25
  11   0  -7    0.21    0.19
  10   0  -7    0.61    0.21
   9   0  -7    0.16    0.17
   8   0  -7    1.00    0.20
   8   0  -7    1.40    0.22
   7   0  -7    9.08    0.52
   7   0  -7    9.03    0.53
   6   0  -7    4.53    0.34
   6   0  -7    4.73    0.35
   5   0  -7    1.17    0.17
   5   0  -7    1.12    0.20
   4   0  -7    3.77    0.27
   4   0  -7    3.83    0.30
   3   0  -7    0.50    0.13
   3   0  -7    0.50    0.15
   2   0  -7    0.00    0.03
   1   0  -7    2.81    0.26
   0   0  -7   15.97    0.80
  -1   0  -7    4.32    0.31
  -2   0  -7    5.73    0.37
   3   0   7    0.24    0.12
   4   0   7    7.20    0.44
   4   0   7    7.19    0.44
   5   0   7    1.31    0.20
   5   0   7    1.60    0.22
   6   0   7    3.61    0.31
   7   0   7    0.71    0.19
   8   0   7    2.09    0.28
   9   0   7    0.22    0.17
  10   0   7    0.30    0.22
  11   0   7    0.13    0.21
  13  -1  -7   -0.07    0.19
  12  -1  -7    0.43    0.21
  11  -1  -7    0.29    0.17
  10  -1  -7    0.02    0.14
   9  -1  -7    8.82    0.56
   9  -1  -7    9.51    0.57
   8  -1  -7    1.12    0.22
   8  -1  -7    0.85    0.21
   7  -1  -7    7.51    0.50
   7  -1  -7    8.07    0.49
   6  -1  -7   11.04    0.60
   6  -1  -7   11.31    0.63
   5  -1  -7    0.38    0.15
   5  -1  -7    0.25    0.12
   4  -1  -7   10.23    0.54
   4  -1  -7   10.42    0.58
   3  -1  -7   26.10    1.13
   3  -1  -7   24.75    1.22
   2  -1  -7   -0.04    0.03
   1  -1  -7    3.22    0.28
   0   1   7   24.82    1.19
   1   1   7    2.83    0.29
   2   1   7    2.36    0.26
   3   1   7    0.54    0.15
   4   1   7   10.93    0.61
   4   1   7   11.14    0.62
   5   1   7   17.82    0.89
   5   1   7   18.84    0.93
   6   1   7    2.93    0.32
   7   1   7    1.82    0.27
   8   1   7    0.11    0.16
   9   1   7    0.32    0.18
  10   1   7    0.19    0.22
  11   1   7   -0.12    0.21
  13  -2  -7    0.28    0.22
  12  -2  -7   -0.13    0.15
  11  -2  -7    0.47    0.20
  10  -2  -7    0.15    0.16
   9  -2  -7   11.95    0.68
   8  -2  -7    3.67    0.37
  -8   2   7    4.31    0.34
   7  -2  -7    2.89    0.30
  -7   2   7    2.55    0.30
   6  -2  -7    1.98    0.24
  -6   2   7    1.64    0.24
   5  -2  -7    6.86    0.41
  -5   2   7    6.44    0.46
   4  -2  -7    3.07    0.26
  -4   2   7    2.86    0.30
  -3   2   7    9.20    0.56
  -2   2   7    0.04    0.03
  -1   2   7    0.81    0.18
   0   2   7    7.14    0.46
   1   2   7    5.52    0.41
   2   2   7    0.20    0.14
   3   2   7    1.22    0.21
   4   2   7    0.51    0.17
   4   2   7    0.43    0.16
   5   2   7    0.80    0.19
   6   2   7    0.23    0.15
   7   2   7    0.16    0.18
   8   2   7   -0.04    0.16
   9   2   7    0.85    0.23
  10   2   7   -0.45    0.18
  13  -3  -7    0.11    0.19
  12  -3  -7   -0.08    0.16
  11  -3  -7    0.20    0.20
  10  -3  -7    2.98    0.35
   9  -3  -7    1.27    0.23
   8  -3  -7    0.87    0.20
  -8   3   7    0.43    0.19
   7  -3  -7    1.85    0.26
  -7   3   7    1.66    0.27
   6  -3  -7    0.50    0.18
  -6   3   7    0.44    0.17
   5  -3  -7    0.41    0.15
  -5   3   7    0.39    0.17
  -4   3   7   17.26    0.92
  -3   3   7    4.80    0.38
  -2   3   7    0.07    0.09
  -1   3   7    0.40    0.17
   0   3   7    3.42    0.35
   1   3   7    2.10    0.30
   2   3   7    1.66    0.26
   3   3   7    1.38    0.23
   4   3   7    3.44    0.35
   4   3   7    3.00    0.33
   5   3   7   -0.13    0.13
   6   3   7    0.10    0.16
   7   3   7    0.83    0.22
   8   3   7    0.15    0.19
   9   3   7    0.39    0.21
  10   3   7    0.13    0.24
  13  -4  -7    0.54    0.26
  12  -4  -7    0.17    0.22
  11  -4  -7    0.03    0.19
  10  -4  -7    0.93    0.25
   9  -4  -7    3.23    0.35
   8  -4  -7    1.47    0.24
  -8   4   7    0.94    0.24
   7  -4  -7    8.62    0.53
  -7   4   7    7.54    0.53
   6  -4  -7   -0.15    0.12
  -6   4   7    0.13    0.16
   5  -4  -7    0.07    0.13
  -5   4   7    0.44    0.19
  -4   4   7    2.66    0.34
  -3   4   7    3.57    0.37
  -2   4   7    2.66    0.32
  -1   4   7    0.27    0.19
   0   4   7   10.23    0.64
   1   4   7    6.75    0.50
   2   4   7    1.59    0.26
   3   4   7    2.81    0.33
   4   4   7    0.78    0.22
   4   4   7    0.97    0.25
   5   4   7    0.80    0.22
   6   4   7    0.14    0.20
   7   4   7    0.06    0.17
   8   4   7   -0.04    0.17
   9   4   7   -0.15    0.20
  12  -5  -7   -0.09    0.20
  11  -5  -7    0.21    0.18
  10  -5  -7   -0.16    0.15
   9  -5  -7    3.82    0.39
  -9   5   7    4.11    0.45
   8  -5  -7    0.99    0.24
  -8   5   7    1.03    0.25
   7  -5  -7    0.34    0.19
  -7   5   7    0.61    0.23
   6  -5  -7    0.90    0.22
  -6   5   7    1.14    0.25
  -5   5   7    0.42    0.20
  -4   5   7    0.15    0.18
  -3   5   7    9.89    0.64
  -2   5   7    0.45    0.20
  -1   5   7    2.67    0.34
   0   5   7    5.35    0.45
   1   5   7    3.10    0.38
   2   5   7    2.43    0.34
   3   5   7    0.56    0.25
   4   5   7    0.56    0.26
   4   5   7    1.10    0.25
   5   5   7    2.22    0.32
   6   5   7    0.13    0.19
   7   5   7    0.59    0.23
   8   5   7    0.78    0.30
  12  -6  -7    0.05    0.22
  11  -6  -7    0.25    0.20
  10  -6  -7    0.12    0.21
   9  -6  -7    0.50    0.23
  -9   6   7    0.42    0.22
   8  -6  -7    0.26    0.19
  -8   6   7    0.24    0.23
   7  -6  -7    0.36    0.17
  -7   6   7    0.37    0.23
  -6   6   7    0.90    0.24
  -5   6   7    0.46    0.21
  -4   6   7    1.94    0.31
  -3   6   7   -0.09    0.20
  -2   6   7    0.08    0.18
  -1   6   7    0.27    0.20
   0   6   7    1.55    0.32
   1   6   7    2.03    0.34
   2   6   7    1.85    0.36
   3   6   7    0.01    0.15
   3   6   7   -0.13    0.24
   4   6   7    0.48    0.23
   4   6   7    0.24    0.24
   5   6   7    0.06    0.17
   6   6   7    0.66    0.26
   7   6   7    0.11    0.23
  11  -7  -7   -0.09    0.22
  10  -7  -7    0.17    0.19
   9  -7  -7    0.26    0.19
  -8   7   7   -0.09    0.22
  -7   7   7    1.72    0.34
  -6   7   7    0.10    0.20
  -5   7   7    1.34    0.29
  -4   7   7    0.36    0.22
  -3   7   7   -0.01    0.19
  -2   7   7    0.00    0.20
  -1   7   7    2.57    0.38
   0   7   7    2.07    0.40
   1   7   7    2.07    0.38
   2   7   7    0.27    0.24
   3   7   7    0.12    0.17
   3   7   7    0.15    0.26
   4   7   7    0.15    0.23
   4   7   7    0.10    0.21
   5   7   7    1.96    0.35
   6   7   7    0.56    0.27
  10  -8  -7    0.47    0.25
  -8   8   7    0.48    0.27
  -7   8   7    1.21    0.31
  -6   8   7    0.03    0.25
  -5   8   7    0.10    0.23
  -4   8   7   -0.30    0.20
  -3   8   7    0.57    0.29
  -2   8   7    0.36    0.29
  -1   8   7    0.00    0.26
   0   8   7    0.89    0.30
   1   8   7    1.00    0.32
   2   8   7    0.14    0.28
   3   8   7    1.22    0.33
   3   8   7    1.54    0.30
   4   8   7   -0.04    0.27
   4   8   7   -0.07    0.19
   5   8   7    0.31    0.21
  -8   9   7   -0.11    0.24
  -7   9   7    0.40    0.29
  -6   9   7    0.18    0.29
  -5   9   7    0.03    0.25
  -4   9   7   -0.01    0.24
  -3   9   7    2.14    0.42
  -2   9   7    0.40    0.31
  -1   9   7   -0.48    0.26
   0   9   7   -0.32    0.26
   1   9   7    0.24    0.33
   2   9   7   -0.20    0.25
   2   9   7   -0.09    0.21
   3   9   7    0.07    0.23
   0  15  -8    0.23    0.20
  -1  15  -8    0.22    0.20
  -2  15  -8    1.18    0.28
  -3  15  -8    0.93    0.29
  -4  15  -8   -0.18    0.20
  -5  15  -8    0.16    0.21
   5 -15   8    0.12    0.19
   6 -15   8   -0.05    0.19
   7 -15   8   -0.21    0.21
   3  14  -8    0.06    0.22
   2  14  -8    0.70    0.23
   1  14  -8    0.10    0.16
   0  14  -8    0.02    0.17
  -1  14  -8    0.61    0.22
  -2  14  -8    1.32    0.28
  -3  14  -8    0.40    0.23
   3 -14   8    0.31    0.23
  -4  14  -8    0.10    0.16
   4 -14   8   -0.04    0.20
  -5  14  -8   -0.02    0.16
   5 -14   8    0.07    0.21
   6 -14   8    0.40    0.24
   7 -14   8    0.09    0.25
   8 -14   8   -0.02    0.25
   6  13  -8    0.61    0.25
   5  13  -8    0.39    0.23
   4  13  -8   -0.05    0.15
   3  13  -8   -0.02    0.15
   2  13  -8    0.01    0.15
   1  13  -8    0.30    0.18
   0  13  -8   -0.16    0.17
  -1  13  -8   -0.21    0.13
  -2  13  -8    0.64    0.22
   2 -13   8    0.56    0.20
  -3  13  -8    0.26    0.17
   3 -13   8   -0.03    0.18
  -4  13  -8    2.26    0.33
   4 -13   8    2.58    0.33
  -5  13  -8    0.25    0.17
   5 -13   8    0.00    0.16
   6 -13   8   -0.26    0.15
   7 -13   8   -0.10    0.21
   8 -13   8   -0.18    0.22
   9 -13   8   -0.01    0.25
   7  12  -8    0.15    0.21
   6  12  -8    0.39    0.20
   5  12  -8    0.34    0.19
   4  12  -8    0.46    0.22
   3  12  -8    0.14    0.19
   2  12  -8    0.35    0.17
   1  12  -8    2.14    0.31
   0  12  -8    0.22    0.16
  -1  12  -8    0.27    0.17
  -2  12  -8    2.50    0.32
   2 -12   8    1.71    0.25
  -3  12  -8    2.44    0.33
   3 -12   8    2.27    0.29
  -4  12  -8    0.26    0.18
   4 -12   8    0.15    0.16
  -5  12  -8    1.26    0.25
   5 -12   8    1.15    0.24
   6 -12   8    0.52    0.23
   7 -12   8    0.23    0.19
   8 -12   8    0.23    0.25
   9 -12   8    0.33    0.26
  10 -12   8    0.59    0.31
   7  11  -8    0.06    0.16
   6  11  -8    0.04    0.17
   5  11  -8    0.40    0.20
   4  11  -8    1.15    0.24
   3  11  -8    0.74    0.21
   2  11  -8    0.84    0.23
   1  11  -8    0.26    0.16
   0  11  -8    1.94    0.28
  -1  11  -8    2.35    0.30
   1 -11   8    2.55    0.30
  -2  11  -8    2.96    0.34
   2 -11   8    2.70    0.32
  -3  11  -8    0.35    0.16
   3 -11   8    0.51    0.17
  -4  11  -8    0.00    0.15
   4 -11   8    0.07    0.17
  -5  11  -8    1.26    0.23
   5 -11   8    1.22    0.25
   6 -11   8    0.58    0.20
   7 -11   8    0.54    0.23
   8 -11   8    0.74    0.27
   9 -11   8    0.56    0.23
  10 -11   8   -0.22    0.19
  11 -11   8   -0.26    0.21
   8  10  -8    0.19    0.19
   7  10  -8   -0.07    0.17
   6  10  -8    0.19    0.18
   5  10  -8    0.97    0.24
   4  10  -8    5.63    0.45
   3  10  -8    3.18    0.36
   1  10  -8    7.08    0.49
   0  10  -8    4.20    0.37
   0 -10   8    4.73    0.36
  -1  10  -8    0.56    0.17
   1 -10   8    0.70    0.19
  -2  10  -8    1.20    0.22
   2 -10   8    1.44    0.24
  -3  10  -8    0.37    0.15
   3 -10   8    0.28    0.17
  -4  10  -8    0.66    0.16
   4 -10   8    0.61    0.20
  -5  10  -8    0.07    0.12
   5 -10   8    0.04    0.14
   6 -10   8    2.48    0.33
   7 -10   8    0.22    0.17
   8 -10   8    0.91    0.23
   9 -10   8    0.11    0.20
  10 -10   8   -0.13    0.20
  11 -10   8   -0.06    0.22
   8   9  -8    0.28    0.20
   7   9  -8    0.35    0.18
   6   9  -8    1.00    0.25
   5   9  -8    0.17    0.16
   4   9  -8    0.67    0.20
   3   9  -8    2.91    0.33
   2   9  -8    0.71    0.19
   1   9  -8    0.03    0.13
   0   9  -8    0.24    0.17
   0  -9   8   -0.01    0.12
  -1   9  -8    0.12    0.13
   1  -9   8    0.12    0.13
  -2   9  -8    2.32    0.28
   2  -9   8    1.92    0.25
  -3   9  -8    2.57    0.28
   3  -9   8    2.19    0.26
  -4   9  -8    0.86    0.19
   4  -9   8    0.90    0.19
  -5   9  -8    0.08    0.13
   5  -9   8   -0.10    0.15
   6  -9   8    1.69    0.25
   7  -9   8   -0.03    0.16
   8  -9   8    0.20    0.19
   9  -9   8   -0.08    0.18
  10  -9   8    0.74    0.23
  11  -9   8    1.58    0.32
  12  -9   8    1.22    0.32
   8   8  -8    0.74    0.20
   7   8  -8    1.12    0.24
   6   8  -8    0.01    0.14
   5   8  -8    5.14    0.42
   4   8  -8   18.59    0.98
   3   8  -8    9.61    0.61
   2   8  -8    0.37    0.15
   1   8  -8   -0.06    0.12
  -1  -8   8    0.04    0.13
   0   8  -8    1.49    0.23
   0  -8   8    1.33    0.18
  -1   8  -8    0.22    0.13
   1  -8   8    0.23    0.12
  -2   8  -8    3.48    0.30
   2  -8   8    3.38    0.30
  -3   8  -8    4.72    0.35
   3  -8   8    5.11    0.37
  -4   8  -8    7.20    0.46
   4  -8   8    7.21    0.46
  -5   8  -8    1.21    0.19
   5  -8   8    1.06    0.20
   6  -8   8    3.41    0.34
   7  -8   8    1.03    0.21
   8  -8   8    1.41    0.25
   9  -8   8    0.53    0.22
  10  -8   8    0.99    0.26
  11  -8   8    0.52    0.26
  12  -8   8    0.57    0.27
  12   7  -8    0.01    0.23
  11   7  -8    0.28    0.21
  10   7  -8    3.66    0.40
   9   7  -8    0.72    0.22
   8   7  -8    0.31    0.18
   8   7  -8    0.30    0.18
   7   7  -8   -0.02    0.13
   6   7  -8    0.09    0.17
   5   7  -8    0.73    0.21
   4   7  -8   17.13    0.90
   3   7  -8    3.02    0.33
   2   7  -8    0.05    0.05
   1   7  -8    2.63    0.29
  -1  -7   8    3.77    0.27
   0   7  -8    0.87    0.18
   0  -7   8    1.15    0.17
  -1   7  -8    0.02    0.12
   1  -7   8    0.11    0.11
  -2   7  -8    1.01    0.17
   2  -7   8    0.99    0.18
  -3   7  -8    0.34    0.12
   3  -7   8    0.50    0.15
  -4   7  -8    2.77    0.25
   4  -7   8    2.72    0.27
  -5   7  -8    1.75    0.22
   5  -7   8    1.33    0.22
   6  -7   8   -0.03    0.13
   7  -7   8    0.69    0.19
   8  -7   8    0.93    0.23
   9  -7   8    1.43    0.28
  10  -7   8    0.24    0.20
  11  -7   8    0.03    0.20
  12  -7   8    0.29    0.23
  12   6  -8    0.91    0.28
  11   6  -8    0.39    0.22
  10   6  -8    0.84    0.24
   9   6  -8    0.78    0.22
   8   6  -8    4.11    0.39
   8   6  -8    4.24    0.39
   7   6  -8    0.24    0.16
   7   6  -8   -0.01    0.16
   6   6  -8    8.76    0.49
   6   6  -8    8.90    0.56
   5   6  -8    0.03    0.12
   5   6  -8    0.07    0.17
   4   6  -8    3.31    0.24
   4   6  -8    3.12    0.32
   3   6  -8    2.46    0.27
  -2  -6   8    0.33    0.11
   1   6  -8    0.29    0.12
  -1  -6   8    0.03    0.10
   0   6  -8   -0.07    0.09
   0  -6   8    0.10    0.09
  -1   6  -8    2.55    0.27
   1  -6   8    2.60    0.23
  -2   6  -8    1.10    0.17
   2  -6   8    0.61    0.15
  -3   6  -8    4.01    0.30
   3  -6   8    3.72    0.30
  -4   6  -8    0.11    0.12
   4  -6   8    0.27    0.13
  -5   6  -8    0.33    0.13
   5  -6   8    0.56    0.17
   6  -6   8    8.34    0.52
   7  -6   8    0.02    0.16
   8  -6   8    1.41    0.26
   9  -6   8    0.16    0.19
  10  -6   8    1.42    0.26
  11  -6   8    2.83    0.36
  12  -6   8    0.18    0.24
  12   5  -8    0.29    0.23
  11   5  -8    0.14    0.20
  10   5  -8    0.05    0.17
   9   5  -8    0.43    0.19
   8   5  -8   17.91    0.96
   8   5  -8   19.01    0.92
   7   5  -8    0.67    0.20
   7   5  -8    0.54    0.18
   6   5  -8    1.04    0.22
   6   5  -8    0.79    0.17
   5   5  -8   -0.10    0.12
   5   5  -8    0.05    0.11
   4   5  -8    0.76    0.18
   4   5  -8    0.93    0.14
   3   5  -8   20.78    0.90
   3   5  -8   20.75    1.03
   1   5  -8    3.46    0.28
  -1  -5   8    3.30    0.23
   0   5  -8    0.26    0.13
   0  -5   8    0.16    0.10
  -1   5  -8   21.60    1.03
   1  -5   8   20.85    0.93
  -2   5  -8   -0.03    0.11
   2  -5   8    0.01    0.09
  -3   5  -8    3.87    0.30
   3  -5   8    4.15    0.30
  -4   5  -8    5.83    0.37
   4  -5   8    5.92    0.38
  -5   5  -8    2.75    0.25
   5  -5   8    2.95    0.29
   6  -5   8   12.14    0.67
   7  -5   8    1.09    0.23
   8  -5   8    0.02    0.14
   9  -5   8    3.07    0.35
  10  -5   8    1.96    0.30
  11  -5   8    0.35    0.23
  12  -5   8    0.24    0.24
  13   4  -8    0.31    0.24
  12   4  -8    1.08    0.29
  11   4  -8    0.79    0.25
  10   4  -8   -0.24    0.12
   9   4  -8    1.27    0.24
   8   4  -8    6.86    0.48
   8   4  -8    7.20    0.47
   7   4  -8    1.21    0.21
   7   4  -8    1.26    0.23
   6   4  -8    3.70    0.29
   6   4  -8    3.61    0.32
   5   4  -8    1.27    0.21
   5   4  -8    1.05    0.17
   4   4  -8    4.39    0.29
   4   4  -8    4.79    0.37
   3   4  -8   10.36    0.49
   3   4  -8    9.85    0.58
   2   4  -8   11.38    0.53
  -2  -4   8   11.72    0.52
   1   4  -8    3.37    0.27
  -1  -4   8    3.16    0.21
   0   4  -8    2.79    0.25
   0  -4   8    3.10    0.21
  -1   4  -8    0.72    0.15
   1  -4   8    0.92    0.14
  -2   4  -8    0.29    0.11
   2  -4   8    0.31    0.11
  -3   4  -8    4.93    0.33
   3  -4   8    5.05    0.29
   3  -4   8    5.14    0.33
  -4   4  -8    1.72    0.21
   4  -4   8    1.81    0.19
   4  -4   8    2.17    0.24
  -5   4  -8    5.77    0.38
   5  -4   8    6.10    0.40
   5  -4   8    6.23    0.37
   6  -4   8    0.69    0.16
   6  -4   8    0.53    0.18
   7  -4   8    2.41    0.29
   7  -4   8    2.42    0.26
   8  -4   8    1.97    0.28
   9  -4   8   -0.15    0.14
  10  -4   8    0.22    0.20
  11  -4   8   -0.24    0.18
  12  -4   8    1.04    0.27
  13   3  -8    0.38    0.26
  12   3  -8    0.41    0.21
  11   3  -8    0.25    0.20
  10   3  -8    0.03    0.18
   9   3  -8    0.22    0.18
   8   3  -8    1.06    0.22
   8   3  -8    1.33    0.23
   7   3  -8    0.60    0.18
   7   3  -8    0.86    0.19
   6   3  -8    1.41    0.19
   6   3  -8    1.39    0.22
   5   3  -8    0.16    0.13
   5   3  -8    0.22    0.11
   4   3  -8    0.17    0.12
   4   3  -8    0.13    0.10
   3   3  -8    8.99    0.45
   3   3  -8    8.39    0.50
   2   3  -8    1.99    0.18
  -2  -3   8    1.96    0.14
   1   3  -8    6.07    0.39
  -1  -3   8    5.99    0.30
   0   3  -8   10.74    0.58
   0  -3   8   10.43    0.49
  -1   3  -8    0.89    0.16
   1  -3   8    0.79    0.13
  -2   3  -8    2.41    0.24
   2  -3   8    2.06    0.21
  -3   3  -8    0.04    0.10
   3  -3   8   -0.01    0.09
   3  -3   8   -0.04    0.09
  -4   3  -8    0.14    0.12
   4  -3   8    0.24    0.11
   4  -3   8    0.34    0.14
   5  -3   8    8.10    0.46
   5  -3   8    8.71    0.50
   6  -3   8   21.49    0.97
   6  -3   8   20.37    1.00
   7  -3   8    0.88    0.19
   7  -3   8    0.83    0.21
   8  -3   8    0.07    0.15
   8  -3   8    0.23    0.18
   9  -3   8    0.91    0.22
   9  -3   8    1.14    0.24
  10  -3   8    0.11    0.18
  10  -3   8    0.36    0.21
  11  -3   8    0.10    0.18
  12  -3   8    1.07    0.27
  13   2  -8    0.26    0.20
  12   2  -8    0.34    0.20
  11   2  -8   -0.15    0.14
  10   2  -8    0.22    0.18
   9   2  -8    0.14    0.14
   9   2  -8   -0.16    0.13
   8   2  -8    3.41    0.30
   8   2  -8    3.59    0.32
   7   2  -8    1.81    0.24
   7   2  -8    1.38    0.22
   6   2  -8    4.65    0.35
   6   2  -8    5.08    0.35
   5   2  -8    1.68    0.22
   5   2  -8    1.57    0.20
   4   2  -8    3.41    0.29
   4   2  -8    3.68    0.26
   3   2  -8   22.26    0.94
   3   2  -8   19.78    1.03
   2   2  -8    1.43    0.16
   1   2  -8    1.46    0.19
  -1  -2   8    1.58    0.13
   0   2  -8   10.38    0.57
   0  -2   8   10.44    0.49
  -1   2  -8    1.95    0.23
   1  -2   8    1.78    0.18
  -2   2  -8    0.20    0.11
   2  -2   8    0.27    0.11
  -3   2  -8    6.88    0.43
   3  -2   8    6.96    0.40
  -4   2  -8    8.86    0.49
   4  -2   8    8.13    0.46
   5  -2   8    3.26    0.28
   6  -2   8    2.66    0.28
   7  -2   8    0.31    0.16
   8  -2   8    0.20    0.16
   9  -2   8    1.59    0.26
  10  -2   8   -0.08    0.17
  11  -2   8    0.13    0.21
  12  -2   8   -0.17    0.20
  13   1  -8    1.00    0.26
  12   1  -8    0.25    0.20
  11   1  -8    0.16    0.18
  10   1  -8    0.27    0.16
   9   1  -8    0.07    0.14
   9   1  -8    0.26    0.15
   8   1  -8    2.90    0.31
   8   1  -8    2.91    0.31
   7   1  -8    2.43    0.29
   7   1  -8    2.84    0.30
   6   1  -8    5.93    0.42
   6   1  -8    5.77    0.38
   5   1  -8    0.48    0.15
   5   1  -8    0.58    0.15
   4   1  -8   11.20    0.58
   4   1  -8   12.06    0.65
   3   1  -8   38.40    1.62
   2   1  -8   -0.06    0.03
   1   1  -8    5.21    0.36
   0   1  -8    0.17    0.13
   0  -1   8    0.14    0.08
  -1   1  -8    3.05    0.27
  -2   1  -8   11.13    0.61
  -3   1  -8    1.39    0.21
   4  -1   8    3.71    0.31
   4  -1   8    3.85    0.30
   5  -1   8    4.81    0.35
   6  -1   8    1.39    0.23
   7  -1   8   -0.02    0.16
   8  -1   8    2.56    0.31
   9  -1   8    0.73    0.22
  10  -1   8    0.26    0.21
  11  -1   8   -0.04    0.21
  13   0  -8    0.96    0.27
  12   0  -8    0.37    0.20
  11   0  -8    1.00    0.23
  10   0  -8    0.78    0.23
   9   0  -8    0.62    0.19
   9   0  -8    0.91    0.20
   8   0  -8    2.80    0.31
   8   0  -8    2.97    0.31
   7   0  -8    0.35    0.14
   7   0  -8    0.32    0.16
   6   0  -8    0.91    0.18
   6   0  -8    1.02    0.21
   5   0  -8   -0.23    0.11
   5   0  -8    0.11    0.15
   4   0  -8    3.99    0.29
   4   0  -8    4.17    0.35
   2   0  -8   -0.01    0.04
   1   0  -8    5.10    0.37
   0   0  -8    3.77    0.32
  -1   0  -8   -0.09    0.13
  -2   0  -8    7.50    0.46
   2   0   8    6.43    0.43
   3   0   8    0.07    0.14
   4   0   8    0.43    0.17
   4   0   8    0.45    0.16
   5   0   8    0.26    0.16
   6   0   8    0.14    0.14
   7   0   8   -0.01    0.17
   8   0   8    0.57    0.22
   9   0   8    0.12    0.19
  10   0   8    0.56    0.23
  11   0   8   -0.19    0.21
  13  -1  -8    0.25    0.20
  12  -1  -8    0.05    0.21
  11  -1  -8    0.73    0.24
  10  -1  -8    1.32    0.27
   9  -1  -8   -0.11    0.16
   9  -1  -8   -0.07    0.16
  -9   1   8   -0.08    0.13
   8  -1  -8   -0.01    0.13
   8  -1  -8   -0.20    0.14
   7  -1  -8    4.06    0.33
   7  -1  -8    4.47    0.38
   6  -1  -8    5.66    0.39
   6  -1  -8    5.69    0.42
   5  -1  -8    0.08    0.17
   5  -1  -8    0.17    0.15
   4  -1  -8    0.40    0.15
   4  -1  -8    0.23    0.16
   3  -1  -8    0.03    0.07
   2  -1  -8   -0.08    0.06
   1  -1  -8   23.74    1.13
  -1   1   8   21.80    1.11
   0   1   8    0.02    0.13
   1   1   8    2.19    0.28
   2   1   8   11.82    0.67
   3   1   8    0.09    0.15
   4   1   8    3.90    0.34
   4   1   8    3.65    0.33
   5   1   8    3.66    0.32
   6   1   8    0.54    0.18
   7   1   8    0.29    0.20
   8   1   8    0.34    0.22
   9   1   8   -0.08    0.20
  10   1   8   -0.16    0.19
  13  -2  -8    0.16    0.23
  12  -2  -8    0.25    0.22
  11  -2  -8    0.10    0.17
  10  -2  -8    0.54    0.21
   9  -2  -8   -0.21    0.15
  -9   2   8   -0.07    0.15
   8  -2  -8    3.70    0.36
  -8   2   8    3.33    0.36
   7  -2  -8    9.53    0.57
  -7   2   8    9.97    0.61
   6  -2  -8    8.20    0.50
  -6   2   8    8.44    0.55
   5  -2  -8    3.64    0.31
  -5   2   8    3.52    0.33
  -4   2   8   10.38    0.64
  -3   2   8    1.22    0.23
  -2   2   8    1.75    0.25
  -1   2   8   37.57    1.77
   0   2   8    2.11    0.28
   1   2   8    3.59    0.34
   2   2   8    0.17    0.16
   3   2   8    1.21    0.24
   4   2   8    1.36    0.25
   4   2   8    1.20    0.23
   5   2   8    2.24    0.31
   6   2   8    0.84    0.22
   7   2   8    0.30    0.21
   8   2   8    0.37    0.20
   9   2   8    0.38    0.24
  10   2   8    0.24    0.24
  13  -3  -8    0.41    0.22
  12  -3  -8    0.01    0.18
  11  -3  -8    0.64    0.24
  10  -3  -8    1.30    0.26
   9  -3  -8    1.08    0.23
  -9   3   8    0.99    0.24
   8  -3  -8    4.14    0.40
  -8   3   8    3.42    0.37
   7  -3  -8    0.51    0.20
  -7   3   8    1.23    0.25
   6  -3  -8    1.99    0.26
  -6   3   8    1.97    0.30
   5  -3  -8    2.19    0.28
  -5   3   8    2.45    0.30
  -4   3   8    0.64    0.20
  -3   3   8   -0.02    0.18
  -2   3   8    4.89    0.40
  -1   3   8   -0.09    0.15
   0   3   8    1.73    0.28
   1   3   8    1.24    0.24
   2   3   8    0.37    0.18
   3   3   8    2.13    0.29
   4   3   8    2.29    0.30
   4   3   8    2.89    0.34
   5   3   8    0.73    0.21
   6   3   8    0.25    0.19
   7   3   8   -0.10    0.16
   8   3   8    0.52    0.25
   9   3   8    0.40    0.22
  12  -4  -8   -0.03    0.20
  11  -4  -8    0.45    0.24
  10  -4  -8    0.36    0.22
   9  -4  -8    0.32    0.18
  -9   4   8    0.02    0.20
   8  -4  -8    0.03    0.15
  -8   4   8    0.32    0.19
   7  -4  -8    0.50    0.18
  -7   4   8    0.52    0.23
   6  -4  -8    1.97    0.28
  -6   4   8    1.54    0.29
  -5   4   8    2.00    0.31
  -4   4   8    0.70    0.24
  -3   4   8    1.82    0.30
  -2   4   8    0.27    0.18
  -1   4   8    1.56    0.30
   0   4   8    0.36    0.22
   1   4   8    1.54    0.28
   2   4   8    0.09    0.18
   3   4   8    0.93    0.26
   4   4   8    0.15    0.17
   4   4   8    0.09    0.21
   5   4   8    0.47    0.22
   6   4   8    0.23    0.20
   7   4   8    0.57    0.25
   8   4   8    0.45    0.27
  12  -5  -8    0.42    0.22
  11  -5  -8    0.07    0.21
  10  -5  -8    0.34    0.22
   9  -5  -8    0.26    0.20
  -9   5   8    0.27    0.21
   8  -5  -8    0.32    0.18
  -8   5   8    0.19    0.20
   7  -5  -8    0.75    0.20
  -7   5   8    0.80    0.26
  -6   5   8    5.21    0.46
  -5   5   8    0.02    0.18
  -4   5   8    0.35    0.20
  -3   5   8    0.12    0.21
  -2   5   8    1.78    0.30
  -1   5   8    1.79    0.31
   0   5   8    0.49    0.22
   1   5   8    0.07    0.22
   2   5   8    1.92    0.35
   3   5   8   -0.28    0.17
   4   5   8    1.93    0.36
   4   5   8    1.89    0.32
   5   5   8    2.50    0.36
   6   5   8    0.39    0.23
   7   5   8   -0.13    0.17
  11  -6  -8    0.28    0.23
  10  -6  -8   -0.19    0.19
   9  -6  -8    1.69    0.31
  -9   6   8    1.85    0.35
  -8   6   8    1.07    0.29
  -7   6   8   -0.04    0.18
  -6   6   8    0.46    0.25
  -5   6   8    1.35    0.29
  -4   6   8    0.09    0.19
  -3   6   8    0.41    0.25
  -2   6   8   -0.20    0.17
  -1   6   8    0.13    0.21
   0   6   8    1.12    0.32
   1   6   8    0.82    0.30
   2   6   8   -0.10    0.22
   3   6   8    1.26    0.27
   3   6   8    1.37    0.35
   4   6   8   -0.05    0.25
   4   6   8    0.27    0.23
   5   6   8    0.12    0.20
   6   6   8   -0.02    0.19
  10  -7  -8   -0.14    0.21
  -9   7   8    0.15    0.26
  -8   7   8   -0.10    0.21
  -7   7   8    0.02    0.21
  -6   7   8    0.44    0.27
  -5   7   8    1.09    0.29
  -4   7   8    0.67    0.26
  -3   7   8    0.31    0.26
  -2   7   8    0.04    0.22
  -1   7   8    0.25    0.24
   0   7   8    0.44    0.27
   1   7   8    1.06    0.35
   2   7   8    0.41    0.30
   3   7   8    0.06    0.21
   3   7   8   -0.26    0.25
   4   7   8    0.02    0.21
   5   7   8    0.07    0.23
  -9   8   8   -0.02    0.25
  -8   8   8    0.44    0.32
  -7   8   8   -0.22    0.27
  -6   8   8    0.00    0.23
  -5   8   8    0.17    0.29
  -4   8   8    0.77    0.33
  -3   8   8   -0.16    0.23
  -2   8   8    0.08    0.28
  -1   8   8    0.57    0.30
   0   8   8    0.39    0.35
   1   8   8    0.74    0.35
   2   8   8    0.23    0.26
   3   8   8    0.40    0.26
   3   8   8    0.49    0.34
  -1  15  -9   -0.05    0.18
  -2  15  -9    0.18    0.21
  -3  15  -9    0.14    0.22
  -4  15  -9    0.48    0.22
   4 -15   9    0.11    0.23
  -5  15  -9    0.57    0.22
   5 -15   9    0.19    0.20
   6 -15   9    0.01    0.25
   3  14  -9    1.11    0.27
   2  14  -9    0.80    0.26
   1  14  -9   -0.16    0.15
   0  14  -9   -0.16    0.15
  -1  14  -9    0.25    0.21
  -2  14  -9    0.14    0.21
  -3  14  -9    0.10    0.20
   3 -14   9    0.01    0.19
  -4  14  -9    0.03    0.16
   4 -14   9    0.31    0.22
  -5  14  -9    0.45    0.22
   5 -14   9    0.46    0.21
   6 -14   9   -0.08    0.17
   7 -14   9   -0.02    0.20
   8 -14   9    0.17    0.26
   6  13  -9    0.20    0.23
   5  13  -9    0.35    0.20
   4  13  -9   -0.03    0.19
   3  13  -9    0.20    0.18
   2  13  -9    0.03    0.16
   1  13  -9    0.02    0.15
   0  13  -9    0.30    0.20
  -1  13  -9    0.71    0.22
  -2  13  -9    0.48    0.21
   2 -13   9    0.47    0.19
  -3  13  -9    0.12    0.18
   3 -13   9   -0.11    0.18
  -4  13  -9    0.20    0.19
   4 -13   9    0.20    0.21
  -5  13  -9    0.02    0.16
   5 -13   9    0.03    0.19
   6 -13   9    0.25    0.22
   7 -13   9    0.32    0.20
   8 -13   9    0.15    0.24
   9 -13   9    0.33    0.27
   7  12  -9   -0.14    0.19
   6  12  -9    0.29    0.23
   5  12  -9    0.20    0.21
   4  12  -9    0.12    0.20
   3  12  -9    0.13    0.17
   2  12  -9    0.37    0.18
   1  12  -9    0.53    0.22
   0  12  -9    0.21    0.18
  -1  12  -9    0.03    0.17
   1 -12   9    0.09    0.17
  -2  12  -9    0.41    0.20
   2 -12   9    0.86    0.20
  -3  12  -9   -0.03    0.16
   3 -12   9   -0.05    0.18
  -4  12  -9    0.20    0.15
   4 -12   9   -0.13    0.17
  -5  12  -9    0.25    0.17
   5 -12   9   -0.12    0.19
   6 -12   9    0.85    0.24
   7 -12   9    0.78    0.24
   8 -12   9    0.08    0.23
   9 -12   9    0.57    0.27
  10 -12   9    0.15    0.25
   8  11  -9    0.57    0.25
   7  11  -9    0.24    0.22
   6  11  -9    0.08    0.17
   5  11  -9    0.04    0.19
   4  11  -9    0.86    0.25
   3  11  -9    0.24    0.18
   2  11  -9    0.34    0.17
   1  11  -9    0.80    0.21
   0  11  -9    0.09    0.14
  -1  11  -9    0.41    0.20
   1 -11   9    0.71    0.20
  -2  11  -9    1.70    0.27
   2 -11   9    1.49    0.25
  -3  11  -9    0.02    0.13
   3 -11   9   -0.23    0.15
  -4  11  -9   -0.10    0.11
   4 -11   9    0.10    0.18
  -5  11  -9    0.27    0.17
   5 -11   9    0.31    0.18
   6 -11   9    0.03    0.17
   7 -11   9   -0.21    0.19
   8 -11   9   -0.07    0.17
   9 -11   9    0.03    0.23
  10 -11   9    0.86    0.26
   8  10  -9    0.13    0.19
   7  10  -9    0.29    0.21
   6  10  -9    0.00    0.15
   5  10  -9    0.14    0.20
   4  10  -9    5.96    0.49
   3  10  -9    3.42    0.38
   2  10  -9    0.79    0.20
   1  10  -9    2.21    0.30
   0  10  -9    0.23    0.16
   0 -10   9    0.12    0.13
  -1  10  -9    0.06    0.16
   1 -10   9   -0.03    0.15
  -2  10  -9    1.62    0.25
   2 -10   9    1.60    0.25
  -3  10  -9    2.82    0.31
   3 -10   9    2.45    0.29
  -4  10  -9    0.03    0.15
   4 -10   9    0.08    0.17
  -5  10  -9   -0.13    0.12
   5 -10   9   -0.09    0.13
   6 -10   9   -0.01    0.16
   7 -10   9    0.16    0.19
   8 -10   9    0.51    0.22
   9 -10   9    0.07    0.20
  10 -10   9    0.65    0.23
  11 -10   9    0.15    0.23
   8   9  -9    0.08    0.16
   7   9  -9    1.67    0.28
   6   9  -9    4.21    0.44
   5   9  -9   -0.06    0.18
   4   9  -9    0.16    0.19
   3   9  -9    3.72    0.39
   2   9  -9    0.54    0.18
   1   9  -9    0.15    0.15
  -1  -9   9    0.15    0.15
   0   9  -9    1.31    0.23
   0  -9   9    1.44    0.22
  -1   9  -9    1.44    0.23
   1  -9   9    1.40    0.21
  -2   9  -9    0.68    0.18
   2  -9   9    0.58    0.18
  -3   9  -9    2.24    0.28
   3  -9   9    1.70    0.25
  -4   9  -9    0.37    0.15
   4  -9   9    0.12    0.14
  -5   9  -9   -0.11    0.11
   5  -9   9    0.09    0.16
   6  -9   9    0.34    0.19
   7  -9   9    1.60    0.28
   8  -9   9    1.87    0.29
   9  -9   9   -0.18    0.15
  10  -9   9    0.14    0.19
  11  -9   9    0.42    0.25
   8   8  -9    0.51    0.22
   7   8  -9    0.27    0.19
   6   8  -9    0.82    0.21
   5   8  -9    2.86    0.34
   4   8  -9    0.65    0.20
   3   8  -9    3.17    0.35
   2   8  -9    3.73    0.34
   1   8  -9    1.12    0.21
  -1  -8   9    1.16    0.18
   0   8  -9   -0.22    0.11
   0  -8   9    0.25    0.14
  -1   8  -9    0.26    0.14
   1  -8   9    0.07    0.12
  -2   8  -9    0.13    0.15
   2  -8   9   -0.05    0.11
  -3   8  -9    0.17    0.12
   3  -8   9    0.37    0.16
  -4   8  -9    4.45    0.34
   4  -8   9    3.97    0.33
  -5   8  -9    2.66    0.28
   5  -8   9    2.55    0.30
   6  -8   9    1.92    0.27
   7  -8   9    0.02    0.18
   8  -8   9   -0.07    0.14
   9  -8   9    0.17    0.20
  10  -8   9    0.69    0.22
  11  -8   9    1.93    0.33
   8   7  -9    0.46    0.21
   7   7  -9    0.67    0.23
   6   7  -9    0.69    0.23
   5   7  -9    8.92    0.58
   4   7  -9    0.71    0.20
   3   7  -9   -0.01    0.13
   2   7  -9    6.28    0.42
   1   7  -9   10.99    0.63
  -1  -7   9   11.29    0.56
   0   7  -9    0.24    0.13
   0  -7   9   -0.08    0.11
  -1   7  -9    5.22    0.37
   1  -7   9    4.69    0.34
  -2   7  -9    1.30    0.21
   2  -7   9    0.94    0.18
  -3   7  -9    1.76    0.24
   3  -7   9    1.40    0.22
  -4   7  -9    4.62    0.35
   4  -7   9    4.82    0.35
   5  -7   9    3.08    0.32
   6  -7   9    4.40    0.36
   7  -7   9    0.29    0.16
   8  -7   9    1.91    0.29
   9  -7   9    1.48    0.26
  10  -7   9    0.72    0.22
  11  -7   9   -0.07    0.20
  12   6  -9    2.23    0.36
  11   6  -9    2.95    0.38
  10   6  -9    0.50    0.21
   9   6  -9    0.54    0.20
   8   6  -9    0.12    0.16
   8   6  -9    0.14    0.16
   7   6  -9   14.68    0.76
   7   6  -9   15.45    0.86
   6   6  -9   -0.02    0.14
   5   6  -9    5.82    0.44
   4   6  -9    6.58    0.47
   3   6  -9    4.94    0.39
  -2  -6   9    1.50    0.17
   1   6  -9    3.01    0.29
  -1  -6   9    3.37    0.25
   0   6  -9    3.04    0.28
   0  -6   9    2.94    0.25
  -1   6  -9    0.20    0.14
   1  -6   9    0.36    0.12
  -2   6  -9    0.02    0.12
   2  -6   9    0.05    0.12
  -3   6  -9    1.10    0.20
   3  -6   9    0.83    0.17
  -4   6  -9    0.02    0.12
   4  -6   9    0.31    0.15
   5  -6   9    0.04    0.15
   6  -6   9    0.73    0.19
   7  -6   9    0.30    0.18
   8  -6   9    3.36    0.36
   9  -6   9    0.23    0.17
  10  -6   9    1.42    0.28
  11  -6   9    0.57    0.25
  12   5  -9    0.28    0.22
  11   5  -9    0.00    0.17
  10   5  -9    0.52    0.21
   9   5  -9    0.00    0.16
   9   5  -9    0.01    0.16
   8   5  -9    2.95    0.32
   8   5  -9    2.79    0.35
   7   5  -9    0.70    0.18
   7   5  -9    0.76    0.21
   6   5  -9    0.17    0.15
   6   5  -9    0.20    0.14
   5   5  -9    3.78    0.27
   5   5  -9    3.93    0.35
   4   5  -9    0.59    0.13
   4   5  -9    0.38    0.18
   3   5  -9    3.06    0.30
   3   5  -9    4.07    0.25
  -2  -5   9    0.92    0.14
   1   5  -9    0.29    0.14
  -1  -5   9    0.33    0.11
   0   5  -9   17.30    0.90
   0  -5   9   17.72    0.79
  -1   5  -9    1.59    0.22
   1  -5   9    1.30    0.17
  -2   5  -9    0.13    0.12
   2  -5   9    0.21    0.12
  -3   5  -9    0.17    0.12
   3  -5   9    0.10    0.13
  -4   5  -9    3.46    0.29
   4  -5   9    2.97    0.29
   5  -5   9    4.37    0.36
   6  -5   9    7.55    0.50
   7  -5   9    0.27    0.16
   8  -5   9    0.61    0.22
   9  -5   9    1.08    0.24
  10  -5   9    0.11    0.18
  11  -5   9    0.39    0.24
  12   4  -9    0.01    0.17
  11   4  -9    0.41    0.21
  10   4  -9    0.08    0.17
   9   4  -9    0.06    0.15
   9   4  -9   -0.04    0.15
   8   4  -9    0.36    0.17
   8   4  -9    0.58    0.20
   7   4  -9    2.33    0.26
   7   4  -9    2.10    0.29
   6   4  -9    3.02    0.27
   6   4  -9    3.42    0.35
   5   4  -9    0.03    0.11
   5   4  -9    0.09    0.16
   4   4  -9   10.02    0.59
   4   4  -9    9.51    0.50
   3   4  -9   13.32    0.63
   2   4  -9    1.92    0.18
   1   4  -9    1.35    0.21
  -1  -4   9    1.90    0.17
   0   4  -9   -0.09    0.11
   0  -4   9   -0.03    0.09
  -1   4  -9    3.90    0.32
   1  -4   9    4.75    0.29
  -2   4  -9    2.91    0.26
   2  -4   9    3.05    0.25
  -3   4  -9    6.25    0.42
   3  -4   9    6.43    0.40
   3  -4   9    6.80    0.37
  -4   4  -9   19.05    0.96
   4  -4   9   20.16    0.94
   5  -4   9    1.23    0.22
   6  -4   9    0.17    0.15
   7  -4   9    1.31    0.23
   8  -4   9    0.08    0.18
   9  -4   9    0.13    0.18
  10  -4   9    0.50    0.23
  11  -4   9    0.00    0.19
  13   3  -9    0.31    0.24
  12   3  -9    0.12    0.22
  11   3  -9   -0.10    0.18
  10   3  -9    0.22    0.18
   9   3  -9    0.14    0.16
   9   3  -9    0.00    0.13
   8   3  -9    0.88    0.18
   8   3  -9    0.96    0.22
   7   3  -9    2.43    0.28
   7   3  -9    1.91    0.25
   6   3  -9    0.17    0.14
   6   3  -9    0.43    0.15
   5   3  -9    0.76    0.16
   5   3  -9    0.99    0.21
   4   3  -9    2.16    0.21
   4   3  -9    2.19    0.28
   2   3  -9    0.00    0.06
   1   3  -9   -0.06    0.14
   0   3  -9   18.29    0.92
   0  -3   9   17.73    0.80
  -1   3  -9    5.95    0.39
   1  -3   9    5.64    0.34
  -2   3  -9    1.64    0.23
   2  -3   9    1.48    0.20
  -3   3  -9    0.07    0.14
   3  -3   9   -0.01    0.11
   3  -3   9   -0.12    0.12
  -4   3  -9    0.37    0.16
   4  -3   9    0.32    0.16
   4  -3   9    0.19    0.14
   5  -3   9    3.90    0.32
   5  -3   9    4.71    0.36
   6  -3   9    0.28    0.15
   6  -3   9    0.42    0.17
   7  -3   9    0.58    0.20
   7  -3   9    0.46    0.17
   8  -3   9   -0.14    0.16
   8  -3   9    0.27    0.17
   9  -3   9    1.29    0.25
  10  -3   9    0.12    0.20
  11  -3   9   -0.03    0.18
  12   2  -9    1.93    0.33
  11   2  -9   -0.13    0.16
  10   2  -9   -0.07    0.12
   9   2  -9   -0.12    0.15
   9   2  -9    0.00    0.15
   8   2  -9    0.07    0.15
   8   2  -9    0.09    0.17
   7   2  -9    2.33    0.30
   7   2  -9    2.56    0.29
   6   2  -9    3.50    0.36
   6   2  -9    3.92    0.31
   5   2  -9    2.54    0.26
   5   2  -9    2.17    0.27
   4   2  -9    2.25    0.23
   4   2  -9    2.36    0.29
   3   2  -9    0.12    0.11
   3   2  -9   -0.06    0.05
   2   2  -9    0.01    0.05
   1   2  -9    1.50    0.22
   0   2  -9   25.03    1.22
   0  -2   9   25.32    1.08
  -1   2  -9   40.44    1.87
   1  -2   9   41.20    1.71
  -2   2  -9    0.73    0.19
   2  -2   9    0.68    0.15
  -3   2  -9    9.51    0.56
  -4   2  -9    5.72    0.39
   4  -2   9    5.11    0.36
   5  -2   9    2.18    0.25
   6  -2   9    0.74    0.19
   7  -2   9   -0.15    0.15
   8  -2   9    0.15    0.18
   9  -2   9    0.23    0.19
  10  -2   9   -0.09    0.18
  11  -2   9    0.23    0.22
  13   1  -9    0.98    0.29
  12   1  -9    0.19    0.20
  11   1  -9    0.20    0.19
  10   1  -9    0.46    0.18
   9   1  -9    0.52    0.17
   9   1  -9   -0.06    0.16
   8   1  -9    4.04    0.37
   8   1  -9    4.97    0.38
   7   1  -9   -0.06    0.16
   7   1  -9    0.07    0.14
   6   1  -9    3.85    0.32
   6   1  -9    3.88    0.36
   5   1  -9    1.17    0.23
   5   1  -9    0.87    0.17
   4   1  -9    1.37    0.20
   4   1  -9    1.35    0.23
   3   1  -9    0.72    0.14
   1   1  -9    0.59    0.19
   0   1  -9    2.21    0.27
  -1   1  -9    0.14    0.15
  -2   1  -9    0.04    0.13
  -3   1  -9    0.87    0.21
   4  -1   9    0.09    0.13
   4  -1   9    0.11    0.14
   5  -1   9    4.60    0.36
   6  -1   9    8.43    0.52
   7  -1   9   -0.14    0.16
   8  -1   9    0.00    0.15
   9  -1   9    0.68    0.23
  10  -1   9    0.11    0.20
  13   0  -9    0.44    0.25
  12   0  -9    0.45    0.22
  11   0  -9    0.21    0.20
  10   0  -9    0.26    0.19
   9   0  -9    0.41    0.19
   9   0  -9    0.59    0.21
   8   0  -9    2.83    0.33
   8   0  -9    2.29    0.31
   7   0  -9    1.87    0.25
   7   0  -9    1.72    0.26
   6   0  -9    3.78    0.38
   6   0  -9    4.09    0.33
   5   0  -9    0.36    0.14
   5   0  -9    0.18    0.16
   4   0  -9   21.58    1.01
   4   0  -9   22.27    1.11
   3   0  -9   33.29    1.58
   2   0  -9    8.46    0.53
   1   0  -9   11.48    0.66
   0   0  -9    0.24    0.18
  -1   0  -9    4.54    0.37
   2   0   9    1.77    0.25
   3   0   9    0.69    0.19
   4   0   9    0.17    0.15
   4   0   9   -0.08    0.14
   5   0   9    0.19    0.16
   6   0   9    5.18    0.42
   7   0   9   -0.04    0.18
   8   0   9    0.08    0.17
   9   0   9    1.14    0.27
  10   0   9    0.75    0.26
  12  -1  -9    0.18    0.18
  11  -1  -9    0.27    0.21
  10  -1  -9    1.69    0.30
   9  -1  -9    3.25    0.35
  -9   1   9    2.64    0.33
   8  -1  -9    0.44    0.18
   8  -1  -9    0.13    0.19
  -8   1   9    0.13    0.16
   7  -1  -9    1.69    0.25
   7  -1  -9    1.79    0.27
   6  -1  -9    0.15    0.13
   6  -1  -9    0.29    0.18
   5  -1  -9   -0.15    0.18
   5  -1  -9    0.00    0.12
   4  -1  -9   15.90    0.87
   3  -1  -9    6.40    0.47
   2  -1  -9    1.33    0.26
  -2   1   9    0.77    0.20
  -1   1   9    5.21    0.41
   0   1   9   -0.05    0.17
   1   1   9    7.29    0.52
   2   1   9    2.34    0.31
   3   1   9   -0.07    0.16
   4   1   9   -0.13    0.15
   4   1   9    0.14    0.17
   5   1   9    0.62    0.21
   6   1   9    0.15    0.18
   7   1   9    0.24    0.20
   8   1   9    0.45    0.24
   9   1   9    0.19    0.22
  12  -2  -9    0.30    0.24
  11  -2  -9   -0.01    0.20
  10  -2  -9    0.63    0.21
   9  -2  -9    0.57    0.22
  -9   2   9    0.30    0.19
   8  -2  -9    0.94    0.21
  -8   2   9    1.43    0.27
   7  -2  -9    0.10    0.15
  -7   2   9    0.17    0.16
   6  -2  -9    3.54    0.36
  -6   2   9    3.50    0.37
   5  -2  -9    1.18    0.22
  -5   2   9    1.38    0.25
  -4   2   9    0.92    0.24
  -3   2   9    1.81    0.27
  -2   2   9    1.71    0.27
  -1   2   9    2.08    0.29
   0   2   9    0.20    0.17
   1   2   9   -0.13    0.14
   2   2   9    4.79    0.41
   3   2   9    0.27    0.20
   4   2   9    0.25    0.17
   4   2   9    0.38    0.22
   5   2   9    0.61    0.20
   6   2   9    1.12    0.26
   7   2   9    0.35    0.19
   8   2   9    0.23    0.23
   9   2   9    0.38    0.25
  12  -3  -9    0.19    0.21
  11  -3  -9    0.03    0.16
  10  -3  -9    0.20    0.20
   9  -3  -9    1.62    0.29
  -9   3   9    1.23    0.25
   8  -3  -9    2.07    0.30
  -8   3   9    2.44    0.33
   7  -3  -9    0.51    0.20
  -7   3   9    0.36    0.19
   6  -3  -9    1.33    0.24
  -6   3   9    1.36    0.28
  -5   3   9    0.05    0.15
  -4   3   9    0.33    0.18
  -3   3   9   11.01    0.69
  -2   3   9    4.18    0.42
  -1   3   9   -0.01    0.17
   0   3   9    0.26    0.19
   1   3   9    0.24    0.22
   2   3   9    5.32    0.45
   3   3   9   -0.17    0.19
   4   3   9    0.19    0.21
   4   3   9    0.76    0.23
   5   3   9    2.01    0.32
   6   3   9    0.93    0.25
   7   3   9    0.12    0.23
   8   3   9    0.12    0.23
  11  -4  -9   -0.31    0.18
  10  -4  -9    0.35    0.23
   9  -4  -9    1.95    0.30
  -9   4   9    1.47    0.30
   8  -4  -9    0.51    0.20
  -8   4   9    0.26    0.21
   7  -4  -9    0.57    0.21
  -7   4   9    0.28    0.24
  -6   4   9    0.05    0.18
  -5   4   9    0.17    0.20
  -4   4   9    3.62    0.41
  -3   4   9   -0.02    0.20
  -2   4   9   -0.02    0.18
  -1   4   9    1.19    0.28
   0   4   9   -0.06    0.22
   1   4   9    0.47    0.22
   2   4   9    0.65    0.27
   3   4   9   -0.03    0.22
   4   4   9   -0.22    0.17
   4   4   9    0.11    0.24
   5   4   9   -0.11    0.20
   6   4   9    0.11    0.18
   7   4   9    0.17    0.20
  11  -5  -9   -0.08    0.20
  10  -5  -9    0.40    0.21
   9  -5  -9    0.03    0.20
  -9   5   9   -0.15    0.22
   8  -5  -9    0.11    0.20
  -8   5   9   -0.60    0.20
  -7   5   9   -0.12    0.21
  -6   5   9    1.18    0.28
  -5   5   9    0.10    0.20
  -4   5   9    0.12    0.20
  -3   5   9    0.86    0.25
  -2   5   9    0.38    0.22
  -1   5   9    0.07    0.21
   0   5   9   -0.14    0.22
   1   5   9    0.63    0.26
   2   5   9    0.88    0.28
   3   5   9    0.06    0.22
   4   5   9   -0.03    0.17
   5   5   9    0.34    0.24
   6   5   9    0.48    0.27
  10  -6  -9    0.20    0.24
  -9   6   9    1.04    0.32
  -8   6   9    0.17    0.27
  -7   6   9   -0.03    0.24
  -6   6   9    0.46    0.25
  -5   6   9   -0.28    0.22
  -4   6   9    0.17    0.25
  -3   6   9   -0.25    0.18
  -2   6   9    2.29    0.39
  -1   6   9    0.36    0.27
   0   6   9    0.22    0.24
   1   6   9   -0.15    0.21
   2   6   9   -0.53    0.20
   3   6   9    0.00    0.27
   3   6   9    0.00    0.18
   4   6   9    0.01    0.19
   5   6   9    0.23    0.21
  -9   7   9    0.36    0.30
  -8   7   9    0.05    0.28
  -7   7   9    0.15    0.28
  -6   7   9   -0.11    0.22
  -5   7   9   -0.13    0.25
  -4   7   9    0.34    0.30
  -3   7   9   -0.10    0.20
  -2   7   9    0.42    0.29
  -1   7   9   -0.13    0.23
   0   7   9    0.15    0.31
   1   7   9   -0.16    0.30
   2   7   9    0.11    0.32
   3   7   9    0.31    0.28
   3   7   9    0.17    0.23
  -2  15 -10    0.01    0.18
  -3  15 -10    0.18    0.22
   3 -15  10    0.34    0.21
  -4  15 -10    0.28    0.22
   4 -15  10   -0.15    0.22
   5 -15  10    0.13    0.20
   2  14 -10    0.10    0.18
   1  14 -10    0.04    0.17
   0  14 -10    0.06    0.16
  -1  14 -10    0.00    0.16
  -2  14 -10    0.10    0.21
  -3  14 -10   -0.04    0.19
   3 -14  10   -0.21    0.18
  -4  14 -10    0.90    0.26
   4 -14  10    0.51    0.25
   5 -14  10    0.15    0.19
   6 -14  10   -0.06    0.19
   7 -14  10   -0.21    0.19
   5  13 -10    0.01    0.18
   4  13 -10    0.29    0.20
   3  13 -10    0.20    0.18
   2  13 -10    0.10    0.16
   1  13 -10    0.00    0.19
   0  13 -10    0.02    0.16
  -1  13 -10    0.14    0.17
  -2  13 -10    0.00    0.16
   2 -13  10    0.07    0.18
  -3  13 -10    0.39    0.18
   3 -13  10   -0.27    0.17
  -4  13 -10    0.68    0.23
   4 -13  10    0.29    0.19
   5 -13  10    0.26    0.21
   6 -13  10    0.05    0.23
   7 -13  10   -0.06    0.22
   8 -13  10    0.34    0.23
   7  12 -10   -0.07    0.20
   6  12 -10    0.08    0.21
   5  12 -10    0.07    0.21
   4  12 -10   -0.16    0.18
   3  12 -10    0.47    0.20
   2  12 -10    0.05    0.18
   1  12 -10    0.22    0.20
   0  12 -10   -0.02    0.16
  -1  12 -10    0.40    0.19
   1 -12  10    0.18    0.18
  -2  12 -10   -0.02    0.14
   2 -12  10    0.36    0.19
  -3  12 -10    0.03    0.15
   3 -12  10    0.44    0.21
  -4  12 -10    0.31    0.19
   4 -12  10    0.31    0.20
   5 -12  10    0.12    0.19
   6 -12  10    0.38    0.23
   7 -12  10   -0.07    0.22
   8 -12  10   -0.10    0.23
   9 -12  10   -0.07    0.24
   8  11 -10    0.22    0.23
   7  11 -10    0.39    0.21
   6  11 -10    0.51    0.22
   5  11 -10   -0.18    0.18
   4  11 -10    0.56    0.21
   3  11 -10    0.10    0.17
   2  11 -10   -0.02    0.15
   1  11 -10    0.14    0.16
   0  11 -10    1.12    0.23
   0 -11  10    0.80    0.21
  -1  11 -10    0.24    0.18
   1 -11  10    0.23    0.18
  -2  11 -10   -0.05    0.14
   2 -11  10   -0.02    0.16
  -3  11 -10   -0.03    0.14
   3 -11  10    0.08    0.18
  -4  11 -10    0.74    0.21
   4 -11  10    0.83    0.23
   5 -11  10    0.30    0.21
   6 -11  10    0.76    0.24
   7 -11  10    0.64    0.25
   8 -11  10    0.21    0.23
   9 -11  10    0.01    0.19
  10 -11  10    0.86    0.29
   8  10 -10    0.09    0.23
   7  10 -10   -0.11    0.15
   6  10 -10    1.46    0.27
   5  10 -10    1.04    0.25
   4  10 -10    3.30    0.39
   3  10 -10    3.30    0.38
   2  10 -10    0.25    0.17
   1  10 -10   -0.13    0.12
   0  10 -10   -0.02    0.14
   0 -10  10   -0.02    0.14
  -1  10 -10   -0.01    0.13
   1 -10  10    0.00    0.13
  -2  10 -10    0.06    0.14
   2 -10  10    0.31    0.18
  -3  10 -10    0.08    0.15
   3 -10  10   -0.02    0.13
  -4  10 -10    0.92    0.21
   4 -10  10    0.75    0.20
   5 -10  10    1.49    0.25
   6 -10  10    0.31    0.18
   7 -10  10   -0.15    0.15
   8 -10  10    0.50    0.21
   9 -10  10    0.88    0.25
  10 -10  10    0.78    0.28
   8   9 -10    0.91    0.28
   7   9 -10    1.02    0.26
   6   9 -10    0.95    0.24
   5   9 -10    0.52    0.19
   4   9 -10    2.60    0.33
   3   9 -10    1.00    0.22
   2   9 -10   -0.11    0.12
   1   9 -10    3.90    0.40
  -1  -9  10    4.39    0.33
   0   9 -10    0.43    0.17
   0  -9  10    0.34    0.16
  -1   9 -10    4.42    0.37
   1  -9  10    4.72    0.37
  -2   9 -10    6.63    0.47
   2  -9  10    6.22    0.43
  -3   9 -10   -0.08    0.13
   3  -9  10    0.00    0.14
  -4   9 -10    0.18    0.16
   4  -9  10   -0.04    0.16
   5  -9  10    2.68    0.32
   6  -9  10    0.09    0.16
   7  -9  10    1.16    0.26
   8  -9  10    0.35    0.19
   9  -9  10    0.49    0.21
  10  -9  10    0.32    0.21
   8   8 -10    1.23    0.29
   7   8 -10    0.57    0.21
   6   8 -10    0.16    0.21
   5   8 -10    0.38    0.23
   4   8 -10    7.72    0.55
   3   8 -10    0.85    0.21
   2   8 -10    1.51    0.24
   1   8 -10    1.43    0.24
  -1  -8  10    1.23    0.19
   0   8 -10    0.66    0.18
   0  -8  10    0.68    0.17
  -1   8 -10    2.61    0.32
   1  -8  10    2.03    0.24
  -2   8 -10   12.97    0.73
   2  -8  10   12.89    0.68
  -3   8 -10    0.65    0.17
   3  -8  10    1.08    0.21
  -4   8 -10    1.81    0.25
   4  -8  10    1.50    0.23
   5  -8  10    0.28    0.17
   6  -8  10    0.78    0.20
   7  -8  10   -0.08    0.18
   8  -8  10    0.39    0.21
   9  -8  10   -0.12    0.15
  10  -8  10    0.09    0.23
  11  -8  10    0.00    0.22
   9   7 -10   -0.07    0.18
   8   7 -10    0.46    0.24
   7   7 -10    1.33    0.26
   6   7 -10    2.44    0.33
   5   7 -10   -0.02    0.15
   4   7 -10   -0.04    0.14
   3   7 -10    1.17    0.23
   2   7 -10    2.62    0.33
   1   7 -10    1.65    0.26
  -1  -7  10    1.65    0.21
   0   7 -10    0.00    0.13
   0  -7  10    0.03    0.13
  -1   7 -10    0.19    0.14
   1  -7  10    0.53    0.16
  -2   7 -10    0.92    0.20
   2  -7  10    0.54    0.16
  -3   7 -10    1.25    0.20
   3  -7  10    0.91    0.18
  -4   7 -10    1.98    0.26
   4  -7  10    1.55    0.23
   5  -7  10    2.04    0.28
   6  -7  10    2.06    0.29
   7  -7  10    0.07    0.15
   8  -7  10    0.29    0.17
   9  -7  10    0.54    0.24
  10  -7  10    0.65    0.24
  11  -7  10    0.03    0.19
   9   6 -10    0.10    0.20
   8   6 -10    0.63    0.21
   7   6 -10    1.54    0.29
   6   6 -10    0.73    0.21
   5   6 -10    0.59    0.20
   4   6 -10   13.95    0.79
   3   6 -10    3.65    0.35
   2   6 -10    4.60    0.38
   1   6 -10    0.83    0.21
  -1  -6  10    1.66    0.19
   0   6 -10    0.01    0.13
   0  -6  10    0.20    0.13
  -1   6 -10    1.79    0.26
   1  -6  10    1.63    0.21
  -2   6 -10    2.47    0.29
   2  -6  10    2.48    0.25
  -3   6 -10    3.43    0.32
   3  -6  10    3.09    0.30
  -4   6 -10    6.19    0.42
   4  -6  10    5.63    0.42
   5  -6  10    4.71    0.38
   6  -6  10    0.18    0.15
   8  -6  10    0.08    0.15
   9  -6  10    0.25    0.20
  10  -6  10    0.07    0.18
  11  -6  10    0.52    0.23
  12   5 -10    0.51    0.25
  11   5 -10    0.65    0.24
  10   5 -10    0.85    0.24
   9   5 -10    1.84    0.27
   9   5 -10    2.00    0.31
   8   5 -10    0.08    0.16
   8   5 -10    0.51    0.17
   7   5 -10    0.04    0.14
   7   5 -10    0.19    0.19
   6   5 -10    0.06    0.18
   6   5 -10    0.03    0.12
   5   5 -10    2.92    0.36
   5   5 -10    3.04    0.27
   4   5 -10    0.08    0.15
   3   5 -10   10.91    0.67
   2   5 -10    9.06    0.57
   1   5 -10    1.14    0.22
   0   5 -10   10.86    0.64
   0  -5  10   10.39    0.53
  -1   5 -10    0.21    0.16
   1  -5  10    0.34    0.13
  -2   5 -10    0.31    0.14
   2  -5  10   -0.02    0.12
  -3   5 -10    0.42    0.16
   3  -5  10    0.15    0.15
  -4   5 -10    0.84    0.19
   4  -5  10    0.89    0.19
   5  -5  10    0.45    0.17
   6  -5  10   -0.01    0.15
   7  -5  10    0.68    0.22
   8  -5  10    0.48    0.19
   9  -5  10    0.08    0.17
  10  -5  10    0.08    0.18
  11  -5  10    0.09    0.22
  12   4 -10    0.03    0.20
  11   4 -10    0.47    0.22
  10   4 -10    0.39    0.21
   9   4 -10    0.10    0.17
   9   4 -10   -0.01    0.15
   8   4 -10    0.17    0.19
   8   4 -10    0.15    0.16
   7   4 -10    0.84    0.21
   7   4 -10    0.52    0.17
   6   4 -10    2.01    0.24
   6   4 -10    2.05    0.29
   5   4 -10    7.79    0.44
   5   4 -10    7.33    0.51
   4   4 -10    0.06    0.15
   4   4 -10    0.09    0.10
   3   4 -10    4.10    0.35
   3   4 -10    3.58    0.26
   2   4 -10    5.76    0.44
   1   4 -10    7.54    0.50
   0   4 -10   10.32    0.61
  -1   4 -10   12.00    0.67
   1  -4  10   11.51    0.58
  -2   4 -10    0.17    0.16
   2  -4  10    0.04    0.12
  -3   4 -10   16.81    0.88
   3  -4  10   16.83    0.82
  -4   4 -10   14.60    0.78
   4  -4  10   14.68    0.75
   5  -4  10    0.47    0.18
   6  -4  10    0.10    0.16
   7  -4  10    0.11    0.15
   8  -4  10    0.64    0.22
   9  -4  10   -0.09    0.15
  10  -4  10   -0.06    0.20
  11  -4  10    0.20    0.25
  12   3 -10    0.39    0.20
  11   3 -10   -0.02    0.18
  10   3 -10    0.74    0.22
   9   3 -10    0.01    0.15
   9   3 -10    0.16    0.19
   8   3 -10    0.99    0.22
   8   3 -10    1.03    0.24
   7   3 -10    0.74    0.22
   7   3 -10    0.67    0.18
   6   3 -10    2.08    0.25
   6   3 -10    1.97    0.28
   5   3 -10    0.90    0.17
   5   3 -10    0.74    0.19
   4   3 -10    0.36    0.19
   4   3 -10    0.57    0.14
   3   3 -10   -0.13    0.13
   3   3 -10   -0.01    0.09
   2   3 -10   24.97    1.23
   1   3 -10    5.04    0.39
   0   3 -10    0.87    0.20
  -1   3 -10    2.82    0.31
   1  -3  10    2.76    0.25
  -2   3 -10    1.18    0.21
   2  -3  10    0.76    0.18
  -3   3 -10    0.20    0.16
   3  -3  10    0.16    0.13
   3  -3  10    0.22    0.15
  -4   3 -10    0.52    0.18
   4  -3  10    0.83    0.19
   4  -3  10    0.84    0.17
   5  -3  10    1.59    0.23
   5  -3  10    1.49    0.23
   6  -3  10    3.99    0.35
   7  -3  10    0.26    0.16
   8  -3  10    0.06    0.15
   9  -3  10    0.68    0.24
  10  -3  10    0.32    0.23
  12   2 -10    0.21    0.22
  11   2 -10    0.75    0.25
  10   2 -10    0.48    0.21
   9   2 -10    0.21    0.15
   9   2 -10    0.03    0.17
   8   2 -10    0.30    0.15
   8   2 -10   -0.01    0.16
   7   2 -10    5.62    0.43
   7   2 -10    4.83    0.38
   6   2 -10    1.58    0.22
   6   2 -10    1.65    0.27
   5   2 -10   -0.11    0.13
   5   2 -10   -0.06    0.12
   4   2 -10   10.31    0.63
   4   2 -10   10.45    0.56
   3   2 -10    8.53    0.55
   2   2 -10    0.93    0.21
   1   2 -10    5.80    0.46
   0   2 -10   20.41    1.04
  -1   2 -10    6.78    0.47
  -2   2 -10    0.06    0.16
   2  -2  10    0.18    0.14
  -3   2 -10    2.87    0.31
   3  -2  10    2.77    0.28
  -4   2 -10    0.48    0.18
   4  -2  10    0.53    0.17
   4  -2  10    0.27    0.15
   5  -2  10    0.54    0.17
   6  -2  10    0.62    0.19
   7  -2  10    0.62    0.22
   8  -2  10    0.31    0.20
  10  -2  10    0.32    0.21
  12   1 -10    0.01    0.20
  11   1 -10    0.80    0.24
  10   1 -10    0.05    0.15
   9   1 -10    0.39    0.17
   9   1 -10    0.56    0.22
   8   1 -10    0.27    0.15
   8   1 -10    0.23    0.19
   7   1 -10    0.05    0.14
   7   1 -10   -0.12    0.14
   6   1 -10    3.81    0.40
   6   1 -10    3.84    0.33
   5   1 -10    0.51    0.17
   5   1 -10    0.07    0.18
   4   1 -10    2.69    0.32
   4   1 -10    2.65    0.28
   3   1 -10    1.24    0.23
   2   1 -10    0.43    0.18
   1   1 -10    8.20    0.54
   0   1 -10   27.62    1.35
  -1   1 -10    7.16    0.49
  -2   1 -10   -0.31    0.14
  -3   1 -10    0.90    0.22
   3  -1  10    1.15    0.22
   4  -1  10   -0.01    0.14
   4  -1  10    0.15    0.16
   5  -1  10    2.63    0.30
   6  -1  10    1.11    0.24
   7  -1  10    0.09    0.17
   8  -1  10    0.13    0.19
   9  -1  10   -0.04    0.17
  10  -1  10    0.28    0.23
  12   0 -10    0.05    0.18
  11   0 -10    0.10    0.21
  10   0 -10   -0.19    0.16
   9   0 -10    0.92    0.25
   9   0 -10    0.46    0.19
   8   0 -10   -0.03    0.19
   8   0 -10    0.14    0.17
   7   0 -10    3.87    0.41
   7   0 -10    3.30    0.34
   6   0 -10    3.03    0.32
   6   0 -10    2.49    0.34
   5   0 -10    0.12    0.16
   5   0 -10    0.16    0.15
   4   0 -10    6.11    0.47
   3   0 -10    0.50    0.19
   2   0 -10   -0.01    0.15
   1   0 -10    0.56    0.20
   0   0 -10    3.80    0.38
   1   0  10    1.42    0.25
   2   0  10    0.01    0.16
   3   0  10    0.10    0.14
   4   0  10    0.31    0.17
   4   0  10    0.05    0.16
   5   0  10    4.70    0.40
   6   0  10    1.11    0.25
   7   0  10    0.25    0.20
   8   0  10    0.00    0.20
   9   0  10    0.57    0.25
  12  -1 -10   -0.16    0.20
  11  -1 -10    0.33    0.20
  10  -1 -10    0.31    0.20
   9  -1 -10    0.93    0.23
  -9   1  10    0.73    0.23
   8  -1 -10    1.84    0.29
  -8   1  10    1.67    0.27
   7  -1 -10    1.37    0.27
   7  -1 -10    1.20    0.23
  -7   1  10    1.25    0.24
   6  -1 -10    2.59    0.31
   6  -1 -10    3.58    0.39
  -6   1  10    3.08    0.35
   5  -1 -10   -0.09    0.17
  -5   1  10   -0.07    0.13
   4  -1 -10    3.56    0.39
  -4   1  10    3.52    0.38
   3  -1 -10   -0.11    0.17
  -3   1  10   -0.19    0.12
  -2   1  10    7.92    0.54
  -1   1  10    0.33    0.17
   0   1  10    1.78    0.29
   1   1  10    0.34    0.18
   2   1  10    0.24    0.19
   3   1  10    0.44    0.21
   4   1  10    0.67    0.23
   4   1  10    0.65    0.21
   5   1  10    1.54    0.28
   6   1  10    1.06    0.25
   7   1  10   -0.16    0.18
   8   1  10    0.17    0.19
  11  -2 -10    0.74    0.24
  10  -2 -10    0.58    0.24
   9  -2 -10    0.44    0.22
  -9   2  10    0.43    0.23
   8  -2 -10    0.23    0.17
  -8   2  10    0.08    0.21
   7  -2 -10    1.46    0.28
  -7   2  10    2.12    0.31
   6  -2 -10    0.55    0.18
  -6   2  10    0.48    0.19
  -5   2  10    0.76    0.22
  -4   2  10    3.19    0.37
  -3   2  10    0.04    0.16
  -2   2  10    3.29    0.39
  -1   2  10   -0.07    0.19
   0   2  10    0.43    0.19
   1   2  10    0.02    0.17
   2   2  10    2.93    0.36
   3   2  10   -0.01    0.20
   4   2  10    0.04    0.19
   4   2  10   -0.26    0.19
   5   2  10    0.28    0.18
   6   2  10   -0.07    0.14
   7   2  10   -0.08    0.20
   8   2  10   -0.16    0.21
  11  -3 -10    0.05    0.19
  10  -3 -10   -0.04    0.20
   9  -3 -10   -0.03    0.19
  -9   3  10    0.07    0.21
   8  -3 -10    0.44    0.20
  -8   3  10    0.20    0.22
   7  -3 -10   -0.09    0.18
  -7   3  10    0.29    0.21
  -6   3  10    0.18    0.18
  -5   3  10    0.06    0.17
  -4   3  10   -0.16    0.15
  -3   3  10    1.19    0.27
  -2   3  10    1.09    0.28
  -1   3  10   -0.01    0.21
   0   3  10    0.47    0.22
   1   3  10    0.40    0.25
   2   3  10    0.56    0.23
   3   3  10    0.64    0.24
   4   3  10    0.47    0.21
   5   3  10    1.24    0.27
   6   3  10    0.41    0.24
   7   3  10    0.01    0.20
  10  -4 -10    0.11    0.18
   9  -4 -10    0.44    0.24
  -9   4  10   -0.22    0.23
   8  -4 -10    0.96    0.26
  -8   4  10    1.25    0.31
  -7   4  10    0.11    0.24
  -6   4  10    0.33    0.22
  -5   4  10    0.10    0.19
  -4   4  10    0.53    0.23
  -3   4  10   -0.06    0.22
  -2   4  10    0.79    0.26
  -1   4  10    0.11    0.20
   0   4  10    2.04    0.37
   1   4  10   -0.01    0.20
   2   4  10   -0.24    0.19
   3   4  10   -0.14    0.23
   4   4  10    0.22    0.22
   5   4  10    0.20    0.20
   6   4  10    0.12    0.20
  -9   5  10    0.38    0.28
  -8   5  10    1.17    0.34
  -7   5  10    0.09    0.22
  -6   5  10    0.28    0.26
  -5   5  10   -0.13    0.19
  -4   5  10    0.73    0.27
  -3   5  10    0.14    0.21
  -2   5  10    0.31    0.28
  -1   5  10    0.30    0.27
   0   5  10    0.03    0.23
   1   5  10    0.71    0.30
   2   5  10   -0.17    0.26
   3   5  10    0.09    0.24
   3   5  10   -0.07    0.18
   4   5  10   -0.03    0.19
   5   5  10   -0.10    0.22
  -8   6  10    0.05    0.27
  -7   6  10   -0.09    0.25
  -6   6  10    0.06    0.27
  -5   6  10   -0.12    0.21
  -4   6  10    1.78    0.36
  -3   6  10   -0.21    0.25
  -2   6  10    0.41    0.26
  -1   6  10   -0.03    0.28
   0   6  10    0.30    0.27
   1   6  10   -0.15    0.23
   2   6  10    0.95    0.34
   3   6  10    0.29    0.25
   3   6  10   -0.28    0.30
   3 -15  11    1.46    0.31
  -4  15 -11    0.62    0.23
   4 -15  11    0.49    0.26
   1  14 -11    0.68    0.26
   0  14 -11    0.32    0.21
  -1  14 -11    0.83    0.25
  -2  14 -11    0.09    0.18
   2 -14  11   -0.06    0.20
  -3  14 -11    0.17    0.22
   3 -14  11   -0.03    0.20
  -4  14 -11    0.07    0.20
   4 -14  11   -0.16    0.19
   5 -14  11   -0.07    0.22
   6 -14  11    0.04    0.23
   4  13 -11   -0.02    0.21
   3  13 -11    0.15    0.23
   2  13 -11    0.21    0.19
   1  13 -11   -0.04    0.17
   0  13 -11   -0.16    0.18
  -1  13 -11    0.20    0.18
   1 -13  11   -0.08    0.17
  -2  13 -11    0.09    0.17
   2 -13  11    0.36    0.18
  -3  13 -11    0.47    0.23
   3 -13  11    0.08    0.17
  -4  13 -11    0.10    0.18
   4 -13  11    0.22    0.21
   5 -13  11   -0.22    0.19
   6 -13  11   -0.21    0.21
   7 -13  11   -0.21    0.22
   6  12 -11    0.00    0.20
   5  12 -11    0.24    0.20
   4  12 -11    0.37    0.22
   3  12 -11    1.92    0.34
   2  12 -11    0.71    0.22
   1  12 -11    0.22    0.18
   0  12 -11    0.64    0.22
  -1  12 -11   -0.01    0.18
   1 -12  11    0.10    0.18
  -2  12 -11    0.03    0.15
   2 -12  11    0.07    0.18
  -3  12 -11    0.38    0.18
   3 -12  11    0.14    0.19
  -4  12 -11    0.11    0.16
   4 -12  11   -0.04    0.20
   5 -12  11   -0.12    0.19
   6 -12  11    0.62    0.25
   7 -12  11   -0.13    0.19
   8 -12  11    0.50    0.28
   8  11 -11    0.10    0.24
   7  11 -11    0.36    0.23
   6  11 -11    0.08    0.21
   5  11 -11    0.37    0.22
   4  11 -11    0.56    0.21
   3  11 -11    2.43    0.35
   2  11 -11    1.55    0.28
   1  11 -11    0.91    0.25
   0  11 -11    1.69    0.29
   0 -11  11    0.91    0.22
  -1  11 -11    0.18    0.19
   1 -11  11    0.11    0.17
  -2  11 -11    0.37    0.18
   2 -11  11   -0.11    0.13
  -3  11 -11    0.19    0.18
   3 -11  11    0.54    0.21
  -4  11 -11   -0.02    0.13
   4 -11  11    0.28    0.21
   5 -11  11    0.07    0.20
   6 -11  11    0.55    0.22
   7 -11  11    0.23    0.20
   8 -11  11    0.24    0.20
   9 -11  11    0.17    0.22
   8  10 -11    0.23    0.25
   7  10 -11    1.78    0.36
   6  10 -11    0.52    0.23
   5  10 -11   -0.09    0.16
   4  10 -11    2.88    0.37
   3  10 -11    0.38    0.18
   2  10 -11    0.09    0.15
   1  10 -11   -0.05    0.13
  -1 -10  11   -0.17    0.14
   0  10 -11    0.10    0.15
   0 -10  11   -0.15    0.13
  -1  10 -11    0.19    0.18
   1 -10  11    0.35    0.17
  -2  10 -11    1.98    0.29
   2 -10  11    1.84    0.27
  -3  10 -11    1.03    0.24
   3 -10  11    1.12    0.22
  -4  10 -11    1.85    0.29
   4 -10  11    2.13    0.29
   5 -10  11    2.35    0.33
   6 -10  11    1.08    0.25
   7 -10  11   -0.15    0.16
   8 -10  11    0.48    0.24
   9 -10  11    0.69    0.26
   8   9 -11   -0.11    0.22
   7   9 -11    0.60    0.26
   6   9 -11    0.31    0.21
   5   9 -11    0.41    0.24
   4   9 -11    0.74    0.26
   3   9 -11   -0.01    0.16
   2   9 -11    0.83    0.22
   1   9 -11    1.74    0.29
  -1  -9  11    2.13    0.25
   0   9 -11    0.42    0.18
   0  -9  11    0.27    0.17
  -1   9 -11    2.20    0.32
   1  -9  11    1.99    0.27
  -2   9 -11    0.69    0.20
   2  -9  11    0.44    0.18
  -3   9 -11    0.36    0.19
   3  -9  11    0.14    0.17
  -4   9 -11    1.41    0.25
   4  -9  11    1.82    0.27
   5  -9  11    0.30    0.20
   6  -9  11   -0.06    0.17
   7  -9  11    0.08    0.16
   8  -9  11   -0.01    0.20
   9  -9  11    0.55    0.23
  10  -9  11    0.13    0.20
   9   8 -11   -0.09    0.22
   8   8 -11    1.35    0.31
   7   8 -11    0.21    0.22
   6   8 -11    0.18    0.22
   5   8 -11    0.92    0.24
   4   8 -11    0.71    0.22
   3   8 -11    2.83    0.35
   2   8 -11    0.81    0.24
   1   8 -11    3.67    0.39
   0   8 -11   -0.04    0.14
   0  -8  11   -0.26    0.12
  -1   8 -11    6.42    0.47
   1  -8  11    6.43    0.43
  -2   8 -11    9.68    0.61
   2  -8  11    9.80    0.56
  -3   8 -11    1.26    0.25
   3  -8  11    1.04    0.21
  -4   8 -11   -0.10    0.14
   4  -8  11    0.03    0.15
   5  -8  11    0.11    0.17
   6  -8  11    0.03    0.18
   7  -8  11   -0.19    0.17
   8  -8  11    0.05    0.19
   9  -8  11   -0.16    0.20
  10  -8  11    0.02    0.19
   9   7 -11    1.25    0.31
   8   7 -11    0.86    0.25
   7   7 -11    2.48    0.37
   6   7 -11    0.12    0.21
   5   7 -11    0.05    0.20
   4   7 -11   -0.10    0.15
   3   7 -11    9.76    0.63
   2   7 -11    0.34    0.17
   1   7 -11    0.96    0.24
   0   7 -11    0.90    0.22
   0  -7  11    0.81    0.17
  -1   7 -11    0.41    0.20
   1  -7  11    0.52    0.16
  -2   7 -11    1.32    0.25
   2  -7  11    1.13    0.21
  -3   7 -11    0.48    0.19
   3  -7  11    0.35    0.16
  -4   7 -11    0.30    0.16
   4  -7  11    0.63    0.19
   5  -7  11    0.22    0.18
   6  -7  11   -0.02    0.15
   7  -7  11    0.15    0.18
   8  -7  11    0.41    0.22
   9  -7  11    0.17    0.19
  10  -7  11   -0.07    0.18
   9   6 -11    0.45    0.24
   8   6 -11    1.19    0.28
   7   6 -11    0.45    0.23
   6   6 -11    1.38    0.29
   5   6 -11    1.64    0.28
   4   6 -11    3.16    0.38
   3   6 -11    1.92    0.29
   2   6 -11    1.48    0.26
   1   6 -11   -0.15    0.13
   0   6 -11    1.31    0.24
  -1   6 -11    0.16    0.15
   1  -6  11   -0.05    0.13
  -2   6 -11    0.04    0.14
   2  -6  11    0.07    0.13
  -3   6 -11    0.46    0.18
   3  -6  11    0.59    0.18
  -4   6 -11    4.49    0.38
   4  -6  11    4.57    0.37
   5  -6  11   -0.01    0.15
   6  -6  11    0.61    0.20
   7  -6  11    0.28    0.17
   8  -6  11    0.20    0.17
   9  -6  11    0.14    0.18
  10  -6  11    0.74    0.27
  11   5 -11    0.38    0.22
  10   5 -11   -0.01    0.18
   9   5 -11    1.90    0.29
   9   5 -11    1.89    0.33
   8   5 -11   -0.01    0.16
   7   5 -11    0.00    0.16
   6   5 -11    0.77    0.24
   5   5 -11   -0.02    0.15
   4   5 -11    0.10    0.16
   3   5 -11    2.51    0.31
   2   5 -11   16.26    0.89
   1   5 -11   16.01    0.87
   0   5 -11    2.49    0.30
  -1   5 -11   10.61    0.65
  -2   5 -11    7.86    0.52
   2  -5  11    7.36    0.45
  -3   5 -11    2.42    0.29
   3  -5  11    2.34    0.27
  -4   5 -11    0.18    0.16
   4  -5  11   -0.04    0.13
   5  -5  11    0.19    0.14
   6  -5  11    0.35    0.19
   7  -5  11    0.76    0.21
   8  -5  11    0.30    0.20
   9  -5  11    0.20    0.19
  10  -5  11    0.82    0.26
  11   4 -11    0.00    0.18
  10   4 -11    0.09    0.18
   9   4 -11    1.25    0.29
   9   4 -11    1.34    0.26
   8   4 -11   -0.15    0.15
   8   4 -11   -0.04    0.14
   7   4 -11    0.84    0.20
   7   4 -11    1.08    0.24
   6   4 -11    0.06    0.16
   6   4 -11    0.08    0.13
   5   4 -11    3.68    0.40
   5   4 -11    3.12    0.28
   4   4 -11    0.39    0.18
   4   4 -11    0.59    0.15
   3   4 -11    0.18    0.16
   2   4 -11    0.31    0.17
   1   4 -11   10.17    0.63
   0   4 -11    1.43    0.25
  -1   4 -11    0.81    0.20
  -2   4 -11    2.56    0.30
   2  -4  11    2.11    0.25
  -3   4 -11    0.77    0.21
   3  -4  11    0.67    0.17
  -4   4 -11   -0.16    0.14
   4  -4  11    0.02    0.14
   5  -4  11    0.31    0.17
   6  -4  11   -0.01    0.16
   7  -4  11   -0.21    0.16
   8  -4  11   -0.07    0.19
   9  -4  11    0.01    0.21
  10  -4  11    0.02    0.19
  11   3 -11   -0.11    0.19
  10   3 -11    0.25    0.19
   9   3 -11    0.40    0.22
   9   3 -11    0.06    0.14
   8   3 -11    0.90    0.26
   8   3 -11    0.67    0.19
   7   3 -11    0.44    0.18
   7   3 -11    0.49    0.20
   6   3 -11    0.10    0.14
   6   3 -11    0.39    0.19
   5   3 -11    1.84    0.28
   5   3 -11    1.72    0.23
   4   3 -11    0.30    0.21
   4   3 -11    0.49    0.15
   3   3 -11   -0.07    0.14
   2   3 -11   12.51    0.73
   1   3 -11    3.06    0.35
   0   3 -11    0.00    0.17
  -1   3 -11    2.63    0.32
  -2   3 -11    6.44    0.48
  -3   3 -11    0.56    0.20
   3  -3  11    0.61    0.17
  -4   3 -11    0.61    0.19
   4  -3  11    0.51    0.18
   5  -3  11    0.90    0.22
   6  -3  11    5.10    0.43
   7  -3  11    0.76    0.23
   8  -3  11    0.10    0.17
   9  -3  11    0.05    0.21
  11   2 -11    0.26    0.19
  10   2 -11    0.46    0.21
   9   2 -11    0.16    0.17
   9   2 -11   -0.03    0.19
   8   2 -11    0.02    0.16
   8   2 -11    0.17    0.17
   7   2 -11    0.93    0.26
   7   2 -11    1.15    0.21
   6   2 -11    1.64    0.28
   6   2 -11    1.41    0.23
   5   2 -11    1.74    0.24
   5   2 -11    1.60    0.27
   4   2 -11    7.46    0.53
   3   2 -11    3.96    0.37
   2   2 -11    0.47    0.22
   1   2 -11    1.69    0.27
   0   2 -11    9.62    0.61
  -1   2 -11    3.24    0.36
  -2   2 -11    5.85    0.46
  -3   2 -11    0.90    0.22
   3  -2  11    0.73    0.19
   4  -2  11    1.15    0.22
   4  -2  11    0.74    0.20
   4  -2  11    0.94    0.20
   5  -2  11   -0.12    0.14
   5  -2  11   -0.08    0.15
   6  -2  11    2.07    0.29
   6  -2  11    2.23    0.30
   7  -2  11    0.91    0.24
   8  -2  11    0.07    0.17
   9  -2  11    0.29    0.22
  11   1 -11    0.36    0.20
  10   1 -11    0.29    0.21
   9   1 -11    1.89    0.33
   9   1 -11    1.88    0.29
   8   1 -11    0.35    0.16
   8   1 -11    0.14    0.21
   7   1 -11   -0.09    0.18
   7   1 -11   -0.13    0.14
   6   1 -11    0.80    0.20
   6   1 -11    0.47    0.20
   5   1 -11    0.25    0.18
   5   1 -11   -0.25    0.13
   4   1 -11    0.06    0.17
   3   1 -11    1.57    0.26
   2   1 -11    0.03    0.16
   1   1 -11    0.37    0.19
   0   1 -11    0.03    0.16
  -1   1 -11    0.28    0.18
  -2   1 -11    1.54    0.28
   3  -1  11    0.23    0.18
   4  -1  11    0.28    0.18
   4  -1  11    0.14    0.17
   5  -1  11   -0.10    0.15
   6  -1  11   -0.06    0.16
   7  -1  11    0.29    0.21
   8  -1  11    0.35    0.23
  11   0 -11    0.65    0.25
  10   0 -11   -0.08    0.16
   9   0 -11   -0.13    0.17
   9   0 -11   -0.15    0.21
   8   0 -11    0.16    0.19
   8   0 -11    0.08    0.17
   7   0 -11    0.30    0.18
   7   0 -11    0.10    0.21
   6   0 -11    0.71    0.19
   6   0 -11    0.34    0.23
   5   0 -11    3.61    0.41
   4   0 -11   -0.03    0.20
   3   0 -11    0.17    0.20
   2   0 -11    2.08    0.33
   1   0 -11    2.72    0.35
   0   0 -11    0.71    0.23
   0   0  11    0.88    0.22
   1   0  11    0.68    0.23
   2   0  11    2.59    0.34
   3   0  11    0.28    0.18
   4   0  11    0.30    0.19
   5   0  11   -0.02    0.17
   6   0  11    0.92    0.24
   7   0  11    0.40    0.23
   8   0  11    0.36    0.25
  11  -1 -11    0.40    0.24
  10  -1 -11    0.29    0.23
   9  -1 -11    0.05    0.16
  -9   1  11    0.18    0.18
   8  -1 -11    0.75    0.23
  -8   1  11    1.04    0.26
   7  -1 -11   -0.02    0.15
  -7   1  11    0.20    0.16
  -6   1  11    0.57    0.22
  -5   1  11    1.14    0.24
  -4   1  11    1.02    0.23
  -3   1  11    0.13    0.16
  -2   1  11    4.37    0.41
  -1   1  11    0.17    0.18
   0   1  11    1.27    0.28
   1   1  11    0.57    0.21
   2   1  11    0.22    0.20
   3   1  11    0.32    0.22
   4   1  11    0.58    0.23
   5   1  11    0.67    0.23
   6   1  11    1.33    0.28
   7   1  11    0.18    0.22
  10  -2 -11    0.37    0.20
   9  -2 -11    0.17    0.21
  -9   2  11   -0.08    0.20
   8  -2 -11    0.03    0.17
  -8   2  11    0.00    0.20
   7  -2 -11    1.92    0.31
  -7   2  11    2.34    0.36
  -6   2  11    0.07    0.17
  -5   2  11    0.22    0.19
  -4   2  11    2.43    0.36
  -3   2  11    0.23    0.19
  -2   2  11   -0.17    0.15
  -1   2  11    1.20    0.27
   0   2  11    0.67    0.26
   1   2  11    0.17    0.20
   2   2  11    1.86    0.32
   3   2  11    0.27    0.21
   4   2  11    0.05    0.20
   5   2  11    0.29    0.20
   6   2  11    0.50    0.24
  10  -3 -11    0.13    0.21
   9  -3 -11    0.02    0.20
  -9   3  11    0.01    0.19
   8  -3 -11    0.07    0.17
  -8   3  11   -0.12    0.21
  -7   3  11    1.55    0.30
  -6   3  11    0.26    0.20
  -5   3  11   -0.04    0.18
  -4   3  11   -0.16    0.17
  -3   3  11    1.57    0.31
  -2   3  11    0.07    0.24
  -1   3  11   -0.20    0.22
   0   3  11    0.21    0.23
   1   3  11   -0.02    0.20
   2   3  11   -0.17    0.23
   3   3  11   -0.16    0.20
   4   3  11    0.12    0.22
   5   3  11   -0.02    0.19
  -9   4  11    0.34    0.29
  -8   4  11    0.04    0.26
  -7   4  11    0.26    0.26
  -6   4  11   -0.11    0.24
  -5   4  11   -0.02    0.23
  -4   4  11   -0.04    0.24
  -3   4  11   -0.01    0.20
  -2   4  11    0.68    0.30
  -1   4  11   -0.12    0.21
   0   4  11   -0.05    0.22
   1   4  11   -0.04    0.23
   2   4  11    0.39    0.25
   3   4  11   -0.09    0.26
   3   4  11    0.25    0.24
   4   4  11    0.82    0.29
  -6   5  11    0.45    0.30
  -5   5  11   -0.11    0.22
  -4   5  11    0.51    0.28
  -3   5  11   -0.36    0.24
  -2   5  11    1.15    0.32
  -1   5  11   -0.14    0.27
   0   5  11    0.11    0.24
   1   5  11   -0.16    0.24
   2   5  11   -0.16    0.23
   3   5  11   -0.27    0.30
   3   5  11   -0.17    0.22
  -1  14 -12    0.90    0.29
  -2  14 -12    0.45    0.24
   2 -14  12    0.04    0.22
  -3  14 -12   -0.01    0.21
   3 -14  12   -0.05    0.20
  -4  14 -12   -0.01    0.20
   4 -14  12   -0.21    0.20
   5 -14  12   -0.15    0.21
   3  13 -12    0.27    0.20
   2  13 -12    0.00    0.17
   1  13 -12    0.01    0.17
   0  13 -12    0.15    0.19
  -1  13 -12    0.30    0.22
   1 -13  12   -0.32    0.16
  -2  13 -12    0.25    0.18
   2 -13  12    0.10    0.17
  -3  13 -12    0.21    0.18
   3 -13  12   -0.18    0.15
  -4  13 -12    0.15    0.20
   4 -13  12    0.10    0.20
   5 -13  12   -0.27    0.20
   6 -13  12   -0.15    0.18
   5  12 -12    0.14    0.19
   4  12 -12    0.34    0.21
   3  12 -12    1.84    0.33
   2  12 -12    0.16    0.17
   1  12 -12    0.95    0.24
   0  12 -12    0.39    0.19
   0 -12  12   -0.15    0.17
  -1  12 -12    0.12    0.16
   1 -12  12    0.09    0.17
  -2  12 -12    0.10    0.18
   2 -12  12    0.10    0.19
  -3  12 -12    0.35    0.20
   3 -12  12   -0.04    0.16
  -4  12 -12    0.03    0.15
   4 -12  12    0.24    0.22
   5 -12  12    0.47    0.21
   6 -12  12    0.57    0.27
   7 -12  12   -0.02    0.23
   6  11 -12    0.23    0.22
   5  11 -12    0.37    0.23
   4  11 -12   -0.16    0.16
   3  11 -12    2.32    0.36
   2  11 -12    0.05    0.18
   1  11 -12    0.27    0.19
   0  11 -12    0.11    0.17
   0 -11  12   -0.16    0.15
  -1  11 -12    0.05    0.16
   1 -11  12    0.08    0.17
  -2  11 -12    0.33    0.19
   2 -11  12    0.44    0.20
   3 -11  12    0.31    0.20
  -4  11 -12    0.00    0.15
   4 -11  12    0.16    0.18
   5 -11  12    0.37    0.23
   6 -11  12    0.39    0.20
   7 -11  12    0.41    0.24
   8 -11  12   -0.16    0.21
   8  10 -12    0.13    0.21
   7  10 -12    0.57    0.28
   6  10 -12    0.41    0.26
   5  10 -12    0.65    0.24
   4  10 -12   -0.24    0.16
   3  10 -12    0.24    0.22
   2  10 -12   -0.12    0.16
   1  10 -12    0.15    0.18
   0  10 -12    0.19    0.20
   0 -10  12    0.03    0.16
  -1  10 -12    2.08    0.32
   1 -10  12    1.75    0.26
  -2  10 -12    2.95    0.39
   2 -10  12    3.15    0.35
  -3  10 -12    0.05    0.18
   3 -10  12    0.19    0.18
  -4  10 -12    1.68    0.29
   4 -10  12    1.47    0.28
   5 -10  12    1.06    0.27
   6 -10  12    0.51    0.20
   7 -10  12   -0.07    0.21
   8 -10  12    0.00    0.18
   9 -10  12   -0.05    0.23
   9   9 -12   -0.01    0.25
   8   9 -12    0.27    0.24
   7   9 -12    0.23    0.25
   6   9 -12    0.04    0.22
   5   9 -12    0.26    0.23
   4   9 -12   -0.02    0.20
   3   9 -12    0.24    0.21
   2   9 -12   -0.07    0.15
   1   9 -12    0.16    0.20
   0   9 -12    0.29    0.20
  -1   9 -12    0.69    0.22
   1  -9  12    0.97    0.21
  -2   9 -12    0.86    0.23
   2  -9  12    1.01    0.22
  -3   9 -12    0.19    0.19
   3  -9  12   -0.18    0.15
  -4   9 -12    0.41    0.19
   4  -9  12    0.35    0.19
   5  -9  12    0.46    0.21
   6  -9  12    0.79    0.22
   7  -9  12    0.01    0.16
   8  -9  12    0.18    0.22
   9  -9  12    0.06    0.23
   9   8 -12    0.04    0.20
   8   8 -12    0.19    0.21
   7   8 -12    0.51    0.27
   6   8 -12    0.20    0.21
   5   8 -12    0.11    0.20
   4   8 -12    0.48    0.21
   3   8 -12    0.84    0.26
   2   8 -12    0.31    0.19
   1   8 -12    0.52    0.21
   0   8 -12    1.08    0.24
  -1   8 -12    0.93    0.26
   1  -8  12    0.76    0.20
  -2   8 -12   -0.24    0.16
   2  -8  12    0.11    0.17
  -3   8 -12    0.27    0.20
   3  -8  12    0.50    0.18
  -4   8 -12    0.15    0.17
   4  -8  12    0.07    0.16
   5  -8  12   -0.05    0.14
   6  -8  12    0.43    0.18
   7  -8  12    0.21    0.20
   8  -8  12   -0.12    0.19
   9  -8  12    0.01    0.22
   9   7 -12    0.26    0.25
   8   7 -12    0.05    0.23
   7   7 -12    0.22    0.23
   6   7 -12   -0.20    0.16
   5   7 -12    0.07    0.19
   4   7 -12    1.13    0.26
   3   7 -12    8.88    0.62
   2   7 -12    0.56    0.24
   1   7 -12    0.48    0.20
   0   7 -12    1.85    0.30
  -1   7 -12    6.67    0.52
  -2   7 -12    2.22    0.31
   2  -7  12    2.03    0.26
  -3   7 -12   -0.07    0.16
   3  -7  12   -0.01    0.14
  -4   7 -12    0.01    0.16
   4  -7  12   -0.09    0.15
   5  -7  12   -0.07    0.16
   6  -7  12   -0.10    0.17
   7  -7  12   -0.24    0.15
   8  -7  12    0.00    0.17
   9  -7  12    0.00    0.21
   9   6 -12   -0.30    0.21
   8   6 -12    0.73    0.24
   7   6 -12   -0.03    0.17
   6   6 -12    0.60    0.24
   5   6 -12    1.53    0.29
   4   6 -12   -0.24    0.15
   3   6 -12    0.19    0.18
   2   6 -12    0.02    0.16
   1   6 -12    8.27    0.59
   0   6 -12    2.82    0.35
  -1   6 -12    4.20    0.42
  -2   6 -12    5.05    0.44
  -3   6 -12    0.40    0.19
   3  -6  12    0.19    0.16
   4  -6  12    0.66    0.20
   5  -6  12    0.33    0.18
   6  -6  12    0.16    0.19
   7  -6  12   -0.06    0.18
   8  -6  12   -0.07    0.18
   9  -6  12    0.38    0.23
   9   5 -12    0.34    0.25
   8   5 -12    0.21    0.20
   7   5 -12    0.53    0.22
   6   5 -12    0.40    0.21
   5   5 -12    0.16    0.18
   4   5 -12    0.01    0.16
   3   5 -12   -0.17    0.15
   2   5 -12    5.16    0.44
   1   5 -12    1.09    0.26
   0   5 -12    7.94    0.55
  -1   5 -12    2.87    0.34
  -2   5 -12    1.14    0.25
  -3   5 -12   -0.22    0.15
   3  -5  12    0.17    0.15
   4  -5  12    0.90    0.22
   5  -5  12    0.15    0.17
   6  -5  12    1.01    0.24
   7  -5  12    0.25    0.21
   8  -5  12    0.10    0.17
   9  -5  12    1.26    0.30
  11   4 -12   -0.06    0.19
  10   4 -12    0.60    0.23
   9   4 -12    0.79    0.27
   9   4 -12    0.48    0.21
   8   4 -12   -0.23    0.15
   8   4 -12    0.13    0.21
   7   4 -12    0.49    0.22
   6   4 -12   -0.16    0.16
   5   4 -12    0.28    0.19
   4   4 -12    0.70    0.24
   3   4 -12    5.05    0.43
   2   4 -12    0.21    0.17
   1   4 -12    2.52    0.33
   0   4 -12    2.05    0.32
  -1   4 -12   -0.11    0.15
  -2   4 -12   -0.19    0.16
  -3   4 -12    3.94    0.40
   4  -4  12    0.17    0.17
   5  -4  12    0.34    0.19
   6  -4  12   -0.04    0.17
   7  -4  12    0.98    0.26
   8  -4  12    0.23    0.22
   9  -4  12    0.27    0.23
  11   3 -12    0.25    0.19
  10   3 -12    0.22    0.20
   9   3 -12    0.20    0.18
   9   3 -12    0.14    0.23
   8   3 -12   -0.03    0.15
   8   3 -12    0.12    0.18
   7   3 -12    0.20    0.22
   7   3 -12   -0.02    0.15
   6   3 -12    0.08    0.17
   6   3 -12    0.04    0.14
   5   3 -12   -0.20    0.15
   5   3 -12    0.16    0.14
   4   3 -12    0.26    0.18
   3   3 -12    4.26    0.43
   2   3 -12    1.23    0.25
   1   3 -12    1.68    0.28
   0   3 -12    3.29    0.37
  -1   3 -12   -0.28    0.14
  -2   3 -12    0.35    0.19
  -3   3 -12    1.18    0.25
   5  -3  12    0.60    0.21
   6  -3  12    2.02    0.31
   7  -3  12    0.18    0.20
   8  -3  12    0.09    0.20
  11   2 -12   -0.03    0.19
  10   2 -12    0.01    0.19
   9   2 -12    0.01    0.17
   9   2 -12   -0.37    0.19
   8   2 -12   -0.09    0.15
   8   2 -12   -0.03    0.18
   7   2 -12    1.50    0.29
   7   2 -12    1.29    0.24
   6   2 -12    0.29    0.22
   6   2 -12   -0.02    0.12
   5   2 -12    0.02    0.13
   5   2 -12    0.05    0.17
   4   2 -12    1.17    0.26
   3   2 -12   -0.34    0.13
   2   2 -12    0.08    0.19
   1   2 -12   -0.01    0.16
   0   2 -12   -0.13    0.15
  -1   2 -12    0.43    0.20
  -2   2 -12    0.79    0.22
  -3   2 -12    0.17    0.18
   5  -2  12    0.54    0.20
   6  -2  12    1.25    0.26
   7  -2  12    0.26    0.20
   8  -2  12    0.07    0.21
  10   1 -12    0.14    0.20
   9   1 -12    0.75    0.24
   9   1 -12    1.36    0.31
   8   1 -12   -0.03    0.16
   8   1 -12    0.10    0.21
   7   1 -12    0.25    0.20
   7   1 -12    0.35    0.19
   6   1 -12    0.74    0.21
   6   1 -12    0.42    0.21
   5   1 -12   -0.09    0.19
   4   1 -12   -0.25    0.16
   3   1 -12    0.58    0.21
   2   1 -12    2.73    0.36
   1   1 -12    4.49    0.46
   0   1 -12    0.59    0.25
  -1   1 -12    0.29    0.20
   2  -1  12    0.48    0.19
   3  -1  12    0.38    0.19
   4  -1  12    0.09    0.17
   5  -1  12    0.48    0.20
   6  -1  12    0.24    0.21
  10   0 -12    0.28    0.22
   9   0 -12   -0.23    0.19
   9   0 -12    0.32    0.22
  -9   0  12    0.36    0.19
   8   0 -12    0.18    0.19
   8   0 -12   -0.03    0.23
   7   0 -12    0.50    0.24
   7   0 -12    0.61    0.21
   6   0 -12   -0.51    0.19
   5   0 -12    0.36    0.22
   4   0 -12    1.11    0.27
   3   0 -12    0.70    0.23
   2   0 -12    0.07    0.19
  -2   0  12    0.38    0.18
  -1   0  12    0.91    0.24
   0   0  12    0.24    0.19
   1   0  12    0.20    0.22
   2   0  12    1.49    0.30
   3   0  12    1.39    0.29
   4   0  12    0.46    0.20
   5   0  12   -0.07    0.19
   6   0  12    0.01    0.21
   7   0  12   -0.18    0.19
  10  -1 -12    0.84    0.28
   9  -1 -12    0.01    0.19
  -9   1  12    0.01    0.20
   8  -1 -12   -0.10    0.15
  -8   1  12    0.05    0.20
  -7   1  12   -0.05    0.20
  -6   1  12    0.52    0.23
  -5   1  12    0.08    0.16
  -4   1  12    1.82    0.32
  -3   1  12    3.79    0.43
  -2   1  12    0.12    0.18
  -1   1  12    0.53    0.25
   0   1  12    1.38    0.29
   1   1  12   -0.07    0.18
   2   1  12    0.03    0.18
   3   1  12    0.55    0.24
   4   1  12   -0.01    0.20
   5   1  12    0.35    0.22
   6   1  12    0.16    0.21
   9  -2 -12    0.13    0.22
  -9   2  12    0.61    0.25
  -8   2  12    0.21    0.21
  -7   2  12    0.04    0.19
  -6   2  12    0.87    0.28
  -5   2  12    0.55    0.25
  -4   2  12    0.26    0.24
  -3   2  12    0.19    0.20
  -2   2  12    0.30    0.20
  -1   2  12   -0.14    0.18
   0   2  12    1.82    0.34
   1   2  12   -0.06    0.25
   2   2  12    0.64    0.29
   3   2  12   -0.19    0.23
   4   2  12   -0.02    0.20
   5   2  12    0.08    0.22
  -7   3  12    0.62    0.29
  -6   3  12    0.37    0.23
  -5   3  12   -0.09    0.19
  -4   3  12    0.28    0.23
  -3   3  12    0.84    0.27
  -2   3  12    0.33    0.23
  -1   3  12    0.01    0.26
   0   3  12    0.10    0.23
   1   3  12   -0.06    0.25
   2   3  12    0.48    0.27
   3   3  12   -0.22    0.26
   3   3  12    0.64    0.25
   4   3  12    0.22    0.25
  -4   4  12    1.24    0.35
  -3   4  12    0.60    0.28
  -2   4  12   -0.03    0.22
  -1   4  12    0.07    0.24
   0   4  12    0.32    0.31
   1   4  12   -0.16    0.28
   2 -14  13   -0.03    0.21
   3 -14  13    0.03    0.22
   1  13 -13    0.05    0.19
   0  13 -13    0.11    0.21
  -1  13 -13    0.05    0.20
   1 -13  13   -0.14    0.19
  -2  13 -13   -0.12    0.20
   2 -13  13    0.24    0.22
  -3  13 -13    1.14    0.28
   3 -13  13    1.13    0.28
   4 -13  13   -0.01    0.21
   5 -13  13   -0.13    0.22
   3  12 -13    0.13    0.21
   2  12 -13    0.42    0.25
   1  12 -13    0.13    0.19
   0  12 -13   -0.16    0.21
  -1  12 -13    0.09    0.22
   1 -12  13    0.18    0.18
  -2  12 -13    0.15    0.23
   2 -12  13   -0.02    0.18
  -3  12 -13    0.58    0.23
   3 -12  13    0.68    0.24
   4 -12  13   -0.18    0.19
   5 -12  13    0.33    0.23
   6 -12  13    0.01    0.19
   5  11 -13    0.07    0.24
   4  11 -13    0.02    0.19
   3  11 -13    0.22    0.24
   2  11 -13   -0.21    0.15
   1  11 -13    0.15    0.19
   0  11 -13    0.46    0.23
  -1  11 -13    0.17    0.19
   1 -11  13   -0.15    0.16
  -2  11 -13    0.49    0.22
   2 -11  13    0.53    0.21
  -3  11 -13    0.13    0.17
   3 -11  13   -0.15    0.18
   4 -11  13    0.44    0.22
   5 -11  13    0.12    0.19
   6 -11  13   -0.17    0.21
   7 -11  13    0.28    0.24
   6  10 -13    0.09    0.25
   5  10 -13    0.21    0.21
   4  10 -13    0.51    0.23
   3  10 -13    0.01    0.20
   2  10 -13   -0.03    0.16
   1  10 -13    0.47    0.24
   0  10 -13    0.01    0.20
  -1  10 -13    0.14    0.17
  -2  10 -13    1.10    0.28
   2 -10  13    0.48    0.22
  -3  10 -13    0.56    0.22
   3 -10  13    0.41    0.21
   4 -10  13    0.01    0.19
   5 -10  13   -0.06    0.19
   6 -10  13    0.24    0.22
   7 -10  13    0.23    0.23
   7   9 -13    0.98    0.32
   6   9 -13   -0.06    0.21
   5   9 -13   -0.02    0.20
   4   9 -13    0.20    0.24
   3   9 -13    0.44    0.25
   2   9 -13   -0.10    0.20
   1   9 -13    0.42    0.22
   0   9 -13    0.50    0.21
  -1   9 -13    0.01    0.17
  -2   9 -13   -0.09    0.16
  -3   9 -13    1.57    0.30
   3  -9  13    1.19    0.25
   4  -9  13    0.01    0.17
   5  -9  13    0.55    0.23
   6  -9  13   -0.04    0.19
   7  -9  13   -0.15    0.18
   8  -9  13    0.29    0.24
   8   8 -13   -0.28    0.23
   7   8 -13    0.41    0.27
   6   8 -13    0.79    0.26
   5   8 -13    1.30    0.30
   4   8 -13    0.20    0.20
   3   8 -13    0.09    0.21
   2   8 -13    0.30    0.22
   1   8 -13    0.25    0.19
   0   8 -13    0.49    0.22
  -1   8 -13    0.21    0.19
  -2   8 -13   -0.02    0.18
  -3   8 -13    0.54    0.22
   3  -8  13    0.52    0.19
   4  -8  13   -0.21    0.16
   5  -8  13    0.66    0.22
   6  -8  13    0.13    0.17
   7  -8  13    0.26    0.22
   8  -8  13    0.26    0.23
   9   7 -13   -0.32    0.22
   8   7 -13   -0.05    0.19
   7   7 -13    0.10    0.22
   6   7 -13   -0.02    0.20
   5   7 -13    0.17    0.20
   4   7 -13    0.01    0.18
   3   7 -13    0.04    0.18
   2   7 -13   -0.04    0.17
   1   7 -13    0.28    0.22
   0   7 -13    0.16    0.17
  -1   7 -13    0.22    0.18
  -2   7 -13   -0.13    0.17
  -3   7 -13    0.14    0.17
   4  -7  13    0.13    0.17
   5  -7  13    2.22    0.32
   6  -7  13   -0.13    0.17
   7  -7  13    0.28    0.20
   8  -7  13    0.27    0.22
   9   6 -13    0.33    0.25
   8   6 -13    0.60    0.25
   7   6 -13    0.46    0.24
   6   6 -13    0.11    0.21
   5   6 -13    2.00    0.34
   4   6 -13    0.34    0.20
   3   6 -13   -0.08    0.16
   2   6 -13   -0.14    0.16
   1   6 -13    1.17    0.26
   0   6 -13    0.04    0.19
  -1   6 -13    1.67    0.31
  -2   6 -13    1.89    0.31
  -3   6 -13   -0.05    0.15
   4  -6  13    0.15    0.19
   5  -6  13    0.05    0.18
   6  -6  13   -0.10    0.17
   7  -6  13   -0.13    0.14
   8  -6  13   -0.08    0.18
   9   5 -13   -0.28    0.24
   8   5 -13    0.14    0.24
   7   5 -13    0.05    0.19
   6   5 -13    0.02    0.18
   5   5 -13    0.72    0.24
   4   5 -13    0.68    0.25
   3   5 -13    1.07    0.26
   2   5 -13    0.33    0.20
   1   5 -13   -0.15    0.18
   0   5 -13   -0.08    0.15
  -1   5 -13    2.49    0.34
  -2   5 -13   -0.17    0.18
  -3   5 -13   -0.23    0.17
   5  -5  13   -0.13    0.17
   6  -5  13    0.08    0.19
   7  -5  13    0.32    0.21
   8  -5  13    0.48    0.23
   9   4 -13   -0.04    0.20
   8   4 -13   -0.19    0.19
   7   4 -13    0.71    0.26
   6   4 -13   -0.09    0.21
   5   4 -13    0.01    0.22
   4   4 -13   -0.09    0.20
   3   4 -13   -0.14    0.16
   2   4 -13    0.11    0.18
   1   4 -13   -0.27    0.14
   0   4 -13    0.07    0.18
  -1   4 -13    0.84    0.26
  -2   4 -13    1.26    0.28
  -3   4 -13    0.13    0.17
   6  -4  13    0.18    0.20
   7  -4  13    0.50    0.24
  10   3 -13   -0.01    0.18
   9   3 -13    0.24    0.19
   9   3 -13    0.06    0.20
   8   3 -13   -0.09    0.22
   8   3 -13    0.06    0.16
   7   3 -13    0.27    0.17
   7   3 -13    0.11    0.23
   6   3 -13    0.16    0.18
   6   3 -13    0.24    0.21
   5   3 -13    0.44    0.24
   4   3 -13    1.61    0.32
   3   3 -13    0.48    0.21
   2   3 -13    0.10    0.21
   1   3 -13    0.32    0.20
   0   3 -13    0.33    0.20
  -1   3 -13   -0.06    0.19
  -2   3 -13    0.54    0.21
  -3   3 -13    0.41    0.23
   7  -3  13   -0.17    0.18
  10   2 -13    0.19    0.20
   9   2 -13   -0.04    0.19
   9   2 -13   -0.03    0.18
   8   2 -13    0.17    0.18
   8   2 -13   -0.54    0.18
   7   2 -13    0.01    0.18
   7   2 -13    0.09    0.17
   6   2 -13    0.30    0.21
   5   2 -13    0.18    0.22
   4   2 -13    0.08    0.18
   3   2 -13    0.86    0.27
   2   2 -13    0.16    0.18
   1   2 -13   -0.10    0.20
   0   2 -13   -0.03    0.17
  -1   2 -13    1.02    0.28
  -2   2 -13    0.07    0.22
   3  -2  13    0.36    0.21
   9   1 -13    0.25    0.27
   9   1 -13   -0.13    0.18
   8   1 -13   -0.26    0.18
   8   1 -13   -0.23    0.17
   7   1 -13    0.74    0.29
   7   1 -13    0.62    0.21
   6   1 -13    0.00    0.22
   5   1 -13   -0.11    0.21
   4   1 -13    0.33    0.22
   3   1 -13    0.42    0.22
   2   1 -13    0.24    0.20
   1   1 -13    0.40    0.23
   0   1 -13    0.02    0.24
   0  -1  13    0.41    0.19
   1  -1  13    0.63    0.24
   2  -1  13    0.16    0.22
   3  -1  13    0.15    0.18
   3  -1  13   -0.20    0.19
   9   0 -13    0.02    0.18
  -9   0  13    0.47    0.24
   8   0 -13    0.05    0.19
  -8   0  13    0.39    0.23
   7   0 -13    0.83    0.28
  -7   0  13    0.89    0.27
   6   0 -13    0.51    0.27
  -6   0  13    0.52    0.24
   5   0 -13    0.41    0.27
  -5   0  13    0.40    0.22
   4   0 -13    0.21    0.21
  -4   0  13    0.23    0.19
   3   0 -13    0.03    0.20
  -3   0  13    0.11    0.20
  -2   0  13    0.26    0.22
  -1   0  13    1.22    0.28
   0   0  13    0.33    0.21
   1   0  13    0.13    0.22
   2   0  13    0.46    0.23
   3   0  13    0.15    0.20
   3   0  13    0.49    0.27
   4   0  13   -0.32    0.18
   5   0  13    0.13    0.21
  -7   1  13    0.47    0.26
  -6   1  13    0.02    0.18
  -5   1  13    0.72    0.24
  -4   1  13    0.13    0.19
  -3   1  13    0.69    0.26
  -2   1  13    0.13    0.24
  -1   1  13   -0.13    0.18
   0   1  13    0.18    0.24
   1   1  13   -0.09    0.23
   2   1  13    0.68    0.30
   3   1  13    0.25    0.22
   4   1  13   -0.01    0.21
  -5   2  13    1.01    0.29
  -4   2  13    0.34    0.26
  -3   2  13    0.05    0.20
  -2   2  13    0.04    0.21
  -1   2  13   -0.08    0.21
   0   2  13    0.02    0.22
   1   2  13   -0.50    0.24
   2   2  13    0.32    0.26
   3   2  13   -0.05    0.21
   2 -13  14    0.19    0.22
  -3  13 -14   -0.01    0.23
   3 -13  14   -0.06    0.21
   1  12 -14   -0.01    0.19
   0  12 -14    0.33    0.23
  -1  12 -14   -0.07    0.18
  -2  12 -14    0.67    0.25
  -3  12 -14    0.49    0.24
   3 -12  14    0.47    0.24
   4 -12  14   -0.03    0.22
   5 -12  14   -0.14    0.20
   3  11 -14    0.17    0.20
   2  11 -14   -0.09    0.17
   1  11 -14    0.01    0.19
   0  11 -14    0.20    0.20
  -1  11 -14    0.00    0.22
  -2  11 -14    0.04    0.22
  -3  11 -14    1.09    0.28
   3 -11  14    0.68    0.25
   4 -11  14    0.01    0.21
   5 -11  14   -0.07    0.22
   6 -11  14    0.31    0.24
   4  10 -14   -0.27    0.16
   3  10 -14    0.45    0.25
   2  10 -14    0.08    0.20
   1  10 -14    0.10    0.23
   0  10 -14    0.48    0.22
  -1  10 -14    0.12    0.23
  -2  10 -14    1.39    0.32
  -3  10 -14    0.02    0.22
   4 -10  14    0.11    0.20
   5 -10  14   -0.05    0.19
   6 -10  14    0.26    0.22
   5   9 -14    0.26    0.24
   4   9 -14    0.04    0.21
   3   9 -14    0.26    0.22
   2   9 -14    0.21    0.25
   1   9 -14   -0.09    0.18
   0   9 -14    1.06    0.30
  -1   9 -14   -0.13    0.20
  -2   9 -14    1.15    0.29
  -3   9 -14    0.82    0.28
   4  -9  14   -0.04    0.19
   5  -9  14   -0.27    0.18
   6  -9  14    0.19    0.22
   6   8 -14    0.70    0.30
   5   8 -14    0.32    0.23
   4   8 -14    0.34    0.22
   3   8 -14   -0.07    0.17
   2   8 -14    0.19    0.20
   1   8 -14   -0.04    0.17
   0   8 -14    0.55    0.22
  -1   8 -14   -0.20    0.19
  -2   8 -14    1.72    0.33
  -3   8 -14    0.93    0.28
   5  -8  14   -0.19    0.18
   6  -8  14    0.06    0.20
   7  -8  14   -0.12    0.20
   7   7 -14   -0.01    0.21
   6   7 -14    0.36    0.25
   5   7 -14    0.40    0.23
   4   7 -14    0.53    0.23
   3   7 -14    0.27    0.21
   2   7 -14    0.15    0.19
   1   7 -14    0.12    0.19
   0   7 -14   -0.08    0.17
  -1   7 -14   -0.12    0.18
  -2   7 -14    0.81    0.27
  -3   7 -14    0.24    0.22
   6  -7  14   -0.09    0.18
   7  -7  14    0.00    0.21
   8   6 -14    0.05    0.27
   7   6 -14   -0.19    0.19
   6   6 -14    0.24    0.25
   5   6 -14    0.22    0.21
   4   6 -14    0.15    0.19
   3   6 -14    0.01    0.18
   2   6 -14   -0.24    0.16
   1   6 -14    0.24    0.20
   0   6 -14    0.09    0.20
  -1   6 -14    0.81    0.27
  -2   6 -14    0.24    0.22
  -3   6 -14    0.65    0.26
   7  -6  14   -0.25    0.18
   8   5 -14   -0.40    0.23
   7   5 -14    0.00    0.24
   6   5 -14    0.20    0.21
   5   5 -14    0.28    0.23
   4   5 -14    0.17    0.21
   3   5 -14    1.05    0.26
   2   5 -14    0.01    0.19
   1   5 -14   -0.02    0.18
   0   5 -14    0.00    0.21
  -1   5 -14   -0.35    0.18
  -2   5 -14   -0.08    0.17
  -3   5 -14    0.81    0.26
   8   4 -14    0.09    0.23
   7   4 -14    0.18    0.22
   6   4 -14    0.28    0.22
   5   4 -14   -0.01    0.19
   4   4 -14   -0.07    0.18
   3   4 -14    0.89    0.25
   2   4 -14    0.05    0.18
   1   4 -14   -0.16    0.17
   0   4 -14    0.18    0.23
  -1   4 -14   -0.06    0.17
  -2   4 -14   -0.08    0.22
  -3   4 -14   -0.22    0.19
   8   3 -14   -0.31    0.23
   7   3 -14   -0.01    0.20
   6   3 -14    0.31    0.22
   5   3 -14    0.15    0.23
   4   3 -14    0.87    0.28
   3   3 -14    0.30    0.24
   2   3 -14    0.20    0.22
   1   3 -14   -0.03    0.18
   0   3 -14   -0.10    0.18
  -1   3 -14    0.12    0.23
  -2   3 -14    0.19    0.21
   8   2 -14   -0.24    0.17
   7   2 -14   -0.06    0.20
   6   2 -14    0.30    0.23
   5   2 -14   -0.14    0.18
   4   2 -14    0.16    0.21
   3   2 -14    1.46    0.31
   2   2 -14    0.75    0.25
   1   2 -14    0.13    0.20
   0   2 -14    0.44    0.23
  -1   2 -14    0.22    0.23
   2  -2  14    0.41    0.20
   6   1 -14    0.09    0.27
   5   1 -14   -0.17    0.20
   4   1 -14    0.35    0.24
   3   1 -14    0.02    0.21
   2   1 -14    0.05    0.21
   1   1 -14    0.55    0.26
  -1  -1  14    1.01    0.28
   0  -1  14    0.91    0.28
   1  -1  14    1.37    0.32
   2  -1  14    0.19    0.20
  -5   0  14   -0.06    0.17
  -4   0  14    0.41    0.24
  -3   0  14    0.01    0.17
  -2   0  14    0.47    0.25
  -1   0  14    0.09    0.20
   0   0  14    0.32    0.26
   1   0  14    0.35    0.26
   2   0  14   -0.13    0.19
   3   0  14    0.19    0.21
  -1  11 -15    0.37    0.27
  -2  11 -15   -0.16    0.19
  -3  11 -15   -0.08    0.23
   1  10 -15    0.32    0.27
   0  10 -15    0.18    0.22
  -1  10 -15   -0.23    0.19
  -2  10 -15    0.06    0.25
  -3  10 -15    0.26    0.22
   3   9 -15    0.13    0.25
   2   9 -15    0.00    0.20
   1   9 -15    0.17    0.21
   0   9 -15   -0.08    0.23
  -1   9 -15    0.43    0.27
  -2   9 -15   -0.01    0.23
  -3   9 -15   -0.06    0.23
   4   8 -15   -0.07    0.21
   3   8 -15   -0.08    0.19
   2   8 -15    0.24    0.25
   1   8 -15    0.06    0.23
   0   8 -15    0.46    0.26
  -1   8 -15   -0.03    0.19
  -2   8 -15    0.47    0.27
   4   7 -15    0.03    0.22
   3   7 -15    0.14    0.21
   2   7 -15   -0.11    0.19
   1   7 -15    0.16    0.21
   0   7 -15   -0.01    0.20
  -1   7 -15    0.22    0.21
  -2   7 -15    0.20    0.24
   5   6 -15    0.11    0.26
   4   6 -15   -0.13    0.20
   3   6 -15   -0.07    0.23
   2   6 -15    0.02    0.23
   1   6 -15   -0.30    0.17
   0   6 -15   -0.01    0.19
  -1   6 -15   -0.12    0.22
  -2   6 -15   -0.20    0.17
   5   5 -15   -0.02    0.23
   4   5 -15    0.59    0.28
   3   5 -15    0.18    0.22
   2   5 -15    0.65    0.26
   1   5 -15    0.55    0.24
   0   5 -15   -0.03    0.22
  -1   5 -15   -0.05    0.19
  -2   5 -15    0.01    0.19
   5   4 -15    0.00    0.26
   4   4 -15    0.11    0.26
   3   4 -15    1.62    0.33
   2   4 -15    1.41    0.33
   1   4 -15    0.07    0.24
   0   4 -15    0.08    0.21
  -1   4 -15    0.05    0.23
  -2   4 -15    0.06    0.21
   4   3 -15    0.16    0.26
   3   3 -15    0.21    0.27
   2   3 -15    1.17    0.30
   1   3 -15   -0.05    0.20
   0   3 -15    0.18    0.22
  -1   3 -15   -0.01    0.24
  -2   3 -15   -0.08    0.21
   2   2 -15    0.13    0.23
   1   2 -15    0.06    0.28
   0   2 -15   -0.21    0.25
   0  -2  15    0.20    0.19
   1  -2  15    0.37    0.24
   2  -2  15    0.02    0.19
  -1   8 -16    0.21    0.25
  -2   8 -16    0.21    0.26
   0   7 -16   -0.01    0.22
  -1   7 -16    0.07    0.25
  -2   7 -16   -0.14    0.24
   0   6 -16   -0.10    0.24
  -1   6 -16    0.06    0.26
  -2   6 -16    0.38    0.28
  -1   5 -16    0.08    0.26
  -2   5 -16    0.10    0.26
   0   0   0    0.00    0.00
;
_shelx_hkl_checksum              50904
#END Tags that were not found in dictionaries
loop_
_space_group_symop_operation_xyz
'x, y, z'
'-x, -y, -z'
loop_
_atom_site_label
_atom_site_type_symbol
_atom_site_fract_x
_atom_site_fract_y
_atom_site_fract_z
_atom_site_U_iso_or_equiv
_atom_site_adp_type
_atom_site_occupancy
_atom_site_site_symmetry_order
_atom_site_calc_flag
_atom_site_refinement_flags_posn
_atom_site_refinement_flags_adp
S1 S 0.58235(7) 0.64005(9) 0.35810(9) 0.0616(4) Uani 1 1 d . .
O1 O 0.5648(2) 0.5197(2) 0.3534(3) 0.0798(9) Uani 1 1 d . .
O2 O 0.6571(2) 0.6725(3) 0.2830(3) 0.0863(9) Uani 1 1 d . .
C1 C 0.6396(3) 0.7440(3) 0.5057(4) 0.0615(10) Uani 1 1 d . .
C2 C 0.6351(4) 0.7086(4) 0.5988(4) 0.0668(10) Uani 1 1 d . .
H2 H 0.6022 0.6269 0.5826 0.080 Uiso 1 1 calc R U
C6 C 0.6877(4) 0.8665(4) 0.5331(4) 0.0792(12) Uani 1 1 d . .
H6 H 0.6919 0.8923 0.4724 0.095 Uiso 1 1 calc R U
C3 C 0.6790(4) 0.7935(4) 0.7140(4) 0.0824(13) Uani 1 1 d . .
H3 H 0.6767 0.7682 0.7751 0.099 Uiso 1 1 calc R U
C4 C 0.7265(4) 0.9153(4) 0.7413(4) 0.0846(14) Uani 1 1 d . .
C5 C 0.7293(5) 0.9499(4) 0.6495(4) 0.0856(14) Uani 1 1 d . .
H5 H 0.7603 1.0322 0.6667 0.103 Uiso 1 1 calc R U
C7 C 0.7730(7) 1.0078(6) 0.8692(5) 0.127(2) Uani 1 1 d . .
H7A H 0.7068 1.0154 0.9150 0.190 Uiso 1 1 calc R U
H7B H 0.8060 1.0869 0.8715 0.190 Uiso 1 1 calc R U
H7C H 0.8357 0.9798 0.9022 0.190 Uiso 1 1 calc R U
N1 N 0.4475(2) 0.6662(3) 0.3273(3) 0.0584(8) Uani 1 1 d . .
C8 C 0.4358(3) 0.7623(4) 0.2837(3) 0.0627(9) Uani 1 1 d . .
H8A H 0.5155 0.7959 0.2719 0.075 Uiso 1 1 calc R U
H8B H 0.4062 0.8297 0.3434 0.075 Uiso 1 1 calc R U
C9 C 0.3496(4) 0.7091(4) 0.1687(4) 0.0667(10) Uani 1 1 d . .
C10 C 0.2253(4) 0.6993(4) 0.1715(4) 0.0744(11) Uani 1 1 d . .
H10 H 0.1953 0.7284 0.2439 0.089 Uiso 1 1 calc R U
C14 C 0.3917(8) 0.6632(6) 0.0613(5) 0.120(2) Uani 1 1 d . .
H14 H 0.4750 0.6693 0.0577 0.144 Uiso 1 1 calc R U
C13 C 0.3024(11) 0.6045(8) -0.0468(5) 0.165(4) Uani 1 1 d . .
H13 H 0.3277 0.5695 -0.1212 0.199 Uiso 1 1 calc R U
C11 C 0.1449(6) 0.6440(5) 0.0622(6) 0.115(2) Uani 1 1 d . .
H11 H 0.0613 0.6387 0.0636 0.138 Uiso 1 1 calc R U
C12 C 0.1828(11) 0.6011(7) -0.0385(7) 0.170(5) Uani 1 1 d . .
H12 H 0.1263 0.5665 -0.1082 0.204 Uiso 1 1 calc R U
C16 C 0.2532(3) 0.5337(3) 0.3347(3) 0.0453(7) Uani 1 1 d . .
C15 C 0.3503(3) 0.6288(3) 0.3799(3) 0.0481(7) Uani 1 1 d . .
C17 C 0.2024(3) 0.5735(3) 0.4531(3) 0.0537(8) Uani 1 1 d . .
H17 H 0.2052 0.5130 0.4862 0.064 Uiso 1 1 calc R U
C18 C 0.3208(3) 0.6826(3) 0.5064(3) 0.0569(9) Uani 1 1 d . .
H18 H 0.3786 0.6709 0.5620 0.068 Uiso 1 1 calc R U
C19 C 0.2063(3) 0.4251(3) 0.2206(3) 0.0485(7) Uani 1 1 d . .
C20 C 0.0999(3) 0.3414(4) 0.2091(3) 0.0657(10) Uani 1 1 d . .
H20 H 0.0585 0.3555 0.2743 0.079 Uiso 1 1 calc R U
C24 C 0.2665(4) 0.4025(4) 0.1215(3) 0.0639(10) Uani 1 1 d . .
H24 H 0.3372 0.4569 0.1264 0.077 Uiso 1 1 calc R U
C21 C 0.0561(4) 0.2405(4) 0.1053(4) 0.0845(13) Uani 1 1 d . .
H21 H -0.0154 0.1867 0.0996 0.101 Uiso 1 1 calc R U
C22 C 0.1163(5) 0.2161(5) 0.0074(4) 0.0902(14) Uani 1 1 d . .
H22 H 0.0876 0.1453 -0.0635 0.108 Uiso 1 1 calc R U
C23 C 0.2210(5) 0.3001(4) 0.0176(4) 0.0822(13) Uani 1 1 d . .
H23 H 0.2609 0.2860 -0.0485 0.099 Uiso 1 1 calc R U
C25 C 0.2940(4) 0.8120(4) 0.5576(3) 0.0704(11) Uani 1 1 d . .
O3 O 0.2861(4) 0.8675(3) 0.4938(3) 0.0975(11) Uani 1 1 d . .
N2 N 0.2760(4) 0.8672(3) 0.6731(3) 0.0845(12) Uani 1 1 d . .
C26 C 0.2797(6) 0.8086(6) 0.7556(4) 0.1075(19) Uani 1 1 d . .
H26A H 0.2710 0.7198 0.7097 0.129 Uiso 1 1 calc R U
H26B H 0.2112 0.8228 0.7996 0.129 Uiso 1 1 calc R U
C29 C 0.1083(9) 0.9836(7) 0.6798(6) 0.152(3) Uani 1 1 d . .
H29A H 0.0862 0.9304 0.5959 0.229 Uiso 1 1 calc R U
H29B H 0.0951 1.0652 0.6954 0.229 Uiso 1 1 calc R U
H29C H 0.0589 0.9509 0.7239 0.229 Uiso 1 1 calc R U
C28 C 0.2393(7) 0.9905(4) 0.7172(4) 0.112(2) Uani 1 1 d . .
H28A H 0.2565 1.0303 0.8038 0.135 Uiso 1 1 calc R U
H28B H 0.2889 1.0421 0.6881 0.135 Uiso 1 1 calc R U
C27 C 0.3998(8) 0.8591(10) 0.8451(6) 0.193(5) Uani 1 1 d . .
H27A H 0.4633 0.8198 0.8069 0.290 Uiso 1 1 calc R U
H27B H 0.3878 0.8417 0.9126 0.290 Uiso 1 1 calc R U
H27C H 0.4230 0.9470 0.8715 0.290 Uiso 1 1 calc R U
C30 C 0.0847(3) 0.6165(3) 0.4629(4) 0.0625(10) Uani 1 1 d . .
O4 O 0.0357(3) 0.6432(3) 0.5505(3) 0.0978(11) Uani 1 1 d . .
O5 O 0.0419(3) 0.6252(3) 0.3654(3) 0.0839(9) Uani 1 1 d . .
C31 C -0.0715(5) 0.6709(7) 0.3672(6) 0.134(2) Uani 1 1 d . .
H31A H -0.1382 0.6094 0.3649 0.201 Uiso 1 1 calc R U
H31B H -0.0860 0.6877 0.2989 0.201 Uiso 1 1 calc R U
H31C H -0.0651 0.7457 0.4389 0.201 Uiso 1 1 calc R U
loop_
_atom_site_aniso_label
_atom_site_aniso_U_11
_atom_site_aniso_U_22
_atom_site_aniso_U_33
_atom_site_aniso_U_23
_atom_site_aniso_U_13
_atom_site_aniso_U_12
S1 0.0378(4) 0.0653(6) 0.0766(7) 0.0239(5) 0.0091(4) 0.0154(4)
O1 0.0655(17) 0.0560(16) 0.099(2) 0.0144(15) -0.0022(15) 0.0233(13)
O2 0.0463(14) 0.113(2) 0.098(2) 0.0405(19) 0.0303(14) 0.0148(15)
C1 0.0377(15) 0.062(2) 0.093(3) 0.041(2) 0.0022(16) 0.0155(14)
C2 0.066(2) 0.053(2) 0.082(3) 0.032(2) -0.0091(19) 0.0146(17)
C6 0.080(3) 0.058(2) 0.100(3) 0.039(2) 0.001(2) 0.004(2)
C3 0.096(3) 0.074(3) 0.082(3) 0.039(2) -0.011(2) 0.028(2)
C4 0.083(3) 0.061(3) 0.089(3) 0.018(2) -0.023(2) 0.016(2)
C5 0.094(3) 0.040(2) 0.099(3) 0.014(2) -0.007(3) 0.0041(19)
C7 0.149(6) 0.108(4) 0.090(4) 0.017(3) -0.020(4) 0.027(4)
N1 0.0372(13) 0.0740(19) 0.0756(19) 0.0428(17) 0.0097(13) 0.0124(13)
C8 0.054(2) 0.078(2) 0.063(2) 0.037(2) 0.0143(16) 0.0114(17)
C9 0.080(3) 0.068(2) 0.064(2) 0.036(2) 0.0146(19) 0.027(2)
C10 0.075(3) 0.064(2) 0.080(3) 0.030(2) -0.011(2) 0.0172(19)
C14 0.182(6) 0.131(5) 0.086(4) 0.061(4) 0.058(4) 0.085(5)
C13 0.320(14) 0.148(7) 0.049(3) 0.033(4) 0.043(6) 0.129(9)
C11 0.122(5) 0.090(4) 0.111(5) 0.034(4) -0.046(4) 0.014(3)
C12 0.293(14) 0.100(5) 0.084(5) 0.009(4) -0.055(7) 0.074(7)
C16 0.0374(14) 0.0515(18) 0.0515(18) 0.0246(15) 0.0109(12) 0.0135(12)
C15 0.0357(14) 0.064(2) 0.0479(17) 0.0275(15) 0.0062(12) 0.0109(13)
C17 0.0556(19) 0.0526(19) 0.0546(19) 0.0258(16) 0.0144(15) 0.0052(14)
C18 0.0510(18) 0.071(2) 0.0480(19) 0.0289(17) 0.0066(14) 0.0017(16)
C19 0.0419(15) 0.0503(18) 0.0550(18) 0.0215(15) 0.0107(13) 0.0163(13)
C20 0.0449(18) 0.080(3) 0.061(2) 0.021(2) 0.0120(15) 0.0070(17)
C24 0.061(2) 0.063(2) 0.073(2) 0.029(2) 0.0281(18) 0.0202(17)
C21 0.061(2) 0.082(3) 0.081(3) 0.011(2) 0.013(2) 0.001(2)
C22 0.083(3) 0.089(3) 0.071(3) 0.011(2) 0.010(2) 0.013(3)
C23 0.095(3) 0.073(3) 0.073(3) 0.021(2) 0.031(2) 0.024(2)
C25 0.076(3) 0.071(2) 0.051(2) 0.0215(19) 0.0134(18) -0.011(2)
O3 0.153(3) 0.080(2) 0.072(2) 0.0392(18) 0.047(2) 0.030(2)
N2 0.106(3) 0.075(2) 0.0521(19) 0.0170(17) 0.0204(18) -0.013(2)
C26 0.122(5) 0.115(4) 0.069(3) 0.033(3) 0.025(3) -0.008(3)
C29 0.212(10) 0.111(5) 0.108(5) 0.009(4) 0.019(5) 0.074(6)
C28 0.179(7) 0.064(3) 0.064(3) 0.005(2) 0.037(4) -0.001(3)
C27 0.147(7) 0.313(13) 0.077(4) 0.066(6) -0.009(4) -0.012(8)
C30 0.054(2) 0.048(2) 0.072(2) 0.0141(17) 0.0262(18) -0.0001(15)
O4 0.093(2) 0.093(2) 0.098(2) 0.0274(19) 0.058(2) 0.0141(18)
O5 0.0576(16) 0.113(2) 0.088(2) 0.0390(19) 0.0229(14) 0.0457(16)
C31 0.077(3) 0.181(6) 0.163(6) 0.072(5) 0.037(4) 0.083(4)
loop_
_atom_type_symbol
_atom_type_description
_atom_type_scat_dispersion_real
_atom_type_scat_dispersion_imag
_atom_type_scat_source
C C 0.0033 0.0016 'International Tables Vol C Tables 4.2.6.8 and 6.1.1.4'
H H 0.0000 0.0000 'International Tables Vol C Tables 4.2.6.8 and 6.1.1.4'
N N 0.0061 0.0033 'International Tables Vol C Tables 4.2.6.8 and 6.1.1.4'
O O 0.0106 0.0060 'International Tables Vol C Tables 4.2.6.8 and 6.1.1.4'
S S 0.1246 0.1234 'International Tables Vol C Tables 4.2.6.8 and 6.1.1.4'
loop_
_geom_angle_atom_site_label_1
_geom_angle_atom_site_label_2
_geom_angle_atom_site_label_3
_geom_angle
O1 S1 O2 121.2(2)
O1 S1 N1 107.63(16)
O2 S1 N1 105.45(16)
O1 S1 C1 106.93(18)
O2 S1 C1 107.87(18)
N1 S1 C1 107.05(16)
C6 C1 C2 118.4(4)
C6 C1 S1 119.7(3)
C2 C1 S1 121.9(3)
C3 C2 C1 120.2(4)
C5 C6 C1 120.1(4)
C2 C3 C4 121.4(4)
C5 C4 C3 118.2(4)
C5 C4 C7 121.3(5)
C3 C4 C7 120.5(5)
C4 C5 C6 121.7(4)
C15 N1 C8 118.5(3)
C15 N1 S1 117.7(2)
C8 N1 S1 120.5(2)
N1 C8 C9 111.1(3)
C14 C9 C10 119.7(5)
C14 C9 C8 120.8(5)
C10 C9 C8 119.3(4)
C9 C10 C11 118.6(5)
C9 C14 C13 118.1(7)
C12 C13 C14 119.4(7)
C12 C11 C10 122.3(8)
C11 C12 C13 121.8(8)
C15 C16 C19 137.4(3)
C15 C16 C17 93.4(3)
C19 C16 C17 129.1(3)
C16 C15 N1 132.1(3)
C16 C15 C18 96.0(3)
N1 C15 C18 131.9(3)
C30 C17 C16 119.7(3)
C30 C17 C18 114.4(3)
C16 C17 C18 85.9(2)
C25 C18 C15 118.2(3)
C25 C18 C17 114.7(3)
C15 C18 C17 84.7(2)
C24 C19 C20 118.4(3)
C24 C19 C16 121.2(3)
C20 C19 C16 120.4(3)
C21 C20 C19 121.2(4)
C23 C24 C19 119.5(4)
C20 C21 C22 120.7(4)
C21 C22 C23 118.3(4)
C24 C23 C22 121.8(4)
O3 C25 N2 119.4(4)
O3 C25 C18 120.3(3)
N2 C25 C18 120.2(4)
C25 N2 C26 124.0(4)
C25 N2 C28 118.5(4)
C26 N2 C28 117.3(4)
N2 C26 C27 112.5(5)
C29 C28 N2 114.0(5)
O4 C30 O5 124.0(4)
O4 C30 C17 123.8(4)
O5 C30 C17 112.2(3)
C30 O5 C31 116.7(4)
loop_
_geom_bond_atom_site_label_1
_geom_bond_atom_site_label_2
_geom_bond_distance
S1 O1 1.415(3)
S1 O2 1.430(3)
S1 N1 1.639(3)
S1 C1 1.742(4)
C1 C6 1.383(5)
C1 C2 1.393(6)
C2 C3 1.370(6)
C6 C5 1.372(6)
C3 C4 1.375(6)
C4 C5 1.371(7)
C4 C7 1.511(7)
N1 C15 1.420(4)
N1 C8 1.491(5)
C8 C9 1.496(5)
C9 C14 1.368(6)
C9 C10 1.383(6)
C10 C11 1.412(6)
C14 C13 1.453(11)
C13 C12 1.346(14)
C11 C12 1.274(11)
C16 C15 1.348(4)
C16 C19 1.466(4)
C16 C17 1.530(4)
C15 C18 1.517(4)
C17 C30 1.483(5)
C17 C18 1.598(5)
C18 C25 1.514(6)
C19 C24 1.395(5)
C19 C20 1.398(5)
C20 C21 1.348(5)
C24 C23 1.360(6)
C21 C22 1.381(6)
C22 C23 1.389(7)
C25 O3 1.241(5)
C25 N2 1.356(5)
N2 C26 1.471(6)
N2 C28 1.495(7)
C26 C27 1.546(9)
C29 C28 1.485(10)
C30 O4 1.201(4)
C30 O5 1.323(5)
O5 C31 1.458(5)
loop_
_geom_torsion_atom_site_label_1
_geom_torsion_atom_site_label_2
_geom_torsion_atom_site_label_3
_geom_torsion_atom_site_label_4
_geom_torsion
O1 S1 C1 C6 167.5(3)
O2 S1 C1 C6 35.7(4)
N1 S1 C1 C6 -77.4(3)
O1 S1 C1 C2 -14.5(3)
O2 S1 C1 C2 -146.4(3)
N1 S1 C1 C2 100.6(3)
C6 C1 C2 C3 -0.8(6)
S1 C1 C2 C3 -178.8(3)
C2 C1 C6 C5 -0.2(6)
S1 C1 C6 C5 177.8(3)
C1 C2 C3 C4 1.0(7)
C2 C3 C4 C5 -0.2(7)
C2 C3 C4 C7 179.2(5)
C3 C4 C5 C6 -0.8(8)
C7 C4 C5 C6 179.8(5)
C1 C6 C5 C4 1.0(7)
O1 S1 N1 C15 42.5(3)
O2 S1 N1 C15 173.2(3)
C1 S1 N1 C15 -72.1(3)
O1 S1 N1 C8 -158.6(3)
O2 S1 N1 C8 -27.9(3)
C1 S1 N1 C8 86.8(3)
C15 N1 C8 C9 -75.5(4)
S1 N1 C8 C9 125.8(3)
N1 C8 C9 C14 -92.5(5)
N1 C8 C9 C10 83.4(4)
C14 C9 C10 C11 -1.4(6)
C8 C9 C10 C11 -177.3(4)
C10 C9 C14 C13 -0.4(8)
C8 C9 C14 C13 175.5(5)
C9 C14 C13 C12 2.4(11)
C9 C10 C11 C12 1.3(8)
C10 C11 C12 C13 0.9(13)
C14 C13 C12 C11 -2.7(14)
C19 C16 C15 N1 4.8(6)
C17 C16 C15 N1 -177.9(3)
C19 C16 C15 C18 -175.1(4)
C17 C16 C15 C18 2.2(3)
C8 N1 C15 C16 95.0(4)
S1 N1 C15 C16 -105.6(4)
C8 N1 C15 C18 -85.1(4)
S1 N1 C15 C18 74.2(4)
C15 C16 C17 C30 113.7(3)
C19 C16 C17 C30 -68.6(4)
C15 C16 C17 C18 -2.1(3)
C19 C16 C17 C18 175.6(3)
C16 C15 C18 C25 -117.3(3)
N1 C15 C18 C25 62.8(5)
C16 C15 C18 C17 -2.1(3)
N1 C15 C18 C17 178.0(3)
C30 C17 C18 C25 -0.4(4)
C16 C17 C18 C25 120.5(3)
C30 C17 C18 C15 -119.0(3)
C16 C17 C18 C15 1.9(2)
C15 C16 C19 C24 -2.3(6)
C17 C16 C19 C24 -178.9(3)
C15 C16 C19 C20 177.4(4)
C17 C16 C19 C20 0.8(5)
C24 C19 C20 C21 0.4(6)
C16 C19 C20 C21 -179.4(4)
C20 C19 C24 C23 -0.4(5)
C16 C19 C24 C23 179.3(3)
C19 C20 C21 C22 0.8(7)
C20 C21 C22 C23 -1.9(8)
C19 C24 C23 C22 -0.7(7)
C21 C22 C23 C24 1.9(8)
C15 C18 C25 O3 6.1(5)
C17 C18 C25 O3 -91.4(4)
C15 C18 C25 N2 -175.2(3)
C17 C18 C25 N2 87.3(4)
O3 C25 N2 C26 178.2(5)
C18 C25 N2 C26 -0.4(6)
O3 C25 N2 C28 3.8(7)
C18 C25 N2 C28 -174.9(4)
C25 N2 C26 C27 103.5(7)
C28 N2 C26 C27 -82.1(7)
C25 N2 C28 C29 77.6(6)
C26 N2 C28 C29 -97.2(6)
C16 C17 C30 O4 176.1(3)
C18 C17 C30 O4 -84.3(4)
C16 C17 C30 O5 -5.7(4)
C18 C17 C30 O5 93.9(4)
O4 C30 O5 C31 0.3(7)
C17 C30 O5 C31 -177.9(4)
