#------------------------------------------------------------------------------
#$Date: 2016-02-18 17:37:37 +0200 (Thu, 18 Feb 2016) $
#$Revision: 176729 $
#$URL: svn://www.crystallography.net/cod/cif/1/51/71/1517191.cif $
#------------------------------------------------------------------------------
#
# This file is available in the Crystallography Open Database (COD),
# http://www.crystallography.net/
#
# All data on this site have been placed in the public domain by the
# contributors.
#
data_1517191
loop_
_publ_author_name
'Pang, Jiandong'
'Jiang, Feilong'
'Yuan, Daqiang'
'Zheng, Jun'
'Wu, Mingyan'
'Liu, Guoliang'
'Su, Kongzhao'
'Hong, Maochun'
_publ_section_title
;
 SO42&#x2212;anion directed hexagonal-prismatic cages via cooperative
 C--H&#x22EF;O hydrogen bonds
;
_journal_issue                   11
_journal_name_full               'Chem. Sci.'
_journal_page_first              4163
_journal_paper_doi               10.1039/C4SC01973C
_journal_volume                  5
_journal_year                    2014
_chemical_formula_sum            'C161 H363 N48 Ni16 O146 S8'
_chemical_formula_weight         6503.81
_chemical_name_systematic
;
 ?
;
_space_group_crystal_system      monoclinic
_space_group_IT_number           14
_space_group_name_Hall           '-P 2yn'
_space_group_name_H-M_alt        'P 1 21/n 1'
_symmetry_space_group_name_Hall  '-P 2yn'
_symmetry_space_group_name_H-M   'P 1 21/n 1'
_atom_sites_solution_hydrogens   geom
_audit_creation_method           SHELXL-2013
_cell_angle_alpha                90
_cell_angle_beta                 91.3010(10)
_cell_angle_gamma                90
_cell_formula_units_Z            4
_cell_length_a                   20.55910(10)
_cell_length_b                   35.0164(2)
_cell_length_c                   39.4400(2)
_cell_measurement_reflns_used    53782
_cell_measurement_temperature    173(2)
_cell_measurement_theta_max      1.00000
_cell_measurement_theta_min      0.75092
_cell_volume                     28385.8(3)
_computing_structure_refinement  'SHELXL-2013 (Sheldrick, 2013)'
_diffrn_ambient_temperature      173(2)
_diffrn_detector_area_resol_mean 10.5594
_diffrn_measured_fraction_theta_full 0.998
_diffrn_measured_fraction_theta_max 0.973
_diffrn_measurement_device_type  'SuperNova, Dual, Cu at zero, Atlas'
_diffrn_measurement_method       '\w scans'
_diffrn_radiation_type           CuK\a
_diffrn_radiation_wavelength     1.54184
_diffrn_reflns_av_R_equivalents  0.0268
_diffrn_reflns_av_unetI/netI     0.0347
_diffrn_reflns_Laue_measured_fraction_full 0.998
_diffrn_reflns_Laue_measured_fraction_max 0.973
_diffrn_reflns_limit_h_max       25
_diffrn_reflns_limit_h_min       -15
_diffrn_reflns_limit_k_max       43
_diffrn_reflns_limit_k_min       -42
_diffrn_reflns_limit_l_max       47
_diffrn_reflns_limit_l_min       -48
_diffrn_reflns_number            118875
_diffrn_reflns_point_group_measured_fraction_full 0.998
_diffrn_reflns_point_group_measured_fraction_max 0.973
_diffrn_reflns_theta_full        67.684
_diffrn_reflns_theta_max         73.580
_diffrn_reflns_theta_min         3.316
_exptl_absorpt_coefficient_mu    2.583
_exptl_absorpt_correction_T_max  1.00000
_exptl_absorpt_correction_T_min  0.75092
_exptl_absorpt_correction_type   multi-scan
_exptl_absorpt_process_details
;
CrysAlisPro, Agilent Technologies,
Version 1.171.37.31 (release 14-01-2014 CrysAlis171 .NET)
(compiled Jan 14 2014,18:38:05)
Empirical absorption correction using spherical harmonics,
 implemented in SCALE3 ABSPACK scaling algorithm.
;
_exptl_crystal_colour            green
_exptl_crystal_density_diffrn    1.522
_exptl_crystal_description       prism
_exptl_crystal_F_000             13636
_exptl_crystal_size_max          0.16
_exptl_crystal_size_mid          0.12
_exptl_crystal_size_min          0.10
_refine_diff_density_max         2.731
_refine_diff_density_min         -2.358
_refine_diff_density_rms         0.137
_refine_ls_extinction_method     none
_refine_ls_goodness_of_fit_ref   1.038
_refine_ls_hydrogen_treatment    constr
_refine_ls_matrix_type           full
_refine_ls_number_parameters     3594
_refine_ls_number_reflns         55711
_refine_ls_number_restraints     12
_refine_ls_restrained_S_all      1.038
_refine_ls_R_factor_all          0.0794
_refine_ls_R_factor_gt           0.0674
_refine_ls_shift/su_max          0.013
_refine_ls_shift/su_mean         0.000
_refine_ls_structure_factor_coef Fsqd
_refine_ls_weighting_details
'w=1/[\s^2^(Fo^2^)+(0.1124P)^2^+130.1946P] where P=(Fo^2^+2Fc^2^)/3'
_refine_ls_weighting_scheme      calc
_refine_ls_wR_factor_gt          0.1949
_refine_ls_wR_factor_ref         0.2074
_reflns_Friedel_coverage         0.000
_reflns_number_gt                46658
_reflns_number_total             55711
_reflns_threshold_expression     'I > 2\s(I)'
_cod_data_source_file            c4sc01973c2.cif
_cod_data_source_block           exp_5778
_cod_depositor_comments
'Adding full bibliography for 1517188--1517192.cif.'
_cod_database_code               1517191
#BEGIN Tags that were not found in dictionaries:
_shelx_space_group_comment
;
The symmetry employed for this shelxl refinement is uniquely defined
by the following loop, which should always be used as a source of
symmetry information in preference to the above space-group names.
They are only intended as comments.
;
_shelxl_version_number           2013-4
_shelx_res_file
;
REM <HKL>D:/DATA/HMC/PJD/exp_5778/struct/olex2_exp_5778/exp_5778.hkl</HKL>
REM The information below was added by Olex2.
REM
REM R1 = n/a for n/a Fo > 4sig(Fo) and n/a for all 120348 data
REM n/a parameters refined using n/a restraints
REM Highest difference peak n/a, deepest hole n/a
REM Mean Shift n/a, Max Shift n/a.
REM +++ Tabular Listing of Refinement Information +++
REM R1_all = n/a
REM R1_gt = n/a
REM wR_ref = n/a
REM GOOF = n/a
REM Shift_max = n/a
REM Shift_mean = n/a
REM Reflections_all = 120348
REM Reflections_gt = n/a
REM Parameters = n/a
REM Hole = n/a
REM Peak = n/a
REM Flack = n/a
REM  CF solution in P21/n
REM R1 =  0.1340 for  46658 Fo > 4sig(Fo)  and  0.1497 for all  55711 data
REM   1453 parameters refined using      0 restraints
REM Highest difference peak  5.151,  deepest hole -8.117,  1-sigma level  0.293
REM  CF solution in P21/n
REM R1 =  0.0853 for  46658 Fo > 4sig(Fo)  and  0.0984 for all  55711 data
REM   3041 parameters refined using     12 restraints
REM Highest difference peak  1.715,  deepest hole -1.954,  1-sigma level  0.178
REM  CF solution in P21/n
REM R1 =  0.0775 for   46658 Fo > 4sig(Fo)  and  0.0899 for all   55711 data
REM   3610 parameters refined using     12 restraints
REM Highest difference peak  1.765,  deepest hole -2.020,  1-sigma level  0.166
REM  CF solution in P21/n
REM R1 =  0.0744 for   46658 Fo > 4sig(Fo)  and  0.0866 for all   55711 data
REM   3585 parameters refined using     12 restraints
REM Highest difference peak  1.609,  deepest hole -2.041,  1-sigma level  0.155
REM  CF solution in P21/n
REM R1 =  0.0747 for   46658 Fo > 4sig(Fo)  and  0.0869 for all   55711 data
REM   3546 parameters refined using     12 restraints
REM Highest difference peak  1.861,  deepest hole -1.999,  1-sigma level  0.154
REM  CF solution in P21/n
REM R1 =  0.0749 for   46658 Fo > 4sig(Fo)  and  0.0872 for all   55711 data
REM   3502 parameters refined using     12 restraints
REM Highest difference peak  2.011,  deepest hole -2.019,  1-sigma level  0.155
REM  CF solution in P21/n
REM R1 =  0.0695 for   46658 Fo > 4sig(Fo)  and  0.0816 for all   55711 data
REM   3513 parameters refined using     12 restraints
REM Highest difference peak  1.665,  deepest hole -2.030,  1-sigma level  0.142
REM  CF solution in P21/n
REM R1 =  0.0698 for   46658 Fo > 4sig(Fo)  and  0.0820 for all   55711 data
REM   3531 parameters refined using      6 restraints
REM Highest difference peak  3.009,  deepest hole -2.635,  1-sigma level  0.142
REM  CF solution in P21/n
REM R1 =  0.0672 for   46658 Fo > 4sig(Fo)  and  0.0793 for all   55711 data
REM   3610 parameters refined using      6 restraints
REM Highest difference peak  3.006,  deepest hole -2.618,  1-sigma level  0.136
REM  CF solution in P21/n
REM R1 =  0.0672 for   46658 Fo > 4sig(Fo)  and  0.0793 for all   55711 data
REM   3610 parameters refined using     12 restraints
REM Highest difference peak  3.002,  deepest hole -2.620,  1-sigma level  0.136
REM  CF solution in P21/n
REM R1 =  0.0677 for   46658 Fo > 4sig(Fo)  and  0.0798 for all   55711 data
REM   3590 parameters refined using     12 restraints
REM Highest difference peak  3.008,  deepest hole -2.638,  1-sigma level  0.138
REM  CF solution in P21/n
REM R1 =  0.0677 for   46658 Fo > 4sig(Fo)  and  0.0798 for all   55711 data
REM   3590 parameters refined using     12 restraints
REM Highest difference peak  3.005,  deepest hole -2.639,  1-sigma level  0.138
REM  CF solution in P21/n
REM R1 =  0.0675 for   46658 Fo > 4sig(Fo)  and  0.0796 for all   55711 data
REM   3594 parameters refined using     12 restraints
REM Highest difference peak  3.021,  deepest hole -2.635,  1-sigma level  0.137
TITL CF solution in P21/n
CELL 1.54184 20.5591 35.0164 39.4400 90.000 91.301 90.000
ZERR 4.0000 0.0001 0.0002 0.0002 0.000 0.001 0.000
LATT 1
SYMM 0.5-X, 0.5+Y, 0.5-Z
SFAC C H N O NI S
UNIT 644 1452 192 584 64 32
MERG 2
FMAP 2
GRID
PLAN 25
TEMP -100
BOND $H
ISOR 0.005 O165 O161
EADP O39 O38 O37
L.S. 20
ACTA
WGHT    0.112400  130.194595
FVAR       0.89137
NI1   5    0.240307    0.337699    0.695623    11.00000    0.00901    0.02120 =
         0.01773   -0.00409   -0.00056   -0.00167
NI2   5    0.360159    0.379580    0.675229    11.00000    0.01009    0.02098 =
         0.01734   -0.00296   -0.00027   -0.00199
NI3   5    0.333226    0.366447    0.752416    11.00000    0.00929    0.01858 =
         0.01620   -0.00364   -0.00075   -0.00016
NI4   5    0.373945    0.298685    0.707719    11.00000    0.00954    0.01902 =
         0.01925   -0.00447    0.00012   -0.00050
NI5   5    0.795596    0.435843    0.806560    11.00000    0.01034    0.01523 =
         0.01454    0.00015   -0.00034   -0.00077
NI6   5    0.811751    0.453192    0.729724    11.00000    0.00960    0.01657 =
         0.01577    0.00138   -0.00157   -0.00055
NI7   5    0.835521    0.371219    0.758025    11.00000    0.00990    0.01450 =
         0.01723   -0.00017   -0.00106   -0.00038
NI8   5    0.931283    0.437979    0.773017    11.00000    0.00897    0.01603 =
         0.01567    0.00067   -0.00174   -0.00085
NI9   5    1.110141    0.282649    0.591090    11.00000    0.01307    0.02745 =
         0.02011   -0.00851   -0.00134   -0.00496
NI10  5    1.048174    0.203174    0.580699    11.00000    0.01077    0.02119 =
         0.01838   -0.00618   -0.00131   -0.00076
NI11  5    0.960980    0.276058    0.579703    11.00000    0.01178    0.01825 =
         0.01624   -0.00438   -0.00007   -0.00195
NI12  5    1.054036    0.260986    0.520696    11.00000    0.01283    0.02742 =
         0.01652   -0.00526    0.00131   -0.00543
NI13  5    0.609480    0.128256    0.457968    11.00000    0.01189    0.01881 =
         0.01488    0.00148   -0.00210   -0.00360
NI14  5    0.700690    0.056822    0.455508    11.00000    0.01396    0.01743 =
         0.01433    0.00204   -0.00402   -0.00303
NI15  5    0.703669    0.117105    0.397889    11.00000    0.01142    0.01853 =
         0.01389    0.00259   -0.00250   -0.00421
NI16  5    0.586160    0.065444    0.402753    11.00000    0.01114    0.01976 =
         0.01454    0.00162   -0.00260   -0.00481
S1    6    0.224300    0.395397    0.630066    11.00000    0.01416    0.02503 =
         0.01948   -0.00199   -0.00289   -0.00382
S2    6    0.936937    0.511349    0.725808    11.00000    0.01419    0.01939 =
         0.01952    0.00363   -0.00045   -0.00305
S3    6    0.585396    0.385145    0.737012    11.00000    0.01154    0.02370 =
         0.02538    0.00500   -0.00425   -0.00356
S4    6    0.024431    0.283856    0.701758    11.00000    0.01157    0.02052 =
         0.01836   -0.00488   -0.00075   -0.00007
S5    6    0.614603    0.100414    0.330006    11.00000    0.01064    0.02432 =
         0.01388    0.00233   -0.00238   -0.00446
S6    6    0.850924    0.171133    0.497247    11.00000    0.01162    0.02200 =
         0.01885   -0.00395   -0.00100   -0.00337
S7    6    1.255198    0.244167    0.607472    11.00000    0.02935    0.05413 =
         0.04459   -0.01300   -0.00176   -0.00209
S8    6    0.442315    0.045061    0.427881    11.00000    0.01408    0.02583 =
         0.01629    0.00527   -0.00306   -0.00696
O1    4    0.294840    0.315507    0.734995    11.00000    0.00778    0.02216 =
         0.02082   -0.00340   -0.00122    0.00040
O2    4    0.286749    0.385562    0.709029    11.00000    0.00984    0.02116 =
         0.01728   -0.00358   -0.00121   -0.00114
O3    4    0.403953    0.354171    0.717345    11.00000    0.00818    0.02008 =
         0.01882   -0.00406    0.00071   -0.00198
O4    4    0.320974    0.325266    0.670012    11.00000    0.01050    0.02189 =
         0.02059   -0.00507    0.00054   -0.00269
O5    4    0.316362    0.246130    0.698787    11.00000    0.02107    0.02091 =
         0.03152   -0.00427    0.00010   -0.00244
O6    4    0.194795    0.285214    0.686384    11.00000    0.01177    0.02413 =
         0.02663   -0.00693    0.00046   -0.00384
O7    4    0.160965    0.356149    0.723976    11.00000    0.00896    0.02688 =
         0.02232   -0.00450   -0.00022   -0.00032
O8    4    0.244818    0.369585    0.780641    11.00000    0.00925    0.03526 =
         0.02182   -0.00482    0.00163    0.00132
O9    4    0.295883    0.397690    0.633467    11.00000    0.01399    0.03098 =
         0.02102    0.00153   -0.00226   -0.00331
O10   4    0.199071    0.364045    0.651693    11.00000    0.01191    0.02750 =
         0.02092   -0.00038   -0.00379   -0.00518
O11   4    0.194977    0.432001    0.640829    11.00000    0.02219    0.02465 =
         0.03488   -0.00205    0.00068   -0.00098
O12   4    0.205095    0.387701    0.594560    11.00000    0.02718    0.03513 =
         0.02107    0.00049   -0.00780   -0.00610
O13   4    0.765982    0.413757    0.760032    11.00000    0.01061    0.01416 =
         0.01635    0.00064   -0.00086   -0.00037
O14   4    0.874796    0.400682    0.799004    11.00000    0.00999    0.01646 =
         0.01725   -0.00013   -0.00109   -0.00166
O15   4    0.849464    0.470051    0.776501    11.00000    0.01140    0.01608 =
         0.01656    0.00046   -0.00083   -0.00032
O16   4    0.884279    0.414024    0.733191    11.00000    0.01152    0.01686 =
         0.01630   -0.00015   -0.00152   -0.00074
O17   4    0.922465    0.336893    0.762751    11.00000    0.01363    0.02294 =
         0.02802    0.00139   -0.00037    0.00217
O18   4    0.851200    0.462376    0.848025    11.00000    0.01497    0.02466 =
         0.01890   -0.00212   -0.00268   -0.00212
O19   4    1.006785    0.400054    0.762633    11.00000    0.01082    0.02131 =
         0.01988   -0.00117   -0.00209    0.00290
O20   4    0.975155    0.461628    0.816849    11.00000    0.01224    0.01920 =
         0.01884   -0.00062   -0.00321   -0.00147
O21   4    0.880430    0.493946    0.707382    11.00000    0.01475    0.02144 =
         0.02106    0.00483   -0.00088   -0.00366
O22   4    0.975467    0.480734    0.743189    11.00000    0.01257    0.02023 =
         0.02159    0.00402   -0.00252   -0.00250
O23   4    0.978591    0.531040    0.701644    11.00000    0.02351    0.02753 =
         0.02465    0.00686    0.00268   -0.00384
O24   4    0.913697    0.539085    0.751244    11.00000    0.01716    0.01939 =
         0.02705    0.00018   -0.00026   -0.00155
O25   4    0.009663    0.314962    0.677184    11.00000    0.01691    0.02053 =
         0.02189   -0.00315    0.00040   -0.00069
O26   4    0.080989    0.295538    0.723296    11.00000    0.01945    0.03579 =
         0.02000   -0.00282   -0.00330   -0.00649
O27   4   -0.031522    0.277110    0.722971    11.00000    0.01692    0.02400 =
         0.03340    0.00294    0.00343   -0.00222
O28   4    0.041527    0.249137    0.682916    11.00000    0.03946    0.02802 =
         0.02334   -0.00892   -0.00567    0.01190
O29   4    0.985569    0.231559    0.547788    11.00000    0.01212    0.01886 =
         0.01802   -0.00466    0.00068   -0.00144
O30   4    1.035241    0.251982    0.609213    11.00000    0.01505    0.02109 =
         0.01803   -0.00710   -0.00085   -0.00128
O31   4    1.040060    0.301417    0.557720    11.00000    0.01345    0.02360 =
         0.01988   -0.00514   -0.00046   -0.00494
O32   4    1.114284    0.238925    0.558071    11.00000    0.01095    0.02953 =
         0.02043   -0.00928    0.00132   -0.00338
O33   4    1.134891    0.295852    0.504957    11.00000    0.02530    0.05104 =
         0.03022   -0.00431    0.00318   -0.01936
O34   4    0.947868    0.322378    0.614237    11.00000    0.01852    0.02304 =
         0.01943   -0.00581    0.00001    0.00064
O35   4    1.098154    0.325586    0.625738    11.00000    0.01916    0.02753 =
         0.02424   -0.00887   -0.00191   -0.00569
O36   4    1.186102    0.315719    0.569559    11.00000    0.01871    0.04233 =
         0.02943   -0.01154    0.00293   -0.01048
O37   4    1.182945    0.210816    0.624088    10.20000    0.02874    0.04808 =
         0.03859   -0.01629   -0.01276    0.00243
O38   4    1.186102    0.255317    0.621798    10.80000    0.02874    0.04808 =
         0.03859   -0.01629   -0.01276    0.00243
O39   4    1.246358    0.221551    0.576614    11.00000    0.02874    0.04808 =
         0.03859   -0.01629   -0.01276    0.00243
O40   4    1.292854    0.279305    0.600243    11.00000    0.01937    0.04902 =
         0.04733   -0.00933    0.00052   -0.00416
O41   4    1.289295    0.221139    0.633825    11.00000    0.03391    0.06064 =
         0.05065   -0.01056   -0.00588    0.00030
O42   4    0.706237    0.115604    0.450302    11.00000    0.01393    0.01663 =
         0.01539    0.00244   -0.00309   -0.00319
O43   4    0.601599    0.068941    0.454329    11.00000    0.01640    0.01751 =
         0.01498    0.00190   -0.00311   -0.00378
O44   4    0.604265    0.121999    0.406723    11.00000    0.01376    0.01978 =
         0.01548    0.00284   -0.00438   -0.00494
O45   4    0.684073    0.060811    0.404290    11.00000    0.01398    0.01866 =
         0.01503    0.00172   -0.00404   -0.00451
O46   4    0.673912   -0.002531    0.452186    11.00000    0.03645    0.02131 =
         0.02420    0.00192   -0.00934   -0.00519
O47   4    0.503476    0.133185    0.460982    11.00000    0.01385    0.03140 =
         0.02636    0.00316   -0.00426   -0.00421
O48   4    0.580348    0.006245    0.397590    11.00000    0.02104    0.02159 =
         0.02870   -0.00106   -0.00069   -0.00778
O49   4    0.680616    0.108262    0.344145    11.00000    0.01254    0.02776 =
         0.01489    0.00217   -0.00381   -0.00485
O50   4    0.573596    0.135084    0.330901    11.00000    0.01278    0.02684 =
         0.02150    0.00258   -0.00323   -0.00081
O51   4    0.582162    0.069598    0.349548    11.00000    0.01325    0.02681 =
         0.01537    0.00242   -0.00281   -0.00752
O52   4    0.620476    0.087534    0.294598    11.00000    0.01491    0.03063 =
         0.01459    0.00118   -0.00216   -0.00310
O53   4    0.484029    0.066824    0.403893    11.00000    0.01606    0.02598 =
         0.01693    0.00638   -0.00165   -0.00473
O54   4    0.461430    0.004444    0.427629    11.00000    0.02103    0.02520 =
         0.03113    0.00808   -0.00341   -0.00665
O55   4    0.452448    0.060538    0.462418    11.00000    0.02793    0.03471 =
         0.01918    0.00406   -0.00424   -0.01264
O56   4    0.374005    0.049263    0.416868    11.00000    0.01236    0.03486 =
         0.01876    0.00182    0.00042   -0.00430
O57   4    0.876122    0.185447    0.464461    11.00000    0.02843    0.05543 =
         0.02437   -0.00424    0.00739   -0.01458
O58   4    0.883056    0.134046    0.507244    10.80000    0.01949    0.01626 =
         0.03943   -0.00451   -0.00861    0.00482
O59   4    0.905249    0.173410    0.518394    10.20000    0.04402    0.06601 =
         0.04692   -0.00860   -0.02231   -0.00097
O60   4    0.865347    0.199034    0.524136    10.80000    0.01762    0.01839 =
         0.01979   -0.00586   -0.00170   -0.00122
O61   4    0.797055    0.197918    0.512873    10.20000    0.02330    0.05198 =
         0.08856   -0.02060    0.00696    0.00443
O62   4    0.780457    0.164178    0.494201    10.80000    0.01036    0.02446 =
         0.02404   -0.00161   -0.00401   -0.00154
O63   4    0.821322    0.137795    0.488181    10.20000    0.06500    0.02664 =
         0.04900   -0.00034    0.00356   -0.00771
O64   4    0.648507    0.373280    0.748852    10.50000    0.02975    0.03873 =
         0.04227    0.00309   -0.00741   -0.00349
O65   4    0.629893    0.401512    0.761518    10.50000    0.00757    0.01701 =
         0.01690   -0.00552   -0.00437   -0.00202
O66   4    0.559406    0.410230    0.768866    10.50000    0.03095    0.05152 =
         0.05036   -0.02065    0.01045   -0.00209
O67   4    0.518455    0.386594    0.745525    10.50000    0.00355    0.01647 =
         0.01385   -0.00345    0.00200   -0.00036
O68   4    0.537835    0.355233    0.733493    10.50000    0.02962    0.04431 =
         0.04723   -0.00223    0.00118   -0.01287
O69   4    0.604166    0.342642    0.731770    10.50000    0.01019    0.01072 =
         0.03256   -0.00678   -0.00197    0.00233
O70   4    0.591897    0.406917    0.704865    11.00000    0.03590    0.06264 =
         0.04016    0.02647   -0.01206   -0.01604
O71   4    0.393706    0.691001    0.784185    11.00000    0.08575    0.06869 =
         0.11886   -0.04349    0.00742   -0.03468
O72   4    0.296388    0.689770    0.731578    10.50000    0.10238    0.09318 =
         0.25303    0.05813    0.06288    0.03919
O73   4    0.295962    0.642661    0.800316    11.00000    0.07292    0.06768 =
         0.16099   -0.01170   -0.00329   -0.00259
O74   4    0.730668    0.935954    0.480123    11.00000    0.05126    0.04710 =
         0.04063    0.00668    0.00804    0.02562
O76   4    0.702243    0.697694    0.774469    11.00000    0.09955    0.07540 =
         0.06673    0.00126    0.01118    0.00409
O77   4    0.703851    0.739134    0.762470    11.00000    0.40416    0.11557 =
         0.08810   -0.00613    0.09009   -0.13540
O78   4    0.311436    0.598404    0.696710    11.00000    0.07666    0.17285 =
         0.16240    0.08045    0.00601    0.03561
O79   4    0.565450    0.697619    0.771483    11.00000    0.18761    0.10522 =
         0.12885   -0.00470    0.05740    0.00805
O80   4    0.469744    0.745524    0.679576    11.00000    0.06393    0.06042 =
         0.08154   -0.01981   -0.01202    0.00254
O81   4    0.528868    0.764642    0.669971    11.00000    0.12320    0.20382 =
         0.39187   -0.10894    0.10446   -0.05776
O82   4    0.530049    0.687368    0.590199    11.00000    0.21244    0.11751 =
         0.22230    0.05425    0.09804    0.06533
O83   4    0.445342    0.946860    0.378381    11.00000    0.04810    0.03654 =
         0.03318    0.00577    0.00668   -0.01099
O84   4    0.590692    0.623858    0.577863    11.00000    0.34128    0.25195 =
         0.55500   -0.18343   -0.07339    0.09482
O85   4    0.627925    0.717940    0.454768    11.00000    0.08666    0.46578 =
         0.08311   -0.04888    0.03590   -0.05159
O86   4    0.543739    0.839090    0.417814    11.00000    0.06813    0.11266 =
         0.08836    0.00033    0.00349    0.00752
O87   4    0.597776    0.824791    0.401071    11.00000    0.17441    0.16107 =
         0.46207   -0.15668    0.18842   -0.04582
O88   4    0.814551    0.523740    0.653461    11.00000    0.04969    0.02300 =
         0.03418    0.00326   -0.00954   -0.00220
O89   4    0.666504    0.915863    0.367823    11.00000    0.10912    0.14005 =
         0.12344    0.00971    0.02839    0.02128
O90   4    0.916362    0.585041    0.579776    11.00000    0.06413    0.05680 =
         0.04813    0.00779    0.00029    0.00124
O91   4    0.765898    0.574232    0.506721    11.00000    0.43015    0.20417 =
         0.21710   -0.09020   -0.11559    0.01432
O92   4    0.727980    0.502696    0.532275    11.00000    0.40212
O93   4    0.487074    0.548841    0.515917    10.50000    0.17359    0.28110 =
         0.23251    0.01659   -0.09487    0.05836
O94   4    0.907458    0.449284    0.561353    11.00000    0.18773    0.08896 =
         0.05052   -0.01253   -0.00920    0.05799
O95   4    0.868713    0.524615    0.446102    10.50000    0.09342    0.10167 =
         0.26346   -0.05070   -0.01392   -0.00291
O96   4    0.839092    0.567323    0.455689    10.50000    0.09743    0.10570 =
         0.07830    0.06070   -0.05877   -0.05121
O97   4    0.987656    0.395273    0.592631    11.00000    0.06150    0.03368 =
         0.04578   -0.00211   -0.01239   -0.01237
O98   4    0.923154    0.615219    0.457080    10.40000    0.08450    0.07525 =
         0.19217   -0.06998    0.05318   -0.03483
O99   4    0.948538    0.613755    0.466864    10.60000    0.06369    0.05009 =
         0.02529   -0.00859   -0.01172   -0.02808
O100  4    0.879199    0.420677    0.449655    11.00000    0.08915    0.05147 =
         0.09868    0.00966    0.01873   -0.00948
O101  4    0.830799    0.568734    0.289598    11.00000    0.02348    0.03028 =
         0.03338   -0.00178   -0.00298    0.00368
O102  4    0.985115    0.494478    0.360182    11.00000    0.06775    0.03274 =
         0.04508    0.00302    0.01877    0.01374
O103  4    0.784114    0.443146    0.334344    11.00000    0.21867    0.07911 =
         0.31942    0.08907   -0.05543    0.00554
O104  4    0.812167    0.469816    0.211111    11.00000    0.12785    0.12494 =
         0.17775    0.05222   -0.05263   -0.02645
O105  4    0.788004    0.489809    0.139662    10.50000    0.19511    0.04099 =
         0.03487    0.01170   -0.00105   -0.00285
O106  4    0.809882    0.501645    0.162633    10.50000    0.03977    0.06490 =
         0.21419   -0.02148   -0.01088    0.00096
O107  4    0.924709    0.362034    0.244371    11.00000    0.06437    0.06873 =
         0.07459    0.00539    0.01708   -0.00387
O108  4    0.710210    0.425416    0.235873    11.00000    0.05493    0.05306 =
         0.19219   -0.00570   -0.00461    0.00293
O109  4    0.727796    0.232706    0.281574    10.80000    0.02501    0.04631 =
         0.03723   -0.01097    0.01017   -0.00372
O110  4    0.564079    0.485316    0.534008    10.50000    0.27074    0.10899 =
         0.20391    0.06795   -0.00632    0.09777
O111  4    0.515498    0.485282    0.627122    10.50000    0.59422    0.03922 =
         0.22669    0.02059    0.27693    0.03552
O112  4    0.490153    0.468800    0.591458    10.50000    0.08752    0.08916 =
         0.18176    0.01971    0.03423   -0.00283
O113  4    0.422744    0.563879    0.585764    11.00000    0.14118    0.36187 =
         0.42912   -0.09289   -0.00431    0.01798
O114  4    0.108275    0.478572    0.755628    11.00000    0.02112    0.03665 =
         0.04330   -0.00018    0.00111    0.00000
O115  4    0.003500    0.608771    0.630724    11.00000    0.05653    0.04564 =
         0.05370    0.01230   -0.00164   -0.02012
O116  4    0.004860    0.392026    0.695102    11.00000    0.02585    0.02560 =
         0.02104   -0.00371    0.00181   -0.00129
O117  4    0.058874    0.432337    0.642096    11.00000    0.02465    0.02627 =
         0.03019   -0.00110   -0.00067   -0.00025
O118  4    0.097843    0.547636    0.609818    10.30000    0.03733    0.05391 =
         0.07925    0.01775   -0.00141    0.01420
O119  4    0.104441    0.563348    0.619337    10.70000    0.06399    0.06477 =
         0.07123    0.01464    0.01942   -0.00983
O120  4    0.002921    0.490725    0.519813    10.50000    0.47939    0.05327 =
         0.26558   -0.02656    0.28382   -0.06692
O121  4    0.007000    0.426950    0.477240    11.00000    0.10053    0.07760 =
         0.07275   -0.00806    0.01991   -0.00873
O122  4    0.181770    0.551968    0.489541    11.00000    0.10711    0.12272 =
         0.25348   -0.00404    0.00803   -0.03726
O123  4    0.219393    0.508142    0.621448    11.00000    0.11234    0.15723 =
         0.31994    0.14547   -0.00821    0.00860
O124  4    0.312805    0.513816    0.579589    11.00000    0.09844    0.18675 =
         0.43664    0.17382    0.01261   -0.00717
O125  4    0.365200    0.440901    0.586619    11.00000    0.09524    0.12823 =
         0.14197    0.09392    0.04062    0.01270
O126  4    0.293679    0.388798    0.539360    10.50000    0.25187    0.24111 =
         0.07596    0.02147   -0.01710   -0.10051
O127  4    0.349576    0.388842    0.527377    10.50000    0.09781    0.31209 =
         0.05472   -0.06045    0.00272    0.01652
O128  4    0.099904    0.489028    0.397517    11.00000    0.07524    0.04651 =
         0.05018    0.00440    0.00498    0.00518
O129  4    0.239933    0.145538    0.630994    11.00000    0.06582    0.07793 =
         0.13681   -0.02459    0.00335    0.00535
O130  4    0.221427    0.307799    0.454269    11.00000    0.08432    0.08844 =
         0.08580   -0.00128    0.02232   -0.01039
O131  4    0.204612    0.383644    0.434866    11.00000    0.10181    0.09256 =
         0.10862    0.01535   -0.00984    0.01464
O132  4    0.328734    0.329243    0.503195    10.50000    0.21999    0.11215 =
         0.08622   -0.00381   -0.02501    0.04326
O133  4    0.309166    0.488150    0.373835    11.00000    0.14890    0.08790 =
         0.55062   -0.00051   -0.19879   -0.00550
O134  4    0.464812    0.392244    0.493466    10.50000    0.20920    0.19616 =
         0.11762    0.00685    0.05639    0.07638
O135  4    0.323883    0.269807    0.481190    11.00000    0.31906    0.25069 =
         0.18500   -0.02054   -0.05500    0.02800
O136  4    0.317735    0.200273    0.515649    11.00000    0.06726    0.12550 =
         0.09504   -0.03728   -0.01188   -0.00163
O137  4    0.530109    0.325757    0.486814    11.00000    0.15793    0.29223 =
         0.26004   -0.08092   -0.06982    0.00553
O138  4    0.502535    0.431909    0.356071    10.50000    0.15162
O139  4    0.528633    0.241614    0.522604    10.20000    0.05574
O140  4    0.498357    0.266056    0.534555    10.80000    0.04282    0.35180 =
         0.06446   -0.08346   -0.01079    0.02145
O141  4    0.373103    0.423843    0.351442    10.50000    0.11736    0.23121 =
         0.22569   -0.13214   -0.04908    0.06709
O142  4    0.458056    0.182023    0.515500    10.50000    0.09585    0.10584 =
         0.05684   -0.00257    0.01507    0.03791
O143  4    0.442363    0.160593    0.516617    10.50000    0.05281    0.07627 =
         0.07792   -0.00778    0.01448    0.01828
O144  4    0.410435    0.098413    0.555265    10.50000    0.21603
O145  4    0.442162    0.083205    0.589506    10.50000    0.02017    0.02591 =
         0.05386    0.01002   -0.00254   -0.00082
O146  4    0.395215    0.246807    0.424157    11.00000    0.08982    0.11869 =
         0.15623   -0.01239   -0.01906    0.03132
O147  4    0.325326    0.359591    0.320825    11.00000    0.08490    0.25118 =
         0.17388   -0.06531   -0.04000    0.01676
O148  4    0.331224    0.303346    0.363509    10.50000    0.10333    0.23564 =
         0.17318   -0.08245   -0.06888    0.03358
O149  4    0.274260    0.272306    0.398641    11.00000    0.10692    0.23888 =
         0.17662   -0.13147   -0.08305    0.08645
O150  4    0.299309    0.159359    0.453106    11.00000    0.03316    0.08213 =
         0.05479    0.00419   -0.00443    0.00281
O151  4    0.246602    0.357237    0.265613    11.00000    0.06436    0.05968 =
         0.06863    0.01050    0.02331    0.00821
O152  4    0.273044    0.081084    0.454318    11.00000    0.03456    0.06861 =
         0.03398    0.00527    0.00702    0.01030
O153  4    0.416325    0.169267    0.415112    11.00000    0.02989    0.04973 =
         0.03903   -0.00213   -0.00470    0.00118
O154  4    0.362505    0.354471    0.230081    11.00000    0.25418    0.12085 =
         0.25629   -0.06788    0.17014   -0.07065
O155  4    0.450207    0.126300    0.358983    11.00000    0.01792    0.02943 =
         0.02350    0.00295   -0.00276    0.00011
O156  4    0.599014    0.200149    0.292297    11.00000    0.04155    0.03463 =
         0.02294    0.00583   -0.00425   -0.00684
O157  4    0.527701    0.315901    0.274132    11.00000    0.17211    0.16148 =
         0.14317    0.06274    0.04145    0.05602
O158  4    1.120805    0.187230    0.618911    11.00000    0.02258    0.02868 =
         0.03740   -0.00619   -0.01084    0.00252
O159  4    0.980992    0.538633    0.811627    11.00000    0.04124    0.02367 =
         0.02519   -0.00086   -0.00110    0.00119
O160  4    0.994448    0.609200    0.702081    11.00000    0.03785    0.03098 =
         0.05676    0.01007    0.00976   -0.00314
O161  4    0.701123    0.259022    0.269810    10.20000    0.02698    0.04229 =
         0.02518    0.00858    0.00183   -0.00886
O162  4    0.433860    0.622729    0.675373    11.00000    0.14758    0.12646 =
         0.16557    0.06833    0.02111   -0.00928
O163  4    0.432206    0.688614    0.634816    11.00000    0.08133    0.08100 =
         0.06348    0.01472   -0.03252   -0.01338
O164  4    0.879961    0.617088    0.742312    11.00000    0.05420    0.03401 =
         0.05453    0.00988    0.01574    0.00795
O165  4    0.553614    0.968581    0.472035    10.70000    0.02416    0.05810 =
         0.03736    0.01680    0.00215   -0.00203
O166  4    0.189080    0.675125    0.766819    11.00000    0.06977    0.05942 =
         0.08690   -0.00844   -0.01254    0.00507
O167  4    0.094319    0.581729    0.805960    11.00000    0.09888    0.07311 =
         0.09245    0.02833   -0.03953   -0.03374
O168  4    0.622303    0.724097    0.768311    11.00000    0.16895    0.16627 =
         0.25683    0.06262    0.06016   -0.00795
N1    3    0.422488    0.271906    0.747384    11.00000    0.01148    0.01953 =
         0.02417   -0.00475    0.00198   -0.00075
N2    3    0.500513    0.248558    0.780572    11.00000    0.01220    0.01733 =
         0.02445   -0.00206    0.00074   -0.00043
N3    3    0.726842    0.282801    0.803223    11.00000    0.01287    0.01798 =
         0.01892    0.00125    0.00036   -0.00076
N4    3    0.790248    0.329502    0.785996    11.00000    0.01444    0.01526 =
         0.02018   -0.00038   -0.00002    0.00026
N5    3    0.380024    0.343861    0.795105    11.00000    0.01339    0.01499 =
         0.01848   -0.00271    0.00070   -0.00149
N6    3    0.454569    0.324761    0.832340    11.00000    0.01110    0.01689 =
         0.01790   -0.00003    0.00161   -0.00004
N7    3    0.682883    0.353787    0.856323    11.00000    0.01077    0.01904 =
         0.01625    0.00098    0.00003   -0.00115
N8    3    0.750291    0.397556    0.837216    11.00000    0.01078    0.01742 =
         0.01734    0.00008    0.00022    0.00030
N9    3    0.357177    0.421841    0.766670    11.00000    0.01400    0.01905 =
         0.01717   -0.00250   -0.00039    0.00117
N10   3    0.403244    0.471785    0.791152    11.00000    0.01291    0.01791 =
         0.02801   -0.00056   -0.00247    0.00118
N11   3    0.626847    0.503450    0.823177    11.00000    0.01741    0.01594 =
         0.02808   -0.00256   -0.00211    0.00086
N12   3    0.721068    0.475492    0.813613    11.00000    0.01565    0.01646 =
         0.01680   -0.00060   -0.00072   -0.00081
N13   3    0.385382    0.435881    0.683137    11.00000    0.01402    0.02042 =
         0.02031   -0.00087    0.00059   -0.00101
N14   3    0.427314    0.488698    0.704613    11.00000    0.01179    0.02253 =
         0.03254    0.00104   -0.00553    0.00060
N15   3    0.647985    0.524874    0.736081    11.00000    0.01502    0.01918 =
         0.03291    0.00001   -0.00311   -0.00053
N16   3    0.741487    0.494751    0.730841    11.00000    0.01629    0.01631 =
         0.01839    0.00371   -0.00225    0.00124
N17   3    0.430280    0.370885    0.639512    11.00000    0.01628    0.02641 =
         0.01864   -0.00339   -0.00001   -0.00332
N18   3    0.517777    0.374599    0.608550    11.00000    0.01447    0.03834 =
         0.01803   -0.00549    0.00117   -0.00368
N19   3    0.739100    0.417269    0.633186    11.00000    0.01563    0.02749 =
         0.01802   -0.00057    0.00095   -0.00469
N20   3    0.787961    0.435946    0.680694    11.00000    0.01450    0.02179 =
         0.01914    0.00256   -0.00093    0.00044
N21   3    0.444957    0.283268    0.674265    11.00000    0.01332    0.02165 =
         0.02168   -0.00381    0.00031    0.00118
N22   3    0.533554    0.283357    0.644102    11.00000    0.01031    0.03146 =
         0.01834   -0.00695   -0.00046    0.00059
N23   3    0.755725    0.326202    0.666394    11.00000    0.01181    0.02075 =
         0.01827   -0.00307    0.00159    0.00021
N24   3    0.807277    0.347015    0.712364    11.00000    0.01277    0.01590 =
         0.02023   -0.00214    0.00046   -0.00038
N25   3    0.801106    0.106478    0.388201    11.00000    0.01474    0.01699 =
         0.01687    0.00176   -0.00072   -0.00160
N26   3    0.908111    0.102367    0.390360    11.00000    0.01526    0.01548 =
         0.01599   -0.00004   -0.00057    0.00058
N27   3    1.079561    0.167605    0.455084    11.00000    0.01205    0.03371 =
         0.01498   -0.00522    0.00054    0.00218
N28   3    1.078694    0.218307    0.488467    11.00000    0.01226    0.03726 =
         0.01757   -0.00511    0.00228   -0.00334
N29   3    0.797834    0.042619    0.449468    11.00000    0.01926    0.02106 =
         0.01647    0.00020   -0.00394    0.00193
N30   3    0.905110    0.036656    0.453571    11.00000    0.01731    0.01766 =
         0.01585   -0.00162   -0.00229    0.00054
N31   3    1.072798    0.102032    0.521298    11.00000    0.01433    0.02358 =
         0.02695   -0.00961   -0.00095    0.00225
N32   3    1.071477    0.155158    0.551920    11.00000    0.01391    0.02627 =
         0.02905   -0.00881   -0.00027    0.00136
N33   3    0.708904    0.053650    0.507740    11.00000    0.01398    0.01866 =
         0.01627    0.00194   -0.00280   -0.00132
N34   3    0.729505    0.067478    0.561566    11.00000    0.01359    0.01715 =
         0.01578    0.00152   -0.00090   -0.00187
N35   3    0.893901    0.141481    0.622931    11.00000    0.01542    0.01690 =
         0.01600   -0.00120   -0.00256    0.00173
N36   3    0.981841    0.172415    0.607782    11.00000    0.01258    0.01728 =
         0.02046   -0.00413   -0.00091   -0.00014
N37   3    0.611710    0.130387    0.510089    11.00000    0.01371    0.02245 =
         0.01567    0.00169   -0.00088   -0.00277
N38   3    0.626066    0.150070    0.562935    11.00000    0.01218    0.02200 =
         0.01686    0.00180    0.00036   -0.00235
N39   3    0.796866    0.221928    0.620876    11.00000    0.01298    0.02039 =
         0.01498   -0.00115    0.00072    0.00023
N40   3    0.889219    0.248242    0.605658    11.00000    0.01291    0.01897 =
         0.01723   -0.00399    0.00215    0.00186
N41   3    0.616431    0.187381    0.453089    11.00000    0.01563    0.01867 =
         0.01657    0.00080   -0.00137   -0.00170
N42   3    0.655496    0.245297    0.446361    11.00000    0.01057    0.02096 =
         0.01982    0.00085   -0.00096   -0.00077
N43   3    0.828467    0.316564    0.503778    11.00000    0.01581    0.01592 =
         0.01922   -0.00046    0.00029   -0.00002
N44   3    0.894291    0.303187    0.547181    11.00000    0.01593    0.01859 =
         0.01943   -0.00216    0.00066   -0.00192
N45   3    0.715380    0.174167    0.388868    11.00000    0.01394    0.01915 =
         0.01624    0.00241   -0.00082   -0.00322
N46   3    0.759984    0.230514    0.380688    11.00000    0.01469    0.01755 =
         0.01834    0.00264   -0.00039   -0.00109
N47   3    0.935983    0.299139    0.437730    11.00000    0.01709    0.01800 =
         0.02194    0.00110    0.00153   -0.00310
N48   3    0.996253    0.286932    0.483349    11.00000    0.01663    0.02916 =
         0.01912   -0.00205    0.00228   -0.00687
C1    1    0.486299    0.269296    0.752421    11.00000    0.01744    0.01934 =
         0.02123   -0.00172    0.00139   -0.00008
AFIX  43
H1    2    0.517766    0.280465    0.738201    11.00000   -1.20000
AFIX   0
C2    1    0.395098    0.252150    0.773529    11.00000    0.01583    0.02600 =
         0.02814   -0.00141    0.00295   -0.00449
AFIX  43
H2    2    0.349699    0.249237    0.776698    11.00000   -1.20000
AFIX   0
C3    1    0.442425    0.237409    0.794159    11.00000    0.02086    0.02315 =
         0.02862    0.00302    0.00312   -0.00546
AFIX  43
H3    2    0.436662    0.222440    0.813954    11.00000   -1.20000
AFIX   0
C4    1    0.564184    0.239067    0.793423    11.00000    0.01529    0.01617 =
         0.02220   -0.00071    0.00058    0.00083
C5    1    0.573542    0.204296    0.809663    11.00000    0.01996    0.01519 =
         0.02644    0.00054    0.00078   -0.00277
AFIX  43
H5    2    0.538532    0.186720    0.811196    11.00000   -1.20000
AFIX   0
C6    1    0.634204    0.195207    0.823689    11.00000    0.02338    0.01824 =
         0.02447    0.00144   -0.00090    0.00007
C7    1    0.684981    0.221204    0.820598    11.00000    0.01917    0.01880 =
         0.02418    0.00083   -0.00224    0.00166
AFIX  43
H7    2    0.726933    0.215104    0.829631    11.00000   -1.20000
AFIX   0
C8    1    0.674795    0.255857    0.804469    11.00000    0.01585    0.01562 =
         0.02003   -0.00201    0.00204    0.00041
C9    1    0.613972    0.265645    0.790531    11.00000    0.01520    0.01454 =
         0.01967   -0.00016    0.00086   -0.00094
AFIX  43
H9    2    0.606935    0.289475    0.779534    11.00000   -1.20000
AFIX   0
C10   1    0.645177    0.157906    0.841898    11.00000    0.02700    0.01916 =
         0.03670    0.00629   -0.00253   -0.00265
AFIX 137
H10A  2    0.691256    0.150913    0.840958    11.00000   -1.50000
H10B  2    0.618679    0.137945    0.830971    11.00000   -1.50000
H10C  2    0.632740    0.160573    0.865621    11.00000   -1.50000
AFIX   0
C11   1    0.734936    0.311000    0.780153    11.00000    0.01581    0.01369 =
         0.02159    0.00000   -0.00094    0.00076
AFIX  43
H11   2    0.704939    0.316727    0.762192    11.00000   -1.20000
AFIX   0
C12   1    0.818524    0.312509    0.814227    11.00000    0.01550    0.02434 =
         0.02253    0.00118   -0.00181   -0.00269
AFIX  43
H12   2    0.858718    0.320041    0.824537    11.00000   -1.20000
AFIX   0
C13   1    0.780856    0.283650    0.825080    11.00000    0.01776    0.02236 =
         0.02240    0.00232   -0.00472    0.00004
AFIX  43
H13   2    0.789469    0.267245    0.843834    11.00000   -1.20000
AFIX   0
C14   1    0.442809    0.341141    0.801431    11.00000    0.01332    0.01491 =
         0.01706   -0.00201    0.00099   -0.00117
AFIX  43
H14   2    0.475580    0.349447    0.786517    11.00000   -1.20000
AFIX   0
C15   1    0.349643    0.328713    0.822996    11.00000    0.00876    0.02070 =
         0.02277   -0.00266    0.00286    0.00008
AFIX  43
H15   2    0.303902    0.326976    0.825551    11.00000   -1.20000
AFIX   0
C16   1    0.394862    0.316730    0.846113    11.00000    0.01478    0.01858 =
         0.01907    0.00186    0.00241   -0.00014
AFIX  43
H16   2    0.387140    0.305168    0.867437    11.00000   -1.20000
AFIX   0
C17   1    0.516668    0.315362    0.847380    11.00000    0.01208    0.01867 =
         0.01699   -0.00244   -0.00027    0.00053
C18   1    0.569044    0.339672    0.843456    11.00000    0.01519    0.01524 =
         0.01551    0.00133    0.00233    0.00003
AFIX  43
H18   2    0.564928    0.362645    0.830775    11.00000   -1.20000
AFIX   0
C19   1    0.628325    0.329089    0.858899    11.00000    0.01098    0.01818 =
         0.01695    0.00041    0.00319   -0.00123
C20   1    0.634521    0.295608    0.877448    11.00000    0.01531    0.01834 =
         0.01924    0.00142    0.00029    0.00109
AFIX  43
H20   2    0.675522    0.288837    0.887288    11.00000   -1.20000
AFIX   0
C21   1    0.581092    0.271856    0.881748    11.00000    0.01879    0.01869 =
         0.01795    0.00188    0.00432    0.00156
C22   1    0.521498    0.281932    0.866516    11.00000    0.01464    0.01675 =
         0.01961   -0.00004    0.00287   -0.00213
AFIX  43
H22   2    0.484449    0.266092    0.869180    11.00000   -1.20000
AFIX   0
C23   1    0.587997    0.235490    0.902055    11.00000    0.01769    0.02409 =
         0.02666    0.00591    0.00300   -0.00022
AFIX 137
H23A  2    0.584666    0.241318    0.926257    11.00000   -1.50000
H23B  2    0.630437    0.223888    0.897850    11.00000   -1.50000
H23C  2    0.553373    0.217651    0.895244    11.00000   -1.50000
AFIX   0
C24   1    0.695909    0.378651    0.830832    11.00000    0.01453    0.01447 =
         0.01727    0.00082    0.00141    0.00131
AFIX  43
H24   2    0.669310    0.381951    0.811038    11.00000   -1.20000
AFIX   0
C25   1    0.733066    0.357543    0.880357    11.00000    0.01399    0.02646 =
         0.01784    0.00255   -0.00254   -0.00271
AFIX  43
H25   2    0.737904    0.343869    0.901065    11.00000   -1.20000
AFIX   0
C26   1    0.773763    0.384654    0.868313    11.00000    0.01437    0.02265 =
         0.01679    0.00202   -0.00056   -0.00147
AFIX  43
H26   2    0.812362    0.393400    0.879506    11.00000   -1.20000
AFIX   0
C27   1    0.411190    0.435496    0.779815    11.00000    0.01445    0.01759 =
         0.02030   -0.00012    0.00088    0.00144
AFIX  43
H27   2    0.451025    0.421781    0.781267    11.00000   -1.20000
AFIX   0
C28   1    0.311773    0.450980    0.768951    11.00000    0.01518    0.02222 =
         0.03446   -0.00392   -0.00175    0.00319
AFIX  43
H28   2    0.267810    0.449467    0.761118    11.00000   -1.20000
AFIX   0
C29   1    0.339249    0.481671    0.783895    11.00000    0.01664    0.01893 =
         0.03167   -0.00407   -0.00341    0.00484
AFIX  43
H29   2    0.318847    0.505384    0.788544    11.00000   -1.20000
AFIX   0
C30   1    0.449206    0.493464    0.811322    11.00000    0.01933    0.01797 =
         0.02164    0.00057   -0.00271   -0.00023
C31   1    0.514885    0.487433    0.807026    11.00000    0.02184    0.01501 =
         0.02522   -0.00024   -0.00086    0.00056
AFIX  43
H31   2    0.530004    0.469559    0.790886    11.00000   -1.20000
AFIX   0
C32   1    0.558182    0.508559    0.827262    11.00000    0.01487    0.01992 =
         0.02299    0.00104    0.00171    0.00168
C33   1    0.536227    0.535188    0.850749    11.00000    0.02466    0.02195 =
         0.02157   -0.00166   -0.00247   -0.00141
AFIX  43
H33   2    0.566695    0.549313    0.864179    11.00000   -1.20000
AFIX   0
C34   1    0.469669    0.541111    0.854549    11.00000    0.02575    0.01736 =
         0.02801   -0.00088    0.00433    0.00034
C35   1    0.426068    0.519758    0.834780    11.00000    0.01824    0.02310 =
         0.02848    0.00002    0.00362   -0.00048
AFIX  43
H35   2    0.380561    0.523078    0.837252    11.00000   -1.20000
AFIX   0
C36   1    0.446020    0.570572    0.879230    11.00000    0.03145    0.02555 =
         0.03582   -0.00890    0.00830   -0.00063
AFIX 137
H36A  2    0.448829    0.596005    0.868999    11.00000   -1.50000
H36B  2    0.473124    0.569734    0.899980    11.00000   -1.50000
H36C  2    0.400721    0.565139    0.884767    11.00000   -1.50000
AFIX   0
C37   1    0.657758    0.472569    0.809789    11.00000    0.01602    0.01637 =
         0.02498   -0.00151   -0.00165    0.00130
AFIX  43
H37   2    0.636149    0.451670    0.799088    11.00000   -1.20000
AFIX   0
C38   1    0.674785    0.527169    0.836062    11.00000    0.01673    0.01847 =
         0.03468   -0.00493   -0.00032   -0.00478
AFIX  43
H38   2    0.668842    0.551100    0.846907    11.00000   -1.20000
AFIX   0
C39   1    0.731774    0.509663    0.830218    11.00000    0.01585    0.01774 =
         0.02917   -0.00335   -0.00145   -0.00153
AFIX  43
H39   2    0.773371    0.519445    0.836614    11.00000   -1.20000
AFIX   0
C40   1    0.434955    0.450476    0.699967    11.00000    0.01631    0.01875 =
         0.02443    0.00024   -0.00209    0.00178
AFIX  43
H40   2    0.471557    0.436238    0.707920    11.00000   -1.20000
AFIX   0
C41   1    0.343304    0.466138    0.676485    11.00000    0.01681    0.02786 =
         0.03763   -0.00172   -0.00973   -0.00075
AFIX  43
H41   2    0.302680    0.464073    0.664663    11.00000   -1.20000
AFIX   0
C42   1    0.368395    0.498903    0.689224    11.00000    0.01550    0.02379 =
         0.04014    0.00066   -0.00778    0.00478
AFIX  43
H42   2    0.349712    0.523689    0.687937    11.00000   -1.20000
AFIX   0
C43   1    0.471269    0.513713    0.722341    11.00000    0.01976    0.02100 =
         0.02471    0.00272   -0.00341   -0.00210
C44   1    0.537784    0.506431    0.720733    11.00000    0.01654    0.01935 =
         0.03500    0.00004   -0.00156    0.00086
AFIX  43
H44   2    0.553961    0.485289    0.708403    11.00000   -1.20000
AFIX   0
C45   1    0.579499    0.531439    0.737951    11.00000    0.01878    0.02218 =
         0.02696    0.00381   -0.00257    0.00189
C46   1    0.556458    0.562800    0.755476    11.00000    0.02068    0.02364 =
         0.02890   -0.00020   -0.00472   -0.00165
AFIX  43
H46   2    0.586145    0.579460    0.766873    11.00000   -1.20000
AFIX   0
C47   1    0.489642    0.569940    0.756401    11.00000    0.02288    0.02287 =
         0.03408    0.00194   -0.00151    0.00254
C48   1    0.447173    0.544928    0.739815    11.00000    0.01922    0.02609 =
         0.03071    0.00066   -0.00284    0.00448
AFIX  43
H48   2    0.401578    0.549181    0.740427    11.00000   -1.20000
AFIX   0
C49   1    0.464736    0.603623    0.775382    11.00000    0.02747    0.02537 =
         0.04351   -0.00722   -0.00608    0.00512
AFIX 137
H49A  2    0.422460    0.611356    0.765669    11.00000   -1.50000
H49B  2    0.495600    0.624824    0.773649    11.00000   -1.50000
H49C  2    0.459807    0.596789    0.799282    11.00000   -1.50000
AFIX   0
C50   1    0.677950    0.490818    0.730953    11.00000    0.01661    0.01692 =
         0.02675    0.00153   -0.00317    0.00063
AFIX  43
H50   2    0.655800    0.467222    0.727851    11.00000   -1.20000
AFIX   0
C51   1    0.753459    0.532869    0.736472    11.00000    0.01524    0.02058 =
         0.02977   -0.00039   -0.00257   -0.00257
AFIX  43
H51   2    0.795452    0.544134    0.738087    11.00000   -1.20000
AFIX   0
C52   1    0.696320    0.552120    0.739398    11.00000    0.01877    0.01720 =
         0.03631   -0.00237   -0.00340   -0.00216
AFIX  43
H52   2    0.690831    0.578744    0.742974    11.00000   -1.20000
AFIX   0
C53   1    0.488812    0.385056    0.637770    11.00000    0.01523    0.03161 =
         0.01995   -0.00672    0.00288   -0.00293
AFIX  43
H53   2    0.508653    0.400689    0.654757    11.00000   -1.20000
AFIX   0
C54   1    0.420136    0.350074    0.609979    11.00000    0.02168    0.03251 =
         0.02091   -0.00743   -0.00077   -0.00434
C55   1    0.473251    0.352403    0.590627    11.00000    0.01822    0.04008 =
         0.02261   -0.00842   -0.00041   -0.00550
C56   1    0.580402    0.386016    0.597395    11.00000    0.01779    0.03902 =
         0.02003   -0.00482    0.00370   -0.00489
C57   1    0.628502    0.395528    0.621031    11.00000    0.01995    0.03348 =
         0.01573   -0.00197    0.00145   -0.00301
AFIX  43
H57   2    0.620597    0.394059    0.644634    11.00000   -1.20000
AFIX   0
C58   1    0.688473    0.407247    0.609478    11.00000    0.01861    0.03092 =
         0.01805   -0.00114   -0.00183   -0.00400
C59   1    0.701092    0.408438    0.574878    11.00000    0.01551    0.04997 =
         0.02000    0.00017    0.00304   -0.00460
AFIX  43
H59   2    0.742466    0.416504    0.567368    11.00000   -1.20000
AFIX   0
C60   1    0.652740    0.397742    0.551328    11.00000    0.02516    0.05767 =
         0.01595   -0.00286    0.00169   -0.00583
C61   1    0.592334    0.387050    0.562760    11.00000    0.02215    0.05674 =
         0.01605   -0.00508   -0.00076   -0.00808
AFIX  43
H61   2    0.558752    0.380367    0.546912    11.00000   -1.20000
AFIX   0
C62   1    0.665703    0.398523    0.513690    11.00000    0.02864    0.10051 =
         0.01773   -0.00319    0.00438   -0.01287
AFIX 137
H62A  2    0.656418    0.373335    0.503890    11.00000   -1.50000
H62B  2    0.711406    0.405061    0.510180    11.00000   -1.50000
H62C  2    0.637672    0.417678    0.502644    11.00000   -1.50000
AFIX   0
C63   1    0.731883    0.427463    0.666185    11.00000    0.01741    0.02996 =
         0.01801   -0.00005   -0.00177   -0.00320
AFIX  43
H63   2    0.691367    0.428316    0.677272    11.00000   -1.20000
AFIX   0
C64   1    0.804522    0.420116    0.626593    11.00000    0.01454    0.02962 =
         0.02506   -0.00250    0.00173   -0.00044
C65   1    0.833782    0.431274    0.655939    11.00000    0.01444    0.03184 =
         0.02273   -0.00098    0.00161   -0.00043
AFIX  43
H65   2    0.879207    0.435319    0.659104    11.00000   -1.20000
AFIX   0
C66   1    0.502950    0.298806    0.671092    11.00000    0.01104    0.02487 =
         0.01846   -0.00505    0.00002    0.00135
AFIX  43
H66   2    0.520777    0.318008    0.685558    11.00000   -1.20000
AFIX   0
C67   1    0.437510    0.257465    0.648220    11.00000    0.01352    0.02963 =
         0.02525   -0.01020   -0.00144   -0.00147
AFIX  43
H67   2    0.399924    0.242219    0.644129    11.00000   -1.20000
AFIX   0
C68   1    0.491473    0.256937    0.629265    11.00000    0.01521    0.03561 =
         0.02639   -0.01527   -0.00250    0.00012
AFIX  43
H68   2    0.498998    0.241660    0.609839    11.00000   -1.20000
AFIX   0
C69   1    0.596301    0.293035    0.632511    11.00000    0.01399    0.03179 =
         0.01990   -0.00417    0.00243   -0.00062
C70   1    0.643875    0.305230    0.655814    11.00000    0.01607    0.02279 =
         0.01657   -0.00271    0.00197    0.00164
AFIX  43
H70   2    0.634855    0.307409    0.679252    11.00000   -1.20000
AFIX   0
C71   1    0.704911    0.314090    0.643625    11.00000    0.01242    0.02479 =
         0.02181   -0.00342    0.00081    0.00140
C72   1    0.718584    0.310943    0.609315    11.00000    0.01052    0.03875 =
         0.02128   -0.00343    0.00203    0.00240
AFIX  43
H72   2    0.760395    0.317551    0.601383    11.00000   -1.20000
AFIX   0
C73   1    0.670309    0.298000    0.586713    11.00000    0.01811    0.04945 =
         0.01666   -0.00613    0.00177    0.00255
C74   1    0.609295    0.289199    0.598538    11.00000    0.01586    0.05026 =
         0.01817   -0.00812   -0.00185   -0.00148
AFIX  43
H74   2    0.576227    0.280482    0.583202    11.00000   -1.20000
AFIX   0
C75   1    0.685264    0.293676    0.549606    11.00000    0.02026    0.08089 =
         0.01851   -0.00972    0.00405   -0.00292
AFIX 137
H75A  2    0.689899    0.266524    0.544143    11.00000   -1.50000
H75B  2    0.725896    0.307048    0.544786    11.00000   -1.50000
H75C  2    0.649704    0.304650    0.535803    11.00000   -1.50000
AFIX   0
C76   1    0.749603    0.340947    0.698267    11.00000    0.01347    0.02054 =
         0.01780   -0.00177    0.00046    0.00119
AFIX  43
H76   2    0.709383    0.346083    0.708748    11.00000   -1.20000
AFIX   0
C77   1    0.852051    0.336110    0.688850    11.00000    0.01164    0.02349 =
         0.02768   -0.00224    0.00105    0.00092
AFIX  43
H77   2    0.897905    0.337390    0.692198    11.00000   -1.20000
AFIX   0
C78   1    0.821708    0.323351    0.660383    11.00000    0.01168    0.02493 =
         0.02325   -0.00505    0.00399    0.00245
AFIX  43
H78   2    0.841440    0.314294    0.640373    11.00000   -1.20000
AFIX   0
C79   1    0.854044    0.115326    0.405860    11.00000    0.01337    0.01742 =
         0.01541    0.00255   -0.00002   -0.00127
AFIX  43
H79   2    0.854414    0.128966    0.426686    11.00000   -1.20000
AFIX   0
C80   1    0.821877    0.087103    0.360007    11.00000    0.02311    0.02084 =
         0.01802   -0.00262   -0.00314    0.00226
AFIX  43
H80   2    0.794199    0.077251    0.342486    11.00000   -1.20000
AFIX   0
C81   1    0.887209    0.084213    0.360981    11.00000    0.02491    0.02390 =
         0.01514   -0.00235   -0.00221    0.00379
AFIX  43
H81   2    0.913647    0.072107    0.344715    11.00000   -1.20000
AFIX   0
C82   1    0.974206    0.105388    0.401920    11.00000    0.01302    0.02272 =
         0.01306    0.00270    0.00015    0.00162
C83   1    1.018458    0.077637    0.392011    11.00000    0.01767    0.01813 =
         0.01752    0.00298    0.00357    0.00057
AFIX  43
H83   2    1.004782    0.057373    0.377507    11.00000   -1.20000
AFIX   0
C84   1    1.083748    0.079850    0.403677    11.00000    0.01590    0.02161 =
         0.01976    0.00514    0.00499    0.00496
C85   1    1.102082    0.109233    0.425058    11.00000    0.01279    0.02837 =
         0.01639    0.00333    0.00231    0.00411
AFIX  43
H85   2    1.145564    0.110460    0.433668    11.00000   -1.20000
AFIX   0
C86   1    1.057616    0.137112    0.434170    11.00000    0.01455    0.02639 =
         0.01349    0.00172    0.00184    0.00281
C87   1    0.993015    0.135764    0.422571    11.00000    0.01785    0.02333 =
         0.01451    0.00071    0.00214    0.00285
AFIX  43
H87   2    0.962848    0.155016    0.428609    11.00000   -1.20000
AFIX   0
C88   1    1.133209    0.050614    0.393676    11.00000    0.01971    0.02184 =
         0.02864    0.00268    0.00602    0.00492
AFIX 137
H88A  2    1.156121    0.059598    0.373669    11.00000   -1.50000
H88B  2    1.111235    0.026434    0.388377    11.00000   -1.50000
H88C  2    1.164542    0.046734    0.412457    11.00000   -1.50000
AFIX   0
C89   1    1.042603    0.192286    0.472851    11.00000    0.01188    0.02889 =
         0.01799   -0.00074    0.00206    0.00010
AFIX  43
H89   2    0.996539    0.190993    0.473914    11.00000   -1.20000
AFIX   0
C90   1    1.142308    0.209823    0.480428    11.00000    0.01536    0.05313 =
         0.03013   -0.01914   -0.00102   -0.00277
AFIX  43
H90   2    1.179519    0.223658    0.488167    11.00000   -1.20000
AFIX   0
C91   1    1.143522    0.179124    0.460061    11.00000    0.01024    0.06031 =
         0.02919   -0.01946    0.00054    0.00093
AFIX  43
H91   2    1.180989    0.167544    0.450849    11.00000   -1.20000
AFIX   0
C92   1    0.851261    0.054568    0.465360    11.00000    0.01652    0.01755 =
         0.01497    0.00112   -0.00019    0.00095
AFIX  43
H92   2    0.852077    0.073281    0.482804    11.00000   -1.20000
AFIX   0
C93   1    0.818115    0.016201    0.425905    11.00000    0.02020    0.03032 =
         0.02766   -0.01196   -0.00811    0.00383
AFIX  43
H93   2    0.790257    0.002731    0.410528    11.00000   -1.20000
AFIX   0
C94   1    0.883612    0.012393    0.428017    11.00000    0.03153    0.03180 =
         0.02652   -0.01392   -0.00974    0.00917
AFIX  43
H94   2    0.909702   -0.003782    0.414574    11.00000   -1.20000
AFIX   0
C95   1    0.970428    0.039412    0.466402    11.00000    0.01744    0.01814 =
         0.01368    0.00271   -0.00053    0.00077
C96   1    1.014793    0.011528    0.457818    11.00000    0.02157    0.01671 =
         0.01484    0.00068    0.00122    0.00106
AFIX  43
H96   2    1.001509   -0.008911    0.443414    11.00000   -1.20000
AFIX   0
C97   1    1.078745    0.013172    0.470114    11.00000    0.01962    0.01879 =
         0.01511    0.00272    0.00427    0.00210
C98   1    1.096969    0.042740    0.491804    11.00000    0.01322    0.02052 =
         0.01891    0.00162    0.00235    0.00202
AFIX  43
H98   2    1.139985    0.043709    0.501083    11.00000   -1.20000
AFIX   0
C99   1    1.052265    0.070949    0.499954    11.00000    0.01328    0.01883 =
         0.01776   -0.00193    0.00182    0.00073
C100  1    0.988523    0.069998    0.487175    11.00000    0.01598    0.01797 =
         0.01675   -0.00001    0.00009    0.00337
AFIX  43
H100  2    0.958382    0.089562    0.492453    11.00000   -1.20000
AFIX   0
C101  1    1.126711   -0.017173    0.459959    11.00000    0.02249    0.01969 =
         0.02362    0.00037    0.00276    0.00521
AFIX 137
H10D  2    1.168883   -0.012280    0.471206    11.00000   -1.50000
H10E  2    1.131737   -0.016617    0.435314    11.00000   -1.50000
H10F  2    1.110643   -0.042317    0.466765    11.00000   -1.50000
AFIX   0
C102  1    1.035975    0.130531    0.534394    11.00000    0.01452    0.01988 =
         0.02066   -0.00122    0.00089    0.00114
AFIX  43
H102  2    0.990136    0.132410    0.531255    11.00000   -1.20000
AFIX   0
C103  1    1.134114    0.141640    0.550379    11.00000    0.01583    0.05679 =
         0.07494   -0.04064   -0.00315    0.00227
AFIX  43
H103  2    1.171077    0.153432    0.560791    11.00000   -1.20000
AFIX   0
C104  1    1.135510    0.109420    0.532064    11.00000    0.01031    0.05704 =
         0.08128   -0.04485   -0.00365    0.00767
AFIX  43
H104  2    1.172860    0.094505    0.527410    11.00000   -1.20000
AFIX   0
C105  1    0.736119    0.078638    0.528715    11.00000    0.01252    0.01755 =
         0.01572    0.00246   -0.00138    0.00011
AFIX  43
H105  2    0.757437    0.101335    0.521844    11.00000   -1.20000
AFIX   0
C106  1    0.683627    0.025209    0.527953    11.00000    0.01842    0.01912 =
         0.02181    0.00244   -0.00245   -0.00583
AFIX  43
H106  2    0.661169    0.003236    0.519775    11.00000   -1.20000
AFIX   0
C107  1    0.695578    0.033277    0.561045    11.00000    0.01645    0.01895 =
         0.01928    0.00399   -0.00006   -0.00580
AFIX  43
H107  2    0.683234    0.018512    0.580055    11.00000   -1.20000
AFIX   0
C108  1    0.751436    0.087395    0.591085    11.00000    0.01709    0.01566 =
         0.01383    0.00170   -0.00310    0.00039
C109  1    0.811380    0.105370    0.591506    11.00000    0.01539    0.01689 =
         0.01357    0.00253    0.00021    0.00067
AFIX  43
H109  2    0.837995    0.105140    0.572129    11.00000   -1.20000
AFIX   0
C110  1    0.831457    0.123789    0.621191    11.00000    0.01592    0.01494 =
         0.01787    0.00138   -0.00152    0.00088
C111  1    0.792642    0.124349    0.649703    11.00000    0.02071    0.01795 =
         0.01493   -0.00115   -0.00019    0.00339
AFIX  43
H111  2    0.807060    0.137382    0.669618    11.00000   -1.20000
AFIX   0
C112  1    0.732699    0.105789    0.648984    11.00000    0.01820    0.01914 =
         0.01625    0.00402    0.00313    0.00405
C113  1    0.712185    0.087330    0.619534    11.00000    0.01264    0.02030 =
         0.01926    0.00369    0.00146    0.00047
AFIX  43
H113  2    0.671360    0.074616    0.618702    11.00000   -1.20000
AFIX   0
C114  1    0.691404    0.105292    0.680092    11.00000    0.02586    0.02915 =
         0.01843    0.00114    0.00488    0.00093
AFIX 137
H11A  2    0.645882    0.100749    0.673361    11.00000   -1.50000
H11B  2    0.695087    0.129926    0.691771    11.00000   -1.50000
H11C  2    0.706405    0.084877    0.695362    11.00000   -1.50000
AFIX   0
C115  1    0.924996    0.159052    0.597229    11.00000    0.01652    0.01656 =
         0.01615   -0.00216   -0.00010    0.00069
AFIX  43
H115  2    0.908069    0.161389    0.574712    11.00000   -1.20000
AFIX   0
C116  1    0.987808    0.163001    0.641660    11.00000    0.01462    0.02317 =
         0.01985   -0.00418   -0.00579    0.00071
AFIX  43
H116  2    1.024233    0.168912    0.655959    11.00000   -1.20000
AFIX   0
C117  1    0.933957    0.144059    0.651508    11.00000    0.02057    0.02318 =
         0.01709   -0.00245   -0.00386    0.00317
AFIX  43
H117  2    0.925450    0.134511    0.673513    11.00000   -1.20000
AFIX   0
C118  1    0.639432    0.156166    0.529843    11.00000    0.01544    0.02364 =
         0.01466    0.00416   -0.00041   -0.00201
AFIX  43
H118  2    0.665578    0.176536    0.521939    11.00000   -1.20000
AFIX   0
C119  1    0.579009    0.106164    0.531542    11.00000    0.01235    0.02308 =
         0.02375    0.00165    0.00114   -0.00413
AFIX  43
H119  2    0.554549    0.084436    0.524502    11.00000   -1.20000
AFIX   0
C120  1    0.586989    0.117969    0.564000    11.00000    0.01450    0.02270 =
         0.02091    0.00316    0.00388   -0.00345
AFIX  43
H120  2    0.569317    0.106523    0.583592    11.00000   -1.20000
AFIX   0
C121  1    0.648521    0.172016    0.591160    11.00000    0.01579    0.02120 =
         0.01483    0.00359   -0.00105    0.00065
C122  1    0.710488    0.187558    0.590773    11.00000    0.01213    0.01924 =
         0.01503    0.00096    0.00266    0.00141
AFIX  43
H122  2    0.737202    0.184898    0.571575    11.00000   -1.20000
AFIX   0
C123  1    0.732025    0.207110    0.619405    11.00000    0.01459    0.01950 =
         0.01762    0.00115    0.00067   -0.00019
C124  1    0.693655    0.211174    0.647724    11.00000    0.01952    0.02295 =
         0.01586   -0.00309    0.00121    0.00251
AFIX  43
H124  2    0.709758    0.224852    0.666948    11.00000   -1.20000
AFIX   0
C125  1    0.631711    0.195248    0.647965    11.00000    0.01631    0.02716 =
         0.01903    0.00008    0.00421    0.00189
C126  1    0.608904    0.175877    0.619226    11.00000    0.01286    0.02861 =
         0.02005    0.00333    0.00155    0.00016
AFIX  43
H126  2    0.566351    0.165287    0.618730    11.00000   -1.20000
AFIX   0
C127  1    0.590873    0.198974    0.679122    11.00000    0.02125    0.04573 =
         0.02164   -0.00302    0.00801    0.00127
AFIX 137
H12A  2    0.600022    0.177513    0.694450    11.00000   -1.50000
H12B  2    0.544681    0.198815    0.672418    11.00000   -1.50000
H12C  2    0.601404    0.223013    0.690726    11.00000   -1.50000
AFIX   0
C128  1    0.830992    0.237177    0.594989    11.00000    0.01229    0.02151 =
         0.01640   -0.00258    0.00169   -0.00154
AFIX  43
H128  2    0.815006    0.239530    0.572296    11.00000   -1.20000
AFIX   0
C129  1    0.892858    0.239641    0.639865    11.00000    0.01794    0.02061 =
         0.01720   -0.00529   -0.00213    0.00202
AFIX  43
H129  2    0.929585    0.244261    0.654337    11.00000   -1.20000
AFIX   0
C130  1    0.836545    0.223717    0.649661    11.00000    0.01557    0.02288 =
         0.01642   -0.00420   -0.00040    0.00060
AFIX  43
H130  2    0.826218    0.215414    0.671829    11.00000   -1.20000
AFIX   0
C131  1    0.667501    0.209463    0.457704    11.00000    0.01321    0.01944 =
         0.01525    0.00036    0.00136   -0.00009
AFIX  43
H131  2    0.707635    0.201336    0.467702    11.00000   -1.20000
AFIX   0
C132  1    0.568673    0.210017    0.438008    11.00000    0.01430    0.02819 =
         0.03208    0.00603   -0.00612   -0.00113
AFIX  43
H132  2    0.526044    0.201754    0.431775    11.00000   -1.20000
AFIX   0
C133  1    0.592179    0.245752    0.433528    11.00000    0.01750    0.02419 =
         0.03460    0.00559   -0.00704    0.00041
AFIX  43
H133  2    0.569804    0.266851    0.423602    11.00000   -1.20000
AFIX   0
C134  1    0.698607    0.277299    0.447803    11.00000    0.01408    0.01732 =
         0.01990   -0.00196    0.00235    0.00013
C135  1    0.744970    0.279481    0.473874    11.00000    0.01382    0.01808 =
         0.01502   -0.00015    0.00233    0.00173
AFIX  43
H135  2    0.750015    0.259440    0.489955    11.00000   -1.20000
AFIX   0
C136  1    0.783837    0.312019    0.475677    11.00000    0.01489    0.01746 =
         0.01764   -0.00042    0.00044    0.00110
C137  1    0.778429    0.340970    0.451808    11.00000    0.02097    0.01460 =
         0.02348   -0.00059    0.00198   -0.00112
AFIX  43
H137  2    0.806255    0.362594    0.453280    11.00000   -1.20000
AFIX   0
C138  1    0.731921    0.338194    0.425613    11.00000    0.02261    0.01920 =
         0.02183    0.00298    0.00052    0.00349
C139  1    0.691740    0.306206    0.423751    11.00000    0.02198    0.02111 =
         0.01909    0.00141   -0.00234    0.00302
AFIX  43
H139  2    0.659711    0.304115    0.406105    11.00000   -1.20000
AFIX   0
C140  1    0.725675    0.369539    0.399389    11.00000    0.03843    0.02219 =
         0.02914    0.00866   -0.00363   -0.00106
AFIX 137
H14A  2    0.706527    0.359084    0.378386    11.00000   -1.50000
H14B  2    0.768821    0.380008    0.394853    11.00000   -1.50000
H14C  2    0.697629    0.389849    0.407926    11.00000   -1.50000
AFIX   0
C141  1    0.860367    0.288621    0.521373    11.00000    0.01529    0.01713 =
         0.01671    0.00093    0.00209   -0.00068
AFIX  43
H141  2    0.858545    0.262221    0.515882    11.00000   -1.20000
AFIX   0
C142  1    0.883115    0.342059    0.546193    11.00000    0.02576    0.02021 =
         0.02822   -0.00515   -0.00508   -0.00348
AFIX  43
H142  2    0.900998    0.360016    0.561869    11.00000   -1.20000
AFIX   0
C143  1    0.842743    0.350929    0.519490    11.00000    0.02316    0.01582 =
         0.02980   -0.00163   -0.00294   -0.00112
AFIX  43
H143  2    0.827581    0.375561    0.513024    11.00000   -1.20000
AFIX   0
C144  1    0.765171    0.196202    0.396483    11.00000    0.01428    0.01771 =
         0.01598    0.00218    0.00029   -0.00176
AFIX  43
H144  2    0.800353    0.189054    0.411173    11.00000   -1.20000
AFIX   0
C145  1    0.675012    0.195217    0.367630    11.00000    0.02039    0.02481 =
         0.02275    0.00410   -0.00684   -0.00236
AFIX  43
H145  2    0.634613    0.186730    0.358199    11.00000   -1.20000
AFIX   0
C146  1    0.702179    0.230007    0.362337    11.00000    0.02188    0.02283 =
         0.02346    0.00498   -0.00804    0.00029
AFIX  43
H146  2    0.684747    0.250044    0.348670    11.00000   -1.20000
AFIX   0
C147  1    0.806925    0.260316    0.381208    11.00000    0.01483    0.01690 =
         0.01781    0.00017    0.00398    0.00101
C148  1    0.848979    0.263554    0.409067    11.00000    0.01494    0.01727 =
         0.01594    0.00153    0.00406   -0.00052
AFIX  43
H148  2    0.847601    0.246011    0.427411    11.00000   -1.20000
AFIX   0
C149  1    0.893591    0.293823    0.408987    11.00000    0.01458    0.01819 =
         0.01970   -0.00163    0.00204    0.00065
C150  1    0.895807    0.319159    0.382093    11.00000    0.02205    0.01605 =
         0.02508    0.00211    0.00570   -0.00262
AFIX  43
H150  2    0.927162    0.339092    0.382370    11.00000   -1.20000
AFIX   0
C151  1    0.852713    0.315675    0.354815    11.00000    0.02218    0.01881 =
         0.02229    0.00283    0.00544    0.00351
C152  1    0.808391    0.285856    0.354106    11.00000    0.02067    0.02073 =
         0.01851    0.00279    0.00169    0.00146
AFIX  43
H152  2    0.779196    0.282831    0.335280    11.00000   -1.20000
AFIX   0
C153  1    0.853122    0.344161    0.325819    11.00000    0.03732    0.02576 =
         0.02758    0.01024   -0.00037   -0.00438
AFIX 137
H15A  2    0.826317    0.366285    0.331539    11.00000   -1.50000
H15B  2    0.835462    0.332059    0.305183    11.00000   -1.50000
H15C  2    0.897851    0.352532    0.322012    11.00000   -1.50000
AFIX   0
C154  1    0.956497    0.272093    0.460438    11.00000    0.01563    0.02174 =
         0.01867   -0.00154    0.00285   -0.00140
AFIX  43
H154  2    0.943724    0.246026    0.459757    11.00000   -1.20000
AFIX   0
C155  1    1.001588    0.325037    0.475370    11.00000    0.03948    0.02630 =
         0.03605   -0.00102   -0.00889   -0.01353
AFIX  43
H155  2    1.027176    0.343079    0.487747    11.00000   -1.20000
AFIX   0
C156  1    0.965051    0.333034    0.447319    11.00000    0.03771    0.02252 =
         0.03807    0.00136   -0.00813   -0.01255
AFIX  43
H156  2    0.960378    0.357115    0.436441    11.00000   -1.20000
AFIX   0
C157  1    0.833869    0.454474    0.298982    11.00000    0.22100    0.37154 =
         0.43666    0.33704   -0.21083   -0.20484
C158  1    0.828484    0.456300    0.253852    11.00000    0.11402    0.10065 =
         0.24469    0.00429   -0.07780   -0.00313
C159  1    0.968407    0.336634    0.227063    11.00000    0.07301    0.06546 =
         0.07502   -0.00904    0.00673    0.02287
C160  1    0.696957    0.898907    0.459345    11.00000    0.10690    0.16260 =
         0.35051    0.16803   -0.11802   -0.06428
C161  1    0.822845    0.564115    0.657963    11.00000    0.06350    0.02303 =
         0.04092    0.00392   -0.00008    0.00039
O169  4    0.550655    0.991801    0.484020    10.30000    0.00930    0.01250 =
         0.01501    0.00354   -0.00178   -0.00480
O170  4    0.304815    0.361270    0.386325    10.50000    0.19801
HKLF 4

REM  CF solution in P21/n
REM R1 =  0.0674 for   46658 Fo > 4sig(Fo)  and  0.0794 for all   55711 data
REM   3594 parameters refined using     12 restraints

END

WGHT      0.1133    128.3693

REM Highest difference peak  2.731,  deepest hole -2.358,  1-sigma level  0.137
Q1    1   0.5815  0.4630  0.6572  11.00000  0.05    1.65
Q2    1   0.1584  0.3609  0.4566  11.00000  0.05    1.60
Q3    1   1.2109  0.1965  0.6553  11.00000  0.05    1.58
Q4    1   0.3053  0.4023  0.3940  11.00000  0.05    1.56
Q5    1   0.4400  0.0915  0.6175  11.00000  0.05    1.52
Q6    1   0.3865  0.3500  0.3059  11.00000  0.05    1.51
Q7    1   1.3196  0.2609  0.5695  11.00000  0.05    1.50
Q8    1   0.6975  0.9024  0.4677  11.00000  0.05    1.49
Q9    1   0.6669  0.5100  0.5670  11.00000  0.05    1.38
Q10   1   0.4238  0.2973  0.3006  11.00000  0.05    1.33
Q11   1   0.4256  0.3632  0.2941  11.00000  0.05    1.33
Q12   1   0.8961  0.3897  0.2510  11.00000  0.05    1.29
Q13   1   1.3340  0.1770  0.6689  11.00000  0.05    1.29
Q14   1   0.4595  0.1171  0.6289  11.00000  0.05    1.29
Q15   1   0.3319  0.6615  0.6801  11.00000  0.05    1.28
Q16   1   1.2308  0.2069  0.5985  11.00000  0.05    1.23
Q17   1   0.4970  0.2281  0.5484  11.00000  0.05    1.22
Q18   1   0.3908  0.4320  0.5347  11.00000  0.05    1.19
Q19   1   0.3230  0.4082  0.4169  11.00000  0.05    1.18
Q20   1   0.7075  0.2418  0.2639  11.00000  0.05    1.14
Q21   1   0.4802  0.4894  0.6273  11.00000  0.05    1.13
Q22   1   0.2341  0.5281  0.5442  11.00000  0.05    1.12
Q23   1   0.7085  0.4987  0.5017  11.00000  0.05    1.11
Q24   1   0.7512  0.4743  0.1482  11.00000  0.05    1.05
Q25   1   0.4960  0.2907  0.2546  11.00000  0.05    1.05
;
_shelx_res_checksum              93513
#END Tags that were not found in dictionaries
loop_
_space_group_symop_operation_xyz
'x, y, z'
'-x+1/2, y+1/2, -z+1/2'
'-x, -y, -z'
'x-1/2, -y-1/2, z-1/2'
loop_
_atom_site_label
_atom_site_type_symbol
_atom_site_fract_x
_atom_site_fract_y
_atom_site_fract_z
_atom_site_U_iso_or_equiv
_atom_site_adp_type
_atom_site_occupancy
_atom_site_site_symmetry_order
_atom_site_calc_flag
_atom_site_refinement_flags_posn
_atom_site_refinement_flags_adp
_atom_site_refinement_flags_occupancy
Ni1 Ni 0.24031(3) 0.33770(2) 0.69562(2) 0.01599(14) Uani 1 1 d . . .
Ni2 Ni 0.36016(3) 0.37958(2) 0.67523(2) 0.01614(14) Uani 1 1 d . . .
Ni3 Ni 0.33323(3) 0.36645(2) 0.75242(2) 0.01471(14) Uani 1 1 d . . .
Ni4 Ni 0.37394(3) 0.29868(2) 0.70772(2) 0.01594(14) Uani 1 1 d . . .
Ni5 Ni 0.79560(3) 0.43584(2) 0.80656(2) 0.01338(13) Uani 1 1 d . . .
Ni6 Ni 0.81175(3) 0.45319(2) 0.72972(2) 0.01401(14) Uani 1 1 d . . .
Ni7 Ni 0.83552(3) 0.37122(2) 0.75802(2) 0.01389(14) Uani 1 1 d . . .
Ni8 Ni 0.93128(3) 0.43798(2) 0.77302(2) 0.01359(14) Uani 1 1 d . . .
Ni9 Ni 1.11014(3) 0.28265(2) 0.59109(2) 0.02024(15) Uani 1 1 d . . .
Ni10 Ni 1.04817(3) 0.20317(2) 0.58070(2) 0.01680(14) Uani 1 1 d . . .
Ni11 Ni 0.96098(3) 0.27606(2) 0.57970(2) 0.01543(14) Uani 1 1 d . . .
Ni12 Ni 1.05404(3) 0.26099(2) 0.52070(2) 0.01891(15) Uani 1 1 d . . .
Ni13 Ni 0.60948(3) 0.12826(2) 0.45797(2) 0.01523(14) Uani 1 1 d . . .
Ni14 Ni 0.70069(3) 0.05682(2) 0.45551(2) 0.01531(14) Uani 1 1 d . . .
Ni15 Ni 0.70367(3) 0.11711(2) 0.39789(2) 0.01466(14) Uani 1 1 d . . .
Ni16 Ni 0.58616(3) 0.06544(2) 0.40275(2) 0.01519(14) Uani 1 1 d . . .
S1 S 0.22430(5) 0.39540(3) 0.63007(3) 0.0196(2) Uani 1 1 d . . .
S2 S 0.93694(5) 0.51135(3) 0.72581(2) 0.01771(19) Uani 1 1 d . . .
S3 S 0.58540(5) 0.38514(3) 0.73701(3) 0.0203(2) Uani 1 1 d . . .
S4 S 0.02443(4) 0.28386(3) 0.70176(2) 0.01683(19) Uani 1 1 d . . .
S5 S 0.61460(4) 0.10041(3) 0.33001(2) 0.01632(19) Uani 1 1 d . . .
S6 S 0.85092(5) 0.17113(3) 0.49725(2) 0.01751(19) Uani 1 1 d . . .
S7 S 1.25520(7) 0.24417(5) 0.60747(4) 0.0427(3) Uani 1 1 d . . .
S8 S 0.44232(5) 0.04506(3) 0.42788(2) 0.0188(2) Uani 1 1 d . . .
O1 O 0.29484(13) 0.31551(8) 0.73499(7) 0.0169(5) Uani 1 1 d . . .
O2 O 0.28675(13) 0.38556(8) 0.70903(7) 0.0161(5) Uani 1 1 d . . .
O3 O 0.40395(12) 0.35417(8) 0.71734(7) 0.0157(5) Uani 1 1 d . . .
O4 O 0.32097(13) 0.32527(8) 0.67001(7) 0.0177(6) Uani 1 1 d . . .
O5 O 0.31636(15) 0.24613(9) 0.69879(8) 0.0245(6) Uani 1 1 d . . .
O6 O 0.19480(13) 0.28521(9) 0.68638(8) 0.0208(6) Uani 1 1 d . . .
O7 O 0.16097(13) 0.35615(9) 0.72398(7) 0.0194(6) Uani 1 1 d . . .
O8 O 0.24482(13) 0.36959(9) 0.78064(7) 0.0221(6) Uani 1 1 d . . .
O9 O 0.29588(14) 0.39769(9) 0.63347(7) 0.0220(6) Uani 1 1 d . . .
O10 O 0.19907(13) 0.36405(9) 0.65169(7) 0.0202(6) Uani 1 1 d . . .
O11 O 0.19498(15) 0.43200(9) 0.64083(9) 0.0272(7) Uani 1 1 d . . .
O12 O 0.20509(16) 0.38770(10) 0.59456(8) 0.0279(7) Uani 1 1 d . . .
O13 O 0.76598(12) 0.41376(7) 0.76003(7) 0.0137(5) Uani 1 1 d . . .
O14 O 0.87480(13) 0.40068(8) 0.79900(7) 0.0146(5) Uani 1 1 d . . .
O15 O 0.84946(13) 0.47005(8) 0.77650(7) 0.0147(5) Uani 1 1 d . . .
O16 O 0.88428(13) 0.41402(8) 0.73319(7) 0.0149(5) Uani 1 1 d . . .
O17 O 0.92246(14) 0.33689(9) 0.76275(8) 0.0215(6) Uani 1 1 d . . .
O18 O 0.85120(14) 0.46238(9) 0.84802(7) 0.0196(6) Uani 1 1 d . . .
O19 O 1.00679(13) 0.40005(8) 0.76263(7) 0.0174(6) Uani 1 1 d . . .
O20 O 0.97516(13) 0.46163(8) 0.81685(7) 0.0168(5) Uani 1 1 d . . .
O21 O 0.88043(14) 0.49395(8) 0.70738(7) 0.0191(6) Uani 1 1 d . . .
O22 O 0.97547(13) 0.48073(8) 0.74319(7) 0.0182(6) Uani 1 1 d . . .
O23 O 0.97859(15) 0.53104(9) 0.70164(8) 0.0252(6) Uani 1 1 d . . .
O24 O 0.91370(14) 0.53909(8) 0.75124(8) 0.0212(6) Uani 1 1 d . . .
O25 O 0.00966(14) 0.31496(8) 0.67718(7) 0.0198(6) Uani 1 1 d . . .
O26 O 0.08099(15) 0.29554(10) 0.72330(8) 0.0251(7) Uani 1 1 d . . .
O27 O -0.03152(15) 0.27711(9) 0.72297(8) 0.0247(6) Uani 1 1 d . . .
O28 O 0.04153(17) 0.24914(10) 0.68292(8) 0.0304(7) Uani 1 1 d . . .
O29 O 0.98557(13) 0.23156(8) 0.54779(7) 0.0163(5) Uani 1 1 d . . .
O30 O 1.03524(13) 0.25198(8) 0.60921(7) 0.0181(6) Uani 1 1 d . . .
O31 O 1.04006(13) 0.30142(8) 0.55772(7) 0.0190(6) Uani 1 1 d . . .
O32 O 1.11428(13) 0.23892(9) 0.55807(7) 0.0203(6) Uani 1 1 d . . .
O33 O 1.13489(17) 0.29585(11) 0.50496(9) 0.0355(8) Uani 1 1 d . . .
O34 O 0.94787(14) 0.32238(9) 0.61424(7) 0.0203(6) Uani 1 1 d . . .
O35 O 1.09815(15) 0.32559(9) 0.62574(8) 0.0237(6) Uani 1 1 d . . .
O36 O 1.18610(15) 0.31572(10) 0.56956(8) 0.0301(7) Uani 1 1 d . . .
O37 O 1.1829(9) 0.2108(6) 0.6241(5) 0.0387(7) Uani 0.2 1 d . . P
O38 O 1.1861(2) 0.25532(14) 0.62180(12) 0.0387(7) Uani 0.8 1 d . . P
O39 O 1.24636(18) 0.22155(12) 0.57661(10) 0.0387(7) Uani 1 1 d . . .
O40 O 1.29285(17) 0.27930(12) 0.60024(10) 0.0386(9) Uani 1 1 d . . .
O41 O 1.2893(2) 0.22114(14) 0.63382(11) 0.0485(10) Uani 1 1 d . . .
O42 O 0.70624(13) 0.11560(8) 0.45030(7) 0.0154(5) Uani 1 1 d . . .
O43 O 0.60160(13) 0.06894(8) 0.45433(7) 0.0163(5) Uani 1 1 d . . .
O44 O 0.60427(13) 0.12200(8) 0.40672(7) 0.0164(5) Uani 1 1 d . . .
O45 O 0.68407(13) 0.06081(8) 0.40429(7) 0.0160(5) Uani 1 1 d . . .
O46 O 0.67391(17) -0.00253(9) 0.45219(8) 0.0275(7) Uani 1 1 d . . .
O47 O 0.50348(14) 0.13318(9) 0.46098(8) 0.0239(6) Uani 1 1 d . . .
O48 O 0.58035(15) 0.00624(9) 0.39759(8) 0.0238(6) Uani 1 1 d . . .
O49 O 0.68062(13) 0.10826(9) 0.34415(7) 0.0185(6) Uani 1 1 d . . .
O50 O 0.57360(14) 0.13508(9) 0.33090(7) 0.0204(6) Uani 1 1 d . . .
O51 O 0.58216(13) 0.06960(9) 0.34955(7) 0.0185(6) Uani 1 1 d . . .
O52 O 0.62048(14) 0.08753(9) 0.29460(7) 0.0201(6) Uani 1 1 d . . .
O53 O 0.48403(14) 0.06682(9) 0.40389(7) 0.0197(6) Uani 1 1 d . . .
O54 O 0.46143(15) 0.00444(9) 0.42763(8) 0.0258(7) Uani 1 1 d . . .
O55 O 0.45245(16) 0.06054(10) 0.46242(8) 0.0273(7) Uani 1 1 d . . .
O56 O 0.37400(14) 0.04926(9) 0.41687(7) 0.0220(6) Uani 1 1 d . . .
O57 O 0.87612(17) 0.18545(12) 0.46446(9) 0.0360(8) Uani 1 1 d . . .
O58 O 0.88306(18) 0.13405(11) 0.50724(11) 0.0252(8) Uani 0.8 1 d . . P
O59 O 0.9052(11) 0.1734(7) 0.5184(6) 0.053(6) Uani 0.2 1 d . . P
O60 O 0.86535(17) 0.19903(10) 0.52414(9) 0.0186(7) Uani 0.8 1 d . . P
O61 O 0.7971(10) 0.1979(7) 0.5129(7) 0.055(6) Uani 0.2 1 d . . P
O62 O 0.78046(17) 0.16418(11) 0.49420(9) 0.0197(7) Uani 0.8 1 d . . P
O63 O 0.8213(12) 0.1378(6) 0.4882(5) 0.047(5) Uani 0.2 1 d . . P
O64 O 0.6485(4) 0.3733(2) 0.7489(2) 0.0370(17) Uani 0.5 1 d . . P
O65 O 0.6299(2) 0.40151(15) 0.76152(13) 0.0139(10) Uani 0.5 1 d . . P
O66 O 0.5594(4) 0.4102(2) 0.7689(2) 0.0441(19) Uani 0.5 1 d . . P
O67 O 0.5185(2) 0.38659(15) 0.74552(13) 0.0113(10) Uani 0.5 1 d . . P
O68 O 0.5378(4) 0.3552(2) 0.7335(2) 0.0404(18) Uani 0.5 1 d . . P
O69 O 0.6042(3) 0.34264(15) 0.73177(15) 0.0179(11) Uani 0.5 1 d . . P
O70 O 0.59190(19) 0.40692(13) 0.70486(10) 0.0464(10) Uani 1 1 d . . .
O71 O 0.3937(3) 0.69100(18) 0.78418(19) 0.091(2) Uani 1 1 d . . .
O72 O 0.2964(9) 0.6898(5) 0.7316(6) 0.149(9) Uani 0.5 1 d . . P
O73 O 0.2960(3) 0.64266(19) 0.8003(2) 0.101(2) Uani 1 1 d . . .
O74 O 0.7307(2) 0.93595(12) 0.48012(10) 0.0462(10) Uani 1 1 d . . .
O76 O 0.7022(3) 0.69769(18) 0.77447(15) 0.0804(17) Uani 1 1 d . . .
O77 O 0.7039(8) 0.7391(3) 0.7625(2) 0.201(7) Uani 1 1 d . . .
O78 O 0.3114(4) 0.5984(3) 0.6967(3) 0.137(4) Uani 1 1 d . . .
O79 O 0.5654(6) 0.6976(3) 0.7715(3) 0.140(4) Uani 1 1 d . . .
O80 O 0.4697(3) 0.74552(16) 0.67958(15) 0.0688(14) Uani 1 1 d . . .
O81 O 0.5289(6) 0.7646(4) 0.6700(5) 0.238(9) Uani 1 1 d . . .
O82 O 0.5300(6) 0.6874(3) 0.5902(3) 0.183(6) Uani 1 1 d . . .
O83 O 0.4453(2) 0.94686(11) 0.37838(9) 0.0392(9) Uani 1 1 d . . .
O84 O 0.5907(12) 0.6239(6) 0.5779(8) 0.384(17) Uani 1 1 d . . .
O85 O 0.6279(4) 0.7179(5) 0.4548(2) 0.211(8) Uani 1 1 d . . .
O86 O 0.5437(3) 0.8391(2) 0.41781(18) 0.0897(19) Uani 1 1 d . . .
O87 O 0.5978(7) 0.8248(4) 0.4011(5) 0.263(10) Uani 1 1 d . . .
O88 O 0.81455(19) 0.52374(10) 0.65346(9) 0.0358(8) Uani 1 1 d . . .
O89 O 0.6665(4) 0.9159(3) 0.3678(2) 0.124(3) Uani 1 1 d . . .
O90 O 0.9164(2) 0.58504(14) 0.57978(12) 0.0564(11) Uani 1 1 d . . .
O91 O 0.7659(11) 0.5742(5) 0.5067(4) 0.286(10) Uani 1 1 d . . .
O92 O 0.7280(14) 0.5027(9) 0.5323(8) 0.402(15) Uiso 1 1 d . . .
O93 O 0.4871(14) 0.5488(10) 0.5159(8) 0.231(15) Uani 0.5 1 d . . P
O94 O 0.9075(5) 0.4493(2) 0.56135(15) 0.109(3) Uani 1 1 d . . .
O95 O 0.8687(9) 0.5246(5) 0.4461(7) 0.153(9) Uani 0.5 1 d . . P
O96 O 0.8391(7) 0.5673(4) 0.4557(3) 0.095(5) Uani 0.5 1 d . . P
O97 O 0.9877(2) 0.39527(11) 0.59263(11) 0.0472(10) Uani 1 1 d . . .
O98 O 0.9232(11) 0.6152(7) 0.4571(8) 0.117(11) Uani 0.4 1 d . . P
O99 O 0.9485(5) 0.6138(4) 0.4669(2) 0.047(3) Uani 0.6 1 d . . P
O100 O 0.8792(3) 0.42068(16) 0.44966(17) 0.0795(17) Uani 1 1 d . . .
O101 O 0.83080(16) 0.56873(10) 0.28960(9) 0.0291(7) Uani 1 1 d . . .
O102 O 0.9851(2) 0.49448(11) 0.36018(11) 0.0483(10) Uani 1 1 d . . .
O103 O 0.7841(7) 0.4431(3) 0.3343(4) 0.207(7) Uani 1 1 d . . .
O104 O 0.8122(5) 0.4698(3) 0.2111(3) 0.144(4) Uani 1 1 d . . .
O105 O 0.7880(9) 0.4898(3) 0.1397(3) 0.090(5) Uani 0.5 1 d . . P
O106 O 0.8099(6) 0.5016(4) 0.1626(6) 0.106(6) Uani 0.5 1 d . . P
O107 O 0.9247(3) 0.36203(16) 0.24437(15) 0.0690(14) Uani 1 1 d . . .
O108 O 0.7102(3) 0.42542(17) 0.2359(2) 0.100(2) Uani 1 1 d . . .
O109 O 0.7278(2) 0.23271(14) 0.28157(12) 0.0360(10) Uani 0.8 1 d . . P
O110 O 0.5641(14) 0.4853(6) 0.5340(7) 0.195(12) Uani 0.5 1 d . . P
O111 O 0.515(2) 0.4853(4) 0.6271(7) 0.28(2) Uani 0.5 1 d . . P
O112 O 0.4902(8) 0.4688(5) 0.5915(6) 0.119(6) Uani 0.5 1 d . . P
O113 O 0.4227(8) 0.5639(7) 0.5858(6) 0.311(12) Uani 1 1 d . . .
O114 O 0.10827(16) 0.47857(11) 0.75563(9) 0.0337(8) Uani 1 1 d . . .
O115 O 0.0035(2) 0.60877(13) 0.63072(12) 0.0520(11) Uani 1 1 d . . .
O116 O 0.00486(15) 0.39203(9) 0.69510(8) 0.0241(6) Uani 1 1 d . . .
O117 O 0.05887(16) 0.43234(9) 0.64210(8) 0.0271(7) Uani 1 1 d . . .
O118 O 0.0978(11) 0.5476(6) 0.6098(7) 0.057(6) Uani 0.3 1 d . . P
O119 O 0.1044(6) 0.5633(3) 0.6193(3) 0.066(3) Uani 0.7 1 d . . P
O120 O 0.0029(18) 0.4907(5) 0.5198(7) 0.26(2) Uani 0.5 1 d . . P
O121 O 0.0070(3) 0.42695(19) 0.47724(16) 0.0834(18) Uani 1 1 d . . .
O122 O 0.1818(5) 0.5520(3) 0.4895(4) 0.161(4) Uani 1 1 d . . .
O123 O 0.2194(5) 0.5081(3) 0.6214(4) 0.197(7) Uani 1 1 d . . .
O124 O 0.3128(5) 0.5138(4) 0.5796(5) 0.241(9) Uani 1 1 d . . .
O125 O 0.3652(4) 0.4409(2) 0.5866(2) 0.121(3) Uani 1 1 d . . .
O126 O 0.2937(16) 0.3888(9) 0.5394(5) 0.190(13) Uani 0.5 1 d . . P
O127 O 0.3496(9) 0.3888(9) 0.5274(4) 0.155(10) Uani 0.5 1 d . . P
O128 O 0.0999(3) 0.48903(14) 0.39752(12) 0.0573(12) Uani 1 1 d . . .
O129 O 0.2399(3) 0.1455(2) 0.6310(2) 0.094(2) Uani 1 1 d . . .
O130 O 0.2214(3) 0.3078(2) 0.45427(17) 0.0859(18) Uani 1 1 d . . .
O131 O 0.2046(4) 0.3836(2) 0.4349(2) 0.101(2) Uani 1 1 d . . .
O132 O 0.3287(12) 0.3292(5) 0.5032(4) 0.140(8) Uani 0.5 1 d . . P
O133 O 0.3092(6) 0.4882(3) 0.3738(5) 0.266(11) Uani 1 1 d . . .
O134 O 0.4648(13) 0.3922(8) 0.4935(5) 0.174(10) Uani 0.5 1 d . . P
O135 O 0.3239(10) 0.2698(5) 0.4812(4) 0.253(8) Uani 1 1 d . . .
O136 O 0.3177(3) 0.2003(2) 0.51565(18) 0.096(2) Uani 1 1 d . . .
O137 O 0.5301(7) 0.3258(5) 0.4868(4) 0.238(8) Uani 1 1 d . . .
O138 O 0.5025(11) 0.4319(7) 0.3561(6) 0.152(8) Uiso 0.5 1 d . . P
O139 O 0.5286(12) 0.2416(7) 0.5226(6) 0.056(6) Uiso 0.2 1 d . . P
O140 O 0.4984(4) 0.2661(5) 0.5346(2) 0.153(6) Uani 0.8 1 d . . P
O141 O 0.3731(10) 0.4238(8) 0.3514(7) 0.192(13) Uani 0.5 1 d . . P
O142 O 0.4581(9) 0.1820(5) 0.5155(4) 0.086(5) Uani 0.5 1 d . . P
O143 O 0.4424(7) 0.1606(4) 0.5166(4) 0.069(4) Uani 0.5 1 d . . P
O144 O 0.4104(16) 0.0984(9) 0.5553(8) 0.216(12) Uiso 0.5 1 d . . P
O145 O 0.4422(3) 0.08320(19) 0.5895(2) 0.0334(16) Uani 0.5 1 d . . P
O146 O 0.3952(4) 0.2468(3) 0.4242(3) 0.122(3) Uani 1 1 d . . .
O147 O 0.3253(4) 0.3596(4) 0.3208(3) 0.171(5) Uani 1 1 d . . .
O148 O 0.3312(10) 0.3033(8) 0.3635(6) 0.172(10) Uani 0.5 1 d . . P
O149 O 0.2743(5) 0.2723(4) 0.3986(3) 0.175(6) Uani 1 1 d . . .
O150 O 0.2993(2) 0.15936(16) 0.45311(12) 0.0568(12) Uani 1 1 d . . .
O151 O 0.2466(3) 0.35724(15) 0.26561(14) 0.0639(13) Uani 1 1 d . . .
O152 O 0.27304(19) 0.08108(14) 0.45432(10) 0.0456(10) Uani 1 1 d . . .
O153 O 0.41633(18) 0.16927(12) 0.41511(10) 0.0396(9) Uani 1 1 d . . .
O154 O 0.3625(7) 0.3545(3) 0.2301(4) 0.208(7) Uani 1 1 d . . .
O155 O 0.45021(15) 0.12630(9) 0.35898(8) 0.0237(6) Uani 1 1 d . . .
O156 O 0.59901(18) 0.20015(10) 0.29230(8) 0.0331(8) Uani 1 1 d . . .
O157 O 0.5277(6) 0.3159(3) 0.2741(3) 0.158(4) Uani 1 1 d . . .
O158 O 1.12081(16) 0.18723(10) 0.61891(9) 0.0297(7) Uani 1 1 d . . .
O159 O 0.98099(18) 0.53863(9) 0.81163(8) 0.0301(7) Uani 1 1 d . . .
O160 O 0.99445(19) 0.60920(11) 0.70208(11) 0.0417(9) Uani 1 1 d . . .
O161 O 0.7011(8) 0.2590(5) 0.2698(4) 0.031(4) Uani 0.2 1 d . U P
O162 O 0.4339(5) 0.6227(3) 0.6754(3) 0.146(4) Uani 1 1 d . . .
O163 O 0.4322(3) 0.68861(18) 0.63482(14) 0.0758(17) Uani 1 1 d . . .
O164 O 0.8800(2) 0.61709(12) 0.74231(11) 0.0474(10) Uani 1 1 d . . .
O165 O 0.5536(3) 0.9686(2) 0.47204(15) 0.0398(13) Uani 0.7 1 d . U P
O166 O 0.1891(3) 0.67512(16) 0.76682(16) 0.0722(15) Uani 1 1 d . . .
O167 O 0.0943(3) 0.58173(18) 0.80596(17) 0.089(2) Uani 1 1 d . . .
O168 O 0.6223(7) 0.7241(4) 0.7683(4) 0.197(6) Uani 1 1 d . . .
N1 N 0.42249(16) 0.27191(10) 0.74738(9) 0.0184(7) Uani 1 1 d . . .
N2 N 0.50051(16) 0.24856(10) 0.78057(9) 0.0180(7) Uani 1 1 d . . .
N3 N 0.72684(16) 0.28280(10) 0.80322(9) 0.0166(7) Uani 1 1 d . . .
N4 N 0.79025(16) 0.32950(10) 0.78600(9) 0.0166(7) Uani 1 1 d . . .
N5 N 0.38002(16) 0.34386(9) 0.79510(8) 0.0156(6) Uani 1 1 d . . .
N6 N 0.45457(16) 0.32476(9) 0.83234(8) 0.0153(6) Uani 1 1 d . . .
N7 N 0.68288(16) 0.35379(10) 0.85632(8) 0.0154(6) Uani 1 1 d . . .
N8 N 0.75029(16) 0.39756(10) 0.83722(8) 0.0152(6) Uani 1 1 d . . .
N9 N 0.35718(16) 0.42184(10) 0.76667(8) 0.0168(7) Uani 1 1 d . . .
N10 N 0.40324(17) 0.47179(10) 0.79115(9) 0.0197(7) Uani 1 1 d . . .
N11 N 0.62685(17) 0.50345(10) 0.82318(9) 0.0205(7) Uani 1 1 d . . .
N12 N 0.72107(16) 0.47549(10) 0.81361(8) 0.0163(6) Uani 1 1 d . . .
N13 N 0.38538(17) 0.43588(10) 0.68314(9) 0.0182(7) Uani 1 1 d . . .
N14 N 0.42731(17) 0.48870(11) 0.70461(10) 0.0224(7) Uani 1 1 d . . .
N15 N 0.64798(17) 0.52487(10) 0.73608(10) 0.0224(7) Uani 1 1 d . . .
N16 N 0.74149(17) 0.49475(10) 0.73084(8) 0.0170(7) Uani 1 1 d . . .
N17 N 0.43028(17) 0.37088(11) 0.63951(9) 0.0204(7) Uani 1 1 d . . .
N18 N 0.51778(17) 0.37460(12) 0.60855(9) 0.0236(8) Uani 1 1 d . . .
N19 N 0.73910(17) 0.41727(11) 0.63319(9) 0.0204(7) Uani 1 1 d . . .
N20 N 0.78796(17) 0.43595(10) 0.68069(9) 0.0185(7) Uani 1 1 d . . .
N21 N 0.44496(16) 0.28327(10) 0.67427(9) 0.0189(7) Uani 1 1 d . . .
N22 N 0.53355(16) 0.28336(11) 0.64410(9) 0.0200(7) Uani 1 1 d . . .
N23 N 0.75572(16) 0.32620(10) 0.66639(9) 0.0169(7) Uani 1 1 d . . .
N24 N 0.80728(16) 0.34701(10) 0.71236(9) 0.0163(6) Uani 1 1 d . . .
N25 N 0.80111(16) 0.10648(10) 0.38820(8) 0.0162(6) Uani 1 1 d . . .
N26 N 0.90811(16) 0.10237(9) 0.39036(8) 0.0156(6) Uani 1 1 d . . .
N27 N 1.07956(17) 0.16761(11) 0.45508(9) 0.0202(7) Uani 1 1 d . . .
N28 N 1.07869(17) 0.21831(12) 0.48847(9) 0.0223(7) Uani 1 1 d . . .
N29 N 0.79783(17) 0.04262(10) 0.44947(9) 0.0190(7) Uani 1 1 d . . .
N30 N 0.90511(17) 0.03666(10) 0.45357(8) 0.0170(7) Uani 1 1 d . . .
N31 N 1.07280(17) 0.10203(11) 0.52130(9) 0.0216(7) Uani 1 1 d . . .
N32 N 1.07148(17) 0.15516(11) 0.55192(10) 0.0231(8) Uani 1 1 d . . .
N33 N 0.70890(16) 0.05365(10) 0.50774(8) 0.0164(6) Uani 1 1 d . . .
N34 N 0.72950(16) 0.06748(10) 0.56157(8) 0.0155(6) Uani 1 1 d . . .
N35 N 0.89390(16) 0.14148(10) 0.62293(8) 0.0162(6) Uani 1 1 d . . .
N36 N 0.98184(16) 0.17241(10) 0.60778(9) 0.0168(7) Uani 1 1 d . . .
N37 N 0.61171(16) 0.13039(10) 0.51009(8) 0.0173(7) Uani 1 1 d . . .
N38 N 0.62607(16) 0.15007(10) 0.56293(8) 0.0170(7) Uani 1 1 d . . .
N39 N 0.79687(16) 0.22193(10) 0.62088(8) 0.0161(6) Uani 1 1 d . . .
N40 N 0.88922(16) 0.24824(10) 0.60566(8) 0.0163(6) Uani 1 1 d . . .
N41 N 0.61643(16) 0.18738(10) 0.45309(8) 0.0170(7) Uani 1 1 d . . .
N42 N 0.65550(16) 0.24530(10) 0.44636(9) 0.0171(7) Uani 1 1 d . . .
N43 N 0.82847(16) 0.31656(10) 0.50378(9) 0.0170(7) Uani 1 1 d . . .
N44 N 0.89429(16) 0.30319(10) 0.54718(9) 0.0180(7) Uani 1 1 d . . .
N45 N 0.71538(16) 0.17417(10) 0.38887(8) 0.0165(7) Uani 1 1 d . . .
N46 N 0.75998(16) 0.23051(10) 0.38069(8) 0.0169(7) Uani 1 1 d . . .
N47 N 0.93598(17) 0.29914(10) 0.43773(9) 0.0190(7) Uani 1 1 d . . .
N48 N 0.99625(17) 0.28693(11) 0.48335(9) 0.0216(7) Uani 1 1 d . . .
C1 C 0.4863(2) 0.26930(12) 0.75242(11) 0.0193(8) Uani 1 1 d . . .
H1 H 0.5178 0.2805 0.7382 0.023 Uiso 1 1 calc R U .
C2 C 0.3951(2) 0.25215(13) 0.77353(11) 0.0233(9) Uani 1 1 d . . .
H2 H 0.3497 0.2492 0.7767 0.028 Uiso 1 1 calc R U .
C3 C 0.4424(2) 0.23741(13) 0.79416(12) 0.0242(9) Uani 1 1 d . . .
H3 H 0.4367 0.2224 0.8140 0.029 Uiso 1 1 calc R U .
C4 C 0.5642(2) 0.23907(12) 0.79342(10) 0.0179(8) Uani 1 1 d . . .
C5 C 0.5735(2) 0.20430(12) 0.80966(11) 0.0205(8) Uani 1 1 d . . .
H5 H 0.5385 0.1867 0.8112 0.025 Uiso 1 1 calc R U .
C6 C 0.6342(2) 0.19521(12) 0.82369(11) 0.0221(8) Uani 1 1 d . . .
C7 C 0.6850(2) 0.22120(12) 0.82060(11) 0.0208(8) Uani 1 1 d . . .
H7 H 0.7269 0.2151 0.8296 0.025 Uiso 1 1 calc R U .
C8 C 0.6748(2) 0.25586(11) 0.80447(10) 0.0171(8) Uani 1 1 d . . .
C9 C 0.61397(19) 0.26565(11) 0.79053(10) 0.0165(8) Uani 1 1 d . . .
H9 H 0.6069 0.2895 0.7795 0.020 Uiso 1 1 calc R U .
C10 C 0.6452(2) 0.15791(13) 0.84190(13) 0.0277(10) Uani 1 1 d . . .
H10A H 0.6913 0.1509 0.8410 0.042 Uiso 1 1 calc R U .
H10B H 0.6187 0.1379 0.8310 0.042 Uiso 1 1 calc R U .
H10C H 0.6327 0.1606 0.8656 0.042 Uiso 1 1 calc R U .
C11 C 0.73494(19) 0.31100(11) 0.78015(10) 0.0171(8) Uani 1 1 d . . .
H11 H 0.7049 0.3167 0.7622 0.020 Uiso 1 1 calc R U .
C12 C 0.8185(2) 0.31251(12) 0.81423(11) 0.0208(8) Uani 1 1 d . . .
H12 H 0.8587 0.3200 0.8245 0.025 Uiso 1 1 calc R U .
C13 C 0.7809(2) 0.28365(12) 0.82508(11) 0.0209(8) Uani 1 1 d . . .
H13 H 0.7895 0.2672 0.8438 0.025 Uiso 1 1 calc R U .
C14 C 0.44281(19) 0.34114(11) 0.80143(10) 0.0151(7) Uani 1 1 d . . .
H14 H 0.4756 0.3494 0.7865 0.018 Uiso 1 1 calc R U .
C15 C 0.34964(19) 0.32871(12) 0.82300(10) 0.0174(8) Uani 1 1 d . . .
H15 H 0.3039 0.3270 0.8256 0.021 Uiso 1 1 calc R U .
C16 C 0.39486(19) 0.31673(12) 0.84611(10) 0.0174(8) Uani 1 1 d . . .
H16 H 0.3871 0.3052 0.8674 0.021 Uiso 1 1 calc R U .
C17 C 0.51667(19) 0.31536(11) 0.84738(10) 0.0159(7) Uani 1 1 d . . .
C18 C 0.56904(19) 0.33967(11) 0.84346(10) 0.0153(7) Uani 1 1 d . . .
H18 H 0.5649 0.3626 0.8308 0.018 Uiso 1 1 calc R U .
C19 C 0.62832(18) 0.32909(11) 0.85890(10) 0.0153(7) Uani 1 1 d . . .
C20 C 0.6345(2) 0.29561(12) 0.87745(10) 0.0176(8) Uani 1 1 d . . .
H20 H 0.6755 0.2888 0.8873 0.021 Uiso 1 1 calc R U .
C21 C 0.5811(2) 0.27186(12) 0.88175(10) 0.0184(8) Uani 1 1 d . . .
C22 C 0.52150(19) 0.28193(11) 0.86652(10) 0.0170(8) Uani 1 1 d . . .
H22 H 0.4844 0.2661 0.8692 0.020 Uiso 1 1 calc R U .
C23 C 0.5880(2) 0.23549(13) 0.90206(11) 0.0228(9) Uani 1 1 d . . .
H23A H 0.5847 0.2413 0.9263 0.034 Uiso 1 1 calc R U .
H23B H 0.6304 0.2239 0.8978 0.034 Uiso 1 1 calc R U .
H23C H 0.5534 0.2177 0.8952 0.034 Uiso 1 1 calc R U .
C24 C 0.69591(19) 0.37865(11) 0.83083(10) 0.0154(7) Uani 1 1 d . . .
H24 H 0.6693 0.3820 0.8110 0.018 Uiso 1 1 calc R U .
C25 C 0.73307(19) 0.35754(12) 0.88036(10) 0.0195(8) Uani 1 1 d . . .
H25 H 0.7379 0.3439 0.9011 0.023 Uiso 1 1 calc R U .
C26 C 0.7738(2) 0.38465(12) 0.86831(10) 0.0179(8) Uani 1 1 d . . .
H26 H 0.8124 0.3934 0.8795 0.022 Uiso 1 1 calc R U .
C27 C 0.4112(2) 0.43550(12) 0.77981(10) 0.0174(8) Uani 1 1 d . . .
H27 H 0.4510 0.4218 0.7813 0.021 Uiso 1 1 calc R U .
C28 C 0.3118(2) 0.45098(13) 0.76895(12) 0.0240(9) Uani 1 1 d . . .
H28 H 0.2678 0.4495 0.7611 0.029 Uiso 1 1 calc R U .
C29 C 0.3392(2) 0.48167(12) 0.78390(12) 0.0225(9) Uani 1 1 d . . .
H29 H 0.3188 0.5054 0.7885 0.027 Uiso 1 1 calc R U .
C30 C 0.4492(2) 0.49346(12) 0.81132(11) 0.0197(8) Uani 1 1 d . . .
C31 C 0.5149(2) 0.48743(12) 0.80703(11) 0.0207(8) Uani 1 1 d . . .
H31 H 0.5300 0.4696 0.7909 0.025 Uiso 1 1 calc R U .
C32 C 0.5582(2) 0.50856(12) 0.82726(11) 0.0192(8) Uani 1 1 d . . .
C33 C 0.5362(2) 0.53519(13) 0.85075(11) 0.0228(9) Uani 1 1 d . . .
H33 H 0.5667 0.5493 0.8642 0.027 Uiso 1 1 calc R U .
C34 C 0.4697(2) 0.54111(12) 0.85455(12) 0.0237(9) Uani 1 1 d . . .
C35 C 0.4261(2) 0.51976(13) 0.83478(11) 0.0232(9) Uani 1 1 d . . .
H35 H 0.3806 0.5231 0.8373 0.028 Uiso 1 1 calc R U .
C36 C 0.4460(2) 0.57057(14) 0.87923(13) 0.0308(10) Uani 1 1 d . . .
H36A H 0.4488 0.5960 0.8690 0.046 Uiso 1 1 calc R U .
H36B H 0.4731 0.5697 0.9000 0.046 Uiso 1 1 calc R U .
H36C H 0.4007 0.5651 0.8848 0.046 Uiso 1 1 calc R U .
C37 C 0.6578(2) 0.47257(12) 0.80979(11) 0.0192(8) Uani 1 1 d . . .
H37 H 0.6361 0.4517 0.7991 0.023 Uiso 1 1 calc R U .
C38 C 0.6748(2) 0.52717(12) 0.83606(12) 0.0233(9) Uani 1 1 d . . .
H38 H 0.6688 0.5511 0.8469 0.028 Uiso 1 1 calc R U .
C39 C 0.7318(2) 0.50966(12) 0.83022(11) 0.0209(8) Uani 1 1 d . . .
H39 H 0.7734 0.5194 0.8366 0.025 Uiso 1 1 calc R U .
C40 C 0.4350(2) 0.45048(12) 0.69997(11) 0.0199(8) Uani 1 1 d . . .
H40 H 0.4716 0.4362 0.7079 0.024 Uiso 1 1 calc R U .
C41 C 0.3433(2) 0.46614(14) 0.67648(13) 0.0276(10) Uani 1 1 d . . .
H41 H 0.3027 0.4641 0.6647 0.033 Uiso 1 1 calc R U .
C42 C 0.3684(2) 0.49890(13) 0.68922(13) 0.0266(9) Uani 1 1 d . . .
H42 H 0.3497 0.5237 0.6879 0.032 Uiso 1 1 calc R U .
C43 C 0.4713(2) 0.51371(12) 0.72234(11) 0.0219(8) Uani 1 1 d . . .
C44 C 0.5378(2) 0.50643(13) 0.72073(12) 0.0237(9) Uani 1 1 d . . .
H44 H 0.5540 0.4853 0.7084 0.028 Uiso 1 1 calc R U .
C45 C 0.5795(2) 0.53144(13) 0.73795(11) 0.0227(9) Uani 1 1 d . . .
C46 C 0.5565(2) 0.56280(13) 0.75548(12) 0.0245(9) Uani 1 1 d . . .
H46 H 0.5861 0.5795 0.7669 0.029 Uiso 1 1 calc R U .
C47 C 0.4896(2) 0.56994(13) 0.75640(12) 0.0266(9) Uani 1 1 d . . .
C48 C 0.4472(2) 0.54493(13) 0.73982(12) 0.0254(9) Uani 1 1 d . . .
H48 H 0.4016 0.5492 0.7404 0.030 Uiso 1 1 calc R U .
C49 C 0.4647(2) 0.60362(14) 0.77538(14) 0.0322(11) Uani 1 1 d . . .
H49A H 0.4225 0.6114 0.7657 0.048 Uiso 1 1 calc R U .
H49B H 0.4956 0.6248 0.7736 0.048 Uiso 1 1 calc R U .
H49C H 0.4598 0.5968 0.7993 0.048 Uiso 1 1 calc R U .
C50 C 0.6780(2) 0.49082(12) 0.73095(11) 0.0201(8) Uani 1 1 d . . .
H50 H 0.6558 0.4672 0.7279 0.024 Uiso 1 1 calc R U .
C51 C 0.7535(2) 0.53287(12) 0.73647(11) 0.0219(8) Uani 1 1 d . . .
H51 H 0.7955 0.5441 0.7381 0.026 Uiso 1 1 calc R U .
C52 C 0.6963(2) 0.55212(13) 0.73940(12) 0.0242(9) Uani 1 1 d . . .
H52 H 0.6908 0.5787 0.7430 0.029 Uiso 1 1 calc R U .
C53 C 0.4888(2) 0.38506(13) 0.63777(11) 0.0222(9) Uani 1 1 d . . .
H53 H 0.5087 0.4007 0.6548 0.027 Uiso 1 1 calc R U .
C54 C 0.4201(2) 0.35007(14) 0.60998(11) 0.0251(9) Uani 1 1 d . . .
C55 C 0.4733(2) 0.35240(15) 0.59063(11) 0.0270(10) Uani 1 1 d . . .
C56 C 0.5804(2) 0.38602(14) 0.59740(11) 0.0256(9) Uani 1 1 d . . .
C57 C 0.6285(2) 0.39553(13) 0.62103(11) 0.0230(9) Uani 1 1 d . . .
H57 H 0.6206 0.3941 0.6446 0.028 Uiso 1 1 calc R U .
C58 C 0.6885(2) 0.40725(13) 0.60948(11) 0.0226(9) Uani 1 1 d . . .
C59 C 0.7011(2) 0.40844(16) 0.57488(11) 0.0285(10) Uani 1 1 d . . .
H59 H 0.7425 0.4165 0.5674 0.034 Uiso 1 1 calc R U .
C60 C 0.6527(2) 0.39774(17) 0.55133(11) 0.0329(11) Uani 1 1 d . . .
C61 C 0.5923(2) 0.38705(16) 0.56276(11) 0.0317(11) Uani 1 1 d . . .
H61 H 0.5588 0.3804 0.5469 0.038 Uiso 1 1 calc R U .
C62 C 0.6657(3) 0.3985(2) 0.51369(13) 0.0489(17) Uani 1 1 d . . .
H62A H 0.6564 0.3733 0.5039 0.073 Uiso 1 1 calc R U .
H62B H 0.7114 0.4051 0.5102 0.073 Uiso 1 1 calc R U .
H62C H 0.6377 0.4177 0.5026 0.073 Uiso 1 1 calc R U .
C63 C 0.7319(2) 0.42746(13) 0.66619(11) 0.0218(8) Uani 1 1 d . . .
H63 H 0.6914 0.4283 0.6773 0.026 Uiso 1 1 calc R U .
C64 C 0.8045(2) 0.42012(13) 0.62659(11) 0.0231(9) Uani 1 1 d . . .
C65 C 0.8338(2) 0.43127(13) 0.65594(11) 0.0230(9) Uani 1 1 d . . .
H65 H 0.8792 0.4353 0.6591 0.028 Uiso 1 1 calc R U .
C66 C 0.50295(19) 0.29881(12) 0.67109(10) 0.0181(8) Uani 1 1 d . . .
H66 H 0.5208 0.3180 0.6856 0.022 Uiso 1 1 calc R U .
C67 C 0.4375(2) 0.25746(13) 0.64822(11) 0.0228(9) Uani 1 1 d . . .
H67 H 0.3999 0.2422 0.6441 0.027 Uiso 1 1 calc R U .
C68 C 0.4915(2) 0.25694(14) 0.62927(12) 0.0258(9) Uani 1 1 d . . .
H68 H 0.4990 0.2417 0.6098 0.031 Uiso 1 1 calc R U .
C69 C 0.5963(2) 0.29303(13) 0.63251(11) 0.0219(9) Uani 1 1 d . . .
C70 C 0.6439(2) 0.30523(12) 0.65581(10) 0.0185(8) Uani 1 1 d . . .
H70 H 0.6349 0.3074 0.6793 0.022 Uiso 1 1 calc R U .
C71 C 0.7049(2) 0.31409(12) 0.64362(11) 0.0197(8) Uani 1 1 d . . .
C72 C 0.7186(2) 0.31094(14) 0.60931(11) 0.0235(9) Uani 1 1 d . . .
H72 H 0.7604 0.3176 0.6014 0.028 Uiso 1 1 calc R U .
C73 C 0.6703(2) 0.29800(16) 0.58671(11) 0.0281(10) Uani 1 1 d . . .
C74 C 0.6093(2) 0.28920(16) 0.59854(11) 0.0281(10) Uani 1 1 d . . .
H74 H 0.5762 0.2805 0.5832 0.034 Uiso 1 1 calc R U .
C75 C 0.6853(2) 0.2937(2) 0.54961(12) 0.0398(14) Uani 1 1 d . . .
H75A H 0.6899 0.2665 0.5441 0.060 Uiso 1 1 calc R U .
H75B H 0.7259 0.3070 0.5448 0.060 Uiso 1 1 calc R U .
H75C H 0.6497 0.3047 0.5358 0.060 Uiso 1 1 calc R U .
C76 C 0.74960(19) 0.34095(12) 0.69827(10) 0.0173(8) Uani 1 1 d . . .
H76 H 0.7094 0.3461 0.7087 0.021 Uiso 1 1 calc R U .
C77 C 0.8521(2) 0.33611(12) 0.68885(11) 0.0209(8) Uani 1 1 d . . .
H77 H 0.8979 0.3374 0.6922 0.025 Uiso 1 1 calc R U .
C78 C 0.8217(2) 0.32335(12) 0.66038(11) 0.0199(8) Uani 1 1 d . . .
H78 H 0.8414 0.3143 0.6404 0.024 Uiso 1 1 calc R U .
C79 C 0.85404(19) 0.11533(11) 0.40586(10) 0.0154(7) Uani 1 1 d . . .
H79 H 0.8544 0.1290 0.4267 0.018 Uiso 1 1 calc R U .
C80 C 0.8219(2) 0.08710(12) 0.36001(10) 0.0207(8) Uani 1 1 d . . .
H80 H 0.7942 0.0773 0.3425 0.025 Uiso 1 1 calc R U .
C81 C 0.8872(2) 0.08421(12) 0.36098(10) 0.0214(8) Uani 1 1 d . . .
H81 H 0.9136 0.0721 0.3447 0.026 Uiso 1 1 calc R U .
C82 C 0.97421(19) 0.10539(12) 0.40192(10) 0.0163(8) Uani 1 1 d . . .
C83 C 1.0185(2) 0.07764(12) 0.39201(10) 0.0177(8) Uani 1 1 d . . .
H83 H 1.0048 0.0574 0.3775 0.021 Uiso 1 1 calc R U .
C84 C 1.0837(2) 0.07985(12) 0.40368(10) 0.0190(8) Uani 1 1 d . . .
C85 C 1.1021(2) 0.10923(13) 0.42506(10) 0.0192(8) Uani 1 1 d . . .
H85 H 1.1456 0.1105 0.4337 0.023 Uiso 1 1 calc R U .
C86 C 1.05762(19) 0.13711(12) 0.43417(10) 0.0181(8) Uani 1 1 d . . .
C87 C 0.9930(2) 0.13576(12) 0.42257(10) 0.0185(8) Uani 1 1 d . . .
H87 H 0.9628 0.1550 0.4286 0.022 Uiso 1 1 calc R U .
C88 C 1.1332(2) 0.05061(13) 0.39368(12) 0.0233(9) Uani 1 1 d . . .
H88A H 1.1561 0.0596 0.3737 0.035 Uiso 1 1 calc R U .
H88B H 1.1112 0.0264 0.3884 0.035 Uiso 1 1 calc R U .
H88C H 1.1645 0.0467 0.4125 0.035 Uiso 1 1 calc R U .
C89 C 1.0426(2) 0.19229(13) 0.47285(10) 0.0196(8) Uani 1 1 d . . .
H89 H 0.9965 0.1910 0.4739 0.023 Uiso 1 1 calc R U .
C90 C 1.1423(2) 0.20982(17) 0.48043(13) 0.0329(11) Uani 1 1 d . . .
H90 H 1.1795 0.2237 0.4882 0.039 Uiso 1 1 calc R U .
C91 C 1.1435(2) 0.17912(17) 0.46006(12) 0.0332(12) Uani 1 1 d . . .
H91 H 1.1810 0.1675 0.4508 0.040 Uiso 1 1 calc R U .
C92 C 0.85126(19) 0.05457(11) 0.46536(10) 0.0164(7) Uani 1 1 d . . .
H92 H 0.8521 0.0733 0.4828 0.020 Uiso 1 1 calc R U .
C93 C 0.8181(2) 0.01620(14) 0.42590(12) 0.0262(9) Uani 1 1 d . . .
H93 H 0.7903 0.0027 0.4105 0.031 Uiso 1 1 calc R U .
C94 C 0.8836(2) 0.01239(14) 0.42802(12) 0.0301(10) Uani 1 1 d . . .
H94 H 0.9097 -0.0038 0.4146 0.036 Uiso 1 1 calc R U .
C95 C 0.9704(2) 0.03941(11) 0.46640(10) 0.0164(8) Uani 1 1 d . . .
C96 C 1.0148(2) 0.01153(12) 0.45782(10) 0.0177(8) Uani 1 1 d . . .
H96 H 1.0015 -0.0089 0.4434 0.021 Uiso 1 1 calc R U .
C97 C 1.0787(2) 0.01317(12) 0.47011(10) 0.0178(8) Uani 1 1 d . . .
C98 C 1.09697(19) 0.04274(12) 0.49180(10) 0.0175(8) Uani 1 1 d . . .
H98 H 1.1400 0.0437 0.5011 0.021 Uiso 1 1 calc R U .
C99 C 1.05227(19) 0.07095(12) 0.49995(10) 0.0166(8) Uani 1 1 d . . .
C100 C 0.98852(19) 0.07000(12) 0.48718(10) 0.0169(8) Uani 1 1 d . . .
H100 H 0.9584 0.0896 0.4925 0.020 Uiso 1 1 calc R U .
C101 C 1.1267(2) -0.01717(12) 0.45996(11) 0.0219(8) Uani 1 1 d . . .
H10D H 1.1689 -0.0123 0.4712 0.033 Uiso 1 1 calc R U .
H10E H 1.1317 -0.0166 0.4353 0.033 Uiso 1 1 calc R U .
H10F H 1.1106 -0.0423 0.4668 0.033 Uiso 1 1 calc R U .
C102 C 1.0360(2) 0.13053(12) 0.53439(10) 0.0183(8) Uani 1 1 d . . .
H102 H 0.9901 0.1324 0.5313 0.022 Uiso 1 1 calc R U .
C103 C 1.1341(3) 0.14164(19) 0.55038(18) 0.0492(17) Uani 1 1 d . . .
H103 H 1.1711 0.1534 0.5608 0.059 Uiso 1 1 calc R U .
C104 C 1.1355(2) 0.10942(19) 0.53206(18) 0.0496(18) Uani 1 1 d . . .
H104 H 1.1729 0.0945 0.5274 0.060 Uiso 1 1 calc R U .
C105 C 0.73612(18) 0.07864(11) 0.52871(10) 0.0153(7) Uani 1 1 d . . .
H105 H 0.7574 0.1013 0.5218 0.018 Uiso 1 1 calc R U .
C106 C 0.6836(2) 0.02521(12) 0.52795(11) 0.0198(8) Uani 1 1 d . . .
H106 H 0.6612 0.0032 0.5198 0.024 Uiso 1 1 calc R U .
C107 C 0.69558(19) 0.03328(12) 0.56105(10) 0.0182(8) Uani 1 1 d . . .
H107 H 0.6832 0.0185 0.5801 0.022 Uiso 1 1 calc R U .
C108 C 0.75144(19) 0.08739(11) 0.59109(10) 0.0156(7) Uani 1 1 d . . .
C109 C 0.81138(19) 0.10537(11) 0.59151(10) 0.0153(7) Uani 1 1 d . . .
H109 H 0.8380 0.1051 0.5721 0.018 Uiso 1 1 calc R U .
C110 C 0.83146(19) 0.12379(11) 0.62119(10) 0.0163(8) Uani 1 1 d . . .
C111 C 0.7926(2) 0.12435(12) 0.64970(10) 0.0179(8) Uani 1 1 d . . .
H111 H 0.8071 0.1374 0.6696 0.021 Uiso 1 1 calc R U .
C112 C 0.7327(2) 0.10579(12) 0.64898(10) 0.0178(8) Uani 1 1 d . . .
C113 C 0.71219(19) 0.08733(12) 0.61953(10) 0.0174(8) Uani 1 1 d . . .
H113 H 0.6714 0.0746 0.6187 0.021 Uiso 1 1 calc R U .
C114 C 0.6914(2) 0.10529(13) 0.68009(11) 0.0244(9) Uani 1 1 d . . .
H11A H 0.6459 0.1007 0.6734 0.037 Uiso 1 1 calc R U .
H11B H 0.6951 0.1299 0.6918 0.037 Uiso 1 1 calc R U .
H11C H 0.7064 0.0849 0.6954 0.037 Uiso 1 1 calc R U .
C115 C 0.92500(19) 0.15905(11) 0.59723(10) 0.0164(7) Uani 1 1 d . . .
H115 H 0.9081 0.1614 0.5747 0.020 Uiso 1 1 calc R U .
C116 C 0.9878(2) 0.16300(12) 0.64166(10) 0.0193(8) Uani 1 1 d . . .
H116 H 1.0242 0.1689 0.6560 0.023 Uiso 1 1 calc R U .
C117 C 0.9340(2) 0.14406(12) 0.65151(10) 0.0203(8) Uani 1 1 d . . .
H117 H 0.9255 0.1345 0.6735 0.024 Uiso 1 1 calc R U .
C118 C 0.63943(19) 0.15617(12) 0.52984(10) 0.0179(8) Uani 1 1 d . . .
H118 H 0.6656 0.1765 0.5219 0.022 Uiso 1 1 calc R U .
C119 C 0.57901(19) 0.10616(12) 0.53154(11) 0.0197(8) Uani 1 1 d . . .
H119 H 0.5545 0.0844 0.5245 0.024 Uiso 1 1 calc R U .
C120 C 0.5870(2) 0.11797(12) 0.56400(11) 0.0193(8) Uani 1 1 d . . .
H120 H 0.5693 0.1065 0.5836 0.023 Uiso 1 1 calc R U .
C121 C 0.6485(2) 0.17202(12) 0.59116(10) 0.0173(8) Uani 1 1 d . . .
C122 C 0.71049(19) 0.18756(11) 0.59077(10) 0.0154(7) Uani 1 1 d . . .
H122 H 0.7372 0.1849 0.5716 0.019 Uiso 1 1 calc R U .
C123 C 0.73203(19) 0.20711(12) 0.61940(10) 0.0172(8) Uani 1 1 d . . .
C124 C 0.6937(2) 0.21117(12) 0.64772(10) 0.0194(8) Uani 1 1 d . . .
H124 H 0.7098 0.2249 0.6669 0.023 Uiso 1 1 calc R U .
C125 C 0.6317(2) 0.19525(13) 0.64797(11) 0.0208(8) Uani 1 1 d . . .
C126 C 0.6089(2) 0.17588(13) 0.61923(11) 0.0205(8) Uani 1 1 d . . .
H126 H 0.5664 0.1653 0.6187 0.025 Uiso 1 1 calc R U .
C127 C 0.5909(2) 0.19897(16) 0.67912(12) 0.0294(10) Uani 1 1 d . . .
H12A H 0.6000 0.1775 0.6944 0.044 Uiso 1 1 calc R U .
H12B H 0.5447 0.1988 0.6724 0.044 Uiso 1 1 calc R U .
H12C H 0.6014 0.2230 0.6907 0.044 Uiso 1 1 calc R U .
C128 C 0.83099(19) 0.23718(12) 0.59499(10) 0.0167(8) Uani 1 1 d . . .
H128 H 0.8150 0.2395 0.5723 0.020 Uiso 1 1 calc R U .
C129 C 0.8929(2) 0.23964(12) 0.63987(10) 0.0186(8) Uani 1 1 d . . .
H129 H 0.9296 0.2443 0.6543 0.022 Uiso 1 1 calc R U .
C130 C 0.8365(2) 0.22372(12) 0.64966(10) 0.0183(8) Uani 1 1 d . . .
H130 H 0.8262 0.2154 0.6718 0.022 Uiso 1 1 calc R U .
C131 C 0.66750(19) 0.20946(11) 0.45770(10) 0.0160(7) Uani 1 1 d . . .
H131 H 0.7076 0.2013 0.4677 0.019 Uiso 1 1 calc R U .
C132 C 0.5687(2) 0.21002(13) 0.43801(12) 0.0250(9) Uani 1 1 d . . .
H132 H 0.5260 0.2018 0.4318 0.030 Uiso 1 1 calc R U .
C133 C 0.5922(2) 0.24575(13) 0.43353(12) 0.0255(9) Uani 1 1 d . . .
H133 H 0.5698 0.2669 0.4236 0.031 Uiso 1 1 calc R U .
C134 C 0.69861(19) 0.27730(11) 0.44780(10) 0.0171(8) Uani 1 1 d . . .
C135 C 0.74497(19) 0.27948(11) 0.47387(10) 0.0156(7) Uani 1 1 d . . .
H135 H 0.7500 0.2594 0.4900 0.019 Uiso 1 1 calc R U .
C136 C 0.78384(19) 0.31202(11) 0.47568(10) 0.0167(8) Uani 1 1 d . . .
C137 C 0.7784(2) 0.34097(12) 0.45181(11) 0.0197(8) Uani 1 1 d . . .
H137 H 0.8063 0.3626 0.4533 0.024 Uiso 1 1 calc R U .
C138 C 0.7319(2) 0.33819(12) 0.42561(11) 0.0212(8) Uani 1 1 d . . .
C139 C 0.6917(2) 0.30621(12) 0.42375(11) 0.0208(8) Uani 1 1 d . . .
H139 H 0.6597 0.3041 0.4061 0.025 Uiso 1 1 calc R U .
C140 C 0.7257(3) 0.36954(13) 0.39939(12) 0.0300(10) Uani 1 1 d . . .
H14A H 0.7065 0.3591 0.3784 0.045 Uiso 1 1 calc R U .
H14B H 0.7688 0.3800 0.3949 0.045 Uiso 1 1 calc R U .
H14C H 0.6976 0.3898 0.4079 0.045 Uiso 1 1 calc R U .
C141 C 0.86037(19) 0.28862(12) 0.52137(10) 0.0164(7) Uani 1 1 d . . .
H141 H 0.8585 0.2622 0.5159 0.020 Uiso 1 1 calc R U .
C142 C 0.8831(2) 0.34206(13) 0.54619(12) 0.0248(9) Uani 1 1 d . . .
H142 H 0.9010 0.3600 0.5619 0.030 Uiso 1 1 calc R U .
C143 C 0.8427(2) 0.35093(12) 0.51949(12) 0.0230(9) Uani 1 1 d . . .
H143 H 0.8276 0.3756 0.5130 0.028 Uiso 1 1 calc R U .
C144 C 0.76517(19) 0.19620(11) 0.39648(10) 0.0160(7) Uani 1 1 d . . .
H144 H 0.8004 0.1891 0.4112 0.019 Uiso 1 1 calc R U .
C145 C 0.6750(2) 0.19522(13) 0.36763(11) 0.0228(9) Uani 1 1 d . . .
H145 H 0.6346 0.1867 0.3582 0.027 Uiso 1 1 calc R U .
C146 C 0.7022(2) 0.23001(13) 0.36234(11) 0.0228(9) Uani 1 1 d . . .
H146 H 0.6847 0.2500 0.3487 0.027 Uiso 1 1 calc R U .
C147 C 0.80692(19) 0.26032(11) 0.38121(10) 0.0165(8) Uani 1 1 d . . .
C148 C 0.84898(19) 0.26355(11) 0.40907(10) 0.0160(7) Uani 1 1 d . . .
H148 H 0.8476 0.2460 0.4274 0.019 Uiso 1 1 calc R U .
C149 C 0.89359(19) 0.29382(12) 0.40899(10) 0.0175(8) Uani 1 1 d . . .
C150 C 0.8958(2) 0.31916(12) 0.38209(11) 0.0210(8) Uani 1 1 d . . .
H150 H 0.9272 0.3391 0.3824 0.025 Uiso 1 1 calc R U .
C151 C 0.8527(2) 0.31567(12) 0.35481(11) 0.0210(8) Uani 1 1 d . . .
C152 C 0.8084(2) 0.28586(12) 0.35411(10) 0.0200(8) Uani 1 1 d . . .
H152 H 0.7792 0.2828 0.3353 0.024 Uiso 1 1 calc R U .
C153 C 0.8531(3) 0.34416(14) 0.32582(12) 0.0302(10) Uani 1 1 d . . .
H15A H 0.8263 0.3663 0.3315 0.045 Uiso 1 1 calc R U .
H15B H 0.8355 0.3321 0.3052 0.045 Uiso 1 1 calc R U .
H15C H 0.8979 0.3525 0.3220 0.045 Uiso 1 1 calc R U .
C154 C 0.9565(2) 0.27209(12) 0.46044(10) 0.0186(8) Uani 1 1 d . . .
H154 H 0.9437 0.2460 0.4598 0.022 Uiso 1 1 calc R U .
C155 C 1.0016(3) 0.32504(14) 0.47537(13) 0.0341(11) Uani 1 1 d . . .
H155 H 1.0272 0.3431 0.4877 0.041 Uiso 1 1 calc R U .
C156 C 0.9651(3) 0.33303(14) 0.44732(13) 0.0329(11) Uani 1 1 d . . .
H156 H 0.9604 0.3571 0.4364 0.039 Uiso 1 1 calc R U .
C157 C 0.8339(12) 0.4545(8) 0.2990(8) 0.35(2) Uani 1 1 d . . .
C158 C 0.8285(7) 0.4563(4) 0.2539(5) 0.154(7) Uani 1 1 d . . .
C159 C 0.9684(4) 0.3366(2) 0.2271(2) 0.071(2) Uani 1 1 d . . .
C160 C 0.6970(7) 0.8989(5) 0.4593(6) 0.209(12) Uani 1 1 d . . .
C161 C 0.8228(3) 0.56412(15) 0.65796(15) 0.0425(13) Uani 1 1 d . . .
O169 O 0.5507(4) 0.9918(3) 0.4840(2) 0.0123(17) Uani 0.3 1 d . . P
O170 O 0.3048(14) 0.3613(9) 0.3863(8) 0.198(11) Uiso 0.5 1 d . . P
loop_
_atom_site_aniso_label
_atom_site_aniso_U_11
_atom_site_aniso_U_22
_atom_site_aniso_U_33
_atom_site_aniso_U_23
_atom_site_aniso_U_13
_atom_site_aniso_U_12
Ni1 0.0090(3) 0.0212(3) 0.0177(3) -0.0041(3) -0.0006(2) -0.0017(3)
Ni2 0.0101(3) 0.0210(3) 0.0173(3) -0.0030(3) -0.0003(2) -0.0020(3)
Ni3 0.0093(3) 0.0186(3) 0.0162(3) -0.0036(3) -0.0007(2) -0.0002(2)
Ni4 0.0095(3) 0.0190(3) 0.0192(3) -0.0045(3) 0.0001(2) -0.0005(2)
Ni5 0.0103(3) 0.0152(3) 0.0145(3) 0.0002(2) -0.0003(2) -0.0008(2)
Ni6 0.0096(3) 0.0166(3) 0.0158(3) 0.0014(2) -0.0016(2) -0.0006(2)
Ni7 0.0099(3) 0.0145(3) 0.0172(3) -0.0002(2) -0.0011(2) -0.0004(2)
Ni8 0.0090(3) 0.0160(3) 0.0157(3) 0.0007(2) -0.0017(2) -0.0008(2)
Ni9 0.0131(3) 0.0274(4) 0.0201(3) -0.0085(3) -0.0013(3) -0.0050(3)
Ni10 0.0108(3) 0.0212(3) 0.0184(3) -0.0062(3) -0.0013(2) -0.0008(3)
Ni11 0.0118(3) 0.0182(3) 0.0162(3) -0.0044(3) -0.0001(2) -0.0019(2)
Ni12 0.0128(3) 0.0274(4) 0.0165(3) -0.0053(3) 0.0013(3) -0.0054(3)
Ni13 0.0119(3) 0.0188(3) 0.0149(3) 0.0015(3) -0.0021(2) -0.0036(3)
Ni14 0.0140(3) 0.0174(3) 0.0143(3) 0.0020(2) -0.0040(2) -0.0030(3)
Ni15 0.0114(3) 0.0185(3) 0.0139(3) 0.0026(2) -0.0025(2) -0.0042(2)
Ni16 0.0111(3) 0.0198(3) 0.0145(3) 0.0016(3) -0.0026(2) -0.0048(3)
S1 0.0142(5) 0.0250(5) 0.0195(5) -0.0020(4) -0.0029(3) -0.0038(4)
S2 0.0142(4) 0.0194(5) 0.0195(4) 0.0036(4) -0.0005(3) -0.0031(4)
S3 0.0115(4) 0.0237(5) 0.0254(5) 0.0050(4) -0.0042(4) -0.0036(4)
S4 0.0116(4) 0.0205(5) 0.0184(4) -0.0049(4) -0.0008(3) -0.0001(3)
S5 0.0106(4) 0.0243(5) 0.0139(4) 0.0023(3) -0.0024(3) -0.0045(3)
S6 0.0116(4) 0.0220(5) 0.0189(4) -0.0040(4) -0.0010(3) -0.0034(4)
S7 0.0294(7) 0.0541(8) 0.0446(7) -0.0130(6) -0.0018(5) -0.0021(6)
S8 0.0141(4) 0.0258(5) 0.0163(4) 0.0053(4) -0.0031(3) -0.0070(4)
O1 0.0078(12) 0.0222(14) 0.0208(14) -0.0034(11) -0.0012(10) 0.0004(10)
O2 0.0098(12) 0.0212(14) 0.0173(13) -0.0036(11) -0.0012(10) -0.0011(10)
O3 0.0082(12) 0.0201(14) 0.0188(13) -0.0041(11) 0.0007(10) -0.0020(10)
O4 0.0105(13) 0.0219(14) 0.0206(14) -0.0051(11) 0.0005(10) -0.0027(11)
O5 0.0211(15) 0.0209(15) 0.0315(16) -0.0043(12) 0.0001(12) -0.0024(12)
O6 0.0118(13) 0.0241(15) 0.0266(15) -0.0069(12) 0.0005(11) -0.0038(11)
O7 0.0090(13) 0.0269(15) 0.0223(14) -0.0045(12) -0.0002(10) -0.0003(11)
O8 0.0092(13) 0.0353(17) 0.0218(14) -0.0048(12) 0.0016(11) 0.0013(12)
O9 0.0140(14) 0.0310(16) 0.0210(14) 0.0015(12) -0.0023(11) -0.0033(12)
O10 0.0119(13) 0.0275(16) 0.0209(14) -0.0004(12) -0.0038(11) -0.0052(11)
O11 0.0222(16) 0.0247(16) 0.0349(17) -0.0021(13) 0.0007(13) -0.0010(12)
O12 0.0272(17) 0.0351(18) 0.0211(15) 0.0005(13) -0.0078(12) -0.0061(14)
O13 0.0106(12) 0.0142(13) 0.0164(13) 0.0006(10) -0.0009(10) -0.0004(10)
O14 0.0100(12) 0.0165(13) 0.0172(13) -0.0001(10) -0.0011(10) -0.0017(10)
O15 0.0114(13) 0.0161(13) 0.0166(13) 0.0005(10) -0.0008(10) -0.0003(10)
O16 0.0115(13) 0.0169(13) 0.0163(13) -0.0002(10) -0.0015(10) -0.0007(10)
O17 0.0136(14) 0.0229(15) 0.0280(15) 0.0014(12) -0.0004(11) 0.0022(11)
O18 0.0150(14) 0.0247(15) 0.0189(14) -0.0021(11) -0.0027(11) -0.0021(11)
O19 0.0108(13) 0.0213(14) 0.0199(14) -0.0012(11) -0.0021(10) 0.0029(10)
O20 0.0122(13) 0.0192(14) 0.0188(13) -0.0006(11) -0.0032(10) -0.0015(10)
O21 0.0148(14) 0.0214(14) 0.0211(14) 0.0048(11) -0.0009(11) -0.0037(11)
O22 0.0126(13) 0.0202(14) 0.0216(14) 0.0040(11) -0.0025(11) -0.0025(11)
O23 0.0235(16) 0.0275(16) 0.0247(15) 0.0069(13) 0.0027(12) -0.0038(13)
O24 0.0172(14) 0.0194(14) 0.0271(15) 0.0002(12) -0.0003(11) -0.0016(11)
O25 0.0169(14) 0.0205(14) 0.0219(14) -0.0032(11) 0.0004(11) -0.0007(11)
O26 0.0194(15) 0.0358(18) 0.0200(14) -0.0028(13) -0.0033(12) -0.0065(13)
O27 0.0169(15) 0.0240(15) 0.0334(17) 0.0029(13) 0.0034(12) -0.0022(12)
O28 0.0395(19) 0.0280(17) 0.0233(16) -0.0089(13) -0.0057(14) 0.0119(14)
O29 0.0121(13) 0.0189(14) 0.0180(13) -0.0047(11) 0.0007(10) -0.0014(10)
O30 0.0151(13) 0.0211(14) 0.0180(13) -0.0071(11) -0.0009(10) -0.0013(11)
O31 0.0135(13) 0.0236(15) 0.0199(14) -0.0051(11) -0.0005(11) -0.0049(11)
O32 0.0109(13) 0.0295(16) 0.0204(14) -0.0093(12) 0.0013(11) -0.0034(11)
O33 0.0253(17) 0.051(2) 0.0302(17) -0.0043(16) 0.0032(14) -0.0194(16)
O34 0.0185(14) 0.0230(15) 0.0194(14) -0.0058(11) 0.0000(11) 0.0006(11)
O35 0.0192(15) 0.0275(16) 0.0242(15) -0.0089(12) -0.0019(12) -0.0057(12)
O36 0.0187(15) 0.042(2) 0.0294(17) -0.0115(14) 0.0029(13) -0.0105(14)
O37 0.0287(14) 0.0481(17) 0.0386(15) -0.0163(13) -0.0128(12) 0.0024(12)
O38 0.0287(14) 0.0481(17) 0.0386(15) -0.0163(13) -0.0128(12) 0.0024(12)
O39 0.0287(14) 0.0481(17) 0.0386(15) -0.0163(13) -0.0128(12) 0.0024(12)
O40 0.0194(17) 0.049(2) 0.047(2) -0.0093(18) 0.0005(15) -0.0042(15)
O41 0.034(2) 0.061(3) 0.051(2) -0.011(2) -0.0059(18) 0.0003(19)
O42 0.0139(13) 0.0166(13) 0.0154(13) 0.0024(10) -0.0031(10) -0.0032(10)
O43 0.0164(13) 0.0175(13) 0.0150(13) 0.0019(10) -0.0031(10) -0.0038(11)
O44 0.0138(13) 0.0198(14) 0.0155(13) 0.0028(10) -0.0044(10) -0.0049(10)
O45 0.0140(13) 0.0187(14) 0.0150(13) 0.0017(10) -0.0040(10) -0.0045(10)
O46 0.0364(18) 0.0213(15) 0.0242(15) 0.0019(12) -0.0093(13) -0.0052(13)
O47 0.0139(14) 0.0314(17) 0.0264(15) 0.0032(13) -0.0043(11) -0.0042(12)
O48 0.0210(15) 0.0216(15) 0.0287(16) -0.0011(12) -0.0007(12) -0.0078(12)
O49 0.0125(13) 0.0278(15) 0.0149(13) 0.0022(11) -0.0038(10) -0.0049(11)
O50 0.0128(13) 0.0268(15) 0.0215(14) 0.0026(12) -0.0032(11) -0.0008(11)
O51 0.0132(13) 0.0268(15) 0.0154(13) 0.0024(11) -0.0028(10) -0.0075(11)
O52 0.0149(14) 0.0306(16) 0.0146(13) 0.0012(11) -0.0022(10) -0.0031(12)
O53 0.0161(14) 0.0260(15) 0.0169(13) 0.0064(11) -0.0017(11) -0.0047(11)
O54 0.0210(15) 0.0252(16) 0.0311(17) 0.0081(13) -0.0034(12) -0.0066(12)
O55 0.0279(17) 0.0347(18) 0.0192(15) 0.0041(13) -0.0042(12) -0.0126(14)
O56 0.0124(14) 0.0349(17) 0.0188(14) 0.0018(12) 0.0004(11) -0.0043(12)
O57 0.0284(18) 0.055(2) 0.0244(17) -0.0042(16) 0.0074(14) -0.0146(16)
O58 0.0195(19) 0.0163(18) 0.039(2) -0.0045(16) -0.0086(16) 0.0048(14)
O59 0.044(12) 0.066(15) 0.047(12) -0.009(11) -0.022(10) -0.001(11)
O60 0.0176(18) 0.0184(17) 0.0198(17) -0.0059(14) -0.0017(14) -0.0012(14)
O61 0.023(10) 0.052(13) 0.089(17) -0.021(12) 0.007(10) 0.004(9)
O62 0.0104(17) 0.0245(19) 0.0240(18) -0.0016(15) -0.0040(13) -0.0015(14)
O63 0.065(14) 0.027(9) 0.049(12) 0.000(8) 0.004(10) -0.008(9)
O64 0.030(4) 0.039(4) 0.042(4) 0.003(3) -0.007(3) -0.003(3)
O65 0.008(2) 0.017(3) 0.017(3) -0.006(2) -0.0044(19) -0.002(2)
O66 0.031(4) 0.052(5) 0.050(5) -0.021(4) 0.010(3) -0.002(3)
O67 0.004(2) 0.016(3) 0.014(2) -0.003(2) 0.0020(18) -0.0004(19)
O68 0.030(4) 0.044(4) 0.047(4) -0.002(4) 0.001(3) -0.013(3)
O69 0.010(3) 0.011(3) 0.033(3) -0.007(2) -0.002(2) 0.002(2)
O70 0.036(2) 0.063(3) 0.040(2) 0.0265(19) -0.0121(17) -0.0160(19)
O71 0.086(4) 0.069(4) 0.119(5) -0.043(4) 0.007(4) -0.035(3)
O72 0.102(12) 0.093(11) 0.25(2) 0.058(14) 0.063(14) 0.039(10)
O73 0.073(4) 0.068(4) 0.161(7) -0.012(4) -0.003(4) -0.003(3)
O74 0.051(2) 0.047(2) 0.041(2) 0.0067(18) 0.0080(18) 0.026(2)
O76 0.100(5) 0.075(4) 0.067(4) 0.001(3) 0.011(3) 0.004(3)
O77 0.40(2) 0.116(7) 0.088(6) -0.006(5) 0.090(9) -0.135(10)
O78 0.077(5) 0.173(9) 0.162(8) 0.080(7) 0.006(5) 0.036(5)
O79 0.188(10) 0.105(7) 0.129(7) -0.005(6) 0.057(7) 0.008(7)
O80 0.064(3) 0.060(3) 0.082(4) -0.020(3) -0.012(3) 0.003(3)
O81 0.123(9) 0.204(14) 0.39(2) -0.109(15) 0.104(12) -0.058(9)
O82 0.212(12) 0.118(8) 0.222(13) 0.054(8) 0.098(10) 0.065(8)
O83 0.048(2) 0.037(2) 0.0332(19) 0.0058(15) 0.0067(16) -0.0110(17)
O84 0.34(3) 0.25(2) 0.56(4) -0.18(3) -0.07(3) 0.09(2)
O85 0.087(6) 0.47(2) 0.083(6) -0.049(9) 0.036(5) -0.052(10)
O86 0.068(4) 0.113(5) 0.088(4) 0.000(4) 0.003(3) 0.008(4)
O87 0.174(11) 0.161(11) 0.46(3) -0.157(14) 0.188(15) -0.046(9)
O88 0.050(2) 0.0230(17) 0.0342(18) 0.0033(14) -0.0095(16) -0.0022(15)
O89 0.109(6) 0.140(8) 0.123(7) 0.010(6) 0.028(5) 0.021(6)
O90 0.064(3) 0.057(3) 0.048(3) 0.008(2) 0.000(2) 0.001(2)
O91 0.43(3) 0.204(16) 0.217(16) -0.090(13) -0.116(18) 0.014(17)
O93 0.17(2) 0.28(4) 0.23(3) 0.02(3) -0.09(2) 0.06(2)
O94 0.188(8) 0.089(5) 0.051(3) -0.013(3) -0.009(4) 0.058(5)
O95 0.093(12) 0.102(13) 0.26(3) -0.051(15) -0.014(14) -0.003(10)
O96 0.097(9) 0.106(10) 0.078(8) 0.061(7) -0.059(7) -0.051(8)
O97 0.061(3) 0.034(2) 0.046(2) -0.0021(17) -0.012(2) -0.0124(19)
O98 0.084(17) 0.075(13) 0.19(3) -0.070(18) 0.053(16) -0.035(13)
O99 0.064(7) 0.050(5) 0.025(3) -0.009(3) -0.012(4) -0.028(5)
O100 0.089(4) 0.051(3) 0.099(5) 0.010(3) 0.019(3) -0.009(3)
O101 0.0235(16) 0.0303(17) 0.0334(17) -0.0018(14) -0.0030(13) 0.0037(13)
O102 0.068(3) 0.033(2) 0.045(2) 0.0030(17) 0.019(2) 0.0137(19)
O103 0.219(13) 0.079(6) 0.319(18) 0.089(9) -0.055(12) 0.006(7)
O104 0.128(7) 0.125(7) 0.178(10) 0.052(7) -0.053(7) -0.026(6)
O105 0.195(16) 0.041(6) 0.035(5) 0.012(4) -0.001(7) -0.003(8)
O106 0.040(6) 0.065(8) 0.214(19) -0.021(10) -0.011(8) 0.001(5)
O107 0.064(3) 0.069(3) 0.075(4) 0.005(3) 0.017(3) -0.004(3)
O108 0.055(3) 0.053(3) 0.192(8) -0.006(4) -0.005(4) 0.003(3)
O109 0.025(2) 0.046(3) 0.037(2) -0.011(2) 0.0102(18) -0.0037(19)
O110 0.27(3) 0.109(14) 0.20(2) 0.068(15) -0.01(2) 0.098(17)
O111 0.59(6) 0.039(8) 0.23(3) 0.021(12) 0.28(3) 0.036(18)
O112 0.088(10) 0.089(11) 0.182(18) 0.020(11) 0.034(11) -0.003(8)
O113 0.141(13) 0.36(3) 0.43(3) -0.09(2) -0.004(16) 0.018(15)
O114 0.0211(16) 0.0366(19) 0.043(2) -0.0002(15) 0.0011(14) 0.0000(14)
O115 0.057(3) 0.046(2) 0.054(3) 0.012(2) -0.002(2) -0.020(2)
O116 0.0259(16) 0.0256(16) 0.0210(14) -0.0037(12) 0.0018(12) -0.0013(12)
O117 0.0246(16) 0.0263(16) 0.0302(17) -0.0011(13) -0.0007(13) -0.0002(13)
O118 0.037(10) 0.054(14) 0.079(16) 0.018(11) -0.001(9) 0.014(10)
O119 0.064(6) 0.065(7) 0.071(7) 0.015(5) 0.019(5) -0.010(5)
O120 0.48(5) 0.053(9) 0.27(3) -0.027(13) 0.28(3) -0.067(17)
O121 0.101(5) 0.078(4) 0.073(4) -0.008(3) 0.020(3) -0.009(3)
O122 0.107(7) 0.123(8) 0.253(14) -0.004(8) 0.008(8) -0.037(6)
O123 0.112(7) 0.157(10) 0.320(17) 0.145(11) -0.008(9) 0.009(7)
O124 0.098(7) 0.187(12) 0.44(2) 0.174(15) 0.013(11) -0.007(8)
O125 0.095(5) 0.128(6) 0.142(7) 0.094(6) 0.041(5) 0.013(5)
O126 0.25(3) 0.24(3) 0.076(12) 0.021(15) -0.017(16) -0.10(3)
O127 0.098(12) 0.31(3) 0.055(8) -0.060(13) 0.003(8) 0.017(16)
O128 0.075(3) 0.047(3) 0.050(3) 0.004(2) 0.005(2) 0.005(2)
O129 0.066(4) 0.078(4) 0.137(6) -0.025(4) 0.003(4) 0.005(3)
O130 0.084(4) 0.088(4) 0.086(4) -0.001(3) 0.022(3) -0.010(4)
O131 0.102(5) 0.093(5) 0.109(6) 0.015(4) -0.010(4) 0.015(4)
O132 0.22(2) 0.112(13) 0.086(11) -0.004(9) -0.025(12) 0.043(14)
O133 0.149(10) 0.088(7) 0.55(3) -0.001(11) -0.199(14) -0.005(6)
O134 0.21(2) 0.20(2) 0.118(15) 0.007(15) 0.056(16) 0.08(2)
O135 0.32(2) 0.251(19) 0.185(14) -0.021(13) -0.055(14) 0.028(16)
O136 0.067(4) 0.126(6) 0.095(5) -0.037(4) -0.012(3) -0.002(4)
O137 0.158(12) 0.29(2) 0.260(18) -0.081(15) -0.070(12) 0.006(12)
O140 0.043(4) 0.352(19) 0.064(5) -0.083(8) -0.011(4) 0.021(7)
O141 0.117(15) 0.23(3) 0.23(3) -0.13(2) -0.049(16) 0.067(16)
O142 0.096(12) 0.106(13) 0.057(7) -0.003(10) 0.015(7) 0.038(11)
O143 0.053(7) 0.076(9) 0.078(8) -0.008(8) 0.014(6) 0.018(7)
O145 0.020(3) 0.026(3) 0.054(4) 0.010(3) -0.003(3) -0.001(3)
O146 0.090(5) 0.119(7) 0.156(8) -0.012(6) -0.019(5) 0.031(5)
O147 0.085(6) 0.251(14) 0.174(10) -0.065(10) -0.040(6) 0.017(7)
O148 0.103(14) 0.24(3) 0.17(2) -0.082(19) -0.069(14) 0.034(15)
O149 0.107(7) 0.239(12) 0.177(9) -0.131(9) -0.083(7) 0.086(8)
O150 0.033(2) 0.082(3) 0.055(3) 0.004(2) -0.0044(19) 0.003(2)
O151 0.064(3) 0.060(3) 0.069(3) 0.011(2) 0.023(3) 0.008(2)
O152 0.035(2) 0.069(3) 0.034(2) 0.0053(19) 0.0070(16) 0.0103(19)
O153 0.0299(19) 0.050(2) 0.039(2) -0.0021(17) -0.0047(15) 0.0012(16)
O154 0.254(14) 0.121(8) 0.256(14) -0.068(9) 0.170(12) -0.071(9)
O155 0.0179(15) 0.0294(16) 0.0235(15) 0.0029(12) -0.0028(11) 0.0001(12)
O156 0.042(2) 0.0346(19) 0.0229(16) 0.0058(14) -0.0042(14) -0.0068(15)
O157 0.172(10) 0.161(9) 0.143(8) 0.063(7) 0.041(7) 0.056(8)
O158 0.0226(16) 0.0287(17) 0.0374(18) -0.0062(14) -0.0108(13) 0.0025(13)
O159 0.041(2) 0.0237(16) 0.0252(16) -0.0009(13) -0.0011(14) 0.0012(14)
O160 0.038(2) 0.0310(19) 0.057(2) 0.0101(17) 0.0098(18) -0.0031(16)
O161 0.027(5) 0.042(5) 0.025(5) 0.009(4) 0.002(4) -0.009(4)
O162 0.148(8) 0.126(7) 0.166(9) 0.068(7) 0.021(7) -0.009(6)
O163 0.081(4) 0.081(4) 0.063(3) 0.015(3) -0.033(3) -0.013(3)
O164 0.054(3) 0.034(2) 0.055(2) 0.0099(18) 0.016(2) 0.0079(18)
O165 0.024(3) 0.058(4) 0.037(3) 0.017(3) 0.002(2) -0.002(2)
O166 0.070(4) 0.059(3) 0.087(4) -0.008(3) -0.013(3) 0.005(3)
O167 0.099(5) 0.073(4) 0.092(4) 0.028(3) -0.040(4) -0.034(3)
O168 0.169(12) 0.166(11) 0.257(16) 0.063(11) 0.060(11) -0.008(9)
N1 0.0115(16) 0.0195(17) 0.0242(17) -0.0047(14) 0.0020(13) -0.0007(13)
N2 0.0122(16) 0.0173(16) 0.0244(17) -0.0021(13) 0.0007(13) -0.0004(13)
N3 0.0129(16) 0.0180(16) 0.0189(16) 0.0013(13) 0.0004(12) -0.0008(13)
N4 0.0144(16) 0.0153(16) 0.0202(16) -0.0004(13) 0.0000(13) 0.0003(12)
N5 0.0134(16) 0.0150(15) 0.0185(16) -0.0027(12) 0.0007(12) -0.0015(12)
N6 0.0111(15) 0.0169(16) 0.0179(16) 0.0000(12) 0.0016(12) 0.0000(12)
N7 0.0108(15) 0.0190(16) 0.0163(15) 0.0010(13) 0.0000(12) -0.0012(12)
N8 0.0108(15) 0.0174(16) 0.0173(16) 0.0001(12) 0.0002(12) 0.0003(12)
N9 0.0140(16) 0.0191(16) 0.0172(16) -0.0025(13) -0.0004(12) 0.0012(13)
N10 0.0129(16) 0.0179(17) 0.0280(18) -0.0006(14) -0.0025(13) 0.0012(13)
N11 0.0174(17) 0.0159(16) 0.0281(18) -0.0026(14) -0.0021(14) 0.0009(13)
N12 0.0156(16) 0.0165(16) 0.0168(16) -0.0006(12) -0.0007(12) -0.0008(13)
N13 0.0140(16) 0.0204(17) 0.0203(17) -0.0009(13) 0.0006(13) -0.0010(13)
N14 0.0118(16) 0.0225(18) 0.033(2) 0.0010(15) -0.0055(14) 0.0006(13)
N15 0.0150(17) 0.0192(17) 0.033(2) 0.0000(15) -0.0031(14) -0.0005(14)
N16 0.0163(17) 0.0163(16) 0.0184(16) 0.0037(13) -0.0023(13) 0.0012(13)
N17 0.0163(17) 0.0264(19) 0.0186(17) -0.0034(14) 0.0000(13) -0.0033(14)
N18 0.0145(17) 0.038(2) 0.0180(17) -0.0055(15) 0.0012(13) -0.0037(15)
N19 0.0156(17) 0.0275(19) 0.0180(17) -0.0006(14) 0.0009(13) -0.0047(14)
N20 0.0145(16) 0.0218(17) 0.0191(16) 0.0026(13) -0.0009(13) 0.0004(13)
N21 0.0133(16) 0.0217(17) 0.0217(17) -0.0038(14) 0.0003(13) 0.0012(13)
N22 0.0103(16) 0.0315(19) 0.0183(16) -0.0069(14) -0.0005(13) 0.0006(14)
N23 0.0118(16) 0.0207(17) 0.0183(16) -0.0031(13) 0.0016(12) 0.0002(13)
N24 0.0128(16) 0.0159(16) 0.0202(16) -0.0021(13) 0.0005(12) -0.0004(12)
N25 0.0147(16) 0.0170(16) 0.0169(16) 0.0018(13) -0.0007(12) -0.0016(12)
N26 0.0153(16) 0.0155(16) 0.0160(15) 0.0000(12) -0.0006(12) 0.0006(12)
N27 0.0120(16) 0.034(2) 0.0150(16) -0.0052(14) 0.0005(12) 0.0022(14)
N28 0.0123(16) 0.037(2) 0.0176(16) -0.0051(15) 0.0023(13) -0.0033(15)
N29 0.0193(17) 0.0211(17) 0.0165(16) 0.0002(13) -0.0039(13) 0.0019(13)
N30 0.0173(17) 0.0177(16) 0.0158(16) -0.0016(13) -0.0023(13) 0.0005(13)
N31 0.0143(17) 0.0236(18) 0.0269(18) -0.0096(15) -0.0009(14) 0.0022(14)
N32 0.0139(17) 0.0263(19) 0.0290(19) -0.0088(15) -0.0003(14) 0.0014(14)
N33 0.0140(16) 0.0187(16) 0.0163(16) 0.0019(13) -0.0028(12) -0.0013(13)
N34 0.0136(16) 0.0171(16) 0.0158(16) 0.0015(12) -0.0009(12) -0.0019(12)
N35 0.0154(16) 0.0169(16) 0.0160(15) -0.0012(12) -0.0026(12) 0.0017(13)
N36 0.0126(16) 0.0173(16) 0.0205(16) -0.0041(13) -0.0009(12) -0.0001(12)
N37 0.0137(16) 0.0225(17) 0.0157(16) 0.0017(13) -0.0009(12) -0.0028(13)
N38 0.0122(15) 0.0220(17) 0.0169(16) 0.0018(13) 0.0004(12) -0.0024(13)
N39 0.0130(16) 0.0204(17) 0.0150(15) -0.0011(13) 0.0007(12) 0.0002(13)
N40 0.0129(16) 0.0190(16) 0.0172(16) -0.0040(13) 0.0021(12) 0.0019(13)
N41 0.0156(16) 0.0187(16) 0.0166(16) 0.0008(13) -0.0014(12) -0.0017(13)
N42 0.0106(15) 0.0210(17) 0.0198(16) 0.0009(13) -0.0010(12) -0.0008(13)
N43 0.0158(16) 0.0159(16) 0.0192(16) -0.0005(13) 0.0003(13) 0.0000(13)
N44 0.0159(16) 0.0186(17) 0.0194(16) -0.0022(13) 0.0007(13) -0.0019(13)
N45 0.0139(16) 0.0192(16) 0.0162(15) 0.0024(13) -0.0008(12) -0.0032(13)
N46 0.0147(16) 0.0176(16) 0.0183(16) 0.0026(13) -0.0004(13) -0.0011(13)
N47 0.0171(17) 0.0180(17) 0.0219(17) 0.0011(13) 0.0015(13) -0.0031(13)
N48 0.0166(17) 0.0292(19) 0.0191(17) -0.0020(14) 0.0023(13) -0.0069(14)
C1 0.017(2) 0.019(2) 0.021(2) -0.0017(15) 0.0014(15) -0.0001(15)
C2 0.016(2) 0.026(2) 0.028(2) -0.0014(17) 0.0029(16) -0.0045(16)
C3 0.021(2) 0.023(2) 0.029(2) 0.0030(17) 0.0031(17) -0.0055(17)
C4 0.0153(19) 0.0162(19) 0.022(2) -0.0007(15) 0.0006(15) 0.0008(15)
C5 0.020(2) 0.0152(19) 0.026(2) 0.0005(16) 0.0008(16) -0.0028(15)
C6 0.023(2) 0.018(2) 0.024(2) 0.0014(16) -0.0009(17) 0.0001(16)
C7 0.019(2) 0.019(2) 0.024(2) 0.0008(16) -0.0022(16) 0.0017(16)
C8 0.0158(19) 0.0156(18) 0.0200(19) -0.0020(15) 0.0020(15) 0.0004(15)
C9 0.0152(19) 0.0145(18) 0.0197(19) -0.0002(14) 0.0009(15) -0.0009(14)
C10 0.027(2) 0.019(2) 0.037(3) 0.0063(18) -0.0025(19) -0.0027(17)
C11 0.0158(19) 0.0137(18) 0.0216(19) 0.0000(15) -0.0009(15) 0.0008(14)
C12 0.0155(19) 0.024(2) 0.023(2) 0.0012(16) -0.0018(15) -0.0027(16)
C13 0.018(2) 0.022(2) 0.022(2) 0.0023(16) -0.0047(16) 0.0000(16)
C14 0.0133(18) 0.0149(18) 0.0171(18) -0.0020(14) 0.0010(14) -0.0012(14)
C15 0.0088(17) 0.0207(19) 0.023(2) -0.0027(15) 0.0029(14) 0.0001(14)
C16 0.0148(19) 0.0186(19) 0.0191(19) 0.0019(15) 0.0024(15) -0.0001(15)
C17 0.0121(18) 0.0187(19) 0.0170(18) -0.0024(15) -0.0003(14) 0.0005(14)
C18 0.0152(19) 0.0152(18) 0.0155(17) 0.0013(14) 0.0023(14) 0.0000(14)
C19 0.0110(18) 0.0182(19) 0.0170(18) 0.0004(14) 0.0032(14) -0.0012(14)
C20 0.0153(19) 0.0183(19) 0.0192(19) 0.0014(15) 0.0003(15) 0.0011(15)
C21 0.019(2) 0.0187(19) 0.0179(19) 0.0019(15) 0.0043(15) 0.0016(15)
C22 0.0146(19) 0.0167(19) 0.0196(19) 0.0000(15) 0.0029(15) -0.0021(15)
C23 0.018(2) 0.024(2) 0.027(2) 0.0059(17) 0.0030(16) -0.0002(16)
C24 0.0145(18) 0.0145(18) 0.0173(18) 0.0008(14) 0.0014(14) 0.0013(14)
C25 0.0140(19) 0.026(2) 0.0178(19) 0.0025(16) -0.0025(15) -0.0027(16)
C26 0.0144(19) 0.023(2) 0.0168(18) 0.0020(15) -0.0006(14) -0.0015(15)
C27 0.0144(19) 0.0176(19) 0.0203(19) -0.0001(15) 0.0009(15) 0.0014(15)
C28 0.015(2) 0.022(2) 0.034(2) -0.0039(18) -0.0018(17) 0.0032(16)
C29 0.017(2) 0.019(2) 0.032(2) -0.0041(17) -0.0034(17) 0.0048(16)
C30 0.019(2) 0.0180(19) 0.022(2) 0.0006(16) -0.0027(16) -0.0002(15)
C31 0.022(2) 0.0150(19) 0.025(2) -0.0002(16) -0.0009(16) 0.0006(16)
C32 0.0149(19) 0.020(2) 0.023(2) 0.0010(16) 0.0017(15) 0.0017(15)
C33 0.025(2) 0.022(2) 0.022(2) -0.0017(16) -0.0025(16) -0.0014(17)
C34 0.026(2) 0.017(2) 0.028(2) -0.0009(17) 0.0043(17) 0.0003(17)
C35 0.018(2) 0.023(2) 0.028(2) 0.0000(17) 0.0036(17) -0.0005(16)
C36 0.031(3) 0.026(2) 0.036(3) -0.009(2) 0.008(2) -0.0006(19)
C37 0.0160(19) 0.0164(19) 0.025(2) -0.0015(16) -0.0016(15) 0.0013(15)
C38 0.017(2) 0.018(2) 0.035(2) -0.0049(17) -0.0003(17) -0.0048(16)
C39 0.016(2) 0.0177(19) 0.029(2) -0.0033(16) -0.0014(16) -0.0015(15)
C40 0.0163(19) 0.019(2) 0.024(2) 0.0002(16) -0.0021(16) 0.0018(15)
C41 0.017(2) 0.028(2) 0.038(3) -0.0017(19) -0.0097(18) -0.0008(17)
C42 0.015(2) 0.024(2) 0.040(3) 0.0007(19) -0.0078(18) 0.0048(17)
C43 0.020(2) 0.021(2) 0.025(2) 0.0027(16) -0.0034(16) -0.0021(16)
C44 0.017(2) 0.019(2) 0.035(2) 0.0000(17) -0.0016(17) 0.0009(16)
C45 0.019(2) 0.022(2) 0.027(2) 0.0038(17) -0.0026(16) 0.0019(16)
C46 0.021(2) 0.024(2) 0.029(2) -0.0002(17) -0.0047(17) -0.0016(17)
C47 0.023(2) 0.023(2) 0.034(2) 0.0019(18) -0.0015(18) 0.0025(17)
C48 0.019(2) 0.026(2) 0.031(2) 0.0007(18) -0.0028(17) 0.0045(17)
C49 0.027(2) 0.025(2) 0.044(3) -0.007(2) -0.006(2) 0.0051(19)
C50 0.017(2) 0.0169(19) 0.027(2) 0.0015(16) -0.0032(16) 0.0006(15)
C51 0.015(2) 0.021(2) 0.030(2) -0.0004(17) -0.0026(16) -0.0026(16)
C52 0.019(2) 0.017(2) 0.036(2) -0.0024(17) -0.0034(17) -0.0022(16)
C53 0.015(2) 0.032(2) 0.020(2) -0.0067(17) 0.0029(15) -0.0029(17)
C54 0.022(2) 0.033(2) 0.021(2) -0.0074(18) -0.0008(16) -0.0043(18)
C55 0.018(2) 0.040(3) 0.023(2) -0.0084(19) -0.0004(17) -0.0055(19)
C56 0.018(2) 0.039(3) 0.020(2) -0.0048(18) 0.0037(16) -0.0049(18)
C57 0.020(2) 0.033(2) 0.0157(19) -0.0020(17) 0.0014(16) -0.0030(17)
C58 0.019(2) 0.031(2) 0.018(2) -0.0011(17) -0.0018(16) -0.0040(17)
C59 0.016(2) 0.050(3) 0.020(2) 0.0002(19) 0.0030(16) -0.0046(19)
C60 0.025(2) 0.058(3) 0.016(2) -0.003(2) 0.0017(17) -0.006(2)
C61 0.022(2) 0.057(3) 0.016(2) -0.005(2) -0.0008(17) -0.008(2)
C62 0.029(3) 0.101(5) 0.018(2) -0.003(3) 0.0044(19) -0.013(3)
C63 0.017(2) 0.030(2) 0.0180(19) 0.0000(16) -0.0018(15) -0.0032(17)
C64 0.015(2) 0.030(2) 0.025(2) -0.0025(17) 0.0017(16) -0.0004(16)
C65 0.014(2) 0.032(2) 0.023(2) -0.0010(17) 0.0016(16) -0.0004(17)
C66 0.0110(18) 0.025(2) 0.0185(19) -0.0051(16) 0.0000(14) 0.0014(15)
C67 0.0135(19) 0.030(2) 0.025(2) -0.0102(17) -0.0014(16) -0.0015(16)
C68 0.015(2) 0.036(2) 0.026(2) -0.0153(19) -0.0025(16) 0.0001(18)
C69 0.014(2) 0.032(2) 0.020(2) -0.0042(17) 0.0024(15) -0.0006(16)
C70 0.0161(19) 0.023(2) 0.0166(18) -0.0027(15) 0.0020(15) 0.0016(15)
C71 0.0124(19) 0.025(2) 0.022(2) -0.0034(16) 0.0008(15) 0.0014(15)
C72 0.0105(19) 0.039(3) 0.021(2) -0.0034(18) 0.0020(15) 0.0024(17)
C73 0.018(2) 0.049(3) 0.017(2) -0.0061(19) 0.0018(16) 0.0026(19)
C74 0.016(2) 0.050(3) 0.018(2) -0.0081(19) -0.0019(16) -0.0015(19)
C75 0.020(2) 0.081(4) 0.019(2) -0.010(2) 0.0040(18) -0.003(2)
C76 0.0135(18) 0.0205(19) 0.0178(18) -0.0018(15) 0.0005(14) 0.0012(15)
C77 0.0116(19) 0.023(2) 0.028(2) -0.0022(17) 0.0010(16) 0.0009(15)
C78 0.0117(19) 0.025(2) 0.023(2) -0.0051(16) 0.0040(15) 0.0024(15)
C79 0.0134(18) 0.0174(18) 0.0154(18) 0.0026(14) 0.0000(14) -0.0013(14)
C80 0.023(2) 0.021(2) 0.0180(19) -0.0026(16) -0.0031(16) 0.0023(16)
C81 0.025(2) 0.024(2) 0.0151(18) -0.0023(16) -0.0022(16) 0.0038(17)
C82 0.0130(18) 0.023(2) 0.0131(17) 0.0027(15) 0.0001(14) 0.0016(15)
C83 0.0177(19) 0.0181(19) 0.0175(18) 0.0030(15) 0.0036(15) 0.0006(15)
C84 0.0159(19) 0.022(2) 0.0198(19) 0.0051(16) 0.0050(15) 0.0050(16)
C85 0.0128(19) 0.028(2) 0.0164(18) 0.0033(16) 0.0023(14) 0.0041(16)
C86 0.0145(19) 0.026(2) 0.0135(18) 0.0017(15) 0.0018(14) 0.0028(16)
C87 0.018(2) 0.023(2) 0.0145(18) 0.0007(15) 0.0021(15) 0.0028(16)
C88 0.020(2) 0.022(2) 0.029(2) 0.0027(17) 0.0060(17) 0.0049(16)
C89 0.0119(18) 0.029(2) 0.0180(19) -0.0007(16) 0.0021(14) 0.0001(16)
C90 0.015(2) 0.053(3) 0.030(2) -0.019(2) -0.0010(18) -0.003(2)
C91 0.010(2) 0.060(3) 0.029(2) -0.019(2) 0.0005(17) 0.001(2)
C92 0.0165(19) 0.0175(19) 0.0150(18) 0.0011(14) -0.0002(14) 0.0010(15)
C93 0.020(2) 0.030(2) 0.028(2) -0.0120(18) -0.0081(17) 0.0038(18)
C94 0.032(3) 0.032(2) 0.027(2) -0.0139(19) -0.0097(19) 0.009(2)
C95 0.0174(19) 0.0181(19) 0.0137(17) 0.0027(14) -0.0005(14) 0.0008(15)
C96 0.022(2) 0.0167(19) 0.0148(18) 0.0007(14) 0.0012(15) 0.0011(15)
C97 0.020(2) 0.0188(19) 0.0151(18) 0.0027(15) 0.0043(15) 0.0021(15)
C98 0.0132(18) 0.021(2) 0.0189(19) 0.0016(15) 0.0024(14) 0.0020(15)
C99 0.0133(18) 0.0188(19) 0.0178(18) -0.0019(15) 0.0018(14) 0.0007(15)
C100 0.0160(19) 0.0180(19) 0.0168(18) 0.0000(15) 0.0001(14) 0.0034(15)
C101 0.022(2) 0.020(2) 0.024(2) 0.0004(16) 0.0028(16) 0.0052(16)
C102 0.0145(19) 0.020(2) 0.0207(19) -0.0012(15) 0.0009(15) 0.0011(15)
C103 0.016(2) 0.057(4) 0.075(4) -0.041(3) -0.003(2) 0.002(2)
C104 0.010(2) 0.057(4) 0.081(4) -0.045(3) -0.004(2) 0.008(2)
C105 0.0125(18) 0.0176(18) 0.0157(18) 0.0025(14) -0.0014(14) 0.0001(14)
C106 0.018(2) 0.0191(19) 0.022(2) 0.0024(16) -0.0024(15) -0.0058(15)
C107 0.0164(19) 0.0190(19) 0.0193(19) 0.0040(15) -0.0001(15) -0.0058(15)
C108 0.0171(19) 0.0157(18) 0.0138(17) 0.0017(14) -0.0031(14) 0.0004(14)
C109 0.0154(18) 0.0169(18) 0.0136(17) 0.0025(14) 0.0002(14) 0.0007(14)
C110 0.0159(19) 0.0149(18) 0.0179(18) 0.0014(14) -0.0015(15) 0.0009(14)
C111 0.021(2) 0.0179(19) 0.0149(18) -0.0011(15) -0.0002(15) 0.0034(15)
C112 0.018(2) 0.0191(19) 0.0163(18) 0.0040(15) 0.0031(15) 0.0040(15)
C113 0.0126(18) 0.0203(19) 0.0193(19) 0.0037(15) 0.0015(14) 0.0005(15)
C114 0.026(2) 0.029(2) 0.018(2) 0.0011(17) 0.0049(17) 0.0009(18)
C115 0.0165(19) 0.0166(18) 0.0161(18) -0.0022(14) -0.0001(14) 0.0007(15)
C116 0.0146(19) 0.023(2) 0.0198(19) -0.0042(16) -0.0058(15) 0.0007(15)
C117 0.021(2) 0.023(2) 0.0171(19) -0.0025(16) -0.0039(15) 0.0032(16)
C118 0.0154(19) 0.024(2) 0.0147(18) 0.0042(15) -0.0004(14) -0.0020(15)
C119 0.0123(18) 0.023(2) 0.024(2) 0.0017(16) 0.0011(15) -0.0041(15)
C120 0.0145(19) 0.023(2) 0.021(2) 0.0032(16) 0.0039(15) -0.0035(15)
C121 0.0158(19) 0.021(2) 0.0148(18) 0.0036(15) -0.0011(14) 0.0006(15)
C122 0.0121(18) 0.0192(19) 0.0150(18) 0.0010(14) 0.0027(14) 0.0014(14)
C123 0.0146(19) 0.0195(19) 0.0176(19) 0.0012(15) 0.0007(15) -0.0002(15)
C124 0.020(2) 0.023(2) 0.0159(18) -0.0031(15) 0.0012(15) 0.0025(16)
C125 0.016(2) 0.027(2) 0.0190(19) 0.0001(16) 0.0042(15) 0.0019(16)
C126 0.0129(19) 0.029(2) 0.020(2) 0.0033(16) 0.0016(15) 0.0002(16)
C127 0.021(2) 0.046(3) 0.022(2) -0.0030(19) 0.0080(17) 0.001(2)
C128 0.0123(18) 0.022(2) 0.0164(18) -0.0026(15) 0.0017(14) -0.0015(15)
C129 0.018(2) 0.021(2) 0.0172(19) -0.0053(15) -0.0021(15) 0.0020(15)
C130 0.0156(19) 0.023(2) 0.0164(18) -0.0042(15) -0.0004(15) 0.0006(15)
C131 0.0132(18) 0.0194(19) 0.0153(18) 0.0004(14) 0.0014(14) -0.0001(14)
C132 0.014(2) 0.028(2) 0.032(2) 0.0060(18) -0.0061(17) -0.0011(17)
C133 0.017(2) 0.024(2) 0.035(2) 0.0056(18) -0.0070(17) 0.0004(17)
C134 0.0141(19) 0.0173(19) 0.0199(19) -0.0020(15) 0.0024(15) 0.0001(15)
C135 0.0138(18) 0.0181(19) 0.0150(18) -0.0001(14) 0.0023(14) 0.0017(14)
C136 0.0149(18) 0.0175(19) 0.0176(18) -0.0004(15) 0.0004(15) 0.0011(15)
C137 0.021(2) 0.0146(19) 0.023(2) -0.0006(15) 0.0020(16) -0.0011(15)
C138 0.023(2) 0.019(2) 0.022(2) 0.0030(16) 0.0005(16) 0.0035(16)
C139 0.022(2) 0.021(2) 0.0191(19) 0.0014(16) -0.0023(16) 0.0030(16)
C140 0.038(3) 0.022(2) 0.029(2) 0.0087(18) -0.004(2) -0.0011(19)
C141 0.0153(19) 0.0171(19) 0.0167(18) 0.0009(14) 0.0021(14) -0.0007(14)
C142 0.026(2) 0.020(2) 0.028(2) -0.0052(17) -0.0051(18) -0.0035(17)
C143 0.023(2) 0.0158(19) 0.030(2) -0.0016(16) -0.0029(17) -0.0011(16)
C144 0.0143(18) 0.0177(19) 0.0160(18) 0.0022(14) 0.0003(14) -0.0018(14)
C145 0.020(2) 0.025(2) 0.023(2) 0.0041(17) -0.0068(16) -0.0024(17)
C146 0.022(2) 0.023(2) 0.023(2) 0.0050(17) -0.0080(17) 0.0003(17)
C147 0.0148(18) 0.0169(19) 0.0178(18) 0.0002(15) 0.0040(14) 0.0010(15)
C148 0.0149(18) 0.0173(18) 0.0159(18) 0.0015(14) 0.0041(14) -0.0005(15)
C149 0.0146(19) 0.0182(19) 0.0197(19) -0.0016(15) 0.0020(15) 0.0006(15)
C150 0.022(2) 0.0160(19) 0.025(2) 0.0021(16) 0.0057(16) -0.0026(16)
C151 0.022(2) 0.019(2) 0.022(2) 0.0028(16) 0.0054(16) 0.0035(16)
C152 0.021(2) 0.021(2) 0.0185(19) 0.0028(16) 0.0017(15) 0.0015(16)
C153 0.037(3) 0.026(2) 0.028(2) 0.0102(19) -0.0004(19) -0.004(2)
C154 0.0156(19) 0.022(2) 0.0187(19) -0.0015(15) 0.0028(15) -0.0014(15)
C155 0.039(3) 0.026(2) 0.036(3) -0.001(2) -0.009(2) -0.014(2)
C156 0.038(3) 0.023(2) 0.038(3) 0.001(2) -0.008(2) -0.013(2)
C157 0.22(2) 0.37(4) 0.44(4) 0.34(3) -0.21(3) -0.20(2)
C158 0.114(11) 0.101(10) 0.24(2) 0.004(11) -0.078(12) -0.003(8)
C159 0.073(5) 0.065(5) 0.075(5) -0.009(4) 0.007(4) 0.023(4)
C160 0.107(10) 0.163(14) 0.35(3) 0.168(17) -0.118(14) -0.064(10)
C161 0.063(4) 0.023(2) 0.041(3) 0.004(2) 0.000(3) 0.000(2)
O169 0.009(4) 0.013(4) 0.015(4) 0.004(4) -0.002(3) -0.005(3)
loop_
_atom_type_symbol
_atom_type_description
_atom_type_scat_dispersion_real
_atom_type_scat_dispersion_imag
_atom_type_scat_source
C C 0.0181 0.0091 'International Tables Vol C Tables 4.2.6.8 and 6.1.1.4'
H H 0.0000 0.0000 'International Tables Vol C Tables 4.2.6.8 and 6.1.1.4'
N N 0.0311 0.0180 'International Tables Vol C Tables 4.2.6.8 and 6.1.1.4'
O O 0.0492 0.0322 'International Tables Vol C Tables 4.2.6.8 and 6.1.1.4'
Ni Ni -3.0029 0.5091 'International Tables Vol C Tables 4.2.6.8 and 6.1.1.4'
S S 0.3331 0.5567 'International Tables Vol C Tables 4.2.6.8 and 6.1.1.4'
loop_
_geom_angle_atom_site_label_1
_geom_angle_atom_site_label_2
_geom_angle_atom_site_label_3
_geom_angle
_geom_angle_site_symmetry_3
O2 Ni1 O4 85.39(11) .
O2 Ni1 O1 82.37(11) .
O4 Ni1 O1 81.66(11) .
O2 Ni1 O6 174.10(12) .
O4 Ni1 O6 95.35(12) .
O1 Ni1 O6 91.93(12) .
O2 Ni1 O7 88.47(11) .
O4 Ni1 O7 173.86(12) .
O1 Ni1 O7 97.55(11) .
O6 Ni1 O7 90.76(12) .
O2 Ni1 O10 91.78(12) .
O4 Ni1 O10 90.16(12) .
O1 Ni1 O10 170.28(11) .
O6 Ni1 O10 94.07(12) .
O7 Ni1 O10 90.02(12) .
O2 Ni1 Ni2 42.89(8) .
O4 Ni1 Ni2 43.70(8) .
O1 Ni1 Ni2 87.12(8) .
O6 Ni1 Ni2 138.75(9) .
O7 Ni1 Ni2 130.27(9) .
O10 Ni1 Ni2 83.32(8) .
O2 Ni2 N13 89.44(13) .
O2 Ni2 N17 176.17(13) .
N13 Ni2 N17 93.86(14) .
O2 Ni2 O3 80.52(11) .
N13 Ni2 O3 100.73(12) .
N17 Ni2 O3 100.75(13) .
O2 Ni2 O4 82.41(11) .
N13 Ni2 O4 171.24(13) .
N17 Ni2 O4 94.18(13) .
O3 Ni2 O4 81.17(11) .
O2 Ni2 O9 91.09(11) .
N13 Ni2 O9 88.98(13) .
N17 Ni2 O9 87.02(13) .
O3 Ni2 O9 167.02(11) .
O4 Ni2 O9 87.96(12) .
O2 Ni2 Ni1 41.54(8) .
N13 Ni2 Ni1 129.35(10) .
N17 Ni2 Ni1 134.76(11) .
O3 Ni2 Ni1 85.39(8) .
O4 Ni2 Ni1 42.02(8) .
O9 Ni2 Ni1 81.79(8) .
O2 Ni3 O1 80.62(11) .
O2 Ni3 O3 80.32(11) .
O1 Ni3 O3 82.38(11) .
O2 Ni3 N9 91.38(12) .
O1 Ni3 N9 170.15(12) .
O3 Ni3 N9 102.04(12) .
O2 Ni3 N5 176.60(12) .
O1 Ni3 N5 96.17(12) .
O3 Ni3 N5 98.21(12) .
N9 Ni3 N5 91.93(13) .
O2 Ni3 O8 91.83(11) .
O1 Ni3 O8 83.99(12) .
O3 Ni3 O8 165.21(11) .
N9 Ni3 O8 90.58(13) .
N5 Ni3 O8 88.93(12) .
O4 Ni4 O1 80.55(11) .
O4 Ni4 N1 176.65(13) .
O1 Ni4 N1 96.22(12) .
O4 Ni4 N21 91.54(13) .
O1 Ni4 N21 171.76(13) .
N1 Ni4 N21 91.66(14) .
O4 Ni4 O3 81.83(11) .
O1 Ni4 O3 82.60(11) .
N1 Ni4 O3 98.66(12) .
N21 Ni4 O3 98.66(13) .
O4 Ni4 O5 89.35(12) .
O1 Ni4 O5 83.96(12) .
N1 Ni4 O5 89.46(13) .
N21 Ni4 O5 93.70(13) .
O3 Ni4 O5 164.97(11) .
O15 Ni5 N8 173.61(12) .
O15 Ni5 O14 79.95(11) .
N8 Ni5 O14 93.76(12) .
O15 Ni5 O13 81.73(11) .
N8 Ni5 O13 98.66(12) .
O14 Ni5 O13 82.33(11) .
O15 Ni5 N12 95.57(12) .
N8 Ni5 N12 90.67(13) .
O14 Ni5 N12 174.93(13) .
O13 Ni5 N12 99.46(12) .
O15 Ni5 O18 84.43(11) .
N8 Ni5 O18 94.24(12) .
O14 Ni5 O18 87.75(11) .
O13 Ni5 O18 164.18(11) .
N12 Ni5 O18 89.46(12) .
O16 Ni6 N16 174.32(13) .
O16 Ni6 O13 81.54(11) .
N16 Ni6 O13 97.55(12) .
O16 Ni6 O15 82.70(11) .
N16 Ni6 O15 91.62(12) .
O13 Ni6 O15 80.87(11) .
O16 Ni6 N20 91.34(12) .
N16 Ni6 N20 94.32(14) .
O13 Ni6 N20 104.12(12) .
O15 Ni6 N20 171.64(13) .
O16 Ni6 O21 89.32(11) .
N16 Ni6 O21 90.41(13) .
O13 Ni6 O21 165.34(11) .
O15 Ni6 O21 86.64(11) .
N20 Ni6 O21 87.45(13) .
N24 Ni7 O16 90.82(12) .
N24 Ni7 N4 93.12(14) .
O16 Ni7 N4 175.93(13) .
N24 Ni7 O14 170.32(13) .
O16 Ni7 O14 79.81(11) .
N4 Ni7 O14 96.21(12) .
N24 Ni7 O13 98.53(12) .
O16 Ni7 O13 80.71(11) .
N4 Ni7 O13 99.71(12) .
O14 Ni7 O13 82.45(11) .
N24 Ni7 O17 93.60(13) .
O16 Ni7 O17 92.02(11) .
N4 Ni7 O17 86.70(12) .
O14 Ni7 O17 84.40(11) .
O13 Ni7 O17 165.91(11) .
O16 Ni8 O15 84.22(11) .
O16 Ni8 O14 81.73(11) .
O15 Ni8 O14 80.68(11) .
O16 Ni8 O19 85.85(11) .
O15 Ni8 O19 170.05(11) .
O14 Ni8 O19 97.21(11) .
O16 Ni8 O20 175.95(11) .
O15 Ni8 O20 93.85(11) .
O14 Ni8 O20 94.45(11) .
O19 Ni8 O20 96.01(11) .
O16 Ni8 O22 93.76(11) .
O15 Ni8 O22 90.75(11) .
O14 Ni8 O22 170.65(11) .
O19 Ni8 O22 90.60(11) .
O20 Ni8 O22 89.82(11) .
O32 Ni9 O30 82.44(12) .
O32 Ni9 O31 82.37(12) .
O30 Ni9 O31 82.33(12) .
O32 Ni9 O35 175.12(12) .
O30 Ni9 O35 92.86(12) .
O31 Ni9 O35 95.74(12) .
O32 Ni9 O36 96.49(12) .
O30 Ni9 O36 176.90(13) .
O31 Ni9 O36 94.65(13) .
O35 Ni9 O36 88.13(13) .
O32 Ni9 O38 89.15(15) .
O30 Ni9 O38 96.45(16) .
O31 Ni9 O38 171.52(15) .
O35 Ni9 O38 92.70(15) .
O36 Ni9 O38 86.43(17) .
N36 Ni10 O29 99.65(12) .
N36 Ni10 O32 173.11(13) .
O29 Ni10 O32 80.99(12) .
N36 Ni10 O30 93.18(12) .
O29 Ni10 O30 81.82(11) .
O32 Ni10 O30 80.09(12) .
N36 Ni10 N32 91.35(14) .
O29 Ni10 N32 101.15(13) .
O32 Ni10 N32 95.26(13) .
O30 Ni10 N32 174.09(13) .
N36 Ni10 O158 87.62(14) .
O29 Ni10 O158 166.09(12) .
O32 Ni10 O158 90.39(13) .
O30 Ni10 O158 85.98(12) .
N32 Ni10 O158 90.44(14) .
N40 Ni11 O31 173.56(13) .
N40 Ni11 O29 97.68(12) .
O31 Ni11 O29 82.12(11) .
N40 Ni11 O30 93.17(13) .
O31 Ni11 O30 80.43(12) .
O29 Ni11 O30 81.31(11) .
N40 Ni11 N44 93.03(14) .
O31 Ni11 N44 93.38(13) .
O29 Ni11 N44 97.76(12) .
O30 Ni11 N44 173.81(13) .
N40 Ni11 O34 86.56(12) .
O31 Ni11 O34 93.05(12) .
O29 Ni11 O34 173.06(11) .
O30 Ni11 O34 93.02(11) .
N44 Ni11 O34 87.46(13) .
N28 Ni12 O32 90.99(13) .
N28 Ni12 O31 171.70(14) .
O32 Ni12 O31 80.87(12) .
N28 Ni12 O29 98.01(13) .
O32 Ni12 O29 81.25(11) .
O31 Ni12 O29 82.43(11) .
N28 Ni12 N48 91.42(15) .
O32 Ni12 N48 176.04(14) .
O31 Ni12 N48 96.62(13) .
O29 Ni12 N48 101.51(13) .
N28 Ni12 O33 91.79(15) .
O32 Ni12 O33 87.90(13) .
O31 Ni12 O33 86.33(13) .
O29 Ni12 O33 165.46(12) .
N48 Ni12 O33 88.88(14) .
O44 Ni13 N37 175.53(13) .
O44 Ni13 O42 81.99(11) .
N37 Ni13 O42 98.88(12) .
O44 Ni13 N41 91.00(12) .
N37 Ni13 N41 93.22(14) .
O42 Ni13 N41 97.54(12) .
O44 Ni13 O43 79.76(11) .
N37 Ni13 O43 96.01(13) .
O42 Ni13 O43 81.38(11) .
N41 Ni13 O43 170.76(12) .
O44 Ni13 O47 91.85(11) .
N37 Ni13 O47 86.71(13) .
O42 Ni13 O47 170.45(12) .
N41 Ni13 O47 89.84(13) .
O43 Ni13 O47 90.36(12) .
O45 Ni14 N33 175.00(13) .
O45 Ni14 O42 80.95(11) .
N33 Ni14 O42 98.56(12) .
O45 Ni14 N29 92.44(12) .
N33 Ni14 N29 92.55(13) .
O42 Ni14 N29 99.86(13) .
O45 Ni14 O43 79.78(11) .
N33 Ni14 O43 95.23(12) .
O42 Ni14 O43 81.44(11) .
N29 Ni14 O43 171.84(12) .
O45 Ni14 O46 88.23(12) .
N33 Ni14 O46 91.36(13) .
O42 Ni14 O46 165.33(12) .
N29 Ni14 O46 90.41(14) .
O43 Ni14 O46 86.94(12) .
O45 Ni15 N45 174.61(12) .
O45 Ni15 O42 81.46(11) .
N45 Ni15 O42 101.44(12) .
O45 Ni15 N25 92.51(12) .
N45 Ni15 N25 91.44(13) .
O42 Ni15 N25 100.15(12) .
O45 Ni15 O44 82.02(11) .
N45 Ni15 O44 93.92(12) .
O42 Ni15 O44 80.68(11) .
N25 Ni15 O44 174.30(13) .
O45 Ni15 O49 86.77(11) .
N45 Ni15 O49 89.63(12) .
O42 Ni15 O49 165.27(11) .
N25 Ni15 O49 89.14(12) .
O44 Ni15 O49 88.96(11) .
O45 Ni16 O44 83.95(11) .
O45 Ni16 O43 81.00(11) .
O44 Ni16 O43 80.84(11) .
O45 Ni16 O48 88.74(12) .
O44 Ni16 O48 172.56(12) .
O43 Ni16 O48 99.38(12) .
O45 Ni16 O53 175.58(12) .
O44 Ni16 O53 99.10(12) .
O43 Ni16 O53 96.28(11) .
O48 Ni16 O53 88.28(12) .
O45 Ni16 O51 92.97(11) .
O44 Ni16 O51 90.71(11) .
O43 Ni16 O51 170.07(11) .
O48 Ni16 O51 88.31(12) .
O53 Ni16 O51 90.19(11) .
O12 S1 O9 109.98(19) .
O12 S1 O11 109.2(2) .
O9 S1 O11 109.74(19) .
O12 S1 O10 108.69(18) .
O9 S1 O10 110.31(17) .
O11 S1 O10 108.89(18) .
O23 S2 O24 109.46(18) .
O23 S2 O21 109.64(18) .
O24 S2 O21 109.81(17) .
O23 S2 O22 108.94(18) .
O24 S2 O22 109.63(17) .
O21 S2 O22 109.34(17) .
O67 S3 O64 143.8(4) .
O67 S3 O65 115.6(3) .
O64 S3 O65 48.4(4) .
O67 S3 O68 52.4(4) .
O64 S3 O68 115.5(5) .
O65 S3 O68 141.1(4) .
O67 S3 O70 106.8(3) .
O64 S3 O70 109.2(4) .
O65 S3 O70 107.5(3) .
O68 S3 O70 111.4(4) .
O67 S3 O69 108.0(3) .
O64 S3 O69 62.5(4) .
O65 S3 O69 108.4(3) .
O68 S3 O69 57.3(4) .
O70 S3 O69 110.5(3) .
O67 S3 O66 57.6(3) .
O64 S3 O66 102.4(4) .
O65 S3 O66 58.8(3) .
O68 S3 O66 103.4(4) .
O70 S3 O66 114.7(4) .
O69 S3 O66 134.8(4) .
O27 S4 O28 110.9(2) .
O27 S4 O26 109.58(18) .
O28 S4 O26 108.9(2) .
O27 S4 O25 109.96(18) .
O28 S4 O25 108.91(18) .
O26 S4 O25 108.53(18) .
O52 S5 O50 109.42(17) .
O52 S5 O49 108.61(17) .
O50 S5 O49 110.89(17) .
O52 S5 O51 108.36(17) .
O50 S5 O51 108.64(17) .
O49 S5 O51 110.87(16) .
O63 S6 O59 124.0(14) .
O63 S6 O60 147.5(9) .
O59 S6 O60 51.5(10) .
O63 S6 O62 53.3(10) .
O59 S6 O62 147.2(11) .
O60 S6 O62 110.6(2) .
O63 S6 O57 102.9(9) .
O59 S6 O57 102.3(11) .
O60 S6 O57 109.5(2) .
O62 S6 O57 110.2(2) .
O63 S6 O58 61.3(10) .
O59 S6 O58 63.1(10) .
O60 S6 O58 107.7(2) .
O62 S6 O58 107.7(2) .
O57 S6 O58 111.0(2) .
O63 S6 O61 107.3(13) .
O59 S6 O61 107.1(13) .
O60 S6 O61 57.1(8) .
O62 S6 O61 55.6(8) .
O57 S6 O61 113.4(10) .
O58 S6 O61 135.6(10) .
O39 S7 O41 109.8(3) .
O39 S7 O40 110.2(2) .
O41 S7 O40 110.2(2) .
O39 S7 O38 109.5(2) .
O41 S7 O38 107.3(3) .
O40 S7 O38 109.8(3) .
O39 S7 O37 83.0(5) .
O41 S7 O37 78.2(6) .
O40 S7 O37 159.4(6) .
O38 S7 O37 49.8(6) .
O56 S8 O54 110.35(18) .
O56 S8 O55 110.50(19) .
O54 S8 O55 109.15(19) .
O56 S8 O53 108.63(17) .
O54 S8 O53 109.23(18) .
O55 S8 O53 108.96(17) .
Ni1 O1 Ni4 97.93(12) .
Ni1 O1 Ni3 97.08(12) .
Ni4 O1 Ni3 96.94(11) .
Ni1 O2 Ni2 95.57(12) .
Ni1 O2 Ni3 99.09(13) .
Ni2 O2 Ni3 99.98(12) .
Ni4 O3 Ni2 97.68(11) .
Ni4 O3 Ni3 96.10(11) .
Ni2 O3 Ni3 98.46(11) .
Ni1 O4 Ni4 99.49(12) .
Ni1 O4 Ni2 94.28(12) .
Ni4 O4 Ni2 98.39(12) .
S1 O9 Ni2 129.63(18) .
S1 O10 Ni1 130.50(17) .
Ni6 O13 Ni7 97.75(11) .
Ni6 O13 Ni5 97.73(11) .
Ni7 O13 Ni5 96.51(11) .
Ni8 O14 Ni7 98.25(12) .
Ni8 O14 Ni5 98.65(12) .
Ni7 O14 Ni5 96.60(11) .
Ni8 O15 Ni5 100.19(12) .
Ni8 O15 Ni6 94.36(11) .
Ni5 O15 Ni6 98.85(11) .
Ni8 O16 Ni6 96.33(12) .
Ni8 O16 Ni7 99.35(12) .
Ni6 O16 Ni7 99.14(12) .
S2 O21 Ni6 124.76(17) .
S2 O22 Ni8 122.20(16) .
Ni12 O29 Ni10 98.24(12) .
Ni12 O29 Ni11 96.76(12) .
Ni10 O29 Ni11 97.90(12) .
Ni9 O30 Ni10 97.96(12) .
Ni9 O30 Ni11 98.19(13) .
Ni10 O30 Ni11 97.63(11) .
Ni9 O31 Ni12 97.37(13) .
Ni9 O31 Ni11 98.18(13) .
Ni12 O31 Ni11 97.25(12) .
Ni9 O32 Ni12 98.31(13) .
Ni9 O32 Ni10 98.25(12) .
Ni12 O32 Ni10 98.39(12) .
O158 O37 O38 124.5(12) .
O158 O37 S7 152.9(12) .
O38 O37 S7 50.9(6) .
O37 O38 S7 79.3(7) .
O37 O38 Ni9 116.1(7) .
S7 O38 Ni9 123.1(3) .
Ni13 O42 Ni15 97.93(11) .
Ni13 O42 Ni14 98.23(11) .
Ni15 O42 Ni14 97.13(12) .
Ni16 O43 Ni14 98.00(12) .
Ni16 O43 Ni13 97.89(11) .
Ni14 O43 Ni13 97.29(11) .
Ni16 O44 Ni13 100.84(12) .
Ni16 O44 Ni15 94.93(12) .
Ni13 O44 Ni15 98.34(11) .
Ni16 O45 Ni15 96.83(12) .
Ni16 O45 Ni14 100.32(12) .
Ni15 O45 Ni14 99.21(12) .
S5 O49 Ni15 124.65(17) .
S5 O51 Ni16 123.89(16) .
S8 O53 Ni16 126.00(17) .
O63 O58 S6 54.5(8) .
O63 O58 O59 108.6(11) .
S6 O58 O59 54.4(8) .
O60 O59 S6 67.8(11) .
O60 O59 O58 121.0(16) .
S6 O59 O58 62.5(9) .
O59 O60 O61 124.0(13) .
O59 O60 S6 60.7(9) .
O61 O60 S6 65.5(9) .
O62 O61 O60 113.2(14) .
O62 O61 S6 58.1(8) .
O60 O61 S6 57.3(7) .
O63 O62 O61 123.0(13) .
O63 O62 S6 58.9(10) .
O61 O62 S6 66.3(8) .
O62 O63 S6 67.8(10) .
O62 O63 O58 122.4(15) .
S6 O63 O58 64.2(10) .
O65 O64 S3 66.0(4) .
O65 O64 O69 124.9(6) .
S3 O64 O69 62.6(3) .
O64 O65 S3 65.6(4) .
O64 O65 O66 124.9(6) .
S3 O65 O66 67.1(4) .
O67 O66 O65 107.5(5) .
O67 O66 S3 54.1(3) .
O65 O66 S3 54.1(3) .
O68 O67 S3 64.3(4) .
O68 O67 O66 122.5(6) .
S3 O67 O66 68.2(4) .
O67 O68 O69 126.3(6) .
O67 O68 S3 63.3(4) .
O69 O68 S3 65.4(4) .
O68 O69 O64 108.4(5) .
O68 O69 S3 57.3(4) .
O64 O69 S3 54.9(3) .
O76 O77 O168 69.6(6) .
O37 O158 Ni10 120.8(8) .
O109 O161 O72 142.2(15) 3_666
O79 O168 O77 159.0(11) .
C1 N1 C2 105.9(4) .
C1 N1 Ni4 127.3(3) .
C2 N1 Ni4 126.8(3) .
C1 N2 C3 107.4(4) .
C1 N2 C4 126.4(4) .
C3 N2 C4 126.2(4) .
C11 N3 C13 107.0(3) .
C11 N3 C8 127.4(3) .
C13 N3 C8 125.5(3) .
C11 N4 C12 105.9(3) .
C11 N4 Ni7 130.4(3) .
C12 N4 Ni7 123.3(3) .
C14 N5 C15 106.3(3) .
C14 N5 Ni3 128.1(3) .
C15 N5 Ni3 125.6(3) .
C14 N6 C16 107.2(3) .
C14 N6 C17 127.2(3) .
C16 N6 C17 125.5(3) .
C24 N7 C25 106.7(3) .
C24 N7 C19 127.6(3) .
C25 N7 C19 125.6(3) .
C24 N8 C26 106.4(3) .
C24 N8 Ni5 127.7(3) .
C26 N8 Ni5 125.7(3) .
C27 N9 C28 105.8(3) .
C27 N9 Ni3 130.1(3) .
C28 N9 Ni3 123.3(3) .
C27 N10 C29 106.7(3) .
C27 N10 C30 126.4(3) .
C29 N10 C30 126.3(4) .
C37 N11 C38 106.5(4) .
C37 N11 C32 127.5(4) .
C38 N11 C32 125.5(4) .
C37 N12 C39 105.6(3) .
C37 N12 Ni5 131.4(3) .
C39 N12 Ni5 122.0(3) .
C40 N13 C41 105.8(4) .
C40 N13 Ni2 129.9(3) .
C41 N13 Ni2 123.2(3) .
C40 N14 C42 107.2(4) .
C40 N14 C43 126.5(4) .
C42 N14 C43 126.2(4) .
C50 N15 C52 107.0(4) .
C50 N15 C45 126.8(4) .
C52 N15 C45 126.2(4) .
C50 N16 C51 106.0(3) .
C50 N16 Ni6 128.8(3) .
C51 N16 Ni6 124.7(3) .
C53 N17 C54 106.1(4) .
C53 N17 Ni2 129.8(3) .
C54 N17 Ni2 123.9(3) .
C53 N18 C55 106.7(4) .
C53 N18 C56 127.0(4) .
C55 N18 C56 126.2(4) .
C63 N19 C64 106.8(4) .
C63 N19 C58 126.7(4) .
C64 N19 C58 126.4(4) .
C63 N20 C65 105.8(4) .
C63 N20 Ni6 131.3(3) .
C65 N20 Ni6 122.9(3) .
C66 N21 C67 106.6(3) .
C66 N21 Ni4 127.4(3) .
C67 N21 Ni4 125.6(3) .
C66 N22 C68 107.5(3) .
C66 N22 C69 126.6(4) .
C68 N22 C69 125.9(4) .
C76 N23 C78 107.2(3) .
C76 N23 C71 127.6(3) .
C78 N23 C71 125.2(3) .
C76 N24 C77 106.3(3) .
C76 N24 Ni7 132.0(3) .
C77 N24 Ni7 121.6(3) .
C79 N25 C80 106.0(3) .
C79 N25 Ni15 130.4(3) .
C80 N25 Ni15 123.6(3) .
C79 N26 C81 106.8(3) .
C79 N26 C82 127.9(3) .
C81 N26 C82 125.3(3) .
C89 N27 C91 106.4(4) .
C89 N27 C86 127.3(3) .
C91 N27 C86 126.2(4) .
C89 N28 C90 105.6(4) .
C89 N28 Ni12 130.8(3) .
C90 N28 Ni12 123.4(3) .
C92 N29 C93 105.7(3) .
C92 N29 Ni14 131.4(3) .
C93 N29 Ni14 122.9(3) .
C92 N30 C94 106.4(4) .
C92 N30 C95 127.8(3) .
C94 N30 C95 125.6(4) .
C102 N31 C104 105.7(4) .
C102 N31 C99 128.3(4) .
C104 N31 C99 125.9(4) .
C102 N32 C103 105.1(4) .
C102 N32 Ni10 132.9(3) .
C103 N32 Ni10 121.8(3) .
C105 N33 C106 106.0(3) .
C105 N33 Ni14 127.8(3) .
C106 N33 Ni14 126.1(3) .
C105 N34 C107 107.1(3) .
C105 N34 C108 126.9(3) .
C107 N34 C108 125.9(3) .
C115 N35 C117 107.3(3) .
C115 N35 C110 126.8(3) .
C117 N35 C110 125.9(3) .
C115 N36 C116 106.3(3) .
C115 N36 Ni10 128.0(3) .
C116 N36 Ni10 125.7(3) .
C118 N37 C119 105.6(3) .
C118 N37 Ni13 128.1(3) .
C119 N37 Ni13 126.1(3) .
C118 N38 C120 106.7(3) .
C118 N38 C121 126.8(3) .
C120 N38 C121 126.5(3) .
C128 N39 C130 107.1(3) .
C128 N39 C123 127.4(3) .
C130 N39 C123 125.5(3) .
C128 N40 C129 106.0(3) .
C128 N40 Ni11 129.5(3) .
C129 N40 Ni11 124.4(3) .
C131 N41 C132 106.2(3) .
C131 N41 Ni13 128.9(3) .
C132 N41 Ni13 123.9(3) .
C131 N42 C133 107.1(3) .
C131 N42 C134 127.3(3) .
C133 N42 C134 125.6(4) .
C141 N43 C143 107.6(3) .
C141 N43 C136 127.5(3) .
C143 N43 C136 124.7(3) .
C141 N44 C142 105.9(3) .
C141 N44 Ni11 128.7(3) .
C142 N44 Ni11 125.0(3) .
C144 N45 C145 106.3(3) .
C144 N45 Ni15 129.0(3) .
C145 N45 Ni15 123.8(3) .
C144 N46 C146 106.7(3) .
C144 N46 C147 126.7(3) .
C146 N46 C147 126.5(3) .
C154 N47 C156 107.0(4) .
C154 N47 C149 127.3(4) .
C156 N47 C149 125.7(4) .
C154 N48 C155 106.2(4) .
C154 N48 Ni12 130.7(3) .
C155 N48 Ni12 122.6(3) .
N1 C1 N2 110.8(4) .
N1 C1 H1 124.6 .
N2 C1 H1 124.6 .
C3 C2 N1 110.0(4) .
C3 C2 H2 125.0 .
N1 C2 H2 125.0 .
C2 C3 N2 106.0(4) .
C2 C3 H3 127.0 .
N2 C3 H3 127.0 .
C5 C4 C9 122.1(4) .
C5 C4 N2 118.9(4) .
C9 C4 N2 119.0(4) .
C4 C5 C6 119.9(4) .
C4 C5 H5 120.0 .
C6 C5 H5 120.0 .
C5 C6 C7 118.9(4) .
C5 C6 C10 120.8(4) .
C7 C6 C10 120.3(4) .
C8 C7 C6 120.5(4) .
C8 C7 H7 119.7 .
C6 C7 H7 119.7 .
C7 C8 C9 121.4(4) .
C7 C8 N3 119.3(4) .
C9 C8 N3 119.3(4) .
C4 C9 C8 117.2(4) .
C4 C9 H9 121.4 .
C8 C9 H9 121.4 .
C6 C10 H10A 109.5 .
C6 C10 H10B 109.5 .
H10A C10 H10B 109.5 .
C6 C10 H10C 109.5 .
H10A C10 H10C 109.5 .
H10B C10 H10C 109.5 .
N4 C11 N3 110.9(4) .
N4 C11 H11 124.5 .
N3 C11 H11 124.5 .
C13 C12 N4 110.2(4) .
C13 C12 H12 124.9 .
N4 C12 H12 124.9 .
C12 C13 N3 106.0(4) .
C12 C13 H13 127.0 .
N3 C13 H13 127.0 .
N5 C14 N6 110.7(3) .
N5 C14 H14 124.6 .
N6 C14 H14 124.6 .
C16 C15 N5 109.8(3) .
C16 C15 H15 125.1 .
N5 C15 H15 125.1 .
C15 C16 N6 105.9(3) .
C15 C16 H16 127.0 .
N6 C16 H16 127.0 .
C18 C17 C22 122.0(4) .
C18 C17 N6 120.0(4) .
C22 C17 N6 117.9(3) .
C17 C18 C19 117.4(4) .
C17 C18 H18 121.3 .
C19 C18 H18 121.3 .
C20 C19 C18 121.5(4) .
C20 C19 N7 119.3(4) .
C18 C19 N7 119.2(3) .
C19 C20 C21 120.4(4) .
C19 C20 H20 119.8 .
C21 C20 H20 119.8 .
C20 C21 C22 118.9(4) .
C20 C21 C23 120.3(4) .
C22 C21 C23 120.8(4) .
C17 C22 C21 119.7(4) .
C17 C22 H22 120.2 .
C21 C22 H22 120.2 .
C21 C23 H23A 109.5 .
C21 C23 H23B 109.5 .
H23A C23 H23B 109.5 .
C21 C23 H23C 109.5 .
H23A C23 H23C 109.5 .
H23B C23 H23C 109.5 .
N8 C24 N7 111.1(3) .
N8 C24 H24 124.4 .
N7 C24 H24 124.4 .
C26 C25 N7 106.3(4) .
C26 C25 H25 126.8 .
N7 C25 H25 126.8 .
C25 C26 N8 109.5(4) .
C25 C26 H26 125.3 .
N8 C26 H26 125.3 .
N9 C27 N10 111.5(4) .
N9 C27 H27 124.3 .
N10 C27 H27 124.3 .
C29 C28 N9 109.9(4) .
C29 C28 H28 125.1 .
N9 C28 H28 125.1 .
C28 C29 N10 106.2(4) .
C28 C29 H29 126.9 .
N10 C29 H29 126.9 .
C31 C30 C35 122.1(4) .
C31 C30 N10 118.9(4) .
C35 C30 N10 119.0(4) .
C30 C31 C32 117.5(4) .
C30 C31 H31 121.2 .
C32 C31 H31 121.2 .
C31 C32 C33 121.5(4) .
C31 C32 N11 119.1(4) .
C33 C32 N11 119.4(4) .
C34 C33 C32 120.2(4) .
C34 C33 H33 119.9 .
C32 C33 H33 119.9 .
C35 C34 C33 118.7(4) .
C35 C34 C36 121.1(4) .
C33 C34 C36 120.2(4) .
C34 C35 C30 120.0(4) .
C34 C35 H35 120.0 .
C30 C35 H35 120.0 .
C34 C36 H36A 109.5 .
C34 C36 H36B 109.5 .
H36A C36 H36B 109.5 .
C34 C36 H36C 109.5 .
H36A C36 H36C 109.5 .
H36B C36 H36C 109.5 .
N12 C37 N11 111.3(4) .
N12 C37 H37 124.4 .
N11 C37 H37 124.4 .
C39 C38 N11 106.3(4) .
C39 C38 H38 126.9 .
N11 C38 H38 126.9 .
C38 C39 N12 110.2(4) .
C38 C39 H39 124.9 .
N12 C39 H39 124.9 .
N13 C40 N14 111.2(4) .
N13 C40 H40 124.4 .
N14 C40 H40 124.4 .
C42 C41 N13 110.3(4) .
C42 C41 H41 124.9 .
N13 C41 H41 124.9 .
C41 C42 N14 105.4(4) .
C41 C42 H42 127.3 .
N14 C42 H42 127.3 .
C48 C43 C44 121.8(4) .
C48 C43 N14 119.7(4) .
C44 C43 N14 118.4(4) .
C45 C44 C43 117.2(4) .
C45 C44 H44 121.4 .
C43 C44 H44 121.4 .
C46 C45 C44 121.9(4) .
C46 C45 N15 120.1(4) .
C44 C45 N15 118.0(4) .
C45 C46 C47 120.1(4) .
C45 C46 H46 119.9 .
C47 C46 H46 119.9 .
C48 C47 C46 118.8(4) .
C48 C47 C49 121.0(4) .
C46 C47 C49 120.2(4) .
C47 C48 C43 120.1(4) .
C47 C48 H48 119.9 .
C43 C48 H48 119.9 .
C47 C49 H49A 109.5 .
C47 C49 H49B 109.5 .
H49A C49 H49B 109.5 .
C47 C49 H49C 109.5 .
H49A C49 H49C 109.5 .
H49B C49 H49C 109.5 .
N16 C50 N15 111.3(4) .
N16 C50 H50 124.4 .
N15 C50 H50 124.4 .
C52 C51 N16 110.0(4) .
C52 C51 H51 125.0 .
N16 C51 H51 125.0 .
C51 C52 N15 105.7(4) .
C51 C52 H52 127.2 .
N15 C52 H52 127.2 .
N17 C53 N18 111.4(4) .
N17 C53 H53 124.3 .
N18 C53 H53 124.3 .
C55 C54 N17 109.6(4) .
C54 C55 N18 106.2(4) .
C57 C56 C61 121.0(4) .
C57 C56 N18 119.7(4) .
C61 C56 N18 119.3(4) .
C56 C57 C58 118.5(4) .
C56 C57 H57 120.8 .
C58 C57 H57 120.8 .
C57 C58 C59 121.1(4) .
C57 C58 N19 119.9(4) .
C59 C58 N19 119.0(4) .
C60 C59 C58 119.8(4) .
C60 C59 H59 120.1 .
C58 C59 H59 120.1 .
C61 C60 C59 119.1(4) .
C61 C60 C62 120.3(4) .
C59 C60 C62 120.6(4) .
C60 C61 C56 120.4(4) .
C60 C61 H61 119.8 .
C56 C61 H61 119.8 .
C60 C62 H62A 109.5 .
C60 C62 H62B 109.5 .
H62A C62 H62B 109.5 .
C60 C62 H62C 109.5 .
H62A C62 H62C 109.5 .
H62B C62 H62C 109.5 .
N20 C63 N19 111.3(4) .
N20 C63 H63 124.3 .
N19 C63 H63 124.3 .
C65 C64 N19 106.1(4) .
C64 C65 N20 110.0(4) .
C64 C65 H65 125.0 .
N20 C65 H65 125.0 .
N21 C66 N22 110.2(4) .
N21 C66 H66 124.9 .
N22 C66 H66 124.9 .
C68 C67 N21 110.1(4) .
C68 C67 H67 125.0 .
N21 C67 H67 125.0 .
C67 C68 N22 105.6(4) .
C67 C68 H68 127.2 .
N22 C68 H68 127.2 .
C74 C69 C70 121.5(4) .
C74 C69 N22 119.2(4) .
C70 C69 N22 119.3(4) .
C71 C70 C69 117.8(4) .
C71 C70 H70 121.1 .
C69 C70 H70 121.1 .
C70 C71 C72 121.5(4) .
C70 C71 N23 120.2(4) .
C72 C71 N23 118.3(4) .
C71 C72 C73 119.4(4) .
C71 C72 H72 120.3 .
C73 C72 H72 120.3 .
C74 C73 C72 119.6(4) .
C74 C73 C75 120.7(4) .
C72 C73 C75 119.6(4) .
C69 C74 C73 120.2(4) .
C69 C74 H74 119.9 .
C73 C74 H74 119.9 .
C73 C75 H75A 109.5 .
C73 C75 H75B 109.5 .
H75A C75 H75B 109.5 .
C73 C75 H75C 109.5 .
H75A C75 H75C 109.5 .
H75B C75 H75C 109.5 .
N24 C76 N23 110.4(3) .
N24 C76 H76 124.8 .
N23 C76 H76 124.8 .
C78 C77 N24 110.4(4) .
C78 C77 H77 124.8 .
N24 C77 H77 124.8 .
C77 C78 N23 105.7(4) .
C77 C78 H78 127.2 .
N23 C78 H78 127.2 .
N25 C79 N26 111.0(3) .
N25 C79 H79 124.5 .
N26 C79 H79 124.5 .
C81 C80 N25 109.9(4) .
C81 C80 H80 125.0 .
N25 C80 H80 125.0 .
C80 C81 N26 106.3(4) .
C80 C81 H81 126.9 .
N26 C81 H81 126.9 .
C87 C82 C83 121.6(4) .
C87 C82 N26 119.6(4) .
C83 C82 N26 118.8(4) .
C82 C83 C84 119.5(4) .
C82 C83 H83 120.2 .
C84 C83 H83 120.2 .
C85 C84 C83 119.1(4) .
C85 C84 C88 119.5(4) .
C83 C84 C88 121.4(4) .
C84 C85 C86 120.7(4) .
C84 C85 H85 119.7 .
C86 C85 H85 119.7 .
C85 C86 C87 121.2(4) .
C85 C86 N27 118.5(4) .
C87 C86 N27 120.3(4) .
C82 C87 C86 117.9(4) .
C82 C87 H87 121.0 .
C86 C87 H87 121.0 .
C84 C88 H88A 109.5 .
C84 C88 H88B 109.5 .
H88A C88 H88B 109.5 .
C84 C88 H88C 109.5 .
H88A C88 H88C 109.5 .
H88B C88 H88C 109.5 .
N28 C89 N27 111.4(4) .
N28 C89 H89 124.3 .
N27 C89 H89 124.3 .
C91 C90 N28 109.8(4) .
C91 C90 H90 125.1 .
N28 C90 H90 125.1 .
C90 C91 N27 106.7(4) .
C90 C91 H91 126.6 .
N27 C91 H91 126.6 .
N29 C92 N30 111.4(4) .
N29 C92 H92 124.3 .
N30 C92 H92 124.3 .
C94 C93 N29 109.8(4) .
C94 C93 H93 125.1 .
N29 C93 H93 125.1 .
C93 C94 N30 106.6(4) .
C93 C94 H94 126.7 .
N30 C94 H94 126.7 .
C96 C95 C100 121.2(4) .
C96 C95 N30 119.1(4) .
C100 C95 N30 119.8(4) .
C95 C96 C97 120.5(4) .
C95 C96 H96 119.7 .
C97 C96 H96 119.7 .
C98 C97 C96 119.0(4) .
C98 C97 C101 121.3(4) .
C96 C97 C101 119.7(4) .
C97 C98 C99 120.1(4) .
C97 C98 H98 120.0 .
C99 C98 H98 120.0 .
C98 C99 C100 121.3(4) .
C98 C99 N31 119.2(4) .
C100 C99 N31 119.5(4) .
C99 C100 C95 117.8(4) .
C99 C100 H100 121.1 .
C95 C100 H100 121.1 .
C97 C101 H10D 109.5 .
C97 C101 H10E 109.5 .
H10D C101 H10E 109.5 .
C97 C101 H10F 109.5 .
H10D C101 H10F 109.5 .
H10E C101 H10F 109.5 .
N32 C102 N31 111.9(4) .
N32 C102 H102 124.0 .
N31 C102 H102 124.0 .
C104 C103 N32 110.2(4) .
C104 C103 H103 124.9 .
N32 C103 H103 124.9 .
C103 C104 N31 107.1(4) .
C103 C104 H104 126.5 .
N31 C104 H104 126.5 .
N33 C105 N34 110.8(3) .
N33 C105 H105 124.6 .
N34 C105 H105 124.6 .
C107 C106 N33 110.1(4) .
C107 C106 H106 125.0 .
N33 C106 H106 125.0 .
C106 C107 N34 106.0(3) .
C106 C107 H107 127.0 .
N34 C107 H107 127.0 .
C109 C108 C113 121.4(4) .
C109 C108 N34 119.9(4) .
C113 C108 N34 118.6(4) .
C108 C109 C110 117.9(4) .
C108 C109 H109 121.0 .
C110 C109 H109 121.0 .
C109 C110 C111 121.4(4) .
C109 C110 N35 119.4(4) .
C111 C110 N35 119.1(4) .
C112 C111 C110 120.0(4) .
C112 C111 H111 120.0 .
C110 C111 H111 120.0 .
C113 C112 C111 119.1(4) .
C113 C112 C114 120.7(4) .
C111 C112 C114 120.2(4) .
C112 C113 C108 120.1(4) .
C112 C113 H113 119.9 .
C108 C113 H113 119.9 .
C112 C114 H11A 109.5 .
C112 C114 H11B 109.5 .
H11A C114 H11B 109.5 .
C112 C114 H11C 109.5 .
H11A C114 H11C 109.5 .
H11B C114 H11C 109.5 .
N36 C115 N35 110.8(3) .
N36 C115 H115 124.6 .
N35 C115 H115 124.6 .
C117 C116 N36 109.8(3) .
C117 C116 H116 125.1 .
N36 C116 H116 125.1 .
C116 C117 N35 105.9(4) .
C116 C117 H117 127.1 .
N35 C117 H117 127.1 .
N37 C118 N38 111.6(4) .
N37 C118 H118 124.2 .
N38 C118 H118 124.2 .
C120 C119 N37 110.0(4) .
C120 C119 H119 125.0 .
N37 C119 H119 125.0 .
C119 C120 N38 106.1(4) .
C119 C120 H120 126.9 .
N38 C120 H120 126.9 .
C122 C121 C126 121.6(4) .
C122 C121 N38 119.1(4) .
C126 C121 N38 119.2(4) .
C123 C122 C121 117.5(4) .
C123 C122 H122 121.2 .
C121 C122 H122 121.2 .
C122 C123 C124 122.0(4) .
C122 C123 N39 119.5(4) .
C124 C123 N39 118.4(4) .
C123 C124 C125 120.1(4) .
C123 C124 H124 120.0 .
C125 C124 H124 120.0 .
C124 C125 C126 118.8(4) .
C124 C125 C127 119.8(4) .
C126 C125 C127 121.4(4) .
C125 C126 C121 120.1(4) .
C125 C126 H126 120.0 .
C121 C126 H126 120.0 .
C125 C127 H12A 109.5 .
C125 C127 H12B 109.5 .
H12A C127 H12B 109.5 .
C125 C127 H12C 109.5 .
H12A C127 H12C 109.5 .
H12B C127 H12C 109.5 .
N40 C128 N39 110.8(3) .
N40 C128 H128 124.6 .
N39 C128 H128 124.6 .
C130 C129 N40 110.0(4) .
C130 C129 H129 125.0 .
N40 C129 H129 125.0 .
C129 C130 N39 106.1(4) .
C129 C130 H130 126.9 .
N39 C130 H130 126.9 .
N41 C131 N42 111.2(3) .
N41 C131 H131 124.4 .
N42 C131 H131 124.4 .
C133 C132 N41 109.5(4) .
C133 C132 H132 125.3 .
N41 C132 H132 125.3 .
C132 C133 N42 106.1(4) .
C132 C133 H133 127.0 .
N42 C133 H133 127.0 .
C135 C134 C139 121.5(4) .
C135 C134 N42 119.2(4) .
C139 C134 N42 119.3(4) .
C134 C135 C136 117.8(4) .
C134 C135 H135 121.1 .
C136 C135 H135 121.1 .
C137 C136 C135 121.8(4) .
C137 C136 N43 119.0(4) .
C135 C136 N43 119.2(4) .
C136 C137 C138 119.7(4) .
C136 C137 H137 120.2 .
C138 C137 H137 120.2 .
C139 C138 C137 119.4(4) .
C139 C138 C140 120.5(4) .
C137 C138 C140 120.2(4) .
C134 C139 C138 119.9(4) .
C134 C139 H139 120.1 .
C138 C139 H139 120.1 .
C138 C140 H14A 109.5 .
C138 C140 H14B 109.5 .
H14A C140 H14B 109.5 .
C138 C140 H14C 109.5 .
H14A C140 H14C 109.5 .
H14B C140 H14C 109.5 .
N44 C141 N43 110.8(4) .
N44 C141 H141 124.6 .
N43 C141 H141 124.6 .
C143 C142 N44 110.2(4) .
C143 C142 H142 124.9 .
N44 C142 H142 124.9 .
C142 C143 N43 105.5(4) .
C142 C143 H143 127.2 .
N43 C143 H143 127.2 .
N45 C144 N46 111.3(3) .
N45 C144 H144 124.4 .
N46 C144 H144 124.4 .
C146 C145 N45 109.2(4) .
C146 C145 H145 125.4 .
N45 C145 H145 125.4 .
C145 C146 N46 106.5(4) .
C145 C146 H146 126.8 .
N46 C146 H146 126.8 .
C148 C147 C152 122.1(4) .
C148 C147 N46 118.8(3) .
C152 C147 N46 119.1(4) .
C147 C148 C149 117.1(4) .
C147 C148 H148 121.4 .
C149 C148 H148 121.4 .
C150 C149 C148 121.3(4) .
C150 C149 N47 119.7(4) .
C148 C149 N47 119.0(4) .
C149 C150 C151 120.5(4) .
C149 C150 H150 119.7 .
C151 C150 H150 119.7 .
C150 C151 C152 119.4(4) .
C150 C151 C153 120.9(4) .
C152 C151 C153 119.7(4) .
C151 C152 C147 119.6(4) .
C151 C152 H152 120.2 .
C147 C152 H152 120.2 .
C151 C153 H15A 109.5 .
C151 C153 H15B 109.5 .
H15A C153 H15B 109.5 .
C151 C153 H15C 109.5 .
H15A C153 H15C 109.5 .
H15B C153 H15C 109.5 .
N48 C154 N47 110.8(4) .
N48 C154 H154 124.6 .
N47 C154 H154 124.6 .
C156 C155 N48 110.0(4) .
C156 C155 H155 125.0 .
N48 C155 H155 125.0 .
C155 C156 N47 106.0(4) .
C155 C156 H156 127.0 .
N47 C156 H156 127.0 .
C158 C157 O103 139.6(13) .
O104 C158 C157 164.6(16) .
loop_
_geom_bond_atom_site_label_1
_geom_bond_atom_site_label_2
_geom_bond_distance
_geom_bond_site_symmetry_2
Ni1 O2 1.994(3) .
Ni1 O4 2.009(3) .
Ni1 O1 2.048(3) .
Ni1 O6 2.091(3) .
Ni1 O7 2.100(3) .
Ni1 O10 2.123(3) .
Ni1 Ni2 2.9932(9) .
Ni2 O2 2.047(3) .
Ni2 N13 2.060(4) .
Ni2 N17 2.061(4) .
Ni2 O3 2.072(3) .
Ni2 O4 2.074(3) .
Ni2 O9 2.182(3) .
Ni3 O2 2.053(3) .
Ni3 O1 2.062(3) .
Ni3 O3 2.075(3) .
Ni3 N9 2.076(4) .
Ni3 N5 2.077(3) .
Ni3 O8 2.156(3) .
Ni4 O4 2.047(3) .
Ni4 O1 2.056(3) .
Ni4 N1 2.062(4) .
Ni4 N21 2.062(4) .
Ni4 O3 2.071(3) .
Ni4 O5 2.212(3) .
Ni5 O15 2.031(3) .
Ni5 N8 2.044(3) .
Ni5 O14 2.068(3) .
Ni5 O13 2.070(3) .
Ni5 N12 2.091(3) .
Ni5 O18 2.182(3) .
Ni6 O16 2.028(3) .
Ni6 N16 2.052(3) .
Ni6 O13 2.067(3) .
Ni6 O15 2.071(3) .
Ni6 N20 2.074(4) .
Ni6 O21 2.205(3) .
Ni7 N24 2.062(3) .
Ni7 O16 2.063(3) .
Ni7 N4 2.065(3) .
Ni7 O14 2.066(3) .
Ni7 O13 2.067(3) .
Ni7 O17 2.159(3) .
Ni8 O16 2.009(3) .
Ni8 O15 2.030(3) .
Ni8 O14 2.039(3) .
Ni8 O19 2.090(3) .
Ni8 O20 2.102(3) .
Ni8 O22 2.121(3) .
Ni9 O32 2.013(3) .
Ni9 O30 2.021(3) .
Ni9 O31 2.038(3) .
Ni9 O35 2.050(3) .
Ni9 O36 2.136(3) .
Ni9 O38 2.176(5) .
Ni10 N36 2.056(4) .
Ni10 O29 2.062(3) .
Ni10 O32 2.065(3) .
Ni10 O30 2.066(3) .
Ni10 N32 2.090(4) .
Ni10 O158 2.170(3) .
Ni11 N40 2.060(3) .
Ni11 O31 2.061(3) .
Ni11 O29 2.073(3) .
Ni11 O30 2.077(3) .
Ni11 N44 2.085(4) .
Ni11 O34 2.139(3) .
Ni12 N28 2.034(4) .
Ni12 O32 2.055(3) .
Ni12 O31 2.059(3) .
Ni12 O29 2.062(3) .
Ni12 N48 2.080(4) .
Ni12 O33 2.165(3) .
Ni13 O44 2.033(3) .
Ni13 N37 2.056(3) .
Ni13 O42 2.067(3) .
Ni13 N41 2.084(4) .
Ni13 O43 2.088(3) .
Ni13 O47 2.192(3) .
Ni14 O45 2.046(3) .
Ni14 N33 2.066(3) .
Ni14 O42 2.072(3) .
Ni14 N29 2.077(4) .
Ni14 O43 2.080(3) .
Ni14 O46 2.153(3) .
Ni15 O45 2.029(3) .
Ni15 N45 2.045(3) .
Ni15 O42 2.067(3) .
Ni15 N25 2.081(3) .
Ni15 O44 2.088(3) .
Ni15 O49 2.184(3) .
Ni16 O45 2.019(3) .
Ni16 O44 2.020(3) .
Ni16 O43 2.055(3) .
Ni16 O48 2.086(3) .
Ni16 O53 2.102(3) .
Ni16 O51 2.103(3) .
S1 O12 1.471(3) .
S1 O9 1.477(3) .
S1 O11 1.483(3) .
S1 O10 1.491(3) .
S2 O23 1.468(3) .
S2 O24 1.483(3) .
S2 O21 1.487(3) .
S2 O22 1.491(3) .
S3 O67 1.425(5) .
S3 O64 1.431(7) .
S3 O65 1.435(5) .
S3 O68 1.437(7) .
S3 O70 1.488(4) .
S3 O69 1.553(5) .
S3 O66 1.633(7) .
S4 O27 1.457(3) .
S4 O28 1.472(3) .
S4 O26 1.482(3) .
S4 O25 1.485(3) .
S5 O52 1.475(3) .
S5 O50 1.479(3) .
S5 O49 1.481(3) .
S5 O51 1.492(3) .
S6 O63 1.36(2) .
S6 O59 1.381(19) .
S6 O60 1.467(3) .
S6 O62 1.471(3) .
S6 O57 1.491(3) .
S6 O58 1.505(4) .
S6 O61 1.59(2) .
S7 O39 1.460(4) .
S7 O41 1.479(5) .
S7 O40 1.485(4) .
S7 O38 1.589(5) .
S7 O37 2.01(2) .
S8 O56 1.468(3) .
S8 O54 1.476(3) .
S8 O55 1.476(3) .
S8 O53 1.499(3) .
O37 O158 1.531(19) .
O37 O38 1.56(2) .
O58 O63 1.47(2) .
O58 O59 1.51(2) .
O59 O60 1.24(2) .
O60 O61 1.46(2) .
O61 O62 1.43(2) .
O62 O63 1.27(2) .
O64 O65 1.176(10) .
O64 O69 1.552(9) .
O65 O66 1.515(9) .
O66 O67 1.485(9) .
O67 O68 1.264(10) .
O68 O69 1.436(9) .
O72 O161 1.79(3) 3_666
O74 C160 1.68(2) .
O76 O77 1.527(11) .
O77 O168 1.777(18) .
O79 O168 1.499(15) .
O80 O81 1.446(12) .
O86 O87 1.398(11) .
O88 C161 1.435(6) .
O95 O96 1.66(2) .
O98 O99 0.64(3) .
O103 C157 1.79(3) .
O104 C158 1.78(2) .
O105 O106 1.085(19) .
O107 C159 1.446(9) .
O109 O161 1.163(19) .
O111 O112 1.60(4) .
O118 O119 0.68(2) .
O120 O120 1.69(6) 3_566
O126 O127 1.25(3) .
O139 O140 1.16(3) .
O142 O143 0.818(18) .
O144 O145 1.58(3) .
O161 O72 1.79(3) 3_666
O165 O169 0.943(10) .
N1 C1 1.326(5) .
N1 C2 1.373(6) .
N2 C1 1.353(6) .
N2 C3 1.377(6) .
N2 C4 1.432(5) .
N3 C11 1.356(5) .
N3 C13 1.391(5) .
N3 C8 1.428(5) .
N4 C11 1.324(5) .
N4 C12 1.379(5) .
N5 C14 1.313(5) .
N5 C15 1.383(5) .
N6 C14 1.364(5) .
N6 C16 1.382(5) .
N6 C17 1.434(5) .
N7 C24 1.361(5) .
N7 C25 1.391(5) .
N7 C19 1.422(5) .
N8 C24 1.319(5) .
N8 C26 1.384(5) .
N9 C27 1.306(5) .
N9 C28 1.387(5) .
N10 C27 1.358(5) .
N10 C29 1.384(5) .
N10 C30 1.438(5) .
N11 C37 1.366(5) .
N11 C38 1.377(5) .
N11 C32 1.436(5) .
N12 C37 1.311(5) .
N12 C39 1.379(5) .
N13 C40 1.308(5) .
N13 C41 1.389(6) .
N14 C40 1.360(6) .
N14 C42 1.389(5) .
N14 C43 1.430(6) .
N15 C50 1.359(6) .
N15 C52 1.382(6) .
N15 C45 1.430(6) .
N16 C50 1.314(6) .
N16 C51 1.374(5) .
N17 C53 1.305(6) .
N17 C54 1.386(5) .
N18 C53 1.359(5) .
N18 C55 1.383(6) .
N18 C56 1.427(6) .
N19 C63 1.361(6) .
N19 C64 1.379(6) .
N19 C58 1.427(5) .
N20 C63 1.310(5) .
N20 C65 1.382(6) .
N21 C66 1.319(5) .
N21 C67 1.374(5) .
N22 C66 1.361(5) .
N22 C68 1.387(6) .
N22 C69 1.419(5) .
N23 C76 1.367(5) .
N23 C78 1.386(5) .
N23 C71 1.427(5) .
N24 C76 1.315(5) .
N24 C77 1.375(5) .
N25 C79 1.316(5) .
N25 C80 1.379(5) .
N26 C79 1.359(5) .
N26 C81 1.382(5) .
N26 C82 1.427(5) .
N27 C89 1.356(5) .
N27 C91 1.385(6) .
N27 C86 1.417(6) .
N28 C89 1.319(6) .
N28 C90 1.385(6) .
N29 C92 1.320(5) .
N29 C93 1.382(6) .
N30 C92 1.363(5) .
N30 C94 1.383(5) .
N30 C95 1.428(5) .
N31 C102 1.361(5) .
N31 C104 1.373(6) .
N31 C99 1.434(5) .
N32 C102 1.316(6) .
N32 C103 1.375(6) .
N33 C105 1.320(5) .
N33 C106 1.384(5) .
N34 C105 1.363(5) .
N34 C107 1.386(5) .
N34 C108 1.422(5) .
N35 C115 1.358(5) .
N35 C117 1.384(5) .
N35 C110 1.426(5) .
N36 C115 1.318(5) .
N36 C116 1.379(5) .
N37 C118 1.314(5) .
N37 C119 1.383(5) .
N38 C118 1.357(5) .
N38 C120 1.383(5) .
N38 C121 1.421(5) .
N39 C128 1.361(5) .
N39 C130 1.384(5) .
N39 C123 1.430(5) .
N40 C128 1.318(5) .
N40 C129 1.383(5) .
N41 C131 1.313(5) .
N41 C132 1.385(5) .
N42 C131 1.353(5) .
N42 C133 1.386(5) .
N42 C134 1.429(5) .
N43 C141 1.360(5) .
N43 C143 1.382(5) .
N43 C136 1.432(5) .
N44 C141 1.323(5) .
N44 C142 1.381(6) .
N45 C144 1.311(5) .
N45 C145 1.379(5) .
N46 C144 1.356(5) .
N46 C146 1.377(5) .
N46 C147 1.421(5) .
N47 C154 1.364(5) .
N47 C156 1.378(6) .
N47 C149 1.426(5) .
N48 C154 1.312(5) .
N48 C155 1.376(6) .
C1 H1 0.9500 .
C2 C3 1.356(7) .
C2 H2 0.9500 .
C3 H3 0.9500 .
C4 C5 1.387(6) .
C4 C9 1.390(6) .
C5 C6 1.390(6) .
C5 H5 0.9500 .
C6 C7 1.393(6) .
C6 C10 1.505(6) .
C7 C8 1.384(6) .
C7 H7 0.9500 .
C8 C9 1.397(6) .
C9 H9 0.9500 .
C10 H10A 0.9800 .
C10 H10B 0.9800 .
C10 H10C 0.9800 .
C11 H11 0.9500 .
C12 C13 1.349(6) .
C12 H12 0.9500 .
C13 H13 0.9500 .
C14 H14 0.9500 .
C15 C16 1.354(6) .
C15 H15 0.9500 .
C16 H16 0.9500 .
C17 C18 1.384(6) .
C17 C22 1.395(6) .
C18 C19 1.400(5) .
C18 H18 0.9500 .
C19 C20 1.386(6) .
C20 C21 1.391(6) .
C20 H20 0.9500 .
C21 C22 1.398(6) .
C21 C23 1.509(6) .
C22 H22 0.9500 .
C23 H23A 0.9800 .
C23 H23B 0.9800 .
C23 H23C 0.9800 .
C24 H24 0.9500 .
C25 C26 1.358(6) .
C25 H25 0.9500 .
C26 H26 0.9500 .
C27 H27 0.9500 .
C28 C29 1.344(6) .
C28 H28 0.9500 .
C29 H29 0.9500 .
C30 C31 1.381(6) .
C30 C35 1.396(6) .
C31 C32 1.394(6) .
C31 H31 0.9500 .
C32 C33 1.397(6) .
C33 C34 1.395(6) .
C33 H33 0.9500 .
C34 C35 1.392(6) .
C34 C36 1.507(6) .
C35 H35 0.9500 .
C36 H36A 0.9800 .
C36 H36B 0.9800 .
C36 H36C 0.9800 .
C37 H37 0.9500 .
C38 C39 1.347(6) .
C38 H38 0.9500 .
C39 H39 0.9500 .
C40 H40 0.9500 .
C41 C42 1.350(7) .
C41 H41 0.9500 .
C42 H42 0.9500 .
C43 C48 1.389(6) .
C43 C44 1.394(6) .
C44 C45 1.392(6) .
C44 H44 0.9500 .
C45 C46 1.387(6) .
C46 C47 1.398(6) .
C46 H46 0.9500 .
C47 C48 1.390(7) .
C47 C49 1.494(7) .
C48 H48 0.9500 .
C49 H49A 0.9800 .
C49 H49B 0.9800 .
C49 H49C 0.9800 .
C50 H50 0.9500 .
C51 C52 1.362(6) .
C51 H51 0.9500 .
C52 H52 0.9500 .
C53 H53 0.9500 .
C54 C55 1.349(7) .
C56 C57 1.384(6) .
C56 C61 1.394(6) .
C57 C58 1.386(6) .
C57 H57 0.9500 .
C58 C59 1.395(6) .
C59 C60 1.396(7) .
C59 H59 0.9500 .
C60 C61 1.382(7) .
C60 C62 1.514(6) .
C61 H61 0.9500 .
C62 H62A 0.9800 .
C62 H62B 0.9800 .
C62 H62C 0.9800 .
C63 H63 0.9500 .
C64 C65 1.350(6) .
C65 H65 0.9500 .
C66 H66 0.9500 .
C67 C68 1.352(6) .
C67 H67 0.9500 .
C68 H68 0.9500 .
C69 C74 1.379(6) .
C69 C70 1.394(6) .
C70 C71 1.389(6) .
C70 H70 0.9500 .
C71 C72 1.393(6) .
C72 C73 1.395(6) .
C72 H72 0.9500 .
C73 C74 1.383(7) .
C73 C75 1.510(6) .
C74 H74 0.9500 .
C75 H75A 0.9800 .
C75 H75B 0.9800 .
C75 H75C 0.9800 .
C76 H76 0.9500 .
C77 C78 1.348(6) .
C77 H77 0.9500 .
C78 H78 0.9500 .
C79 H79 0.9500 .
C80 C81 1.347(6) .
C80 H80 0.9500 .
C81 H81 0.9500 .
C82 C87 1.389(6) .
C82 C83 1.393(6) .
C83 C84 1.411(6) .
C83 H83 0.9500 .
C84 C85 1.377(6) .
C84 C88 1.502(6) .
C85 C86 1.390(6) .
C85 H85 0.9500 .
C86 C87 1.396(6) .
C87 H87 0.9500 .
C88 H88A 0.9800 .
C88 H88B 0.9800 .
C88 H88C 0.9800 .
C89 H89 0.9500 .
C90 C91 1.342(7) .
C90 H90 0.9500 .
C91 H91 0.9500 .
C92 H92 0.9500 .
C93 C94 1.354(7) .
C93 H93 0.9500 .
C94 H94 0.9500 .
C95 C96 1.383(6) .
C95 C100 1.394(6) .
C96 C97 1.392(6) .
C96 H96 0.9500 .
C97 C98 1.389(6) .
C97 C101 1.510(6) .
C98 C99 1.392(6) .
C98 H98 0.9500 .
C99 C100 1.394(6) .
C100 H100 0.9500 .
C101 H10D 0.9800 .
C101 H10E 0.9800 .
C101 H10F 0.9800 .
C102 H102 0.9500 .
C103 C104 1.340(8) .
C103 H103 0.9500 .
C104 H104 0.9500 .
C105 H105 0.9500 .
C106 C107 1.352(6) .
C106 H106 0.9500 .
C107 H107 0.9500 .
C108 C109 1.384(6) .
C108 C113 1.397(6) .
C109 C110 1.391(6) .
C109 H109 0.9500 .
C110 C111 1.394(6) .
C111 C112 1.393(6) .
C111 H111 0.9500 .
C112 C113 1.387(6) .
C112 C114 1.508(6) .
C113 H113 0.9500 .
C114 H11A 0.9800 .
C114 H11B 0.9800 .
C114 H11C 0.9800 .
C115 H115 0.9500 .
C116 C117 1.355(6) .
C116 H116 0.9500 .
C117 H117 0.9500 .
C118 H118 0.9500 .
C119 C120 1.352(6) .
C119 H119 0.9500 .
C120 H120 0.9500 .
C121 C122 1.386(6) .
C121 C126 1.396(6) .
C122 C123 1.385(6) .
C122 H122 0.9500 .
C123 C124 1.389(6) .
C124 C125 1.390(6) .
C124 H124 0.9500 .
C125 C126 1.393(6) .
C125 C127 1.510(6) .
C126 H126 0.9500 .
C127 H12A 0.9800 .
C127 H12B 0.9800 .
C127 H12C 0.9800 .
C128 H128 0.9500 .
C129 C130 1.349(6) .
C129 H129 0.9500 .
C130 H130 0.9500 .
C131 H131 0.9500 .
C132 C133 1.354(6) .
C132 H132 0.9500 .
C133 H133 0.9500 .
C134 C135 1.388(6) .
C134 C139 1.392(6) .
C135 C136 1.393(6) .
C135 H135 0.9500 .
C136 C137 1.386(6) .
C137 C138 1.395(6) .
C137 H137 0.9500 .
C138 C139 1.393(6) .
C138 C140 1.512(6) .
C139 H139 0.9500 .
C140 H14A 0.9800 .
C140 H14B 0.9800 .
C140 H14C 0.9800 .
C141 H141 0.9500 .
C142 C143 1.362(6) .
C142 H142 0.9500 .
C143 H143 0.9500 .
C144 H144 0.9500 .
C145 C146 1.358(6) .
C145 H145 0.9500 .
C146 H146 0.9500 .
C147 C148 1.387(6) .
C147 C152 1.395(6) .
C148 C149 1.402(6) .
C148 H148 0.9500 .
C149 C150 1.384(6) .
C150 C151 1.383(6) .
C150 H150 0.9500 .
C151 C152 1.386(6) .
C151 C153 1.518(6) .
C152 H152 0.9500 .
C153 H15A 0.9800 .
C153 H15B 0.9800 .
C153 H15C 0.9800 .
C154 H154 0.9500 .
C155 C156 1.352(7) .
C155 H155 0.9500 .
C156 H156 0.9500 .
C157 C158 1.78(4) .
