#------------------------------------------------------------------------------
#$Date: 2016-02-18 17:37:37 +0200 (Thu, 18 Feb 2016) $
#$Revision: 176729 $
#$URL: svn://www.crystallography.net/cod/cif/1/51/75/1517555.cif $
#------------------------------------------------------------------------------
#
# This file is available in the Crystallography Open Database (COD),
# http://www.crystallography.net/
#
# All data on this site have been placed in the public domain by the
# contributors.
#
data_1517555
loop_
_publ_author_name
'Purkait, Nibadita'
'Okumura, Sota'
'Souto, Jos\'e A'
'Mu\~niz, Kilian'
_publ_section_title
;
 Hypervalent iodine mediated oxidative amination of allenes.
;
_journal_issue                   18
_journal_name_full               'Organic letters'
_journal_page_first              4750
_journal_page_last               4753
_journal_paper_doi               10.1021/ol502179z
_journal_volume                  16
_journal_year                    2014
_chemical_formula_sum            'C24 H23 N O4 S2'
_chemical_formula_weight         453.55
_chemical_name_systematic
;
 ?
;
_space_group_IT_number           2
_space_group_name_Hall           '-P 1'
_symmetry_cell_setting           triclinic
_symmetry_space_group_name_Hall  '-P 1'
_symmetry_space_group_name_H-M   'P -1'
_atom_sites_solution_hydrogens   mixed
_audit_creation_method           SHELXL-2014
_cell_angle_alpha                89.2848(19)
_cell_angle_beta                 80.603(2)
_cell_angle_gamma                62.3352(18)
_cell_formula_units_Z            2
_cell_length_a                   9.8068(5)
_cell_length_b                   10.2636(5)
_cell_length_c                   12.4030(6)
_cell_measurement_reflns_used    9961
_cell_measurement_temperature    100(2)
_cell_measurement_theta_max      26.54
_cell_measurement_theta_min      2.25
_cell_volume                     1087.98(10)
_computing_cell_refinement       'Bruker APEX2 v2011.4-0'
_computing_data_collection       'Bruker APEX2 v2011.4-0'
_computing_data_reduction        'Bruker SAINT V7.60A'
_computing_molecular_graphics    'Bruker SHELXTL'
_computing_publication_material  'Bruker SHELXTL'
_computing_structure_refinement  'SHELXL-2014 (Sheldrick, 2014)'
_computing_structure_solution    Sir2011
_diffrn_ambient_temperature      100(2)
_diffrn_detector_area_resol_mean 512
_diffrn_detector_type            '4K CCD area detector APEX II'
_diffrn_measured_fraction_theta_full 1.000
_diffrn_measured_fraction_theta_max 0.995
_diffrn_measurement_device_type  'APEX DUO Kappa 4-axis goniometer'
_diffrn_measurement_method
;
 Fullsphere data collection, phi and omega scans
;
_diffrn_measurement_specimen_support 'magnetic support with MicroMount'
_diffrn_radiation_monochromator  'Quazar MX Multilayer Optics'
_diffrn_radiation_type           MoK\a
_diffrn_radiation_wavelength     0.71073
_diffrn_reflns_av_unetI/netI     0.0279
_diffrn_reflns_Laue_measured_fraction_full 1.000
_diffrn_reflns_Laue_measured_fraction_max 0.995
_diffrn_reflns_limit_h_max       12
_diffrn_reflns_limit_h_min       -11
_diffrn_reflns_limit_k_max       12
_diffrn_reflns_limit_k_min       -12
_diffrn_reflns_limit_l_max       15
_diffrn_reflns_limit_l_min       0
_diffrn_reflns_number            4502
_diffrn_reflns_point_group_measured_fraction_full 1.000
_diffrn_reflns_point_group_measured_fraction_max 0.995
_diffrn_reflns_theta_full        25.242
_diffrn_reflns_theta_max         26.544
_diffrn_reflns_theta_min         1.669
_diffrn_source                   'Microfocus source E025 IuS'
_diffrn_source_current           0.6
_diffrn_source_power             50
_diffrn_source_size              '0.2 mm x 0.2 mm fine focus'
_diffrn_source_type              'Bruker APEX DUO'
_exptl_absorpt_coefficient_mu    0.276
_exptl_absorpt_correction_T_max  0.973
_exptl_absorpt_correction_T_min  0.745
_exptl_absorpt_correction_type   empirical
_exptl_absorpt_process_details
; 
 TWINABS Version 2008/0 Bruker-Nonius
 Blessing, Acta Cryst. (1995) A51 33-38
;
_exptl_crystal_colour            colourless
_exptl_crystal_density_diffrn    1.384
_exptl_crystal_description       block
_exptl_crystal_F_000             476
_exptl_crystal_size_max          0.30
_exptl_crystal_size_mid          0.20
_exptl_crystal_size_min          0.10
_refine_diff_density_max         0.304
_refine_diff_density_min         -0.481
_refine_diff_density_rms         0.053
_refine_ls_extinction_method     none
_refine_ls_goodness_of_fit_ref   1.044
_refine_ls_hydrogen_treatment    noref
_refine_ls_matrix_type           full
_refine_ls_number_parameters     286
_refine_ls_number_reflns         4502
_refine_ls_number_restraints     0
_refine_ls_restrained_S_all      1.044
_refine_ls_R_factor_all          0.0372
_refine_ls_R_factor_gt           0.0347
_refine_ls_shift/su_max          0.000
_refine_ls_shift/su_mean         0.000
_refine_ls_structure_factor_coef Fsqd
_refine_ls_weighting_details
'w=1/[\s^2^(Fo^2^)+(0.0447P)^2^+0.4870P] where P=(Fo^2^+2Fc^2^)/3'
_refine_ls_weighting_scheme      calc
_refine_ls_wR_factor_gt          0.0921
_refine_ls_wR_factor_ref         0.0947
_reflns_Friedel_coverage         0.000
_reflns_number_gt                4205
_reflns_number_total             4502
_reflns_threshold_expression     'I > 2\s(I)'
_cod_data_source_file            ol502179z_si_002.cif
_cod_data_source_block           mo_np538_15
_cod_depositor_comments
;
The following automatic conversions were performed:

'_symmetry_cell_setting' value 'Triclinic' changed to 'triclinic'
according to
/home/saulius/struct/COD-crude-data--automatic-downloads/rss-feeds/ACS/lib/dictionaries/cif_core.dic
dictionary named 'cif_core.dic' version 2.4.2 from 2011-04-26.

Automatic conversion script
Id: cif_fix_values 2281 2013-09-26 08:29:07Z andrius 

 Adding full bibliography for 1517553--1517556.cif.
;
_cod_original_cell_volume        1087.98(9)
_cod_original_sg_symbol_H-M      P-1
_cod_database_code               1517555
#BEGIN Tags that were not found in dictionaries:
_shelx_space_group_comment
;
The symmetry employed for this shelxl refinement is uniquely defined
by the following loop, which should always be used as a source of
symmetry information in preference to the above space-group names.
They are only intended as comments.
;
_shelx_estimated_absorpt_t_min   0.922
_shelx_estimated_absorpt_t_max   0.973
_shelxl_version_number           2014-3
_shelx_res_file
;
TITL mo_np538_15 in P-1
CELL 0.71073   9.80680  10.26360  12.40300  89.2848  80.6034  62.3352
ZERR    2.00   0.00050   0.00050   0.00060   0.0019   0.0020   0.0018
LATT 1
SFAC C  H  N  O  S
UNIT 48 46 2 8 4
LIST 4
L.S. 20
BOND
ACTA
CONF
FMAP 2
MERG 0
PLAN 5
SIZE 0.100 0.200 0.300
TEMP -173.140
WGHT    0.044700    0.487000
BASF   0.25217
FVAR       0.77056
MOLE 1
S1    5    0.767457    0.205911    0.368654    11.00000    0.01862    0.02061 =
         0.02204   -0.00167   -0.00404   -0.00846
S2    5    0.769129    0.365208    0.171940    11.00000    0.02139    0.02250 =
         0.02278   -0.00030   -0.00542   -0.00923
N1    3    0.854159    0.213954    0.240302    11.00000    0.01960    0.02154 =
         0.02005   -0.00256   -0.00386   -0.00520
O1    4    0.836880    0.052122    0.385414    11.00000    0.02583    0.02066 =
         0.02775    0.00033   -0.00584   -0.01069
O2    4    0.602104    0.290105    0.374645    11.00000    0.01896    0.02887 =
         0.02904   -0.00260   -0.00452   -0.00966
O3    4    0.695838    0.488672    0.250745    11.00000    0.02869    0.02206 =
         0.02886   -0.00228   -0.00789   -0.00918
O4    4    0.890458    0.354295    0.084732    11.00000    0.02490    0.03127 =
         0.02907    0.00350   -0.00471   -0.01389
C1    1    0.926215   -0.138430    0.135917    11.00000    0.03364    0.03518 =
         0.03926   -0.00841   -0.00739   -0.01756
AFIX 163
H1    2    0.908079   -0.217759    0.116995    11.00000   -1.20000
AFIX   0
C2    1    0.948814   -0.039576    0.159496    11.00000    0.02188    0.02946 =
         0.02756   -0.00607   -0.00502   -0.00799
C3    1    0.990114    0.077588    0.179366    11.00000    0.02064    0.02274 =
         0.02278   -0.00490   -0.00235   -0.00677
AFIX  13
H3    2    1.016155    0.108306    0.105275    11.00000   -1.20000
AFIX   0
C4    1    1.136929    0.025231    0.229570    11.00000    0.01880    0.02358 =
         0.02277   -0.00525   -0.00136   -0.00726
C5    1    1.212424    0.111943    0.222304    11.00000    0.02624    0.02275 =
         0.02910   -0.00232   -0.00405   -0.00994
AFIX  43
H5    2    1.169263    0.203164    0.189284    11.00000   -1.20000
AFIX   0
C6    1    1.350391    0.066331    0.262909    11.00000    0.02722    0.02983 =
         0.03510   -0.00472   -0.00435   -0.01543
AFIX  43
H6    2    1.400208    0.127041    0.257732    11.00000   -1.20000
AFIX   0
C7    1    1.416544   -0.067514    0.311162    11.00000    0.02125    0.03325 =
         0.02811   -0.00567   -0.00461   -0.00876
C8    1    1.340596   -0.153693    0.317396    11.00000    0.02493    0.02685 =
         0.02691    0.00056   -0.00466   -0.00804
AFIX  43
H8    2    1.384174   -0.245408    0.349726    11.00000   -1.20000
AFIX   0
C9    1    1.202489   -0.108538    0.277387    11.00000    0.02177    0.02484 =
         0.02703   -0.00207   -0.00210   -0.01037
AFIX  43
H9    2    1.152586   -0.169177    0.282676    11.00000   -1.20000
AFIX   0
C10   1    1.567054   -0.119572    0.355166    11.00000    0.02743    0.04569 =
         0.04648   -0.00320   -0.01448   -0.01264
AFIX 137
H10A  2    1.608329   -0.049498    0.339377    11.00000   -1.50000
H10B  2    1.643784   -0.216979    0.320086    11.00000   -1.50000
H10C  2    1.546618   -0.125986    0.434561    11.00000   -1.50000
AFIX   0
C11   1    0.829635    0.291986    0.456660    11.00000    0.02168    0.02210 =
         0.01927   -0.00101   -0.00312   -0.01064
C12   1    0.730441    0.435995    0.500416    11.00000    0.02024    0.02267 =
         0.02493   -0.00098   -0.00250   -0.00802
AFIX  43
H12   2    0.630483    0.490546    0.480388    11.00000   -1.20000
AFIX   0
C13   1    0.780062    0.498508    0.573786    11.00000    0.02591    0.02211 =
         0.02549   -0.00422   -0.00131   -0.00996
AFIX  43
H13   2    0.712530    0.596076    0.605152    11.00000   -1.20000
AFIX   0
C14   1    0.927915    0.419943    0.602138    11.00000    0.02885    0.02568 =
         0.02110    0.00100   -0.00411   -0.01633
C15   1    1.024733    0.276368    0.556754    11.00000    0.02386    0.02546 =
         0.02519    0.00142   -0.00780   -0.01115
AFIX  43
H15   2    1.125540    0.222304    0.575580    11.00000   -1.20000
AFIX   0
C16   1    0.976712    0.210683    0.484465    11.00000    0.02326    0.02123 =
         0.02317   -0.00087   -0.00487   -0.00836
AFIX  43
H16   2    1.043015    0.112170    0.454604    11.00000   -1.20000
AFIX   0
C17   1    0.983303    0.488624    0.679999    11.00000    0.03610    0.03227 =
         0.02682   -0.00295   -0.00683   -0.01994
AFIX   3
PART 1
H17A  2    1.021241    0.422588    0.738210    10.50000   -1.50000
H17B  2    0.896330    0.583227    0.712378    10.50000   -1.50000
H17C  2    1.068328    0.504835    0.640042    10.50000   -1.50000
PART 2
H17D  2    0.980136    0.585387    0.653573    10.50000    0.04500
H17E  2    1.098936    0.436987    0.680073    10.50000    0.04737
H17F  2    0.930436    0.496087    0.746073    10.50000    0.06109
PART 0
AFIX   0
C18   1    0.626021    0.346068    0.114976    11.00000    0.02121    0.02606 =
         0.02078    0.00147   -0.00538   -0.01033
C19   1    0.673371    0.232674    0.035220    11.00000    0.02237    0.03178 =
         0.03062   -0.00557   -0.00511   -0.00780
AFIX  43
H19   2    0.781422    0.167622    0.011136    11.00000   -1.20000
AFIX   0
C20   1    0.561446    0.215475   -0.008785    11.00000    0.03051    0.03145 =
         0.02879   -0.00378   -0.00754   -0.01311
AFIX  43
H20   2    0.593149    0.135982   -0.061585    11.00000   -1.20000
AFIX   0
C21   1    0.403273    0.312762    0.023092    11.00000    0.02728    0.03436 =
         0.02254    0.00800   -0.00772   -0.01724
C22   1    0.359154    0.428636    0.100395    11.00000    0.01965    0.03750 =
         0.02844    0.00055   -0.00340   -0.00812
AFIX  43
H22   2    0.251643    0.497893    0.120858    11.00000   -1.20000
AFIX   0
C23   1    0.469673    0.444865    0.148242    11.00000    0.02546    0.02986 =
         0.02394   -0.00175   -0.00447   -0.00895
AFIX  43
H23   2    0.438275    0.522373    0.202737    11.00000   -1.20000
AFIX   0
C24   1    0.284965    0.291056   -0.027405    11.00000    0.03364    0.04505 =
         0.03255    0.00895   -0.01324   -0.02409
AFIX 137
H24A  2    0.298679    0.306249   -0.105782    11.00000   -1.50000
H24B  2    0.179193    0.362186    0.008369    11.00000   -1.50000
H24C  2    0.300049    0.190613   -0.017656    11.00000   -1.50000
AFIX   0
HKLF 5
REM  mo_np538_15 in P-1
REM R1 =  0.0347 for    4205 Fo > 4sig(Fo)  and  0.0372 for all    4502 data
REM    286 parameters refined using      0 restraints
END
WGHT      0.0447      0.4870
REM Highest difference peak  0.304,  deepest hole -0.481,  1-sigma level  0.053
Q1    1   0.8398  0.4027  0.1329  11.00000  0.05    0.30
Q2    1   0.7774  0.3552  0.4801  11.00000  0.05    0.25
Q3    1   0.8336  0.2371  0.3160  11.00000  0.05    0.25
Q4    1   1.3638 -0.0967  0.3231  11.00000  0.05    0.25
Q5    1   0.8228  0.2783  0.2079  11.00000  0.05    0.24
;
_shelx_res_checksum              56539
_shelx_hkl_file
;
   1   0   0 320.311 11.9823   1
   2   0   0 733.649 21.9764   1
   3   0   0 78.1811 2.44027   1
   4   0   0 23.8777 0.79983   1
   5   0   0 710.614 19.4778   1
   6   0   0 77.4477 2.74598   1
   7   0   0 30.9016 1.32220   1
   8   0   0 45.4585 2.21725   1
   9   0   0 112.751 6.03535   1
  10   0   0 15.3701 1.54805   1
 -10   1   0 118.229 6.43040   1
  -9   1   0 25.9302 2.11442   1
  -8   1   0 1.70524 0.47031   1
  -7   1   0 153.506 5.45528   1
  -6   1   0 1.82189 0.26857   1
  -5   1   0 54.0116 1.70286   1
  -4   1   0 19.9051 0.66757   1
  -3   1   0 3.66691 0.41303  -2
  -3   1   0 3.66691 0.41303   1
  -2   1   0 22.9990 0.92662  -2
  -2   1   0 22.9990 0.92662   1
  -1   1   0 2564.18 79.7733  -2
  -1   1   0 2564.18 79.7733   1
   0   1   0 24.0504 0.52048   1
   1   1   0 4597.79 97.3960   1
   2   1   0 721.283 15.7332   1
   3   1   0 674.978 15.5930   1
   4   1   0 1154.34 34.4883   1
   5   1   0 191.667 5.46565   1
   6   1   0 395.147 13.2209   1
   7   1   0 24.0765 0.87199   1
   8   1   0 179.999 6.27965   1
   9   1   0 34.0996 2.21305   1
  10   1   0 38.7709 2.54563   1
  11   1   0 25.8233 2.04171   1
  -9   2   0 20.2757 1.89158   1
  -8   2   0 66.7701 3.90533   1
  -7   2   0 51.6000 2.13461   1
  -6   2   0 86.7434 2.90116   1
  -5   2   0 0.66173 0.10350   1
  -4   2   0 82.1544 4.09024  -2
  -4   2   0 82.1544 4.09024   1
  -3   2   0 71.5012 2.65879  -2
  -3   2   0 71.5012 2.65879   1
  -2   2   0 531.937 21.1926  -2
  -2   2   0 531.937 21.1926   1
  -1   2   0 403.751 7.61468   1
   0   2   0 57.5036 1.13285   1
   1   2   0 22.1622 0.43884   1
   2   2   0 24.1558 0.52194   1
   3   2   0 26.6678 0.58965   1
   4   2   0 30.3778 0.75028   1
   5   2   0 509.880 11.2184   1
   6   2   0 34.3275 1.05261   1
   7   2   0 180.574 5.56636   1
   8   2   0 2.55194 0.27044   1
   9   2   0 3.44109 0.52654   1
  10   2   0 0.40261 0.45337   1
  11   2   0 39.1478 2.56976   1
  -9   3   0 6.64195 1.12504   1
  -8   3   0 0.05155 0.44526   1
  -7   3   0 22.0547 0.98787   1
  -6   3   0 2.61551 0.34476   1
  -5   3   0 0.22071 0.14071   1
  -4   3   0 522.500 24.4760  -2
  -4   3   0 522.500 24.4760   1
  -3   3   0 21.4939 0.57508   1
  -2   3   0 45.2288 1.03640   1
  -1   3   0 74.2581 1.53914   1
   0   3   0 130.427 2.42311   1
   1   3   0 28.1671 0.54937   1
   2   3   0 363.624 6.95518   1
   3   3   0 643.254 12.2526   1
   4   3   0 314.726 6.56508   1
   5   3   0 104.717 2.51139   1
   6   3   0 77.3335 1.81020   1
   7   3   0 -0.0779 0.11997   1
   8   3   0 208.862 7.06239   1
   9   3   0 236.469 7.26860   1
  10   3   0 0.63928 0.36858   1
  11   3   0 10.4597 1.07684   1
  -8   4   0 5.48065 0.86092   1
  -7   4   0 89.3994 3.14873   1
  -6   4   0 98.2690 2.58453   1
  -5   4   0 53.8642 1.43830   1
  -4   4   0 111.811 2.71080   1
  -3   4   0 18.1384 0.53792   1
  -2   4   0 16.9814 0.46985   1
  -1   4   0 212.253 4.24790   1
   0   4   0 37.2097 0.76729   1
   1   4   0 155.932 3.06951   1
   2   4   0 21.4961 0.46266   1
   3   4   0 628.434 11.9880   1
   4   4   0 299.400 5.76013   1
   5   4   0 477.537 9.94230   1
   6   4   0 213.442 5.02335   1
   7   4   0 320.844 7.90557   1
   9   4   0 150.493 5.21726   1
  10   4   0 106.783 3.87988   1
  11   4   0 1.36817 0.45245   1
  -7   5   0 68.8390 2.92637   1
  -6   5   0 1.06068 0.27308   1
  -5   5   0 33.5811 1.09158   1
  -4   5   0 56.0461 1.51944   1
  -3   5   0 115.356 2.55111   1
  -2   5   0 75.7070 1.64908   1
  -1   5   0 121.500 2.61683   1
   0   5   0 21.9218 0.48435   1
   1   5   0 34.9042 0.75990   1
   2   5   0 86.3384 1.81243   1
   3   5   0 130.457 2.46855   1
  -4  -5   1 10.4554 0.96171  -2
   4   5   0 10.4554 0.96171   1
  -5  -5   1 173.609 6.56401  -2
   5   5   0 173.609 6.56401   1
  -6  -5   1 290.288 18.7625  -2
   6   5   0 290.288 18.7625   1
   7   5   0 14.8380 0.90042   1
   8   5   0 694.923 19.6430   1
   9   5   0 12.4550 0.63794   1
  10   5   0 367.018 12.0501   1
  11   5   0 114.448 4.15057   1
  12   5   0 3.12964 0.57880   1
  -6   6   0 47.0383 1.70416   1
  -5   6   0 189.145 4.78041   1
  -4   6   0 67.4672 1.90767   1
  -3   6   0 35.6229 1.01063   1
  -2   6   0 154.260 3.33659   1
  -1   6   0 401.163 8.64474   1
   0   6   0 0.67168 0.12305   1
  -1  -6   1 681.356 43.4349  -2
   1   6   0 681.356 43.4349   1
  -2  -6   1 134.269 3.12438  -2
   2   6   0 134.269 3.12438   1
  -3  -6   1 111.537 2.32509  -2
   3   6   0 111.537 2.32509   1
  -4  -6   1 239.754 4.84566  -2
   4   6   0 239.754 4.84566   1
  -5  -6   1 391.987 12.3944  -2
   5   6   0 391.987 12.3944   1
   6   6   0 2.87793 0.42193   1
   7   6   0 113.784 2.61801   1
   8   6   0 42.7002 1.77410   1
   9   6   0 145.590 4.75225   1
  10   6   0 273.608 8.74343   1
  11   6   0 62.5631 2.74950   1
  12   6   0 72.1670 3.95976   1
  -5   7   0 48.8964 1.52383   1
  -4   7   0 71.7189 2.03132   1
  -3   7   0 31.9299 1.09182   1
  -2   7   0 188.242 4.05468   1
   1  -7   1 100.544 3.28853  -2
  -1   7   0 100.544 3.28853   1
   0  -7   1 450.641 10.7649  -2
   0   7   0 450.641 10.7649   1
  -1  -7   1 37.4526 0.95988  -2
   1   7   0 37.4526 0.95988   1
  -2  -7   1 275.005 5.51535  -2
   2   7   0 275.005 5.51535   1
  -3  -7   1 140.543 3.22016  -2
   3   7   0 140.543 3.22016   1
  -4  -7   1 286.666 6.73080  -2
   4   7   0 286.666 6.73080   1
   5   7   0 168.215 3.45658   1
   6   7   0 11.0155 0.36226   1
   7   7   0 28.2249 0.77529   1
   8   7   0 78.3288 2.23760   1
   9   7   0 412.627 12.9071   1
  10   7   0 15.2152 0.83064   1
  11   7   0 116.568 3.94344   1
  12   7   0 3.44649 0.89083   1
  -4   8   0 24.0677 1.12364   1
  -3   8   0 19.9207 1.00914   1
   2  -8   1 26.8353 1.98707  -2
  -2   8   0 26.8353 1.98707   1
   1  -8   1 319.702 9.89892  -2
  -1   8   0 319.702 9.89892   1
   0  -8   1 17.1723 0.60682  -2
   0   8   0 17.1723 0.60682   1
  -1  -8   1 133.586 3.28617  -2
   1   8   0 133.586 3.28617   1
  -2  -8   1 154.578 3.14448  -2
   2   8   0 154.578 3.14448   1
  -3  -8   1 153.884 5.99644  -2
   3   8   0 153.884 5.99644   1
   4   8   0 11.9015 0.43703   1
   5   8   0 186.968 4.00462   1
   6   8   0 37.4370 0.91960   1
   7   8   0 5.07973 0.27930   1
   8   8   0 0.51358 0.19294   1
   9   8   0 4.39771 0.40872   1
  10   8   0 70.0073 2.47886   1
  11   8   0 75.9715 2.70745   1
  -3   9   0 0.22731 0.31017   1
   2  -9   1 16.6214 1.63619  -2
  -2   9   0 16.6214 1.63619   1
   1  -9   1 93.7119 3.24865  -2
  -1   9   0 93.7119 3.24865   1
   0  -9   1 13.2035 0.73160  -2
   0   9   0 13.2035 0.73160   1
  -1  -9   1 30.1356 1.15552  -2
   1   9   0 30.1356 1.15552   1
  -2  -9   1 88.4947 3.76467  -2
   2   9   0 88.4947 3.76467   1
   3   9   0 154.318 3.84099   1
   4   9   0 36.8729 1.08734   1
   5   9   0 60.8299 1.53383   1
   6   9   0 68.5039 1.78585   1
   7   9   0 40.4803 1.22175   1
   8   9   0 6.80572 0.48701   1
   9   9   0 43.8299 1.39406   1
  10   9   0 -0.1670 0.26380   1
  11   9   0 16.9517 0.91759   1
   2 -10   1 14.9199 1.34715  -2
  -2  10   0 14.9199 1.34715   1
   1 -10   1 26.0647 1.33886  -2
  -1  10   0 26.0647 1.33886   1
   0 -10   1 70.3580 2.50710  -2
   0  10   0 70.3580 2.50710   1
  -1 -10   1 28.5864 2.86046  -2
   1  10   0 28.5864 2.86046   1
   2  10   0 18.7986 0.66842   1
   3  10   0 6.37611 0.50870   1
   4  10   0 200.756 6.24416   1
   5  10   0 58.6018 1.94174   1
   6  10   0 25.4182 1.03029   1
   7  10   0 53.3761 2.17504   1
   8  10   0 -0.1311 0.33475   1
   9  10   0 15.4171 0.91656   1
  10  10   0 2.12985 0.39208   1
  11  10   0 37.5872 2.09085   1
   0 -11   1 24.6107 2.75897  -2
   0  11   0 24.6107 2.75897   1
   1  11   0 12.3933 0.67787   1
   2  11   0 5.93771 0.65035   1
   3  11   0 63.0437 2.63724   1
   4  11   0 1.65768 0.51757   1
   5  11   0 37.1489 1.77707   1
   6  11   0 7.15710 0.75031   1
   7  11   0 5.20333 0.82178   1
   8  11   0 11.1967 0.82816   1
   9  11   0 86.4944 3.24109   1
  10  11   0 32.9445 1.48659   1
   2  12   0 45.2759 2.95305   1
   3  12   0 21.1326 1.41858   1
  -4 -12   2 49.2895 3.32298  -2
   4  12   0 49.2895 3.32298   1
  -5 -12   2 5.56284 1.78617  -2
   5  12   0 5.56284 1.78617   1
   6  12   0 117.817 4.38995   1
   7  12   0 83.9547 3.27442   1
   8  12   0 70.2647 2.83329   1
   9  12   0 8.68007 0.86262   1
  -8 -12   1 43.6944 2.16106   1
  -7 -12   1 51.4572 2.21585   1
  -6 -12   1 41.5263 1.95599   1
  -5 -12   1 120.700 4.50908   1
  -4 -12   1 6.21357 0.75808   1
  -3 -12   1 3.51103 0.67112   1
  -2 -12   1 4.96706 1.06516   1
 -10 -11   1 106.402 3.85611   1
  -9 -11   1 0.47155 0.41350   1
  -8 -11   1 63.4582 2.51497   1
  -7 -11   1 24.7625 1.31884   1
  -6 -11   1 276.925 9.42562   1
  -5 -11   1 12.5343 0.95877   1
  -4 -11   1 44.1255 1.99129   1
  -3 -11   1 2.75021 0.58734   1
  -2 -11   1 139.106 4.61640   1
  -1 -11   1 15.6914 0.73145   1
   0 -11   2 80.6146 6.26618  -2
   0 -11   1 80.6146 6.26618   1
 -10 -10   1 11.7102 0.89162   1
  -9 -10   1 185.622 6.32125   1
  -8 -10   1 -0.2521 0.28785   1
  -7 -10   1 307.481 9.27115   1
  -6 -10   1 45.0370 1.69056   1
  -5 -10   1 98.2395 3.25710   1
  -4 -10   1 141.709 4.07955   1
  -3 -10   1 1.91541 0.30920   1
  -2 -10   1 36.2017 1.21853   1
  -1 -10   2 89.9378 4.93977  -2
  -1 -10   1 89.9378 4.93977   1
   0 -10   2 130.692 5.66524  -2
   0 -10   1 130.692 5.66524   1
   1 -10   2 115.827 3.02960  -2
   1 -10   1 115.827 3.02960   1
   2 -10   2 11.2776 0.74595  -2
   2 -10   1 11.2776 0.74595   1
 -11  -9   1 11.1662 0.75361   1
 -10  -9   1 2.96701 0.41968   1
  -9  -9   1 5.85915 0.43944   1
  -8  -9   1 7.44507 0.47126   1
  -7  -9   1 6.13270 0.43338   1
  -6  -9   1 58.3323 1.67136   1
  -5  -9   1 37.0269 1.07352   1
  -4  -9   1 194.151 5.03340   1
  -3  -9   1 133.524 3.55423   1
  -2  -9   2 39.2916 3.35276  -2
  -2  -9   1 39.2916 3.35276   1
  -1  -9   2 87.3631 3.36553  -2
  -1  -9   1 87.3631 3.36553   1
   0  -9   2 76.9084 2.06535  -2
   0  -9   1 76.9084 2.06535   1
   1  -9   2 201.201 5.29324  -2
   1  -9   1 201.201 5.29324   1
   2  -9   2 25.6186 0.95289  -2
   2  -9   1 25.6186 0.95289   1
   3  -9   2 5.80363 0.61859  -2
   3  -9   1 5.80363 0.61859   1
 -11  -8   1 59.0458 2.19637   1
 -10  -8   1 51.8648 1.93889   1
  -9  -8   1 0.08175 0.25992   1
  -8  -8   1 8.66844 0.48630   1
  -7  -8   1 64.4243 1.58062   1
  -6  -8   1 78.7514 1.76635   1
  -5  -8   1 26.6523 0.78407   1
  -4  -8   1 145.737 3.54574   1
  -3  -8   1 402.764 10.0780   1
  -2  -8   2 83.2142 2.92122  -2
  -2  -8   1 83.2142 2.92122   1
  -1  -8   2 114.728 3.38671  -2
  -1  -8   1 114.728 3.38671   1
   0  -8   2 107.877 3.21927  -2
   0  -8   1 107.877 3.21927   1
   1  -8   2 102.687 2.68499  -2
   1  -8   1 102.687 2.68499   1
   2  -8   2 98.2821 3.34174  -2
   2  -8   1 98.2821 3.34174   1
   3  -8   2 10.9680 1.19208  -2
   3  -8   1 10.9680 1.19208   1
   4  -8   1 -0.4405 0.25896   1
 -11  -7   1 2.61971 0.42449   1
 -10  -7   1 6.68377 0.54928   1
  -9  -7   1 26.7035 1.13421   1
  -8  -7   1 151.757 4.47039   1
  -7  -7   1 53.4564 1.33281   1
  -6  -7   1 6.84496 0.31272   1
  -5  -7   1 0.24569 0.07947   1
  -4  -7   1 7.56356 0.28156   1
  -3  -7   2 498.802 29.9877  -2
  -3  -7   1 498.802 29.9877   1
  -2  -7   2 24.7176 1.06820  -2
  -2  -7   1 24.7176 1.06820   1
  -1  -7   2 66.4173 2.24664  -2
  -1  -7   1 66.4173 2.24664   1
   0  -7   2 1.98553 0.38292  -2
   0  -7   1 1.98553 0.38292   1
   1  -7   2 133.626 9.19801  -2
   1  -7   1 133.626 9.19801   1
   2  -7   2 115.775 8.14000  -2
   2  -7   1 115.775 8.14000   1
   3  -7   1 17.3073 0.74353   1
   4  -7   1 0.54465 0.26495   1
   5  -7   1 -0.2237 0.27443   1
   6  -7   1 -0.0753 0.58948   1
 -11  -6   1 14.5945 1.06404   1
 -10  -6   1 95.1033 3.27949   1
  -9  -6   1 20.1585 0.94415   1
  -8  -6   1 269.205 8.50918   1
  -7  -6   1 15.6355 0.53829   1
  -6  -6   1 450.503 9.42009   1
  -5  -6   1 23.4948 0.58561   1
  -4  -6   1 0.50191 0.06678   1
  -3  -6   1 45.8738 1.03473   1
  -2  -6   1 419.715 8.86316   1
  -1  -6   1 270.958 5.27710   1
   0  -6   1 849.758 15.8838   1
   1  -6   1 214.706 4.26813   1
   2  -6   1 104.427 2.31710   1
   3  -6   1 170.827 3.84249   1
   4  -6   1 15.9979 0.71267   1
   5  -6   1 82.3957 2.25574   1
   6  -6   1 3.21392 0.41398   1
 -11  -5   1 40.4756 1.65743   1
 -10  -5   1 112.224 3.49052   1
  -9  -5   1 117.508 3.92758   1
  -8  -5   1 18.5625 0.86068   1
  -7  -5   1 425.218 13.2319   1
  -6  -5   1 87.7681 1.86861   1
  -5  -5   1 239.455 4.84637   1
  -4  -5   1 0.65085 0.09294   1
  -3  -5   1 126.407 2.29637   1
  -2  -5   1 215.149 4.20885   1
  -1  -5   1 1766.29 33.5623   1
   0  -5   1 70.2955 1.38590   1
   1  -5   1 326.816 6.73559   1
   2  -5   1 376.431 7.47030   1
   3  -5   1 297.232 6.22748   1
   4  -5   1 712.740 15.9644   1
   5  -5   1 82.1848 4.48504  -2
   5  -5   1 82.1848 4.48504   1
   6  -5   1 685.145 26.5946  -2
   6  -5   1 685.145 26.5946   1
   7  -5   1 14.3550 1.61601  -2
   7  -5   1 14.3550 1.61601   1
 -11  -4   1 52.4281 2.48874   1
 -10  -4   1 46.3765 1.89539   1
  -9  -4   1 115.595 3.59871   1
  -8  -4   1 671.147 17.6612   1
  -7  -4   1 40.1498 1.34425   1
  -6  -4   1 328.545 7.30188   1
  -5  -4   1 95.8423 1.93298   1
  -4  -4   1 76.8228 1.44884   1
  -3  -4   1 69.3248 1.30659   1
  -2  -4   1 523.181 9.71514   1
  -1  -4   1 270.495 4.99347   1
   0  -4   1 344.732 6.24505   1
   1  -4   1 35.1786 0.80628   1
   2  -4   1 0.10197 0.10739   1
   3  -4   1 166.553 3.38921   1
   4  -4   1 408.562 15.6881  -2
   4  -4   1 408.562 15.6881   1
   5  -4   1 712.698 19.3561  -2
   5  -4   1 712.698 19.3561   1
   6  -4   1 20.4728 0.90261  -2
   6  -4   1 20.4728 0.90261   1
   7  -4   1 291.288 14.4673  -2
   7  -4   1 291.288 14.4673   1
   8  -4   1 11.8077 1.16691   1
 -11  -3   1 0.83031 0.42117   1
 -10  -3   1 17.4665 1.18115   1
  -9  -3   1 83.1178 3.54346   1
  -8  -3   1 409.990 13.6827   1
  -7  -3   1 309.592 7.75495   1
  -6  -3   1 107.306 2.37363   1
  -5  -3   1 0.34030 0.08458   1
  -4  -3   1 219.504 4.25827   1
  -3  -3   1 2.48896 0.11054   1
  -2  -3   1 487.425 9.33278   1
  -1  -3   1 5.49848 0.14572   1
   0  -3   1 751.178 13.9745   1
   1  -3   1 185.916 3.69789   1
   2  -3   1 242.472 5.23233   1
   3  -3   1 331.172 10.0586  -2
   3  -3   1 331.172 10.0586   1
   4  -3   1 262.243 6.76425  -2
   4  -3   1 262.243 6.76425   1
   5  -3   1 -0.1154 0.27281  -2
   5  -3   1 -0.1154 0.27281   1
   6  -3   1 46.1856 1.92546  -2
   6  -3   1 46.1856 1.92546   1
   7  -3   1 0.23770 0.87296  -2
   7  -3   1 0.23770 0.87296   1
   8  -3   1 96.0549 8.01675  -2
   8  -3   1 96.0549 8.01675   1
   9  -3   1 79.1520 3.78321   1
 -11  -2   1 2.50215 0.68401   1
 -10  -2   1 11.5266 0.98116   1
  -9  -2   1 3.67526 0.52746   1
  -8  -2   1 118.191 3.77656   1
  -7  -2   1 7.50720 0.49819   1
  -6  -2   1 245.109 6.23016   1
  -5  -2   1 173.852 3.72842   1
  -4  -2   1 24.8299 0.60926   1
  -3  -2   1 300.751 6.01812   1
  -2  -2   1 23.1626 0.47575   1
  -1  -2   1 3391.01 64.9692   1
   0  -2   1 1244.32 24.8386   1
   1  -2   1 169.180 3.21429   1
   2  -2   1 1187.43 29.7679  -2
   2  -2   1 1187.43 29.7679   1
   3  -2   1 166.705 3.63425  -2
   3  -2   1 166.705 3.63425   1
   4  -2   1 771.945 18.3715  -2
   4  -2   1 771.945 18.3715   1
   5  -2   1 34.7108 1.27493  -2
   5  -2   1 34.7108 1.27493   1
   6  -2   1 179.279 8.98262  -2
   6  -2   1 179.279 8.98262   1
   7  -2   1 30.1580 2.20527  -2
   7  -2   1 30.1580 2.20527   1
   8  -2   1 11.7610 1.06093   1
   9  -2   1 12.4227 1.16336   1
 -10  -1   1 49.6782 3.10596   1
  -9  -1   1 -0.0628 0.35198   1
  -8  -1   1 -0.2721 0.25954   1
  -7  -1   1 57.2922 2.00722   1
  -6  -1   1 215.184 6.10031   1
  -5  -1   1 16.3757 0.65396   1
  -4  -1   1 265.004 6.72408   1
  -3  -1   1 127.038 3.01982   1
  -2  -1   1 1510.20 31.4400   1
  -1  -1   1 869.600 17.2334   1
   0  -1   1 992.085 19.0540   1
   1  -1   1 730.175 18.0096  -2
   1  -1   1 730.175 18.0096   1
   2  -1   1 29.1108 0.71539  -2
   2  -1   1 29.1108 0.71539   1
   3  -1   1 25.3401 0.81269  -2
   3  -1   1 25.3401 0.81269   1
   4  -1   1 209.233 10.0321  -2
   4  -1   1 209.233 10.0321   1
   5  -1   1 401.452 11.1836   1
   6  -1   1 1.48169 0.24846   1
   7  -1   1 -0.1729 0.24510   1
   8  -1   1 237.579 9.63943   1
   9  -1   1 17.1057 1.64751   1
  10  -1   1 75.9761 3.62612   1
 -10   0   1 16.4963 1.61144   1
  -9   0   1 0.28544 0.49971   1
  -8   0   1 4.10163 0.69974   1
  -7   0   1 37.4436 1.56360   1
  -6   0   1 13.2305 0.66162   1
  -5   0   1 771.301 19.9695   1
  -4   0   1 218.129 5.71212   1
  -3   0   1 298.282 8.99121   1
  -2   0   1 119.950 3.52182   1
  -1   0   1 2541.78 64.8093   1
   0   0   1 18.4113 1.34606   1
   1   0   1 16.6208 0.48620   1
   2   0   1 495.778 13.8089   1
   3   0   1 14.8876 0.59194   1
   4   0   1 119.583 3.76425   1
   5   0   1 13.6970 0.60714   1
   6   0   1 0.05641 0.14465   1
   7   0   1 124.058 4.39088   1
   8   0   1 2.08606 0.42574   1
   9   0   1 29.0848 2.12296   1
  10   0   1 48.1589 3.05297   1
 -10   1   1 17.3645 1.77706   1
  -9   1   1 117.045 6.31239   1
  -8   1   1 168.404 7.04338   1
  -7   1   1 3.28285 0.44939   1
  -6   1   1 86.1315 2.58004   1
  -5   1   1 316.235 8.63142   1
  -4   1   1 2.07401 0.17354   1
  -3   1   1 1.69179 0.10619   1
  -2   1   1 432.613 10.3638   1
  -1   1   1 4241.46 90.7137   1
   0   1   1 2664.52 54.2124   1
   1   1   1 797.735 18.7250   1
   2   1   1 2543.86 61.6334   1
   3   1   1 3000.72 87.3948   1
   4   1   1 165.777 5.03374   1
   5   1   1 72.0436 2.12233   1
   6   1   1 16.2474 0.63757   1
   7   1   1 258.499 7.93817   1
   8   1   1 297.025 10.1736   1
   9   1   1 32.1759 2.13854   1
  10   1   1 8.23175 1.04845   1
  11   1   1 31.3669 2.33279   1
  -9   2   1 117.241 6.37468   1
  -8   2   1 36.2818 1.98339   1
  -7   2   1 360.074 14.0418   1
  -6   2   1 18.3005 0.93133   1
  -5   2   1 198.098 6.16441   1
  -4   2   1 47.8940 1.23027   1
  -3   2   1 4.30409 0.20231   1
  -2   2   1 1121.74 23.9616   1
  -1   2   1 697.848 13.5940   1
   0   2   1 340.755 6.40780   1
   1   2   1 2292.33 41.8656   1
   2   2   1 341.857 7.06270   1
   3   2   1 18.7044 0.46256   1
   4   2   1 210.180 4.63081   1
   5   2   1 81.6159 1.87665   1
   6   2   1 592.189 14.9203   1
   7   2   1 6.27412 0.30974   1
   8   2   1 338.461 10.3178   1
   9   2   1 54.3354 3.08994   1
  10   2   1 173.142 8.73953   1
  11   2   1 16.0448 1.51872   1
  -8   3   1 35.4717 2.05010   1
  -7   3   1 6.68615 0.65903   1
  -6   3   1 793.833 23.3413   1
  -5   3   1 1.98178 0.20945   1
  -4   3   1 246.187 6.12690   1
  -3   3   1 50.9970 1.32001   1
  -2   3   1 69.6043 1.47903   1
  -1   3   1 19.5183 0.46342   1
   0   3   1 592.100 11.5800   1
   1   3   1 287.488 5.46304   1
   2   3   1 84.4844 1.80375   1
   3   3   1 106.053 2.24064   1
   4   3   1 137.427 2.78895   1
   5   3   1 288.309 6.05262   1
   6   3   1 19.1972 0.53908   1
   7   3   0 292.822 13.2100  -2
   7   3   1 292.822 13.2100   1
   8   3   0 72.5054 3.78967  -2
   8   3   1 72.5054 3.78967   1
   9   3   1 58.9963 2.68658   1
  10   3   1 31.1709 2.02109   1
  11   3   1 7.09450 0.92013   1
  -8   4   1 6.44815 1.09259   1
  -7   4   1 1.98603 0.43874   1
  -6   4   1 35.3685 1.01275   1
  -5   4   1 134.332 3.24264   1
  -4   4   1 55.3068 1.45769   1
  -3   4   1 47.0090 1.13307   1
  -2   4   1 6.55604 0.26728   1
  -1   4   1 893.367 18.2805   1
   0   4   1 680.011 12.8128   1
   1   4   1 197.611 3.45417   1
   2   4   1 0.83132 0.06580   1
   3   4   1 313.968 6.57814   1
   4   4   1 1099.75 21.7859   1
   5   4   0 428.789 16.1594  -2
   5   4   1 428.789 16.1594   1
   6   4   0 93.3005 2.62435  -2
   6   4   1 93.3005 2.62435   1
   7   4   0 251.515 6.21452  -2
   7   4   1 251.515 6.21452   1
   8   4   0 501.533 12.2393  -2
   8   4   1 501.533 12.2393   1
   9   4   0 49.4118 3.88071  -2
   9   4   1 49.4118 3.88071   1
  10   4   0 55.0968 4.74150  -2
  10   4   1 55.0968 4.74150   1
  11   4   1 -0.6779 0.36195   1
  12   4   1 -0.2782 0.40822   1
  -7   5   1 6.91822 0.79414   1
  -6   5   1 160.502 4.10152   1
  -5   5   1 9.72539 0.52036   1
  -4   5   1 27.8886 0.91956   1
  -3   5   1 68.9693 1.69649   1
  -2   5   1 1.48456 0.16082   1
  -1   5   1 3.35675 0.20881   1
   0   5   1 1.04476 0.11987   1
   1   5   1 44.3768 0.82950   1
   2   5   1 106.025 1.85881   1
   3   5   1 700.170 13.2851   1
   4   5   0 74.7386 1.57677  -2
   4   5   1 74.7386 1.57677   1
   5   5   0 528.085 10.5199  -2
   5   5   1 528.085 10.5199   1
   6   5   0 88.4279 1.86202  -2
   6   5   1 88.4279 1.86202   1
   7   5   0 16.3319 0.49986  -2
   7   5   1 16.3319 0.49986   1
   8   5   0 468.636 21.2515  -2
   8   5   1 468.636 21.2515   1
   9   5   1 24.7574 0.85562   1
  10   5   1 227.149 6.80783   1
  11   5   1 32.1112 1.63613   1
  12   5   1 29.2766 1.97827   1
  -6   6   1 0.36037 0.27748   1
  -5   6   1 18.5413 0.81126   1
  -4   6   1 49.3426 1.48062   1
  -3   6   1 11.5124 0.60098   1
  -2   6   1 675.961 13.9026   1
  -1   6   1 482.052 9.56565   1
   0   6   1 237.853 4.74310   1
   1   6   1 144.158 2.51001   1
   2   6   0 11.1342 0.40299  -2
   2   6   1 11.1342 0.40299   1
   3   6   0 162.915 3.35221  -2
   3   6   1 162.915 3.35221   1
   4   6   0 168.349 3.27233  -2
   4   6   1 168.349 3.27233   1
   5   6   0 174.044 3.73862  -2
   5   6   1 174.044 3.73862   1
   6   6   0 125.065 2.59194  -2
   6   6   1 125.065 2.59194   1
   7   6   0 51.2465 2.55821  -2
   7   6   1 51.2465 2.55821   1
   8   6   1 329.215 8.11252   1
   9   6   1 820.405 25.3709   1
  10   6   1 1.14846 0.31892   1
  11   6   1 65.2954 2.95844   1
  12   6   1 14.3041 1.13444   1
  -5   7   1 47.8935 1.51394   1
  -4   7   1 16.9850 0.77693   1
  -3   7   1 57.6172 1.67424   1
  -2   7   1 15.8687 0.57808   1
  -1   7   1 790.569 16.2087   1
   0   7   0 192.186 12.3713  -2
   0   7   1 192.186 12.3713   1
   1   7   0 660.618 22.0779  -2
   1   7   1 660.618 22.0779   1
   2   7   0 170.912 4.12676  -2
   2   7   1 170.912 4.12676   1
   3   7   0 338.644 7.96003  -2
   3   7   1 338.644 7.96003   1
   4   7   0 406.566 10.3253  -2
   4   7   1 406.566 10.3253   1
   5   7   0 66.0342 2.14403  -2
   5   7   1 66.0342 2.14403   1
   6   7   1 2.26597 0.20171   1
   7   7   1 15.2132 0.46804   1
   8   7   1 85.9818 2.25515   1
   9   7   1 71.5512 2.25970   1
  10   7   1 132.032 4.36500   1
  11   7   1 0.84148 0.34279   1
  12   7   1 111.601 8.25227   1
  -4   8   1 26.9917 1.23603   1
  -3   8   1 11.8221 0.76607   1
  -2   8   1 64.1338 2.16696   1
  -1   8   1 109.812 2.91582   1
   0   8   1 419.683 8.65272   1
   1   8   0 72.0353 2.22274  -2
   1   8   1 72.0353 2.22274   1
   2   8   0 523.595 13.0482  -2
   2   8   1 523.595 13.0482   1
   3   8   0 59.2247 2.30954  -2
   3   8   1 59.2247 2.30954   1
   4   8   1 210.839 5.06546   1
   5   8   1 56.2272 1.29139   1
   6   8   1 63.8690 1.55048   1
   7   8   1 164.771 3.98931   1
   8   8   1 1.50855 0.21261   1
   9   8   1 120.780 3.34917   1
  10   8   1 1.59993 0.34440   1
  11   8   1 51.0060 1.89785   1
  12   8   1 7.82634 1.58839   1
  -3   9   1 19.6999 1.19666   1
  -2   9   1 79.3354 2.27303   1
  -1   9   1 128.059 3.37174   1
   0   9   0 27.4898 2.07284  -2
   0   9   1 27.4898 2.07284   1
   1   9   0 80.3053 2.75963  -2
   1   9   1 80.3053 2.75963   1
   2   9   0 74.1242 5.21227  -2
   2   9   1 74.1242 5.21227   1
   3   9   1 8.01729 1.05278   1
   4   9   1 101.140 2.82395   1
   5   9   1 137.742 3.70205   1
   6   9   1 216.786 6.10952   1
   7   9   1 154.731 4.81971   1
   8   9   1 42.4390 1.53061   1
   9   9   1 19.8376 0.84694   1
  10   9   1 49.1392 2.16536   1
  11   9   1 0.48961 0.70913   1
  -2  10   1 73.8519 3.09476   1
  -1  10   1 1.99309 0.40325   1
   0  10   0 53.5042 4.38348  -2
   0  10   1 53.5042 4.38348   1
   1  10   1 37.9041 1.31364   1
   2  10   1 97.3567 2.56936   1
   3  10   1 35.8265 1.37231   1
   4  10   1 7.61170 0.69951   1
   5  10   1 169.049 5.34888   1
   6  10   1 111.468 3.62738   1
   7  10   1 58.5496 2.09187   1
  -8 -10   1 11.0043 1.40247  -2
   8  10   1 11.0043 1.40247   1
   9  10   1 65.3031 2.19268   1
  10  10   1 0.96355 0.40785   1
  11  10   1 5.23275 1.18940   1
   0  11   1 4.34496 0.57518   1
   1  11   1 0.13277 0.26143   1
   2  11   1 0.55699 0.20036   1
   3  11   1 0.39316 0.48083   1
   4  11   1 2.69734 0.53042   1
   5  11   1 13.6538 0.91450   1
   6  11   1 35.7383 1.69928   1
  -7 -11   1 41.2051 2.87387  -2
   7  11   1 41.2051 2.87387   1
  -8 -11   1 25.6032 2.11152  -2
   8  11   1 25.6032 2.11152   1
   9  11   1 12.4913 0.75155   1
  10  11   1 10.7278 1.32906   1
   2  12   1 0.50888 0.61509   1
   3  12   1 42.8059 2.35630   1
   4  12   1 -0.1332 0.44622   1
  -5 -12   1 43.4247 2.94755  -2
   5  12   1 43.4247 2.94755   1
  -6 -12   1 48.1092 2.14704  -2
   6  12   1 48.1092 2.14704   1
  -7 -12   1 77.0606 3.03383  -2
   7  12   1 77.0606 3.03383   1
  -8 -12   1 28.2910 1.61505  -2
   8  12   1 28.2910 1.61505   1
   9  12   1 65.8177 3.54196   1
  -8 -12   2 61.3311 2.82663   1
  -7 -12   2 105.915 4.48612   1
  -6 -12   2 160.122 5.74707   1
  -5 -12   2 2.70319 0.60157   1
  -4 -12   2 11.2732 0.94847   1
  -3 -12   2 33.1011 1.80058   1
  -2 -12   2 21.5659 1.98642   1
  -9 -11   2 52.4981 2.15416   1
  -8 -11   2 9.26784 0.79370   1
  -7 -11   2 261.455 8.89870   1
  -6 -11   2 113.598 4.17786   1
  -5 -11   2 40.0566 1.87690   1
  -4 -11   2 5.57956 0.67939   1
  -3 -11   2 65.4701 2.71328   1
  -2 -11   2 22.5067 1.41516   1
  -1 -11   2 8.66787 0.49172   1
   0 -11   2 102.722 2.90099   1
 -10 -10   2 102.169 3.55175   1
  -9 -10   2 12.9292 0.69153   1
  -8 -10   2 90.2178 2.67502   1
  -7 -10   2 71.2548 2.17606   1
  -6 -10   2 70.4081 2.17369   1
  -5 -10   2 166.801 5.18024   1
  -4 -10   2 53.7167 1.75648   1
  -3 -10   2 14.1111 0.67017   1
  -2 -10   2 11.2545 0.61224   1
  -1 -10   2 57.1597 1.50806   1
   0 -10   2 9.29794 0.52205   1
   1 -10   3 358.008 14.3874  -2
   1 -10   2 358.008 14.3874   1
   2 -10   3 53.9696 2.09162  -2
   2 -10   2 53.9696 2.09162   1
 -11  -9   2 27.6957 1.24508   1
 -10  -9   2 14.0832 0.83830   1
  -9  -9   2 176.220 5.20791   1
  -8  -9   2 29.8362 1.07259   1
  -7  -9   2 40.9605 1.35299   1
  -6  -9   2 76.2590 2.28094   1
  -5  -9   2 80.9273 2.24878   1
  -4  -9   2 15.0429 0.59942   1
  -3  -9   2 41.5607 1.30523   1
  -2  -9   2 128.784 3.47981   1
  -1  -9   2 16.0970 0.60610   1
   0  -9   2 168.407 4.21634   1
   1  -9   3 111.965 3.69900  -2
   1  -9   2 111.965 3.69900   1
   2  -9   3 60.9679 2.27877  -2
   2  -9   2 60.9679 2.27877   1
   3  -9   3 87.9200 3.37598  -2
   3  -9   2 87.9200 3.37598   1
 -11  -8   2 9.05729 0.69709   1
 -10  -8   2 140.884 4.68322   1
  -9  -8   2 1.01260 0.31125   1
  -8  -8   2 129.009 3.57382   1
  -7  -8   2 2.40450 0.24550   1
  -6  -8   2 24.8517 0.66956   1
  -5  -8   2 119.783 2.79394   1
  -4  -8   2 7.04811 0.37284   1
  -3  -8   2 60.4957 1.60777   1
  -2  -8   2 66.6592 1.90342   1
  -1  -8   2 151.578 3.30447   1
   0  -8   3 263.513 12.3805  -2
   0  -8   2 263.513 12.3805   1
   1  -8   3 121.109 3.92544  -2
   1  -8   2 121.109 3.92544   1
   2  -8   3 22.4389 1.08042  -2
   2  -8   2 22.4389 1.08042   1
   3  -8   3 14.0537 1.01703  -2
   3  -8   2 14.0537 1.01703   1
   4  -8   3 14.9526 1.35663  -2
   4  -8   2 14.9526 1.35663   1
   5  -8   2 2.47949 1.28381   1
 -11  -7   2 107.480 3.70882   1
 -10  -7   2 19.1316 0.96506   1
  -9  -7   2 2.12545 0.35499   1
  -8  -7   2 37.3535 1.20976   1
  -7  -7   2 12.5930 0.50202   1
  -6  -7   2 69.4436 1.67288   1
  -5  -7   2 29.1382 0.68119   1
  -4  -7   2 64.5241 1.45917   1
  -3  -7   2 243.260 5.79319   1
  -2  -7   2 8.17932 0.43440   1
  -1  -7   2 2.16815 0.18751   1
   0  -7   2 4.77505 0.25433   1
   1  -7   2 44.2257 1.24564   1
   2  -7   2 6.54443 0.35240   1
   3  -7   2 0.96823 0.25324   1
   4  -7   2 18.0208 0.71392   1
   5  -7   2 2.47523 0.40555   1
   6  -7   2 -0.2537 0.45511   1
 -11  -6   2 14.7656 1.08685   1
 -10  -6   2 102.075 3.51507   1
  -9  -6   2 74.9949 2.62995   1
  -8  -6   2 154.064 4.98743   1
  -7  -6   2 37.8702 1.12032   1
  -6  -6   2 209.006 4.29162   1
  -5  -6   2 50.1118 1.08269   1
  -4  -6   2 5.04389 0.17503   1
  -3  -6   2 42.0177 0.95435   1
  -2  -6   2 31.9940 0.82541   1
  -1  -6   2 209.002 4.26804   1
   0  -6   2 59.4620 1.26465   1
   1  -6   2 36.3781 0.93435   1
   2  -6   2 76.5341 1.55221   1
   3  -6   2 147.529 3.20849   1
   4  -6   2 314.732 7.67321   1
   5  -6   2 19.2931 0.80961   1
   6  -6   2 1.54405 1.07888  -2
   6  -6   2 1.54405 1.07888   1
 -11  -5   2 24.9723 1.19350   1
 -10  -5   2 146.101 4.50150   1
  -9  -5   2 147.307 4.85398   1
  -8  -5   2 493.792 14.1724   1
  -7  -5   2 2.90750 0.28705   1
  -6  -5   2 201.271 4.53513   1
  -5  -5   2 3.40475 0.16812   1
  -4  -5   2 96.0049 1.87425   1
  -3  -5   2 3.78736 0.14042   1
  -2  -5   2 576.455 11.0707   1
  -1  -5   2 85.3139 1.55738   1
   0  -5   2 123.824 2.42836   1
   1  -5   2 386.553 7.04883   1
   2  -5   2 351.519 6.64862   1
   3  -5   2 935.399 18.2811   1
   4  -5   2 24.2544 0.75490   1
   5  -5   2 101.878 3.73963  -2
   5  -5   2 101.878 3.73963   1
   6  -5   2 -0.1772 0.67937  -2
   6  -5   2 -0.1772 0.67937   1
   7  -5   2 35.3130 1.59506  -2
   7  -5   2 35.3130 1.59506   1
 -11  -4   2 111.514 4.68578   1
 -10  -4   2 13.0483 0.79552   1
  -9  -4   2 739.155 23.5837   1
  -8  -4   2 32.3377 1.09215   1
  -7  -4   2 424.926 11.3015   1
  -6  -4   2 125.413 2.63537   1
  -5  -4   2 60.4196 1.26567   1
  -4  -4   2 1007.70 18.5679   1
  -3  -4   2 2.31711 0.12205   1
  -2  -4   2 18.7571 0.41332   1
  -1  -4   2 704.038 12.0713   1
   0  -4   2 149.385 2.98126   1
   1  -4   2 458.177 8.30107   1
   2  -4   2 983.641 20.0922   1
   3  -4   2 2.66270 0.19098   1
   4  -4   2 753.318 28.4995  -2
   4  -4   2 753.318 28.4995   1
   5  -4   2 869.371 20.6090  -2
   5  -4   2 869.371 20.6090   1
   6  -4   2 349.695 9.80468  -2
   6  -4   2 349.695 9.80468   1
   7  -4   2 8.55145 0.69800  -2
   7  -4   2 8.55145 0.69800   1
   8  -4   2 218.183 9.11728  -2
   8  -4   2 218.183 9.11728   1
 -11  -3   2 0.84513 0.42971   1
 -10  -3   2 23.7687 1.46325   1
  -9  -3   2 4.28342 0.51752   1
  -8  -3   2 334.795 9.94695   1
  -7  -3   2 19.3433 0.75921   1
  -6  -3   2 221.107 5.22957   1
  -5  -3   2 142.527 2.95640   1
  -4  -3   2 150.749 2.96638   1
  -3  -3   2 245.718 4.58124   1
  -2  -3   2 0.76704 0.06615   1
  -1  -3   2 485.371 8.60363   1
   0  -3   2 2794.90 53.8528   1
   1  -3   2 4.29089 0.18045   1
   2  -3   2 231.819 4.78067   1
   3  -3   2 135.405 2.87170   1
   4  -3   2 46.6161 1.14290  -2
   4  -3   2 46.6161 1.14290   1
   5  -3   2 596.861 14.1484  -2
   5  -3   2 596.861 14.1484   1
   6  -3   2 3.83438 0.25216  -2
   6  -3   2 3.83438 0.25216   1
   7  -3   2 76.3690 2.67439  -2
   7  -3   2 76.3690 2.67439   1
   8  -3   2 93.5223 5.27437  -2
   8  -3   2 93.5223 5.27437   1
   9  -3   2 38.7985 2.95196  -2
   9  -3   2 38.7985 2.95196   1
 -11  -2   2 7.59110 0.87588   1
 -10  -2   2 -0.0562 0.37365   1
  -9  -2   2 9.69130 0.94104   1
  -8  -2   2 52.7908 1.93107   1
  -7  -2   2 155.654 4.49975   1
  -6  -2   2 18.5964 0.69291   1
  -5  -2   2 123.420 2.69175   1
  -4  -2   2 31.5953 0.72548   1
  -3  -2   2 231.787 4.49045   1
  -2  -2   2 432.339 8.61582   1
  -1  -2   2 496.832 9.13859   1
   0  -2   2 6634.38 127.163   1
   1  -2   2 321.693 5.99637   1
   2  -2   2 126.612 2.74379   1
   3  -2   2 94.9087 2.73102  -2
   3  -2   2 94.9087 2.73102   1
   4  -2   2 98.7791 2.34587  -2
   4  -2   2 98.7791 2.34587   1
   5  -2   2 146.986 4.09357  -2
   5  -2   2 146.986 4.09357   1
   6  -2   2 150.759 5.29624  -2
   6  -2   2 150.759 5.29624   1
   7  -2   2 10.6603 1.27832  -2
   7  -2   2 10.6603 1.27832   1
   8  -2   2 -0.9845 0.82410  -2
   8  -2   2 -0.9845 0.82410   1
   9  -2   2 33.7301 2.02419   1
 -10  -1   2 13.3739 1.11350   1
  -9  -1   2 18.2686 1.56697   1
  -8  -1   2 38.8004 2.01622   1
  -7  -1   2 -0.1469 0.19620   1
  -6  -1   2 31.1252 1.16898   1
  -5  -1   2 51.2983 1.26931   1
  -4  -1   2 8.78240 0.36488   1
  -3  -1   2 37.5505 0.92498   1
  -2  -1   2 1721.04 37.5843   1
  -1  -1   2 52.5783 1.12628   1
   0  -1   2 350.442 7.00760   1
   1  -1   2 460.974 8.53425   1
   2  -1   2 9.04344 0.24185   1
   3  -1   2 364.967 7.74876   1
   4  -1   2 176.517 4.05064   1
   5  -1   2 119.106 3.15110   1
   6  -1   2 50.2091 1.54971   1
   7  -1   2 8.36409 0.61616   1
   8  -1   2 11.5922 0.99946   1
   9  -1   2 34.1475 1.96242   1
  10  -1   2 2.04406 0.66945   1
 -10   0   2 0.62799 0.57578   1
  -9   0   2 7.90942 0.83769   1
  -8   0   2 8.05000 0.71583   1
  -7   0   2 37.4966 1.60133   1
  -6   0   2 38.9661 1.43738   1
  -5   0   2 60.0423 1.83191   1
  -4   0   2 746.383 18.0497   1
  -3   0   2 27.4054 0.78977   1
  -2   0   2 6.85962 0.23266   1
  -1   0   2 85.8418 1.85412   1
   0   0   2 224.790 4.17486   1
   1   0   2 8.70809 0.22945   1
   2   0   2 892.734 26.8879   1
   3   0   2 174.710 4.85903   1
   4   0   2 1084.81 30.1112   1
   5   0   2 0.11828 0.10093   1
   6   0   2 0.83055 0.15116   1
   7   0   2 20.8040 0.85659   1
   8   0   2 50.0056 2.31516   1
   9   0   2 93.1751 5.05616   1
  10   0   2 6.89106 1.05294   1
  -9   1   2 -0.2492 0.52818   1
  -8   1   2 16.9327 1.26555   1
  -7   1   2 90.4780 3.02104   1
  -6   1   2 0.77282 0.26001   1
  -5   1   2 3.82456 0.31066   1
  -4   1   2 16.9280 0.65040   1
  -3   1   2 541.089 13.1116   1
  -2   1   2 254.749 7.11125   1
  -1   1   2 711.439 15.4288   1
   0   1   2 2487.27 48.4635   1
   1   1   2 935.747 22.4076   1
   2   1   2 773.722 21.2420   1
   3   1   2 721.675 19.8171   1
   4   1   2 1379.78 37.3445   1
   5   1   2 94.0828 2.73999   1
   6   1   2 87.3628 2.80793   1
   7   1   2 202.464 6.93384   1
   8   1   2 3.99765 0.34162   1
   9   1   1 50.6482 4.36809  -2
   9   1   2 50.6482 4.36809   1
  10   1   1 50.5050 4.54489  -2
  10   1   2 50.5050 4.54489   1
  11   1   2 17.0390 1.64773   1
  -9   2   2 0.28192 0.63803   1
  -8   2   2 116.867 6.17466   1
  -7   2   2 143.435 6.17200   1
  -6   2   2 940.936 25.3991   1
  -5   2   2 454.641 12.3881   1
  -4   2   2 62.5788 1.47313   1
  -3   2   2 215.427 4.50445   1
  -2   2   2 262.777 5.23288   1
  -1   2   2 7.32233 0.22435   1
   0   2   2 147.974 2.92938   1
   1   2   2 1598.16 28.4554   1
   2   2   2 1339.50 33.4731   1
   3   2   2 1585.94 42.3602   1
   4   2   2 29.2664 0.79630   1
   5   2   2 557.263 16.7783   1
   6   2   2 30.9215 1.11631   1
   7   2   2 1267.20 42.0540   1
   8   2   1 262.919 17.4868  -2
   8   2   2 262.919 17.4868   1
   9   2   1 31.4339 3.12023  -2
   9   2   2 31.4339 3.12023   1
  10   2   1 81.9859 4.56751  -2
  10   2   2 81.9859 4.56751   1
  11   2   1 13.0757 2.33251  -2
  11   2   2 13.0757 2.33251   1
  -8   3   2 3.69261 0.93852   1
  -7   3   2 322.420 13.1621   1
  -6   3   2 232.019 7.31493   1
  -5   3   2 469.374 12.2395   1
  -4   3   2 179.991 4.79546   1
  -3   3   2 155.773 3.32860   1
  -2   3   2 8.28417 0.30202   1
  -1   3   2 52.4499 1.28753   1
   0   3   2 592.153 11.4913   1
   1   3   2 1189.34 21.2314   1
   2   3   2 74.2170 1.40265   1
   3   3   2 27.2090 0.70288   1
   4   3   2 286.341 6.24907   1
   5   3   2 12.9685 0.36791   1
   6   3   2 400.796 9.45050   1
   7   3   1 96.6400 3.97588  -2
   7   3   2 96.6400 3.97588   1
   8   3   1 527.427 20.5938  -2
   8   3   2 527.427 20.5938   1
   9   3   1 31.3665 2.00719  -2
   9   3   2 31.3665 2.00719   1
  10   3   1 64.1943 3.57055  -2
  10   3   2 64.1943 3.57055   1
  11   3   1 39.1124 2.54151  -2
  11   3   2 39.1124 2.54151   1
  -8   4   2 60.3377 3.74816   1
  -7   4   2 143.723 5.23417   1
  -6   4   2 147.028 4.05744   1
  -5   4   2 375.746 9.13331   1
  -4   4   2 27.9488 0.90037   1
  -3   4   2 11.3731 0.44547   1
  -2   4   2 1.36377 0.14485   1
  -1   4   2 141.490 2.90890   1
   0   4   2 192.013 3.67188   1
   1   4   2 1012.19 19.5874   1
   2   4   2 0.44119 0.06389   1
   3   4   2 0.65081 0.07813   1
   4   4   2 2.50228 0.14357   1
   5   4   1 490.243 31.1276  -2
   5   4   2 490.243 31.1276   1
   6   4   1 13.1387 0.39006  -2
   6   4   2 13.1387 0.39006   1
   7   4   1 94.8734 2.29732  -2
   7   4   2 94.8734 2.29732   1
   8   4   1 264.778 8.01417  -2
   8   4   2 264.778 8.01417   1
   9   4   1 47.5184 2.08086  -2
   9   4   2 47.5184 2.08086   1
  10   4   1 42.3537 2.50648  -2
  10   4   2 42.3537 2.50648   1
  11   4   1 -1.5313 1.39962  -2
  11   4   2 -1.5313 1.39962   1
  12   4   1 18.6247 2.84925  -2
  12   4   2 18.6247 2.84925   1
  -7   5   2 30.7566 1.64568   1
  -6   5   2 0.82462 0.23373   1
  -5   5   2 47.1290 1.43120   1
  -4   5   2 8.49717 0.47506   1
  -3   5   2 3.93895 0.28997   1
  -2   5   2 36.9216 0.91054   1
  -1   5   2 63.8639 1.35483   1
   0   5   2 355.884 6.75061   1
   1   5   2 21.9122 0.51721   1
   2   5   2 422.567 6.57528   1
   3   5   2 240.380 5.14760   1
   4   5   1 54.9865 4.24114  -2
   4   5   2 54.9865 4.24114   1
   5   5   1 160.343 3.58402  -2
   5   5   2 160.343 3.58402   1
   6   5   1 14.1540 0.39372  -2
   6   5   2 14.1540 0.39372   1
   7   5   1 8.92764 0.36722  -2
   7   5   2 8.92764 0.36722   1
   8   5   1 58.0856 1.70471  -2
   8   5   2 58.0856 1.70471   1
   9   5   1 67.0765 5.24492  -2
   9   5   2 67.0765 5.24492   1
  10   5   1 81.6070 6.42676  -2
  10   5   2 81.6070 6.42676   1
  11   5   2 38.5648 2.29574   1
  12   5   2 8.96084 0.92124   1
  -6   6   2 2.50247 0.32779   1
  -5   6   2 88.7714 2.59772   1
  -4   6   2 1.69576 0.28015   1
  -3   6   2 190.396 4.77041   1
  -2   6   2 62.7565 1.50947   1
  -1   6   2 25.5628 0.72699   1
   0   6   2 1.40497 0.16177   1
   1   6   2 82.8076 1.67083   1
   2   6   2 10.9396 0.26792   1
   3   6   2 0.89365 0.15354   1
   4   6   1 420.870 9.72154  -2
   4   6   2 420.870 9.72154   1
   5   6   1 106.456 2.21582  -2
   5   6   2 106.456 2.21582   1
   6   6   1 60.0231 1.79897  -2
   6   6   2 60.0231 1.79897   1
   7   6   1 3.38447 0.53648  -2
   7   6   2 3.38447 0.53648   1
   8   6   2 2.51189 0.45269   1
   9   6   2 94.5062 2.65706   1
  10   6   2 0.87822 0.30368   1
  11   6   2 45.2326 2.57580   1
  12   6   2 37.8674 2.29853   1
  -5   7   2 9.18395 0.60591   1
  -4   7   2 27.1079 1.05123   1
  -3   7   2 30.2945 1.05466   1
  -2   7   2 533.458 11.1397   1
  -1   7   2 74.1692 1.64891   1
   0   7   2 454.239 9.36886   1
   1   7   2 4.40799 0.20868   1
   2   7   2 1.25948 0.10581   1
   3   7   1 167.701 10.6742  -2
   3   7   2 167.701 10.6742   1
   4   7   1 385.771 27.9012  -2
   4   7   2 385.771 27.9012   1
   5   7   2 124.344 2.81845   1
   6   7   2 26.5600 0.67375   1
   7   7   2 17.7384 0.53518   1
   8   7   2 1.77143 0.22002   1
   9   7   2 -0.1626 0.19049   1
  10   7   2 74.9143 2.63138   1
  11   7   2 169.220 8.43280   1
  12   7   2 2.20425 1.08971   1
  -4   8   2 0.39667 0.49291   1
  -3   8   2 89.5064 2.91065   1
  -2   8   2 -0.3279 0.28637   1
  -1   8   2 283.086 7.56848   1
   0   8   2 2.71801 0.27348   1
   1   8   2 346.085 7.13040   1
   2   8   2 653.340 12.9981   1
   3   8   2 157.902 4.18937   1
   4   8   2 700.650 17.8583   1
   5   8   2 2.31414 0.22151   1
   6   8   2 206.953 4.72950   1
   7   8   2 31.4168 0.80095   1
   8   8   2 48.6204 1.37589   1
   9   8   2 13.9008 0.64854   1
  10   8   2 30.4378 1.24442   1
  11   8   2 3.25924 0.80972   1
  -3   9   2 8.53424 1.06145   1
  -2   9   2 104.900 3.32177   1
  -1   9   2 18.5501 0.83673   1
   0   9   2 58.4940 1.62847   1
   1   9   2 74.1733 1.91923   1
   2   9   2 398.127 8.54769   1
   3   9   2 862.583 23.8744   1
   4   9   2 58.4473 1.92244   1
   5   9   2 728.975 21.5546   1
   6   9   2 0.92893 0.25490   1
   7   9   2 35.1990 1.33166   1
   8   9   2 5.41514 0.43818   1
   9   9   2 198.407 6.02803   1
  10   9   2 67.9061 2.97694   1
  11   9   2 149.232 10.0805   1
  -2  10   2 0.99422 0.97571   1
  -1  10   2 39.0319 1.44033   1
   0  10   2 32.5287 1.26527   1
   1  10   2 1.61610 0.33883   1
   2  10   2 1.32755 0.43372   1
   3  10   2 4.68244 0.48939   1
   4  10   2 203.456 5.89421   1
   5  10   2 91.0753 3.10442   1
   6  10   2 214.398 7.31451   1
   7  10   2 72.3311 2.48107   1
   8  10   0 151.103 11.1908  -2
   8  10   2 151.103 11.1908   1
   9  10   0 35.8570 1.92816  -2
   9  10   2 35.8570 1.92816   1
  10  10   0 30.8681 1.64302  -2
  10  10   2 30.8681 1.64302   1
  11  10   0 14.5975 0.99374  -2
  11  10   2 14.5975 0.99374   1
   0  11   2 43.9955 1.90258   1
   1  11   2 3.31610 0.41254   1
   2  11   2 2.71780 0.29084   1
   3  11   2 2.93819 0.53345   1
   4  11   2 127.549 4.23524   1
   5  11   2 13.0712 0.89804   1
   6  11   2 0.19666 0.35256   1
   7  11   0 21.6856 2.37676  -2
   7  11   2 21.6856 2.37676   1
   8  11   0 11.5798 0.74115  -2
   8  11   2 11.5798 0.74115   1
   9  11   0 31.8866 1.41947  -2
   9  11   2 31.8866 1.41947   1
  10  11   0 43.8861 2.25143  -2
  10  11   2 43.8861 2.25143   1
   2  12   2 5.06994 0.77394   1
   3  12   2 -0.2533 0.43821   1
   4  12   2 7.91257 0.78108   1
   5  12   2 1.60678 0.52237   1
   6  12   0 59.3338 5.68158  -2
   6  12   2 59.3338 5.68158   1
   7  12   0 58.1961 2.41386  -2
   7  12   2 58.1961 2.41386   1
   8  12   0 50.8614 2.48848  -2
   8  12   2 50.8614 2.48848   1
   9  12   0 6.62859 1.70680  -2
   9  12   2 6.62859 1.70680   1
  -8 -12   3 -0.1991 0.49969   1
  -7 -12   3 17.3306 1.31855   1
  -6 -12   3 28.6209 1.70047   1
  -5 -12   3 0.90196 0.54195   1
  -4 -12   3 8.73842 0.89340   1
  -3 -12   3 2.03439 0.71845   1
  -2 -12   3 11.1933 1.44385   1
  -9 -11   3 0.40069 0.43888   1
  -8 -11   3 41.4604 1.82117   1
  -7 -11   3 61.4156 2.50004   1
  -6 -11   3 2.32379 0.38645   1
  -5 -11   3 11.2736 0.64990   1
  -4 -11   3 6.71260 0.53480   1
  -3 -11   3 17.7097 0.86684   1
  -2 -11   3 17.1756 0.90219   1
  -1 -11   3 8.51685 0.42805   1
   0 -11   3 69.1786 1.93799   1
 -10 -10   3 0.54380 0.40912   1
  -9 -10   3 38.8568 1.45521   1
  -8 -10   3 2.81683 0.37300   1
  -7 -10   3 60.3965 1.90410   1
  -6 -10   3 114.440 3.33333   1
  -5 -10   3 4.87826 0.43756   1
  -4 -10   3 285.259 7.83311   1
  -3 -10   3 23.6331 1.01646   1
  -2 -10   3 5.42449 0.43935   1
  -1 -10   3 7.99884 0.42544   1
   0 -10   3 97.3157 2.44191   1
   1 -10   3 95.1331 2.61497   1
   2 -10   3 77.5199 2.54119   1
 -10  -9   3 146.691 4.88607   1
  -9  -9   3 39.5060 1.32452   1
  -8  -9   3 254.726 7.50944   1
  -7  -9   3 110.124 3.16986   1
  -6  -9   3 112.619 3.24632   1
  -5  -9   3 289.057 7.84712   1
  -4  -9   3 86.8904 2.40711   1
  -3  -9   3 267.678 6.84431   1
  -2  -9   3 2.14037 0.31668   1
  -1  -9   3 37.3145 1.06424   1
   0  -9   3 13.2716 0.58527   1
   1  -9   3 130.403 3.38713   1
   2  -9   3 1.54510 0.32841   1
   3  -9   4 231.037 15.1303  -2
   3  -9   3 231.037 15.1303   1
 -11  -8   3 65.8912 2.44873   1
 -10  -8   3 3.60317 0.46856   1
  -9  -8   3 19.5248 0.88086   1
  -8  -8   3 5.79890 0.43163   1
  -7  -8   3 176.215 4.24825   1
  -6  -8   3 652.570 14.3593   1
  -5  -8   3 61.1302 1.61145   1
  -4  -8   3 7.14146 0.38010   1
  -3  -8   3 9.88956 0.47094   1
  -2  -8   3 67.9231 1.94375   1
  -1  -8   3 0.27245 0.15557   1
   0  -8   3 146.223 3.45894   1
   1  -8   3 55.4116 1.60310   1
   2  -8   3 80.4288 2.21966   1
   3  -8   4 47.5476 3.92780  -2
   3  -8   3 47.5476 3.92780   1
   4  -8   3 50.6305 1.71164   1
 -11  -7   3 51.4704 2.01323   1
 -10  -7   3 32.4683 1.37400   1
  -9  -7   3 85.1156 2.95220   1
  -8  -7   3 33.1775 1.13530   1
  -7  -7   3 90.9808 2.17522   1
  -6  -7   3 0.13701 0.13494   1
  -5  -7   3 235.361 4.63749   1
  -4  -7   3 0.22930 0.10320   1
  -3  -7   3 36.0802 1.02336   1
  -2  -7   3 21.0178 0.69639   1
  -1  -7   3 39.3327 1.04012   1
   0  -7   3 19.0356 0.53545   1
   1  -7   3 8.13904 0.40038   1
   2  -7   3 0.23195 0.19827   1
   3  -7   3 3.05543 0.34095   1
   4  -7   3 2.28008 0.31246   1
   5  -7   3 3.78399 0.45939   1
   6  -7   3 20.8026 1.44170   1
 -11  -6   3 7.37557 0.79836   1
 -10  -6   3 26.3353 1.19766   1
  -9  -6   3 10.4284 0.63526   1
  -8  -6   3 123.121 3.47959   1
  -7  -6   3 58.0457 1.52174   1
  -6  -6   3 58.8054 1.44592   1
  -5  -6   3 0.24548 0.10711   1
  -4  -6   3 68.7946 1.36901   1
  -3  -6   3 12.2162 0.34108   1
  -2  -6   3 30.1056 0.73135   1
  -1  -6   3 212.202 3.98176   1
   0  -6   3 28.1900 0.67473   1
   1  -6   3 0.33384 0.11016   1
   2  -6   3 17.3628 0.54469   1
   3  -6   3 202.498 3.97787   1
   4  -6   3 218.820 5.08145   1
   5  -6   3 2.33850 0.37705   1
   6  -6   3 15.2980 0.83059   1
 -11  -5   3 2.89975 0.50083   1
 -10  -5   3 24.8921 1.20532   1
  -9  -5   3 27.6361 1.01228   1
  -8  -5   3 13.7170 0.59338   1
  -7  -5   3 43.7015 1.27453   1
  -6  -5   3 138.123 3.17300   1
  -5  -5   3 80.5393 1.80894   1
  -4  -5   3 30.2151 0.66942   1
  -3  -5   3 36.3398 0.73566   1
  -2  -5   3 95.6181 1.85547   1
  -1  -5   3 151.295 2.66919   1
   0  -5   3 102.848 2.03708   1
   1  -5   3 210.929 4.21148   1
   2  -5   3 50.0775 1.10108   1
   3  -5   3 328.725 6.28463   1
   4  -5   3 380.196 8.18038   1
   5  -5   3 -0.2230 0.19554   1
   6  -5   3 43.2609 2.94510  -2
   6  -5   3 43.2609 2.94510   1
   7  -5   3 43.2647 1.50475  -2
   7  -5   3 43.2647 1.50475   1
 -11  -4   3 1.52351 0.49874   1
 -10  -4   3 1.38017 0.53213   1
  -9  -4   3 121.228 3.87917   1
  -8  -4   3 62.1250 2.10171   1
  -7  -4   3 1.33803 0.21601   1
  -6  -4   3 343.007 8.52834   1
  -5  -4   3 0.44236 0.09628   1
  -4  -4   3 11.1442 0.31766   1
  -3  -4   3 52.5670 1.06407   1
  -2  -4   3 1.15191 0.08651   1
  -1  -4   3 4.64535 0.16038   1
   0  -4   3 434.774 7.83307   1
   1  -4   3 61.7899 1.27193   1
   2  -4   3 207.978 3.85523   1
   3  -4   3 199.465 4.22150   1
   4  -4   3 20.8737 0.61294   1
   5  -4   3 139.103 9.97207  -2
   5  -4   3 139.103 9.97207   1
   6  -4   3 22.8212 0.97374  -2
   6  -4   3 22.8212 0.97374   1
   7  -4   3 4.38055 0.62976  -2
   7  -4   3 4.38055 0.62976   1
   8  -4   3 32.8454 2.01057  -2
   8  -4   3 32.8454 2.01057   1
 -11  -3   3 67.7411 3.16586   1
 -10  -3   3 2.35301 0.59124   1
  -9  -3   3 375.785 14.6105   1
  -8  -3   3 13.0452 0.71827   1
  -7  -3   3 684.160 19.9335   1
  -6  -3   3 304.269 7.15209   1
  -5  -3   3 19.0639 0.50399   1
  -4  -3   3 360.888 6.97373   1
  -3  -3   3 7.01837 0.22420   1
  -2  -3   3 804.367 15.3231   1
  -1  -3   3 889.740 15.2310   1
   0  -3   3 485.849 8.75796   1
   1  -3   3 547.515 10.6182   1
   2  -3   3 126.823 2.45957   1
   3  -3   3 56.3849 1.21997   1
   4  -3   3 261.741 5.66651   1
   5  -3   3 100.259 2.39810   1
   6  -3   3 34.9242 1.75682  -2
   6  -3   3 34.9242 1.75682   1
   7  -3   3 51.9698 2.52571  -2
   7  -3   3 51.9698 2.52571   1
   8  -3   3 5.67699 1.10224  -2
   8  -3   3 5.67699 1.10224   1
   9  -3   3 76.4867 4.43265  -2
   9  -3   3 76.4867 4.43265   1
 -10  -2   3 57.1988 2.85780   1
  -9  -2   3 10.8536 1.00359   1
  -8  -2   3 346.742 13.4876   1
  -7  -2   3 60.1284 1.85372   1
  -6  -2   3 739.288 21.4775   1
  -5  -2   3 667.724 14.8547   1
  -4  -2   3 358.911 7.57473   1
  -3  -2   3 1280.31 27.9375   1
  -2  -2   3 1.16986 0.08069   1
  -1  -2   3 9999.99 176.626   1
   0  -2   3 1663.63 28.4625   1
   1  -2   3 853.304 15.7768   1
   2  -2   3 65.1869 1.40151   1
   3  -2   3 567.751 12.0098   1
   4  -2   3 71.5983 1.56684   1
   5  -2   3 349.862 24.0820  -2
   5  -2   3 349.862 24.0820   1
   6  -2   3 54.6056 4.46578  -2
   6  -2   3 54.6056 4.46578   1
   7  -2   3 134.047 4.36380   1
   8  -2   3 35.8803 1.96561   1
   9  -2   3 2.60134 0.65079   1
 -10  -1   3 2.70246 0.78782   1
  -9  -1   3 30.3057 1.81271   1
  -8  -1   3 17.2564 1.25259   1
  -7  -1   3 159.462 5.61684   1
  -6  -1   3 130.315 4.15688   1
  -5  -1   3 132.119 3.43775   1
  -4  -1   3 0.26175 0.06097   1
  -3  -1   3 0.94483 0.07974   1
  -2  -1   3 1762.89 38.8191   1
  -1  -1   3 6513.65 120.042   1
   0  -1   3 1350.86 24.8235   1
   1  -1   3 184.621 3.74714   1
   2  -1   3 1395.84 27.7856   1
   3  -1   3 1065.07 24.0701   1
   4  -1   3 32.6699 0.90652   1
   5  -1   3 122.688 3.14268   1
   6  -1   3 64.0557 2.19711   1
   7  -1   3 58.3446 2.33549   1
   8  -1   3 52.3106 2.55295   1
   9  -1   3 57.1829 2.82106   1
  10  -1   3 7.32966 0.93775   1
 -10   0   3 2.12369 1.07517   1
  -9   0   3 -0.4689 0.35300   1
  -8   0   3 22.5971 1.49298   1
  -7   0   3 51.1455 2.09584   1
  -6   0   3 103.871 3.74258   1
  -5   0   3 35.8682 1.31683   1
  -4   0   3 61.8703 1.85806   1
  -3   0   3 32.5601 0.85642   1
  -2   0   3 255.393 5.73662   1
  -1   0   3 5193.55 109.521   1
   0   0   3 43.2836 0.81410   1
   1   0   3 31.1840 0.67148   1
   2   0   3 40.9521 0.92818   1
   3   0   3 225.921 6.28674   1
   4   0   3 1078.43 27.5381   1
   5   0   3 1.57230 0.18433   1
   6   0   3 15.4220 0.79634   1
   7   0   3 10.0823 0.81988   1
   8   0   3 58.7442 2.75956   1
   9   0   3 11.9927 1.02942   1
  10   0   2 43.0654 4.12488  -2
  10   0   3 43.0654 4.12488   1
  -9   1   3 20.3666 1.96733   1
  -8   1   3 56.8526 2.39796   1
  -7   1   3 11.8723 0.85032   1
  -6   1   3 66.7359 2.28747   1
  -5   1   3 12.7985 0.88020   1
  -4   1   3 86.7051 2.38930   1
  -3   1   3 205.563 5.05499   1
  -2   1   3 158.330 3.68338   1
  -1   1   3 4402.42 100.188   1
   0   1   3 39.3084 0.77032   1
   1   1   3 510.067 9.83191   1
   2   1   3 657.124 18.1772   1
   3   1   3 242.202 6.15652   1
   4   1   3 20.7016 0.84160   1
   5   1   3 24.2556 0.99127   1
   6   1   3 16.3947 0.91994   1
   7   1   3 69.6026 2.98609   1
   8   1   3 164.498 6.59837   1
   9   1   2 13.5337 1.41374  -2
   9   1   3 13.5337 1.41374   1
  10   1   2 21.6064 1.85159  -2
  10   1   3 21.6064 1.85159   1
  11   1   2 36.2627 2.60265  -2
  11   1   3 36.2627 2.60265   1
  -9   2   3 17.3284 2.47881   1
  -8   2   3 8.86167 1.00355   1
  -7   2   3 92.6633 3.54257   1
  -6   2   3 42.1126 1.60352   1
  -5   2   3 3.98247 0.36423   1
  -4   2   3 19.5322 0.61532   1
  -3   2   3 36.4397 0.86620   1
  -2   2   3 2.07086 0.13341   1
  -1   2   3 41.7573 1.10162   1
   0   2   3 64.1132 1.26458   1
   1   2   3 1797.67 33.3179   1
   2   2   3 2478.47 51.9452   1
   3   2   3 136.709 3.83282   1
   4   2   3 2753.70 75.3160   1
   5   2   3 1.89791 0.13734   1
   6   2   3 284.612 7.82631   1
   7   2   3 6.09602 0.42789   1
   8   2   2 43.5138 2.61760  -2
   8   2   3 43.5138 2.61760   1
   9   2   2 5.66620 0.89946  -2
   9   2   3 5.66620 0.89946   1
  10   2   2 28.9732 2.07640  -2
  10   2   3 28.9732 2.07640   1
  11   2   2 1.80933 0.65223  -2
  11   2   3 1.80933 0.65223   1
  -8   3   3 128.393 7.05972   1
  -7   3   3 38.1225 2.13880   1
  -6   3   3 29.5169 1.30028   1
  -5   3   3 126.683 3.20489   1
  -4   3   3 114.494 2.89738   1
  -3   3   3 232.555 4.70080   1
  -2   3   3 11.8183 0.36307   1
  -1   3   3 265.477 5.53677   1
   0   3   3 235.630 4.64693   1
   1   3   3 8.99750 0.21818   1
   2   3   3 755.287 15.2178   1
   3   3   3 1253.24 29.1455   1
   4   3   3 7.00767 0.23360   1
   5   3   3 1194.61 35.8525   1
   6   3   3 432.464 11.0824   1
   7   3   2 212.988 7.18282  -2
   7   3   3 212.988 7.18282   1
   8   3   2 225.137 6.88551  -2
   8   3   3 225.137 6.88551   1
   9   3   2 213.137 10.4477  -2
   9   3   3 213.137 10.4477   1
  10   3   2 46.4084 2.83799  -2
  10   3   3 46.4084 2.83799   1
  11   3   2 80.4559 4.51489  -2
  11   3   3 80.4559 4.51489   1
  -7   4   3 110.078 4.22800   1
  -6   4   3 30.3244 1.24494   1
  -5   4   3 52.5143 1.75701   1
  -4   4   3 223.848 5.95637   1
  -3   4   3 0.94986 0.19276   1
  -2   4   3 384.513 8.10261   1
  -1   4   3 204.813 4.28225   1
   0   4   3 167.530 3.36078   1
   1   4   3 708.135 12.7740   1
   2   4   3 181.930 3.57023   1
   3   4   3 934.332 20.4547   1
   4   4   3 1835.73 38.1256   1
   5   4   3 23.8541 0.70103   1
   6   4   3 49.1030 1.33366   1
   7   4   2 189.188 5.26954  -2
   7   4   3 189.188 5.26954   1
   8   4   2 1398.79 41.3646  -2
   8   4   3 1398.79 41.3646   1
   9   4   2 509.973 23.8333  -2
   9   4   3 509.973 23.8333   1
  10   4   2 71.5436 5.73557  -2
  10   4   3 71.5436 5.73557   1
  11   4   2 65.5565 5.52761  -2
  11   4   3 65.5565 5.52761   1
  12   4   2 7.98072 2.15416  -2
  12   4   3 7.98072 2.15416   1
  -7   5   3 2.59064 0.80202   1
  -6   5   3 0.62581 0.19361   1
  -5   5   3 199.729 5.05080   1
  -4   5   3 19.5558 0.80159   1
  -3   5   3 63.3635 1.59435   1
  -2   5   3 2.84956 0.21087   1
  -1   5   3 4.04458 0.21969   1
   0   5   3 0.67409 0.09448   1
   1   5   3 627.433 11.7538   1
   2   5   3 38.4337 0.77669   1
   3   5   3 117.748 2.47241   1
   4   5   3 141.617 3.20515   1
   5   5   3 9.81377 0.29775   1
   6   5   2 21.9465 1.78544  -2
   6   5   3 21.9465 1.78544   1
   7   5   2 222.186 15.5650  -2
   7   5   3 222.186 15.5650   1
   8   5   2 29.3398 2.66425  -2
   8   5   3 29.3398 2.66425   1
   9   5   3 173.603 5.34413   1
  10   5   3 139.083 6.90000   1
  11   5   3 0.70249 0.42303   1
  12   5   3 193.729 9.81017   1
  -6   6   3 149.302 4.45994   1
  -5   6   3 4.25588 0.39902   1
  -4   6   3 15.4878 0.71553   1
  -3   6   3 19.9646 0.80171   1
  -2   6   3 26.2532 0.74131   1
  -1   6   3 0.70888 0.15206   1
   0   6   3 43.2440 1.01490   1
   1   6   3 3.52990 0.19593   1
   2   6   3 276.491 4.98007   1
   3   6   3 295.211 6.31638   1
   4   6   3 21.1104 0.62255   1
   5   6   3 4.06926 0.19328   1
   6   6   3 1.72494 0.12706   1
   7   6   3 6.05869 0.30380   1
   8   6   3 138.108 3.59976   1
   9   6   3 22.7427 0.86523   1
  10   6   3 38.5948 2.26838   1
  11   6   3 12.8724 1.09439   1
  12   6   3 6.00440 0.75820   1
  -5   7   3 9.06293 0.79640   1
  -4   7   3 4.35122 0.39793   1
  -3   7   3 47.0757 1.45690   1
  -2   7   3 26.6011 0.92824   1
  -1   7   3 0.44453 0.17275   1
   0   7   3 23.6434 0.68828   1
   1   7   3 11.1509 0.40188   1
   2   7   3 5.75955 0.21768   1
   3   7   3 27.0398 0.83084   1
   4   7   3 48.1259 1.22766   1
   5   7   3 8.46444 0.40748   1
   6   7   3 3.14805 0.20802   1
   7   7   3 37.5895 0.97383   1
   8   7   3 115.537 3.25124   1
   9   7   3 6.11352 0.44061   1
  10   7   3 97.1275 4.80268   1
  11   7   3 7.36760 0.92038   1
  12   7   3 97.3422 7.10319   1
  -4   8   3 13.2468 1.13587   1
  -3   8   3 20.9172 1.08056   1
  -2   8   3 60.4942 1.78305   1
  -1   8   3 75.1004 1.98320   1
   0   8   3 11.6345 0.50464   1
   1   8   3 0.57178 0.14525   1
   2   8   3 294.609 5.81614   1
   3   8   3 673.622 15.9553   1
   4   8   3 144.263 3.20453   1
   5   8   3 133.904 3.32827   1
   6   8   3 163.600 3.99301   1
   7   8   3 13.9971 0.47676   1
   8   8   3 2.85403 0.30726   1
   9   8   3 8.42389 0.72094   1
  10   8   3 0.36922 0.32331   1
  11   8   3 142.097 10.2310   1
  -3   9   3 14.3470 1.38489   1
  -2   9   3 45.5669 1.73087   1
  -1   9   3 10.5065 0.69673   1
   0   9   3 18.5869 0.75351   1
   1   9   3 11.1537 0.53887   1
   2   9   3 52.6337 1.42128   1
   3   9   3 24.4407 1.00754   1
   4   9   3 385.972 10.0285   1
   5   9   3 42.3713 1.33082   1
   6   9   3 166.864 4.78664   1
   7   9   3 4.99334 0.42672   1
   8   9   3 0.05694 0.22266   1
   9   9   3 0.82717 0.33122   1
  10   9   3 25.2966 1.38712   1
  11   9   1 11.3685 1.20536  -2
  11   9   3 11.3685 1.20536   1
  -1  10   3 18.5576 1.05033   1
   0  10   3 67.5645 2.01361   1
   1  10   3 58.4502 1.75699   1
   2  10   3 8.12659 0.49325   1
   3  10   3 438.690 12.3263   1
   4  10   3 9.83611 0.66929   1
   5  10   3 169.640 5.37108   1
   6  10   3 61.2394 2.19624   1
   7  10   3 27.4682 1.19879   1
   8  10   3 80.1763 2.68599   1
   9  10   1 22.2210 2.17657  -2
   9  10   3 22.2210 2.17657   1
  10  10   1 12.9496 1.00055  -2
  10  10   3 12.9496 1.00055   1
  11  10   1 51.5028 2.43889  -2
  11  10   3 51.5028 2.43889   1
   0  11   3 60.4739 5.00866   1
   1  11   3 34.9820 1.24650   1
   2  11   3 42.4430 1.35963   1
   3  11   3 10.7714 0.76240   1
   4  11   3 123.755 4.15030   1
   5  11   3 18.8654 1.08361   1
   6  11   3 94.1487 3.21662   1
   7  11   3 1.46878 0.39360   1
   8  11   1 44.7815 4.05989  -2
   8  11   3 44.7815 4.05989   1
   9  11   1 37.7098 2.05582  -2
   9  11   3 37.7098 2.05582   1
  10  11   1 42.5104 2.19600  -2
  10  11   3 42.5104 2.19600   1
   3  12   3 19.8547 1.36008   1
   4  12   3 5.72264 0.73191   1
   5  12   3 22.9819 1.25555   1
   6  12   3 0.18319 0.39465   1
   7  12   3 7.19539 0.76571   1
   8  12   1 3.70633 1.56772  -2
   8  12   3 3.70633 1.56772   1
   9  12   1 19.9602 2.27203  -2
   9  12   3 19.9602 2.27203   1
  -7 -12   4 4.76883 0.92482   1
  -6 -12   4 24.4048 1.62966   1
  -5 -12   4 4.52499 0.79271   1
  -4 -12   4 3.42444 0.90114   1
  -3 -12   4 15.7975 1.62427   1
  -9 -11   4 12.9737 0.86905   1
  -8 -11   4 12.6177 0.85381   1
  -7 -11   4 23.3938 1.01075   1
  -6 -11   4 5.62608 0.50019   1
  -5 -11   4 4.08467 0.44381   1
  -4 -11   4 3.15073 0.41070   1
  -3 -11   4 2.04795 0.39887   1
  -2 -11   4 14.7745 0.83583   1
  -1 -11   4 4.13784 0.46778   1
   0 -11   4 21.1934 0.83518   1
 -10 -10   4 2.79854 0.53479   1
  -9 -10   4 0.40221 0.29340   1
  -8 -10   4 4.34361 0.45201   1
  -7 -10   4 30.0225 1.12388   1
  -6 -10   4 0.32573 0.27153   1
  -5 -10   4 3.60079 0.40455   1
  -4 -10   4 1.35285 0.31688   1
  -3 -10   4 68.1770 2.16231   1
  -2 -10   4 0.81811 0.29587   1
  -1 -10   4 0.35488 0.19221   1
   0 -10   4 105.625 2.60339   1
   1 -10   4 11.8835 0.61968   1
   2 -10   4 1.85159 0.42635   1
 -10  -9   4 5.94733 0.58660   1
  -9  -9   4 204.878 5.59822   1
  -8  -9   4 62.5808 2.10518   1
  -7  -9   4 47.6967 1.55676   1
  -6  -9   4 66.2302 2.04218   1
  -5  -9   4 48.7508 1.59460   1
  -4  -9   4 15.7077 0.76146   1
  -3  -9   4 36.9867 1.19290   1
  -2  -9   4 20.6197 0.82858   1
  -1  -9   4 17.6818 0.62907   1
   0  -9   4 3.97201 0.33663   1
   1  -9   4 47.3730 1.45561   1
   2  -9   4 90.3986 2.49355   1
   3  -9   4 3.57561 0.53088   1
 -10  -8   4 6.84244 0.60437   1
  -9  -8   4 81.2031 2.60948   1
  -8  -8   4 232.596 5.56719   1
  -7  -8   4 231.358 5.51926   1
  -6  -8   4 148.159 3.27116   1
  -5  -8   4 471.259 10.4560   1
  -4  -8   4 136.841 3.37821   1
  -3  -8   4 294.659 7.46020   1
  -2  -8   4 35.8166 1.15317   1
  -1  -8   4 64.0935 1.50458   1
   0  -8   4 37.5303 1.00009   1
   1  -8   4 1.91030 0.28538   1
   2  -8   4 2.60963 0.34222   1
   3  -8   4 140.049 3.60896   1
   4  -8   4 55.0388 1.97833   1
 -11  -7   4 12.5401 1.01346   1
 -10  -7   4 17.3981 0.94975   1
  -9  -7   4 9.64325 0.58769   1
  -8  -7   4 46.6199 1.38307   1
  -7  -7   4 10.3488 0.45806   1
  -6  -7   4 273.176 6.14493   1
  -5  -7   4 35.1202 0.85370   1
  -4  -7   4 641.480 12.9381   1
  -3  -7   4 112.795 2.61637   1
  -2  -7   4 427.890 9.47485   1
  -1  -7   4 0.55108 0.12515   1
   0  -7   4 33.0243 0.79968   1
   1  -7   4 114.489 2.55067   1
   2  -7   4 290.663 6.39092   1
   3  -7   4 97.6912 2.48330   1
   4  -7   4 25.4302 0.91777   1
   5  -7   4 126.805 3.63071   1
 -11  -6   4 23.9762 1.47999   1
 -10  -6   4 0.79618 0.37450   1
  -9  -6   4 145.486 4.08814   1
  -8  -6   4 1.53969 0.22912   1
  -7  -6   4 108.581 2.69027   1
  -6  -6   4 45.8205 1.17298   1
  -5  -6   4 131.962 3.04451   1
  -4  -6   4 0.39046 0.10401   1
  -3  -6   4 152.815 3.05636   1
  -2  -6   4 29.6477 0.76120   1
  -1  -6   4 322.459 6.00113   1
   0  -6   4 7.80937 0.30077   1
   1  -6   4 133.231 2.76866   1
   2  -6   4 172.552 3.40745   1
   3  -6   4 74.5375 1.60568   1
   4  -6   4 157.665 3.77568   1
   5  -6   4 15.5753 0.79409   1
   6  -6   4 44.4097 1.53301   1
 -11  -5   4 0.95978 0.63739   1
 -10  -5   4 14.0672 0.80956   1
  -9  -5   4 15.2172 0.78785   1
  -8  -5   4 77.4409 2.15484   1
  -7  -5   4 14.6039 0.58481   1
  -6  -5   4 7.41554 0.35029   1
  -5  -5   4 116.106 2.68278   1
  -4  -5   4 4.56725 0.18266   1
  -3  -5   4 27.9543 0.58388   1
  -2  -5   4 6.28748 0.22443   1
  -1  -5   4 33.6728 0.65809   1
   0  -5   4 25.5226 0.56591   1
   1  -5   4 55.5328 1.23644   1
   2  -5   4 232.522 4.47932   1
   3  -5   4 163.002 3.20858   1
   4  -5   4 10.6609 0.47275   1
   5  -5   4 14.3484 0.69253   1
   6  -5   4 8.00003 0.61089   1
   7  -5   4 31.2236 1.45607   1
 -11  -4   4 1.16843 0.65148   1
 -10  -4   4 6.71927 0.85721   1
  -9  -4   4 14.6334 0.80144   1
  -8  -4   4 0.84897 0.25593   1
  -7  -4   4 79.2948 2.16877   1
  -6  -4   4 52.3877 1.47627   1
  -5  -4   4 53.3208 1.31172   1
  -4  -4   4 16.4555 0.43109   1
  -3  -4   4 206.819 4.02322   1
  -2  -4   4 1218.32 22.3944   1
  -1  -4   4 1007.30 16.6814   1
   0  -4   4 83.9009 1.49778   1
   1  -4   4 811.125 15.0647   1
   2  -4   4 7.78588 0.29537   1
   3  -4   4 73.9786 1.53306   1
   4  -4   4 173.473 3.81163   1
   5  -4   4 323.474 7.82319   1
   6  -4   4 3.20522 0.38868   1
   7  -4   4 14.4432 0.80740   1
   8  -4   4 0.31427 1.22651  -2
   8  -4   4 0.31427 1.22651   1
 -10  -3   4 5.64118 0.82391   1
  -9  -3   4 26.2253 1.59109   1
  -8  -3   4 27.9309 1.16596   1
  -7  -3   4 211.235 6.39618   1
  -6  -3   4 71.5768 2.13807   1
  -5  -3   4 249.275 5.60035   1
  -4  -3   4 371.114 7.46637   1
  -3  -3   4 788.757 15.1750   1
  -2  -3   4 177.210 3.32379   1
  -1  -3   4 219.884 3.83546   1
   0  -3   4 758.165 12.6563   1
   1  -3   4 87.4850 1.78942   1
   2  -3   4 335.623 6.57437   1
   3  -3   4 211.097 4.01622   1
   4  -3   4 43.8339 1.07868   1
   5  -3   4 967.577 22.9143   1
   6  -3   4 180.854 4.83243   1
   7  -3   4 20.1141 1.10089   1
   8  -3   4 20.2529 2.46943  -2
   8  -3   4 20.2529 2.46943   1
   9  -3   4 9.07560 1.94317  -2
   9  -3   4 9.07560 1.94317   1
 -10  -2   4 2.70003 0.67351   1
  -9  -2   4 4.12458 0.64907   1
  -8  -2   4 147.594 6.06171   1
  -7  -2   4 244.782 6.82036   1
  -6  -2   4 204.960 5.68687   1
  -5  -2   4 8.06685 0.31210   1
  -4  -2   4 912.407 17.6078   1
  -3  -2   4 487.652 9.82358   1
  -2  -2   4 1768.76 33.6383   1
  -1  -2   4 124.716 2.26642   1
   0  -2   4 260.607 5.05504   1
   1  -2   4 141.701 3.07041   1
   2  -2   4 903.116 16.7119   1
   3  -2   4 427.414 7.97588   1
   4  -2   4 90.2641 2.02584   1
   5  -2   4 20.4445 0.63949   1
   6  -2   4 310.796 8.15775   1
   7  -2   4 72.1735 2.53626   1
   8  -2   4 23.4255 1.54558   1
   9  -2   4 102.673 4.62243   1
 -10  -1   4 19.8144 1.81035   1
  -9  -1   4 6.31463 0.78465   1
  -8  -1   4 117.576 5.03183   1
  -7  -1   4 100.417 3.68745   1
  -6  -1   4 183.709 5.74077   1
  -5  -1   4 89.2853 2.41689   1
  -4  -1   4 61.9293 1.37035   1
  -3  -1   4 806.830 17.1511   1
  -2  -1   4 841.752 17.6301   1
  -1  -1   4 193.920 4.10971   1
   0  -1   4 88.8022 1.62994   1
   1  -1   4 266.822 5.37829   1
   2  -1   4 136.738 2.79062   1
   3  -1   4 402.725 8.48846   1
   4  -1   4 708.211 18.2072   1
   5  -1   4 6.66705 0.30019   1
   6  -1   4 267.484 8.19907   1
   7  -1   4 769.635 25.7483   1
   8  -1   4 0.28668 0.41311   1
   9  -1   4 55.6068 2.75539   1
  10  -1   4 41.2236 2.25766   1
  -9   0   4 0.76867 0.45674   1
  -8   0   4 3.57242 0.64023   1
  -7   0   4 325.729 12.6890   1
  -6   0   4 783.972 26.1938   1
  -5   0   4 22.5107 0.92352   1
  -4   0   4 55.8596 1.59920   1
  -3   0   4 70.7074 1.78058   1
  -2   0   4 130.046 2.96950   1
  -1   0   4 73.2003 1.69953   1
   0   0   4 178.615 3.23637   1
   1   0   4 260.643 4.85708   1
   2   0   4 68.1096 1.57518   1
   3   0   4 10.6693 0.29056   1
   4   0   4 8.83960 0.32255   1
   5   0   4 248.821 8.53889   1
   6   0   4 2.50721 0.30460   1
   7   0   4 210.248 7.28289   1
   8   0   4 151.589 5.42095   1
   9   0   4 85.0195 3.83319   1
  10   0   4 0.41520 0.45025   1
  -9   1   4 19.6064 1.49392   1
  -8   1   4 0.80094 0.43044   1
  -7   1   4 271.332 9.37561   1
  -6   1   4 98.3190 4.17046   1
  -5   1   4 246.902 8.50424   1
  -4   1   4 0.02597 0.17270   1
  -3   1   4 117.394 2.78564   1
  -2   1   4 263.282 5.79191   1
  -1   1   4 178.122 3.66829   1
   0   1   4 525.427 10.0658   1
   1   1   4 1080.54 20.7366   1
   2   1   4 16.0395 0.40563   1
   3   1   4 354.084 7.87386   1
   4   1   4 11.6998 0.53377   1
   5   1   4 101.501 3.62974   1
   6   1   4 71.0461 2.60285   1
   7   1   4 19.2761 0.95021   1
   8   1   4 96.2735 3.53983   1
   9   1   4 82.3556 3.66737   1
  10   1   3 9.85406 1.29002  -2
  10   1   4 9.85406 1.29002   1
  11   1   3 19.3759 1.78787  -2
  11   1   4 19.3759 1.78787   1
  -8   2   4 4.25729 0.75658   1
  -7   2   4 1.16506 0.43812   1
  -6   2   4 37.1910 1.47835   1
  -5   2   4 9.64586 0.56116   1
  -4   2   4 11.8277 0.44870   1
  -3   2   4 38.5527 1.01810   1
  -2   2   4 239.275 5.06106   1
  -1   2   4 124.619 2.66143   1
   0   2   4 181.429 3.78043   1
   1   2   4 30.6882 0.69756   1
   2   2   4 56.6827 1.33920   1
   3   2   4 1856.29 39.0164   1
   4   2   4 761.775 20.9725   1
   5   2   4 117.173 3.30075   1
   6   2   4 21.2676 0.98395   1
   7   2   4 24.2154 1.22898   1
   8   2   4 62.1393 2.73231   1
   9   2   3 0.65039 0.89654  -2
   9   2   4 0.65039 0.89654   1
  10   2   3 70.8344 4.04492  -2
  10   2   4 70.8344 4.04492   1
  11   2   3 0.54828 0.91752  -2
  11   2   4 0.54828 0.91752   1
  -8   3   4 4.83807 0.83510   1
  -7   3   4 0.99156 0.51463   1
  -6   3   4 0.41511 0.30524   1
  -5   3   4 52.4108 1.41727   1
  -4   3   4 32.9784 0.97938   1
  -3   3   4 78.2112 1.82681   1
  -2   3   4 153.741 3.14399   1
  -1   3   4 47.1516 1.03323   1
   0   3   4 29.1370 0.72835   1
   1   3   4 118.491 2.17832   1
   2   3   4 497.646 8.61410   1
   3   3   4 3.44224 0.13193   1
   4   3   4 1636.27 44.9435   1
   5   3   4 328.416 8.42291   1
   6   3   4 283.045 7.28054   1
   7   3   4 162.293 4.93433   1
   8   3   4 65.6260 2.15946   1
   9   3   4 141.201 7.13100   1
  10   3   4 43.6393 2.60036   1
  11   3   4 3.07687 0.68416   1
  -7   4   4 100.517 4.66628   1
  -6   4   4 52.0195 2.03502   1
  -5   4   4 188.571 5.51927   1
  -4   4   4 0.53362 0.18902   1
  -3   4   4 693.595 15.6808   1
  -2   4   4 74.5489 1.62398   1
  -1   4   4 7.85016 0.30634   1
   0   4   4 501.950 9.90996   1
   1   4   4 2.64051 0.13466   1
   2   4   4 0.15564 0.08725   1
   3   4   4 1446.26 26.4502   1
   4   4   4 81.2369 1.76468   1
   5   4   4 94.0860 2.27147   1
   6   4   4 188.860 5.25712   1
   7   4   4 1.20222 0.16408   1
   8   4   4 742.747 22.1370   1
   9   4   4 1.28058 0.53076   1
  10   4   4 85.8325 4.48616   1
  11   4   4 32.3040 2.07700   1
  12   4   4 61.9770 4.94442   1
  -6   5   4 40.8014 1.47641   1
  -5   5   4 10.5630 0.56678   1
  -4   5   4 288.478 7.58457   1
  -3   5   4 55.0627 1.58619   1
  -2   5   4 1028.68 22.0078   1
  -1   5   4 2.47644 0.18592   1
   0   5   4 250.682 5.04056   1
   1   5   4 33.3047 0.72858   1
   2   5   4 835.126 15.4010   1
   3   5   4 -0.0209 0.06356   1
   4   5   4 341.360 7.56124   1
   5   5   4 10.9962 0.32681   1
   6   5   4 62.9190 1.48105   1
   7   5   4 1153.70 26.8578   1
   8   5   4 24.8111 0.78563   1
   9   5   4 66.4090 5.01369   1
  10   5   4 31.1786 2.60246   1
  11   5   4 210.440 15.1100   1
  12   5   4 12.1128 1.46434   1
  -5   6   4 32.7740 1.17873   1
  -4   6   4 0.03641 0.23359   1
  -3   6   4 183.318 4.63711   1
  -2   6   4 35.9640 1.03456   1
  -1   6   4 203.540 4.01138   1
   0   6   4 1.24796 0.15083   1
   1   6   4 253.479 5.09587   1
   2   6   4 3.70994 0.21935   1
   3   6   4 370.191 7.11585   1
   4   6   4 10.4363 0.37213   1
   5   6   4 5.48016 0.27738   1
   6   6   4 25.1895 0.67994   1
   7   6   4 81.6693 2.03088   1
   8   6   4 364.809 8.59050   1
   9   6   4 46.6779 2.04703   1
  10   6   4 2.37891 0.60338   1
  11   6   4 4.76013 0.80477   1
  12   6   4 99.3341 7.37856   1
  -5   7   4 52.9871 2.76368   1
  -4   7   4 21.3069 0.91275   1
  -3   7   4 2.37007 0.33649   1
  -2   7   4 112.869 2.98914   1
  -1   7   4 63.3744 1.41202   1
   0   7   4 -0.1436 0.14130   1
   1   7   4 8.01145 0.32544   1
   2   7   4 194.190 4.03843   1
   3   7   4 191.314 3.75281   1
   4   7   4 136.612 3.37355   1
   5   7   4 316.246 7.53170   1
   6   7   4 0.35644 0.14816   1
   7   7   4 4.97292 0.25490   1
   8   7   4 158.255 5.54287   1
   9   7   4 15.4824 0.92831   1
  10   7   4 0.56197 0.30145   1
  11   7   4 0.36241 0.48885   1
  12   7   4 0.79128 0.57455   1
  -3   8   4 5.00424 0.47221   1
  -2   8   4 29.2543 1.08170   1
  -1   8   4 21.4304 0.81326   1
   0   8   4 -0.0004 0.17578   1
   1   8   4 11.1269 0.43338   1
   2   8   4 102.179 2.04204   1
   3   8   4 59.3697 1.27706   1
   4   8   4 107.947 2.56680   1
   5   8   4 87.8258 2.26092   1
   6   8   4 230.066 5.54811   1
   7   8   4 57.1081 1.63534   1
   8   8   4 77.7299 2.91131   1
   9   8   4 1.73340 0.38811   1
  10   8   4 1.16500 0.38202   1
  11   8   4 17.3906 1.71760   1
  -2   9   4 5.57639 0.58641   1
  -1   9   4 13.7711 0.85029   1
   0   9   4 22.0535 1.00431   1
   1   9   4 76.8542 2.16556   1
   2   9   4 82.8218 2.24836   1
   3   9   4 11.5134 0.42269   1
   4   9   4 54.4525 1.68695   1
   5   9   4 346.213 8.91370   1
   6   9   4 8.17007 0.47629   1
   7   9   4 0.42216 0.22516   1
   8   9   4 -0.0179 0.27093   1
   9   9   4 0.91052 0.45035   1
  10   9   4 1.56073 0.44987   1
  11   9   2 169.408 11.3927  -2
  11   9   4 169.408 11.3927   1
  -1  10   4 17.5812 1.49661   1
   0  10   4 2.75544 0.41662   1
   1  10   4 72.4502 2.09262   1
   2  10   4 10.2805 0.57723   1
   3  10   4 50.8281 1.83627   1
   4  10   4 95.5712 3.00347   1
   5  10   4 0.10984 0.33359   1
   6  10   4 242.204 7.49341   1
   7  10   4 38.2054 1.48092   1
   8  10   4 127.036 5.43502   1
   9  10   4 19.9453 1.39266   1
  10  10   4 32.0760 1.75110   1
  11  10   2 3.05961 1.36829  -2
  11  10   4 3.05961 1.36829   1
   1  11   4 4.36957 0.52933   1
   2  11   4 4.64551 0.40789   1
   3  11   4 129.266 4.01861   1
   4  11   4 19.2463 1.14159   1
   5  11   4 132.960 4.38990   1
   6  11   4 39.3249 1.60487   1
   7  11   4 63.1859 3.09325   1
   8  11   4 18.2179 1.41332   1
   9  11   4 76.2849 3.59120   1
  10  11   4 107.792 4.70470   1
   3  12   4 46.5543 2.99489   1
   4  12   4 10.8606 0.95908   1
   5  12   4 8.87568 0.85258   1
   6  12   4 17.5945 1.34412   1
   7  12   4 42.3815 2.56850   1
   8  12   4 3.04325 0.75287   1
  -6 -12   5 0.94589 0.94514   1
  -5 -12   5 61.5561 2.77289   1
  -4 -12   5 3.88558 0.69338   1
  -8 -11   5 10.7487 0.73411   1
  -7 -11   5 7.64060 0.62037   1
  -6 -11   5 32.8429 1.24705   1
  -5 -11   5 6.63877 0.55321   1
  -4 -11   5 0.20503 0.31139   1
  -3 -11   5 27.2059 1.16996   1
  -2 -11   5 1.03269 0.36447   1
  -1 -11   5 48.8091 1.89621   1
   0 -11   5 3.07554 0.40989   1
  -9 -10   5 -0.1742 0.31186   1
  -8 -10   5 6.49511 0.54973   1
  -7 -10   5 12.9040 0.77080   1
  -6 -10   5 82.2883 2.51647   1
  -5 -10   5 20.2488 0.91739   1
  -4 -10   5 7.68413 0.55684   1
  -3 -10   5 18.2211 0.89934   1
  -2 -10   5 15.4202 0.83158   1
  -1 -10   5 3.21464 0.24970   1
   0 -10   5 109.322 2.68103   1
   1 -10   5 1.02642 0.31390   1
 -10  -9   5 2.79789 0.43134   1
  -9  -9   5 1.13214 0.34021   1
  -8  -9   5 0.22039 0.29433   1
  -7  -9   5 0.87060 0.29835   1
  -6  -9   5 1.01799 0.29475   1
  -5  -9   5 5.93226 0.46717   1
  -4  -9   5 6.79652 0.50142   1
  -3  -9   5 47.4505 1.47131   1
  -2  -9   5 0.14052 0.24161   1
  -1  -9   5 1.43295 0.20960   1
   0  -9   5 0.12585 0.21581   1
   1  -9   5 5.31615 0.41597   1
   2  -9   5 10.8590 0.62952   1
   3  -9   5 76.3212 3.02553   1
 -10  -8   5 158.298 4.87483   1
  -9  -8   5 6.96849 0.45347   1
  -8  -8   5 3.74949 0.31585   1
  -7  -8   5 161.917 4.19392   1
  -6  -8   5 13.7618 0.60937   1
  -5  -8   5 33.1830 0.93082   1
  -4  -8   5 15.7148 0.60492   1
  -3  -8   5 0.31838 0.17480   1
  -2  -8   5 32.4392 0.98936   1
  -1  -8   5 23.4041 0.62503   1
   0  -8   5 11.3173 0.46105   1
   1  -8   5 1.91916 0.29451   1
   2  -8   5 193.674 4.84367   1
   3  -8   5 66.3311 1.90213   1
   4  -8   5 111.695 3.50670   1
 -10  -7   5 16.3261 0.90228   1
  -9  -7   5 281.223 7.15497   1
  -8  -7   5 36.4743 1.15582   1
  -7  -7   5 110.701 2.75921   1
  -6  -7   5 63.4966 1.50113   1
  -5  -7   5 177.621 3.86965   1
  -4  -7   5 106.215 2.37485   1
  -3  -7   5 413.329 9.16361   1
  -2  -7   5 314.660 7.02871   1
  -1  -7   5 23.2183 0.57954   1
   0  -7   5 18.3830 0.55591   1
   1  -7   5 230.892 4.89349   1
   2  -7   5 157.522 3.96889   1
   3  -7   5 2.42615 0.32308   1
   4  -7   5 85.4827 2.59215   1
   5  -7   5 31.5830 1.27976   1
 -10  -6   5 43.0144 1.63893   1
  -9  -6   5 12.1105 0.61949   1
  -8  -6   5 36.0494 1.14160   1
  -7  -6   5 12.5131 0.55366   1
  -6  -6   5 130.813 3.20014   1
  -5  -6   5 55.8865 1.31837   1
  -4  -6   5 473.087 10.0113   1
  -3  -6   5 184.502 3.83018   1
  -2  -6   5 168.214 3.81911   1
  -1  -6   5 89.0032 1.80570   1
   0  -6   5 92.3677 1.93510   1
   1  -6   5 407.313 8.39003   1
   2  -6   5 20.5388 0.59619   1
   3  -6   5 241.356 4.86098   1
   4  -6   5 13.1039 0.59524   1
   5  -6   5 155.187 4.28710   1
   6  -6   5 0.36052 0.30279   1
 -10  -5   5 52.1827 2.18089   1
  -9  -5   5 84.4097 2.84358   1
  -8  -5   5 20.3305 0.77268   1
  -7  -5   5 43.3736 1.29900   1
  -6  -5   5 15.9605 0.57142   1
  -5  -5   5 18.6155 0.52964   1
  -4  -5   5 65.5447 1.41948   1
  -3  -5   5 67.2062 1.46946   1
  -2  -5   5 194.412 3.84278   1
  -1  -5   5 289.661 5.22215   1
   0  -5   5 77.7128 1.51880   1
   1  -5   5 73.4545 1.58364   1
   2  -5   5 252.032 5.02923   1
   3  -5   5 0.97685 0.17317   1
   4  -5   5 0.14726 0.17118   1
   5  -5   5 16.0335 0.76386   1
   6  -5   5 21.3973 0.95944   1
   7  -5   5 40.0216 1.43314   1
 -10  -4   5 46.8493 2.44306   1
  -9  -4   5 29.5365 1.45270   1
  -8  -4   5 24.5010 1.06079   1
  -7  -4   5 29.8984 1.06650   1
  -6  -4   5 97.7237 2.60342   1
  -5  -4   5 134.380 2.94130   1
  -4  -4   5 110.010 2.30647   1
  -3  -4   5 216.613 4.23065   1
  -2  -4   5 0.38558 0.09320   1
  -1  -4   5 1072.76 18.3064   1
   0  -4   5 206.152 3.53759   1
   1  -4   5 97.3205 1.93211   1
   2  -4   5 42.9659 0.95066   1
   3  -4   5 60.5505 1.33560   1
   4  -4   5 88.6659 1.94474   1
   5  -4   5 20.8321 0.78427   1
   6  -4   5 2.37924 0.33822   1
   7  -4   5 18.8299 0.93064   1
   8  -4   5 15.9702 1.38815   1
 -10  -3   5 11.8266 1.17529   1
  -9  -3   5 16.8954 1.31039   1
  -8  -3   5 23.0357 1.20062   1
  -7  -3   5 65.5860 1.87798   1
  -6  -3   5 11.4633 0.48752   1
  -5  -3   5 46.1490 1.16244   1
  -4  -3   5 290.648 5.69906   1
  -3  -3   5 670.623 12.8321   1
  -2  -3   5 0.27017 0.08014   1
  -1  -3   5 13.0679 0.29185   1
   0  -3   5 217.971 3.82818   1
   1  -3   5 0.07928 0.08369   1
   2  -3   5 39.2005 0.88511   1
   3  -3   5 72.9579 1.54666   1
   4  -3   5 64.2349 1.43574   1
   5  -3   5 155.351 3.82755   1
   6  -3   5 46.4616 1.75235   1
   7  -3   5 25.5129 1.19077   1
   8  -3   5 10.4140 1.31891   1
   9  -3   5 57.9568 3.70122   1
 -10  -2   5 55.6099 3.34704   1
  -9  -2   5 14.4448 1.22485   1
  -8  -2   5 73.2853 3.34300   1
  -7  -2   5 7.74338 0.63285   1
  -6  -2   5 22.3539 0.77182   1
  -5  -2   5 428.182 10.7918   1
  -4  -2   5 31.3572 0.83384   1
  -3  -2   5 97.8722 2.03939   1
  -2  -2   5 919.409 18.2602   1
  -1  -2   5 170.647 3.07676   1
   0  -2   5 52.9192 1.01569   1
   1  -2   5 121.658 2.32115   1
   2  -2   5 189.536 3.90908   1
   3  -2   5 132.622 2.65795   1
   4  -2   5 102.136 2.17808   1
   5  -2   5 152.415 4.01812   1
   6  -2   5 192.229 5.52710   1
   7  -2   5 143.122 5.26013   1
   8  -2   5 157.083 8.32962   1
   9  -2   5 14.1618 1.48409   1
  -9  -1   5 12.0618 1.12140   1
  -8  -1   5 37.7312 2.02587   1
  -7  -1   5 271.836 10.6800   1
  -6  -1   5 298.738 8.91155   1
  -5  -1   5 21.1129 0.72835   1
  -4  -1   5 577.225 13.6542   1
  -3  -1   5 3.05192 0.18696   1
  -2  -1   5 307.728 6.25006   1
  -1  -1   5 927.258 16.4819   1
   0  -1   5 22.8147 0.49634   1
   1  -1   5 30.9107 0.68048   1
   2  -1   5 76.6571 1.63886   1
   3  -1   5 11.9348 0.36670   1
   4  -1   5 700.336 15.6809   1
   5  -1   5 438.083 11.2635   1
   6  -1   5 386.258 11.9877   1
   7  -1   5 59.3768 2.39926   1
   8  -1   5 -0.4310 0.41274   1
   9  -1   5 78.0838 4.46930   1
  10  -1   5 17.0548 1.68380   1
  -9   0   5 25.5357 1.71183   1
  -8   0   5 83.1875 3.77115   1
  -7   0   5 245.732 9.75118   1
  -6   0   5 89.9067 3.36503   1
  -5   0   5 555.838 18.6691   1
  -4   0   5 18.5471 0.70095   1
  -3   0   5 589.572 13.1157   1
  -2   0   5 126.402 2.62629   1
  -1   0   5 532.184 10.3273   1
   0   0   5 324.284 6.52243   1
   1   0   5 353.925 6.84247   1
   2   0   5 403.843 8.18996   1
   3   0   5 277.658 5.93500   1
   4   0   5 1339.22 29.7824   1
   5   0   5 56.6112 1.57994   1
   6   0   5 1134.35 38.1286   1
   7   0   5 282.398 11.3311   1
   8   0   5 90.2166 3.94400   1
   9   0   5 4.55853 0.80195   1
  10   0   5 91.7881 5.11631   1
  -9   1   5 2.44313 0.67206   1
  -8   1   5 284.064 9.90246   1
  -7   1   5 106.449 4.00048   1
  -6   1   5 95.4451 3.58968   1
  -5   1   5 0.62171 0.27919   1
  -4   1   5 725.645 24.2323   1
  -3   1   5 164.274 3.67576   1
  -2   1   5 27.4508 0.70106   1
  -1   1   5 186.513 3.68822   1
   0   1   5 182.852 3.58114   1
   1   1   5 21.0390 0.47335   1
   2   1   5 311.525 6.04039   1
   3   1   5 345.994 7.00939   1
   4   1   5 75.6366 1.52525   1
   5   1   5 295.652 10.0736   1
   6   1   5 59.2694 2.23083   1
   7   1   5 187.767 7.60277   1
   8   1   5 28.4635 1.49821   1
   9   1   5 29.3333 1.96902   1
  10   1   5 13.6118 1.85250   1
  11   1   5 37.2083 3.57596   1
  -8   2   5 1.53281 0.50725   1
  -7   2   5 128.323 4.76928   1
  -6   2   5 216.233 6.73395   1
  -5   2   5 118.043 3.48212   1
  -4   2   5 9.86395 0.44596   1
  -3   2   5 28.2102 0.83452   1
  -2   2   5 288.127 5.77799   1
  -1   2   5 857.687 16.9058   1
   0   2   5 1140.30 23.0566   1
   1   2   5 530.909 10.8609   1
   2   2   5 194.401 3.84548   1
   3   2   5 360.209 8.73395   1
   4   2   5 58.6208 1.30772   1
   5   2   5 6.75237 0.25671   1
   6   2   5 35.0446 1.58370   1
   7   2   5 88.2766 3.69329   1
   8   2   5 10.6403 0.76410   1
   9   2   5 34.8596 2.13133   1
  10   2   5 -0.5298 0.51756   1
  11   2   5 57.7071 4.86026   1
  -7   3   5 4.03296 0.61863   1
  -6   3   5 30.5115 1.38570   1
  -5   3   5 -0.0151 0.23344   1
  -4   3   5 -0.1196 0.14532   1
  -3   3   5 1.16104 0.17883   1
  -2   3   5 191.448 3.86386   1
  -1   3   5 299.156 5.92668   1
   0   3   5 15.2636 0.42759   1
   1   3   5 45.5810 0.90304   1
   2   3   5 439.778 8.54870   1
   3   3   5 14.8547 0.36467   1
   4   3   5 72.0060 1.83377   1
   5   3   5 104.214 2.99977   1
   6   3   5 571.276 14.4793   1
   7   3   5 60.0095 1.61351   1
   8   3   5 12.9364 0.75991   1
   9   3   5 22.0360 2.11320   1
  10   3   5 21.2511 2.12740   1
  11   3   5 2.50519 0.85127   1
  -7   4   5 5.96649 0.90173   1
  -6   4   5 26.6087 1.55634   1
  -5   4   5 8.65819 0.49375   1
  -4   4   5 223.348 5.87226   1
  -3   4   5 178.627 4.44189   1
  -2   4   5 8.85019 0.38075   1
  -1   4   5 35.4884 0.87223   1
   0   4   5 49.4483 1.14518   1
   1   4   5 60.2172 1.26289   1
   2   4   5 0.64801 0.07593   1
   3   4   5 32.6054 0.63686   1
   4   4   5 199.832 4.87437   1
   5   4   5 58.9643 1.65325   1
   6   4   5 80.3009 2.56826   1
   7   4   5 561.559 15.3785   1
   8   4   5 38.5455 1.33083   1
   9   4   5 14.3659 1.48058   1
  10   4   5 29.2142 2.59670   1
  11   4   5 42.8341 3.60559   1
  -6   5   5 12.2616 0.92580   1
  -5   5   5 138.977 3.88769   1
  -4   5   5 10.1583 0.63522   1
  -3   5   5 616.087 17.2084   1
  -2   5   5 82.2475 2.19787   1
  -1   5   5 20.9677 0.57613   1
   0   5   5 2.43643 0.16663   1
   1   5   5 2.48691 0.15417   1
   2   5   5 0.77291 0.10450   1
   3   5   5 322.593 5.82082   1
   4   5   5 0.04902 0.10308   1
   5   5   5 769.264 19.5162   1
   6   5   5 10.3039 0.55840   1
   7   5   5 19.4411 0.69186   1
   8   5   5 24.4185 0.77793   1
   9   5   5 1.66182 0.56666   1
  10   5   5 79.9697 6.05880   1
  11   5   5 9.58028 1.26176   1
  12   5   5 77.2914 5.96495   1
  -5   6   5 25.4589 1.09332   1
  -4   6   5 168.096 4.34709   1
  -3   6   5 21.4380 0.87130   1
  -2   6   5 378.713 9.23393   1
  -1   6   5 295.107 5.95323   1
   0   6   5 26.2697 0.68392   1
   1   6   5 34.4884 0.83574   1
   2   6   5 696.709 14.8437   1
   3   6   5 1117.35 20.3606   1
   4   6   5 142.377 3.48560   1
   5   6   5 279.112 7.53768   1
   6   6   5 336.137 7.10118   1
   7   6   5 40.5048 1.18544   1
   8   6   5 9.92382 0.57471   1
   9   6   5 91.6348 3.78513   1
  10   6   5 -0.0385 0.46213   1
  11   6   5 124.211 9.14595   1
  12   6   5 44.4792 3.65517   1
  -4   7   5 2.63202 0.37627   1
  -3   7   5 230.943 5.82605   1
  -2   7   5 43.4292 1.37843   1
  -1   7   5 176.205 4.24882   1
   0   7   5 83.9589 1.86014   1
   1   7   5 26.4935 0.70153   1
   2   7   5 397.775 8.59021   1
   3   7   5 354.631 6.83575   1
   4   7   5 709.775 16.7003   1
   5   7   5 36.3645 1.11913   1
   6   7   5 144.763 3.71016   1
   7   7   5 19.2881 0.59478   1
   8   7   5 278.796 11.0462   1
   9   7   5 4.74149 0.51311   1
  10   7   5 127.597 9.36811   1
  11   7   5 5.35664 0.95557   1
  12   7   5 11.6465 1.42766   1
  -3   8   5 3.54126 0.53754   1
  -2   8   5 8.41428 0.54811   1
  -1   8   5 2.99880 0.34486   1
   0   8   5 19.1955 0.75190   1
   1   8   5 112.164 2.80646   1
   2   8   5 13.3759 0.52138   1
   3   8   5 303.173 6.20599   1
   4   8   5 54.8829 1.41443   1
   5   8   5 219.857 5.72432   1
   6   8   5 59.6892 1.70333   1
   7   8   5 63.6965 2.45506   1
   8   8   5 41.2044 2.01100   1
   9   8   5 13.5101 0.96194   1
  10   8   5 6.55498 0.65623   1
  11   8   5 42.8463 3.54856   1
  -2   9   5 0.11980 0.55320   1
  -1   9   5 0.20970 0.33930   1
   0   9   5 30.8955 1.22812   1
   1   9   5 79.7112 2.65721   1
   2   9   5 -0.0666 0.23404   1
   3   9   5 29.7251 0.92773   1
   4   9   5 13.3028 0.65251   1
   5   9   5 6.59569 0.43911   1
   6   9   5 5.73273 0.43170   1
   7   9   5 0.49532 0.25427   1
   8   9   5 0.03269 0.37912   1
   9   9   5 20.6901 1.34482   1
  10   9   5 40.9298 2.02540   1
  11   9   5 13.8845 1.70009   1
   0  10   5 0.23739 0.35564   1
   1  10   5 126.190 3.38470   1
   2  10   5 5.90186 0.46494   1
   3  10   5 83.8179 2.23997   1
   4  10   5 24.2745 1.08492   1
   5  10   5 89.4407 3.06470   1
   6  10   5 100.613 3.35172   1
   7  10   5 17.5190 1.34554   1
   8  10   5 59.6896 2.86869   1
   9  10   5 1.31248 0.50237   1
  10  10   5 31.1722 1.75850   1
   1  11   5 3.59158 1.02198   1
   2  11   5 52.0903 1.69258   1
   3  11   5 69.5410 2.40620   1
   4  11   5 38.0450 1.67163   1
   5  11   5 69.9447 2.52885   1
   6  11   5 81.3005 3.91385   1
   7  11   5 194.621 8.19624   1
   8  11   5 42.2484 2.32753   1
   9  11   5 63.6238 3.09907   1
   4  12   5 0.27394 0.63578   1
   5  12   5 56.2983 2.81177   1
   6  12   5 89.6846 5.19083   1
   7  12   5 82.6106 4.82551   1
  -7 -11   6 75.8732 2.84403   1
  -6 -11   6 27.3287 1.23043   1
  -5 -11   6 21.5305 0.99785   1
  -4 -11   6 17.7197 0.90921   1
  -3 -11   6 25.8592 1.14087   1
  -2 -11   6 43.1093 1.70114   1
  -1 -11   6 1.32493 0.45839   1
  -8 -10   6 46.7489 1.72621   1
  -7 -10   6 94.0931 3.05864   1
  -6 -10   6 68.8457 2.34880   1
  -5 -10   6 119.405 3.49811   1
  -4 -10   6 10.0326 0.66265   1
  -3 -10   6 1.24123 0.35184   1
  -2 -10   6 2.01049 0.39002   1
  -1 -10   6 17.9620 0.84354   1
   0 -10   6 6.40392 0.42926   1
   1 -10   6 31.7100 1.18886   1
  -9  -9   6 10.8273 0.79237   1
  -8  -9   6 16.8343 0.88506   1
  -7  -9   6 1.27737 0.33049   1
  -6  -9   6 65.1686 2.21050   1
  -5  -9   6 77.9497 2.56789   1
  -4  -9   6 6.75141 0.51075   1
  -3  -9   6 1.36524 0.32636   1
  -2  -9   6 1.21555 0.30074   1
  -1  -9   6 9.76709 0.41802   1
   0  -9   6 4.46557 0.34077   1
   1  -9   6 0.87687 0.28003   1
   2  -9   6 2.47713 0.37424   1
   3  -9   6 3.15084 0.75023   1
 -10  -8   6 42.7601 1.63066   1
  -9  -8   6 1.71062 0.34292   1
  -8  -8   6 1.74387 0.28733   1
  -7  -8   6 16.9308 0.72330   1
  -6  -8   6 6.56078 0.42420   1
  -5  -8   6 80.2797 2.20453   1
  -4  -8   6 103.473 2.82659   1
  -3  -8   6 30.3476 0.94967   1
  -2  -8   6 67.9678 1.83732   1
  -1  -8   6 5.34243 0.28017   1
   0  -8   6 18.3457 0.62494   1
   1  -8   6 13.7931 0.60716   1
   2  -8   6 43.9116 1.36444   1
   3  -8   6 0.86307 0.33140   1
   4  -8   6 36.5136 1.93429   1
 -10  -7   6 22.3552 1.26053   1
  -9  -7   6 25.0549 1.05560   1
  -8  -7   6 15.7151 0.76247   1
  -7  -7   6 39.3853 1.22513   1
  -6  -7   6 21.3590 0.76702   1
  -5  -7   6 85.6935 2.19343   1
  -4  -7   6 322.796 7.23811   1
  -3  -7   6 94.7924 2.26012   1
  -2  -7   6 91.1801 2.18646   1
  -1  -7   6 5.65063 0.24215   1
   0  -7   6 2.37338 0.20539   1
   1  -7   6 92.8577 2.16929   1
   2  -7   6 130.928 3.34845   1
   3  -7   6 7.86682 0.49067   1
   4  -7   6 59.2133 2.04125   1
   5  -7   6 104.126 3.64914   1
 -10  -6   6 39.2628 1.77612   1
  -9  -6   6 7.73669 0.63434   1
  -8  -6   6 2.96566 0.36450   1
  -7  -6   6 98.4637 2.65124   1
  -6  -6   6 6.01362 0.35311   1
  -5  -6   6 57.4938 1.36890   1
  -4  -6   6 16.9595 0.52689   1
  -3  -6   6 120.394 2.81426   1
  -2  -6   6 568.789 12.5375   1
  -1  -6   6 234.911 4.56979   1
   0  -6   6 99.7610 2.15902   1
   1  -6   6 52.2637 1.19930   1
   2  -6   6 8.84502 0.41363   1
   3  -6   6 33.3456 0.96413   1
   4  -6   6 119.717 3.16297   1
   5  -6   6 5.86318 0.51746   1
   6  -6   6 5.90942 0.51917   1
 -10  -5   6 24.4951 1.37422   1
  -9  -5   6 0.07830 0.33663   1
  -8  -5   6 143.140 4.49709   1
  -7  -5   6 0.19116 0.18204   1
  -6  -5   6 80.7994 2.07703   1
  -5  -5   6 0.30896 0.13472   1
  -4  -5   6 293.754 6.26957   1
  -3  -5   6 508.004 10.7290   1
  -2  -5   6 408.326 9.06309   1
  -1  -5   6 113.717 2.35524   1
   0  -5   6 139.686 2.71814   1
   1  -5   6 102.884 2.06877   1
   2  -5   6 14.6466 0.47940   1
   3  -5   6 371.275 7.32693   1
   4  -5   6 4.85486 0.32235   1
   5  -5   6 133.638 3.70735   1
   6  -5   6 33.6217 1.27601   1
   7  -5   6 3.67820 0.46063   1
 -10  -4   6 65.2607 3.72044   1
  -9  -4   6 44.6667 1.91248   1
  -8  -4   6 14.9386 0.86006   1
  -7  -4   6 176.670 5.40222   1
  -6  -4   6 1.28354 0.17223   1
  -5  -4   6 0.28148 0.12303   1
  -4  -4   6 305.245 6.51362   1
  -3  -4   6 51.6690 1.20790   1
  -2  -4   6 1412.62 28.1861   1
  -1  -4   6 98.0847 1.78233   1
   0  -4   6 16.8592 0.42366   1
   1  -4   6 110.819 2.10101   1
   2  -4   6 595.871 11.5881   1
   3  -4   6 0.69778 0.15088   1
   4  -4   6 62.1276 1.50825   1
   5  -4   6 15.7406 0.73417   1
   6  -4   6 48.6004 1.57542   1
   7  -4   6 0.61518 0.29178   1
   8  -4   6 26.5122 1.58539   1
 -10  -3   6 63.4945 3.67570   1
  -9  -3   6 22.8180 1.58447   1
  -8  -3   6 77.8905 2.91727   1
  -7  -3   6 35.7931 1.39256   1
  -6  -3   6 31.2919 0.99823   1
  -5  -3   6 1.17964 0.17017   1
  -4  -3   6 18.6527 0.58026   1
  -3  -3   6 682.138 13.6328   1
  -2  -3   6 598.814 11.0531   1
  -1  -3   6 634.662 10.5821   1
   0  -3   6 8.57534 0.25589   1
   1  -3   6 147.746 2.73760   1
   2  -3   6 167.788 3.35760   1
   3  -3   6 14.7791 0.47534   1
   4  -3   6 165.648 3.64404   1
   5  -3   6 69.4130 1.76951   1
   6  -3   6 32.7816 1.16939   1
   7  -3   6 48.6678 1.58785   1
   8  -3   6 2.22238 0.55678   1
  -9  -2   6 20.4089 1.51976   1
  -8  -2   6 8.07897 0.88510   1
  -7  -2   6 58.1835 2.25400   1
  -6  -2   6 5.18260 0.37574   1
  -5  -2   6 4.07831 0.28068   1
  -4  -2   6 103.471 2.73217   1
  -3  -2   6 10.3003 0.34614   1
  -2  -2   6 5.78974 0.21744   1
  -1  -2   6 404.398 6.97050   1
   0  -2   6 137.533 2.53116   1
   1  -2   6 195.630 3.44817   1
   2  -2   6 141.963 2.96188   1
   3  -2   6 189.302 3.76263   1
   4  -2   6 69.1892 1.53632   1
   5  -2   6 10.3571 0.48313   1
   6  -2   6 72.5857 1.94959   1
   7  -2   6 5.55729 0.56059   1
   8  -2   6 37.5776 2.55127   1
   9  -2   6 1.49164 0.72377   1
  -9  -1   6 125.183 6.37260   1
  -8  -1   6 55.5313 2.72470   1
  -7  -1   6 43.1191 2.18132   1
  -6  -1   6 0.51259 0.23846   1
  -5  -1   6 279.362 7.67397   1
  -4  -1   6 4.72326 0.30670   1
  -3  -1   6 17.1500 0.49234   1
  -2  -1   6 83.5688 1.79118   1
  -1  -1   6 26.5007 0.55052   1
   0  -1   6 718.048 12.8905   1
   1  -1   6 28.2048 0.64643   1
   2  -1   6 34.7673 0.85077   1
   3  -1   6 798.664 16.9393   1
   4  -1   6 19.2801 0.55079   1
   5  -1   6 82.9525 2.13221   1
   6  -1   6 247.507 5.96460   1
   7  -1   6 25.3131 1.27019   1
   8  -1   6 33.8814 2.26471   1
   9  -1   6 2.03362 0.65981   1
  10  -1   6 14.1546 2.14203   1
  -9   0   6 2.69321 0.68464   1
  -8   0   6 49.1697 2.52867   1
  -7   0   6 12.9539 1.04328   1
  -6   0   6 138.747 4.99140   1
  -5   0   6 41.9760 1.75529   1
  -4   0   6 988.500 26.4375   1
  -3   0   6 461.065 11.5529   1
  -2   0   6 300.677 5.89731   1
  -1   0   6 964.963 17.9971   1
   0   0   6 115.302 2.13103   1
   1   0   6 207.789 4.08788   1
   2   0   6 13.8280 0.34814   1
   3   0   6 65.8142 1.49420   1
   4   0   6 322.071 6.58354   1
   5   0   6 323.502 7.66018   1
   6   0   6 128.439 4.00372   1
   7   0   6 23.1301 1.14390   1
   8   0   6 25.0302 1.45048   1
   9   0   6 64.2085 3.73201   1
  10   0   6 18.7397 2.39767   1
  -8   1   6 22.2736 1.39916   1
  -7   1   6 22.0082 1.31797   1
  -6   1   6 7.66076 0.79229   1
  -5   1   6 287.408 9.89384   1
  -4   1   6 39.2202 1.62352   1
  -3   1   6 496.608 12.8487   1
  -2   1   6 972.275 19.6760   1
  -1   1   6 223.926 4.25009   1
   0   1   6 459.808 8.23282   1
   1   1   6 186.227 3.97684   1
   2   1   6 131.533 2.60713   1
   3   1   6 25.9835 0.60774   1
   4   1   6 418.208 8.90293   1
   5   1   6 98.2444 2.28910   1
   6   1   6 383.534 11.3510   1
   7   1   6 77.5667 3.35249   1
   8   1   6 243.344 9.83216   1
   9   1   6 16.2803 1.35915   1
  10   1   6 105.977 8.29045   1
  11   1   6 45.2239 4.13856   1
  -8   2   6 9.10489 1.00117   1
  -7   2   6 0.00733 0.33589   1
  -6   2   6 10.2674 0.84342   1
  -5   2   6 52.9366 2.17326   1
  -4   2   6 2.15898 0.17198   1
  -3   2   6 301.205 7.90863   1
  -2   2   6 629.042 12.9638   1
  -1   2   6 170.615 3.64377   1
   0   2   6 1237.88 23.1692   1
   1   2   6 102.672 2.20021   1
   2   2   6 909.963 18.5185   1
   3   2   6 1428.66 30.2600   1
   4   2   6 21.7746 0.60569   1
   5   2   6 158.337 4.45909   1
   6   2   6 34.7920 1.06569   1
   7   2   6 684.149 26.7049   1
   8   2   6 129.838 5.37242   1
   9   2   6 49.1155 2.83196   1
  10   2   6 24.3572 2.51553   1
  11   2   6 41.5110 3.80497   1
  -7   3   6 15.2259 1.13132   1
  -6   3   6 38.7571 1.80326   1
  -5   3   6 43.1091 1.54019   1
  -4   3   6 29.6365 0.91846   1
  -3   3   6 62.5238 1.68434   1
  -2   3   6 50.9910 1.26541   1
  -1   3   6 78.5231 1.74917   1
   0   3   6 59.0991 1.33801   1
   1   3   6 299.103 6.16276   1
   2   3   6 617.937 11.9916   1
   3   3   6 2.28486 0.11444   1
   4   3   6 104.989 2.20536   1
   5   3   6 11.5941 0.50201   1
   6   3   6 225.244 6.84832   1
   7   3   6 357.907 10.9018   1
   8   3   6 55.1008 2.09373   1
   9   3   6 4.75520 0.92917   1
  10   3   6 17.8114 1.90236   1
  11   3   6 138.379 10.3865   1
  -6   4   6 -0.5721 0.35021   1
  -5   4   6 13.1177 0.63646   1
  -4   4   6 1.22089 0.25441   1
  -3   4   6 15.9640 0.64299   1
  -2   4   6 4.61380 0.28913   1
  -1   4   6 0.08987 0.12357   1
   0   4   6 128.953 2.64313   1
   1   4   6 44.9648 0.95416   1
   2   4   6 0.24462 0.08328   1
   3   4   6 3.83361 0.16490   1
   4   4   6 7.44542 0.22744   1
   5   4   6 85.6829 2.32587   1
   6   4   6 0.52042 0.18131   1
   7   4   6 101.298 3.20547   1
   8   4   6 14.1872 0.69161   1
   9   4   6 -0.2277 0.47195   1
  10   4   6 5.32859 0.95970   1
  11   4   6 40.2513 3.46297   1
  -6   5   6 16.7515 1.12504   1
  -5   5   6 2.13967 0.32528   1
  -4   5   6 107.148 3.04049   1
  -3   5   6 0.17816 0.23609   1
  -2   5   6 100.509 2.79411   1
  -1   5   6 53.8894 1.28760   1
   0   5   6 14.6346 0.45093   1
   1   5   6 0.80610 0.11450   1
   2   5   6 236.029 4.28904   1
   3   5   6 0.20868 0.11854   1
   4   5   6 338.628 5.80746   1
   5   5   6 49.9707 1.31767   1
   6   5   6 42.7443 1.36376   1
   7   5   6 556.279 18.6138   1
   8   5   6 64.9078 2.40692   1
   9   5   6 137.392 10.1208   1
  10   5   6 4.62309 0.88961   1
  11   5   6 4.06738 0.89038   1
  -5   6   6 44.4411 1.54050   1
  -4   6   6 0.86745 0.28444   1
  -3   6   6 279.482 6.92274   1
  -2   6   6 81.9967 2.27651   1
  -1   6   6 20.2106 0.63819   1
   0   6   6 98.1714 2.11267   1
   1   6   6 30.2689 0.86850   1
   2   6   6 140.519 3.11808   1
   3   6   6 3.38967 0.21024   1
   4   6   6 178.735 3.85370   1
   5   6   6 826.938 19.3677   1
   6   6   6 35.6795 1.15487   1
   7   6   6 244.940 6.38605   1
   8   6   6 148.247 5.27094   1
   9   6   6 12.6122 1.00391   1
  10   6   6 177.230 12.8870   1
  11   6   6 8.25854 1.20683   1
  -4   7   6 58.4152 2.12488   1
  -3   7   6 36.5759 1.27221   1
  -2   7   6 35.9707 1.22146   1
  -1   7   6 51.5876 1.47600   1
   0   7   6 31.3525 1.01350   1
   1   7   6 377.306 8.30406   1
   2   7   6 295.015 6.44391   1
   3   7   6 95.7569 1.98005   1
   4   7   6 59.5835 1.60372   1
   5   7   6 700.333 16.4763   1
   6   7   6 2.09192 0.25142   1
   7   7   6 0.57890 0.20719   1
   8   7   6 2.25128 0.35214   1
   9   7   6 76.8219 3.30068   1
  10   7   6 4.29074 0.89395   1
  11   7   6 160.612 11.7777   1
  -3   8   6 41.4379 2.33668   1
  -2   8   6 93.3455 2.61320   1
  -1   8   6 54.6468 1.66381   1
   0   8   6 1.07123 0.26910   1
   1   8   6 8.37959 0.47091   1
   2   8   6 199.479 4.75869   1
   3   8   6 3.07401 0.23448   1
   4   8   6 122.884 2.92398   1
   5   8   6 86.9406 2.43087   1
   6   8   6 137.007 4.05169   1
   7   8   6 80.1771 3.13760   1
   8   8   6 28.9292 1.56549   1
   9   8   6 36.3105 1.81324   1
  10   8   6 70.5052 5.55839   1
  11   8   6 -0.0389 0.62332   1
  -1   9   6 91.3900 3.34727   1
   0   9   6 3.90585 0.47768   1
   1   9   6 25.3234 1.09713   1
   2   9   6 3.99947 0.39430   1
   3   9   6 108.580 2.70159   1
   4   9   6 4.91443 0.42324   1
   5   9   6 115.382 2.93329   1
   6   9   6 21.1946 1.01298   1
   7   9   6 0.10862 0.34408   1
   8   9   6 25.8178 1.33795   1
   9   9   6 52.7834 2.55572   1
  10   9   6 55.4485 2.59904   1
  11   9   6 40.6206 3.54909   1
   0  10   6 22.2996 1.40463   1
   1  10   6 0.63048 0.32027   1
   2  10   6 113.781 3.04398   1
   3  10   6 0.99302 0.25292   1
   4  10   6 1.06383 0.37411   1
   5  10   6 39.8692 1.60530   1
   6  10   6 1.61169 0.59418   1
   7  10   6 0.22103 0.46865   1
   8  10   6 9.37149 0.97056   1
   9  10   6 1.45896 0.55708   1
  10  10   6 2.25663 0.60764   1
   2  11   6 1.04912 0.38419   1
   3  11   6 0.46429 0.22860   1
   4  11   6 0.24924 0.40118   1
   5  11   6 19.0974 1.28860   1
   6  11   6 29.3569 1.97265   1
   7  11   6 -0.0509 0.52172   1
   8  11   6 57.3615 2.92123   1
   9  11   6 4.30020 0.78099   1
  -6 -11   7 -0.2379 0.36240   1
  -5 -11   7 2.18635 0.45840   1
  -4 -11   7 0.26479 0.40668   1
  -3 -11   7 26.3578 1.24765   1
  -2 -11   7 0.54809 0.39034   1
  -8 -10   7 94.1202 3.40589   1
  -7 -10   7 19.0608 1.10555   1
  -6 -10   7 26.4517 1.17782   1
  -5 -10   7 16.4208 0.92068   1
  -4 -10   7 76.3881 2.39754   1
  -3 -10   7 16.7905 0.88035   1
  -2 -10   7 12.5290 0.75642   1
  -1 -10   7 -0.1759 0.30513   1
   0 -10   7 27.4698 0.93546   1
   1 -10   7 5.50575 0.51527   1
  -9  -9   7 66.6037 5.04729   1
  -8  -9   7 3.02687 0.43112   1
  -7  -9   7 123.864 3.88834   1
  -6  -9   7 -0.4083 0.27294   1
  -5  -9   7 43.7292 1.61716   1
  -4  -9   7 24.2627 1.13659   1
  -3  -9   7 177.979 5.01255   1
  -2  -9   7 14.4815 0.78915   1
  -1  -9   7 1.89206 0.34527   1
   0  -9   7 28.7158 0.91178   1
   1  -9   7 191.872 4.50359   1
   2  -9   7 19.4743 0.91067   1
  -9  -8   7 18.2444 0.89891   1
  -8  -8   7 3.26857 0.36155   1
  -7  -8   7 1.72868 0.29498   1
  -6  -8   7 126.245 3.35310   1
  -5  -8   7 21.0373 0.79004   1
  -4  -8   7 241.148 6.65347   1
  -3  -8   7 1.60879 0.30922   1
  -2  -8   7 33.8789 1.04912   1
  -1  -8   7 0.18103 0.13904   1
   0  -8   7 9.24198 0.46182   1
   1  -8   7 47.4949 1.31577   1
   2  -8   7 87.1751 2.22081   1
   3  -8   7 31.6289 1.33380   1
   4  -8   7 26.2680 2.19132   1
  -9  -7   7 4.02408 0.44279   1
  -8  -7   7 3.26006 0.38451   1
  -7  -7   7 2.24379 0.29647   1
  -6  -7   7 2.78537 0.30384   1
  -5  -7   7 14.6433 0.63877   1
  -4  -7   7 42.1218 1.19849   1
  -3  -7   7 25.3747 0.79994   1
  -2  -7   7 0.23519 0.17879   1
  -1  -7   7 30.4199 0.71708   1
   0  -7   7 38.0354 0.99656   1
   1  -7   7 209.575 4.59270   1
   2  -7   7 80.7817 1.94850   1
   3  -7   7 0.15236 0.25036   1
   4  -7   7 1.80842 0.41822   1
   5  -7   7 0.00994 0.49708   1
  -9  -6   7 3.14420 0.46656   1
  -8  -6   7 38.5209 1.34559   1
  -7  -6   7 -0.0304 0.22651   1
  -6  -6   7 37.2566 1.16327   1
  -5  -6   7 -0.0293 0.18411   1
  -4  -6   7 685.868 15.1678   1
  -3  -6   7 666.518 14.7456   1
  -2  -6   7 460.576 10.7644   1
  -1  -6   7 14.3118 0.43608   1
   0  -6   7 1.09432 0.17271   1
   1  -6   7 10.6023 0.41906   1
   2  -6   7 37.4812 1.07499   1
   3  -6   7 -0.2140 0.19282   1
   4  -6   7 -0.3300 0.25158   1
   5  -6   7 32.8193 1.26416   1
   6  -6   7 -0.0406 0.45889   1
  -9  -5   7 20.3654 1.19730   1
  -8  -5   7 63.0755 2.22135   1
  -7  -5   7 4.10408 0.38354   1
  -6  -5   7 2.02787 0.28178   1
  -5  -5   7 280.340 6.64081   1
  -4  -5   7 224.748 5.32931   1
  -3  -5   7 50.0837 1.26746   1
  -2  -5   7 864.789 19.0645   1
  -1  -5   7 252.564 5.11172   1
   0  -5   7 521.313 10.5454   1
   1  -5   7 1.58166 0.18218   1
   2  -5   7 46.1545 1.13674   1
   3  -5   7 35.4654 0.93279   1
   4  -5   7 55.7859 1.74196   1
   5  -5   7 5.56519 0.48107   1
   6  -5   7 84.6424 2.54701   1
   7  -5   7 7.96063 0.62345   1
  -9  -4   7 121.941 4.39631   1
  -8  -4   7 44.1056 1.68775   1
  -7  -4   7 23.6566 1.07537   1
  -6  -4   7 42.0465 1.53392   1
  -5  -4   7 339.850 8.50426   1
  -4  -4   7 31.8910 0.86455   1
  -3  -4   7 635.703 14.0473   1
  -2  -4   7 21.6797 0.63062   1
  -1  -4   7 216.938 4.39037   1
   0  -4   7 13.3291 0.40524   1
   1  -4   7 378.373 7.10040   1
   2  -4   7 75.5711 1.69463   1
   3  -4   7 401.548 8.21909   1
   4  -4   7 267.359 5.79163   1
   5  -4   7 166.162 4.49754   1
   6  -4   7 9.01470 0.57073   1
   7  -4   7 54.7806 1.79174   1
   8  -4   7 37.5589 2.13806   1
  -9  -3   7 1.54287 0.57469   1
  -8  -3   7 74.5797 2.85858   1
  -7  -3   7 102.689 3.34718   1
  -6  -3   7 8.15945 0.57159   1
  -5  -3   7 25.2754 0.90830   1
  -4  -3   7 210.790 5.41261   1
  -3  -3   7 109.866 2.68152   1
  -2  -3   7 166.255 3.77977   1
  -1  -3   7 6.86863 0.22864   1
   0  -3   7 24.4106 0.54589   1
   1  -3   7 92.4858 1.76548   1
   2  -3   7 5.07892 0.23528   1
   3  -3   7 62.7622 1.36490   1
   4  -3   7 910.892 20.2206   1
   5  -3   7 165.315 4.43130   1
   6  -3   7 411.497 10.6490   1
   7  -3   7 4.71040 0.42083   1
   8  -3   7 10.7345 0.84761   1
  -9  -2   7 34.6884 2.44920   1
  -8  -2   7 87.8628 3.95377   1
  -7  -2   7 51.7576 2.08992   1
  -6  -2   7 90.0696 2.94199   1
  -5  -2   7 0.80809 0.20239   1
  -4  -2   7 0.95521 0.18882   1
  -3  -2   7 47.8514 1.46756   1
  -2  -2   7 33.1670 0.77958   1
  -1  -2   7 0.95240 0.09644   1
   0  -2   7 50.5672 0.99637   1
   1  -2   7 2.69554 0.14437   1
   2  -2   7 173.844 3.20248   1
   3  -2   7 134.462 3.16120   1
   4  -2   7 6.34090 0.31385   1
   5  -2   7 -0.2908 0.18951   1
   6  -2   7 198.595 5.26866   1
   7  -2   7 164.613 4.45382   1
   8  -2   7 13.1301 0.98239   1
   9  -2   7 62.5047 3.62581   1
  -9  -1   7 33.3154 2.43406   1
  -8  -1   7 91.4125 4.12181   1
  -7  -1   7 0.21805 0.39111   1
  -6  -1   7 -0.2487 0.23018   1
  -5  -1   7 31.0202 1.09341   1
  -4  -1   7 95.8098 2.78466   1
  -3  -1   7 0.57810 0.16151   1
  -2  -1   7 31.0543 0.77583   1
  -1  -1   7 15.3477 0.36544   1
   0  -1   7 197.604 3.49114   1
   1  -1   7 142.952 2.74361   1
   2  -1   7 13.2347 0.36321   1
   3  -1   7 243.479 5.02061   1
   4  -1   7 343.707 7.05081   1
   5  -1   7 0.93829 0.19463   1
   6  -1   7 3.40772 0.27717   1
   7  -1   7 15.8349 0.80717   1
   8  -1   7 0.06621 0.34487   1
   9  -1   7 4.93177 1.32370   1
  -8   0   7 4.32683 0.73042   1
  -7   0   7 44.7257 2.30099   1
  -6   0   7 9.04412 0.87294   1
  -5   0   7 35.5712 1.40849   1
  -4   0   7 25.1886 0.92848   1
  -3   0   7 199.541 5.50875   1
  -2   0   7 6.48880 0.26193   1
  -1   0   7 15.7576 0.39412   1
   0   0   7 4.87778 0.18826   1
   1   0   7 9.56941 0.28935   1
   2   0   7 371.734 7.25485   1
   3   0   7 93.4549 2.08261   1
   4   0   7 113.940 2.31265   1
   5   0   7 53.6527 1.42859   1
   6   0   7 177.978 4.10659   1
   7   0   7 1.22628 0.28071   1
   8   0   7 229.333 8.97924   1
   9   0   7 -0.1255 0.69935   1
  10   0   7 8.00706 1.51807   1
  -8   1   7 3.28174 0.68822   1
  -7   1   7 22.1390 1.36079   1
  -6   1   7 19.2962 1.35009   1
  -5   1   7 3.94709 0.49519   1
  -4   1   7 214.786 6.70888   1
  -3   1   7 31.1186 0.98153   1
  -2   1   7 168.542 3.70393   1
  -1   1   7 113.277 2.29443   1
   0   1   7 12.1584 0.31815   1
   1   1   7 545.258 11.0051   1
   2   1   7 49.6217 1.05567   1
   3   1   7 348.147 6.51449   1
   4   1   7 235.536 5.08683   1
   5   1   7 275.578 5.57105   1
   6   1   7 74.2135 2.18061   1
   7   1   7 247.649 6.85394   1
   8   1   7 27.6659 1.49243   1
   9   1   7 158.147 11.8943   1
  10   1   7 9.33381 1.59241   1
  -7   2   7 16.9397 1.18866   1
  -6   2   7 61.1081 2.54700   1
  -5   2   7 76.6467 2.99502   1
  -4   2   7 316.815 8.31660   1
  -3   2   7 456.701 11.1401   1
  -2   2   7 172.713 4.07721   1
  -1   2   7 9.17749 0.35139   1
   0   2   7 596.854 11.1906   1
   1   2   7 10.7716 0.30637   1
   2   2   7 534.531 10.4806   1
   3   2   7 2.37280 0.15190   1
   4   2   7 1.32932 0.16296   1
   5   2   7 146.939 3.19130   1
   6   2   7 212.588 5.93804   1
   7   2   7 768.213 26.0704   1
   8   2   7 -0.1801 0.26764   1
   9   2   7 58.8698 4.87964   1
  10   2   7 41.0058 3.67072   1
  11   2   7 148.462 11.2619   1
  -7   3   7 1.29335 0.58062   1
  -6   3   7 7.72842 0.79028   1
  -5   3   7 29.1680 1.18158   1
  -4   3   7 0.98305 0.20667   1
  -3   3   7 509.274 12.2015   1
  -2   3   7 116.851 3.22796   1
  -1   3   7 869.067 17.8674   1
   0   3   7 14.7845 0.44860   1
   1   3   7 300.190 5.72751   1
   2   3   7 4.73430 0.21678   1
   3   3   7 174.895 3.47729   1
   4   3   7 77.0782 1.66056   1
   5   3   7 389.262 10.7405   1
   6   3   7 399.432 11.0356   1
   7   3   7 1.81707 0.28882   1
   8   3   7 65.1448 5.16069   1
   9   3   7 8.65171 1.31502   1
  10   3   7 144.280 10.7987   1
  11   3   7 1.87154 0.87707   1
  -6   4   7 6.81175 0.78433   1
  -5   4   7 9.11042 0.67427   1
  -4   4   7 51.6059 1.62346   1
  -3   4   7 6.18504 0.42036   1
  -2   4   7 92.7212 2.43608   1
  -1   4   7 -0.0159 0.13587   1
   0   4   7 7.53148 0.30683   1
   1   4   7 14.3285 0.38942   1
   2   4   7 374.727 7.02753   1
   3   4   7 1.97992 0.13481   1
   4   4   7 26.7288 0.62948   1
   5   4   7 89.3544 2.39209   1
   6   4   7 22.3812 0.82277   1
   7   4   7 64.1933 2.14471   1
   8   4   7 95.8300 5.01677   1
   9   4   7 2.87589 0.74586   1
  10   4   7 -0.0373 0.57699   1
  11   4   7 18.9963 2.05604   1
  -5   5   7 20.3286 0.98875   1
  -4   5   7 52.6125 1.66475   1
  -3   5   7 169.235 4.57207   1
  -2   5   7 23.0318 0.88695   1
  -1   5   7 -0.0129 0.16216   1
   0   5   7 0.37101 0.14923   1
   1   5   7 175.280 3.71014   1
   2   5   7 9.05334 0.30839   1
   3   5   7 85.0454 1.74955   1
   4   5   7 54.8517 1.05655   1
   5   5   7 0.72198 0.16343   1
   6   5   7 79.2524 2.38977   1
   7   5   7 2.22311 0.28039   1
   8   5   7 12.6875 0.87169   1
   9   5   7 139.215 10.3141   1
  10   5   7 2.06674 0.75180   1
  11   5   7 3.23350 0.88410   1
  -4   6   7 1.41604 0.30921   1
  -3   6   7 79.1905 2.37994   1
  -2   6   7 0.95010 0.25268   1
  -1   6   7 143.519 3.30035   1
   0   6   7 5.08632 0.28330   1
   1   6   7 90.2393 1.91747   1
   2   6   7 23.8268 0.71104   1
   3   6   7 53.1573 1.24230   1
   4   6   7 394.878 7.61291   1
   5   6   7 35.2892 1.10011   1
   6   6   7 92.5876 3.00321   1
   7   6   7 19.1841 0.84613   1
   8   6   7 35.3828 1.49000   1
   9   6   7 108.342 4.65854   1
  10   6   7 101.182 7.69446   1
  11   6   7 -0.0046 0.55313   1
  -3   7   7 36.9628 1.44278   1
  -2   7   7 37.9978 1.26963   1
  -1   7   7 152.913 3.97329   1
   0   7   7 184.188 4.42542   1
   1   7   7 78.4859 2.05332   1
   2   7   7 6.77406 0.39691   1
   3   7   7 56.1435 1.31211   1
   4   7   7 95.9580 1.97173   1
   5   7   7 252.235 6.65047   1
   6   7   7 88.6342 2.65982   1
   7   7   7 7.87900 0.76959   1
   8   7   7 244.247 9.76519   1
   9   7   7 11.6048 0.88890   1
  10   7   7 104.759 7.94847   1
  11   7   7 15.3568 1.83257   1
  -2   8   7 100.964 3.26260   1
  -1   8   7 12.3686 0.68410   1
   0   8   7 39.4237 1.25148   1
   1   8   7 161.087 3.94542   1
   2   8   7 4.56589 0.36066   1
   3   8   7 38.5278 1.03919   1
   4   8   7 3.55109 0.20577   1
   5   8   7 88.3966 2.76345   1
   6   8   7 -0.0228 0.32318   1
   7   8   7 267.065 9.50683   1
   8   8   7 4.21338 0.62924   1
   9   8   7 90.8365 3.96269   1
  10   8   7 79.0354 6.24587   1
  11   8   7 69.2133 5.55313   1
  -1   9   7 18.8922 1.56724   1
   0   9   7 68.8708 2.37830   1
   1   9   7 33.6578 1.32669   1
   2   9   7 118.478 3.42525   1
   3   9   7 9.47561 0.49221   1
   4   9   7 211.500 5.26826   1
   5   9   7 41.4362 1.34737   1
   6   9   7 177.207 6.52682   1
   7   9   7 69.2481 2.85347   1
   8   9   7 35.1948 1.66762   1
   9   9   7 97.7978 4.33576   1
  10   9   7 191.162 9.50262   1
   1  10   7 2.37450 0.51113   1
   2  10   7 16.5049 0.80437   1
   3  10   7 0.70902 0.25907   1
   4  10   7 2.29226 0.44265   1
   5  10   7 72.1313 3.58717   1
   6  10   7 2.55093 0.68967   1
   7  10   7 92.0194 4.24223   1
   8  10   7 48.4957 2.52234   1
   9  10   7 3.75377 0.69721   1
  10  10   7 59.6259 3.49152   1
   3  11   7 22.6591 0.95768   1
   4  11   7 5.82503 0.90748   1
   5  11   7 -0.9087 0.51994   1
   6  11   7 6.54723 0.97777   1
   7  11   7 54.5368 2.86828   1
   8  11   7 12.9814 1.22556   1
  -7 -10   8 -0.5337 0.35838   1
  -6 -10   8 6.16069 0.63691   1
  -5 -10   8 15.8454 0.91992   1
  -4 -10   8 20.8142 1.08536   1
  -3 -10   8 25.2462 1.18542   1
  -2 -10   8 0.45927 0.38567   1
  -1 -10   8 19.1257 1.05876   1
   0 -10   8 0.51809 0.23677   1
  -8  -9   8 87.7945 3.22174   1
  -7  -9   8 0.56466 0.33268   1
  -6  -9   8 60.0933 2.10038   1
  -5  -9   8 20.4483 1.02499   1
  -4  -9   8 184.950 5.63923   1
  -3  -9   8 27.4805 1.22760   1
  -2  -9   8 90.4192 2.99473   1
  -1  -9   8 7.64678 0.57731   1
   0  -9   8 178.389 4.15650   1
   1  -9   8 36.2501 1.11698   1
   2  -9   8 10.8726 0.76433   1
  -8  -8   8 0.55163 0.30057   1
  -7  -8   8 43.0365 1.36181   1
  -6  -8   8 3.67440 0.37575   1
  -5  -8   8 21.9028 0.85244   1
  -4  -8   8 15.4886 0.76521   1
  -3  -8   8 35.6604 1.26572   1
  -2  -8   8 59.8181 1.77493   1
  -1  -8   8 119.904 3.53180   1
   0  -8   8 131.647 3.26984   1
   1  -8   8 53.3041 1.45479   1
   2  -8   8 35.9143 1.11243   1
   3  -8   8 11.5246 0.77296   1
  -9  -7   8 6.12355 0.65828   1
  -8  -7   8 2.45305 0.37189   1
  -7  -7   8 0.03473 0.23246   1
  -6  -7   8 7.93088 0.48259   1
  -5  -7   8 84.9470 2.33936   1
  -4  -7   8 13.5782 0.62246   1
  -3  -7   8 78.7573 2.05373   1
  -2  -7   8 42.9123 1.22267   1
  -1  -7   8 7.26003 0.29049   1
   0  -7   8 6.58457 0.34044   1
   1  -7   8 31.6246 0.95441   1
   2  -7   8 4.23744 0.35330   1
   3  -7   8 15.3002 0.77687   1
   4  -7   8 21.9403 1.08974   1
  -9  -6   8 -0.5486 0.35062   1
  -8  -6   8 10.5217 0.73710   1
  -7  -6   8 0.23114 0.24432   1
  -6  -6   8 7.56633 0.45955   1
  -5  -6   8 1.75665 0.26412   1
  -4  -6   8 8.66401 0.46551   1
  -3  -6   8 7.95795 0.40743   1
  -2  -6   8 46.5359 1.27933   1
  -1  -6   8 13.4709 0.41067   1
   0  -6   8 3.77074 0.24924   1
   1  -6   8 29.1573 0.87112   1
   2  -6   8 65.8007 1.70958   1
   3  -6   8 0.84239 0.25215   1
   4  -6   8 27.2469 1.20573   1
   5  -6   8 30.3404 1.31666   1
   6  -6   8 0.44235 0.57513   1
  -9  -5   8 31.0309 1.56353   1
  -8  -5   8 8.09182 0.64127   1
  -7  -5   8 -0.1335 0.24899   1
  -6  -5   8 11.4254 0.60658   1
  -5  -5   8 150.139 3.89340   1
  -4  -5   8 92.4780 2.32698   1
  -3  -5   8 101.189 2.52498   1
  -2  -5   8 203.985 4.88053   1
  -1  -5   8 288.083 5.82766   1
   0  -5   8 48.2553 1.18797   1
   1  -5   8 0.23767 0.15806   1
   2  -5   8 16.6360 0.52818   1
   3  -5   8 5.01026 0.33982   1
   4  -5   8 0.58545 0.27897   1
   5  -5   8 42.9636 1.46749   1
   6  -5   8 34.1247 1.31828   1
  -9  -4   8 42.2829 2.11008   1
  -8  -4   8 17.1937 0.96595   1
  -7  -4   8 2.17631 0.37705   1
  -6  -4   8 -0.1754 0.22822   1
  -5  -4   8 5.03418 0.43708   1
  -4  -4   8 0.05706 0.15102   1
  -3  -4   8 1.33935 0.18924   1
  -2  -4   8 173.936 4.17323   1
  -1  -4   8 118.671 2.46915   1
   0  -4   8 222.291 4.58819   1
   1  -4   8 32.9357 0.80161   1
   2  -4   8 69.1944 1.45881   1
   3  -4   8 1.82688 0.20669   1
   4  -4   8 24.1389 0.95206   1
   5  -4   8 54.8122 1.73014   1
   6  -4   8 133.973 3.74910   1
   7  -4   8 11.6857 0.68420   1
  -9  -3   8 127.076 6.46112   1
  -8  -3   8 50.9953 2.14342   1
  -7  -3   8 98.3099 3.24472   1
  -6  -3   8 0.64584 0.28700   1
  -5  -3   8 149.481 4.23115   1
  -4  -3   8 17.7908 0.71326   1
  -3  -3   8 37.7662 1.13417   1
  -2  -3   8 16.4877 0.55145   1
  -1  -3   8 665.189 13.2356   1
   0  -3   8 97.3881 1.91894   1
   1  -3   8 57.2383 1.15781   1
   2  -3   8 52.8108 1.08903   1
   3  -3   8 38.5653 0.95014   1
   4  -3   8 242.489 5.57021   1
   5  -3   8 357.471 9.26869   1
   6  -3   8 208.801 5.57489   1
   7  -3   8 5.57053 0.46369   1
   8  -3   8 3.69018 0.60468   1
  -7  -1   9 210.744 13.8999  -2
  -8  -2   8 210.744 13.8999   1
  -7  -2   8 10.0594 0.72674   1
  -6  -2   8 134.378 4.23751   1
  -5  -2   8 151.441 4.31392   1
  -4  -2   8 524.244 14.1503   1
  -3  -2   8 95.1918 2.74789   1
  -2  -2   8 78.5642 1.87668   1
  -1  -2   8 5.43815 0.22926   1
   0  -2   8 175.001 3.47398   1
   1  -2   8 14.0122 0.39166   1
   2  -2   8 0.88770 0.13040   1
   3  -2   8 783.754 15.9146   1
   4  -2   8 171.814 3.78005   1
   5  -2   8 712.103 15.9195   1
   6  -2   8 295.118 7.68727   1
   7  -2   8 75.8211 2.24173   1
   8  -2   8 17.9676 1.04964   1
   9  -2   8 42.1048 4.11325   1
  -8  -1   8 13.0399 1.44363   1
  -7  -1   8 68.6773 3.21019   1
  -6  -1   8 21.7362 1.05599   1
  -5  -1   8 126.937 3.69009   1
  -4  -1   8 0.18264 0.19264   1
  -3  -1   8 298.216 8.14989   1
  -2  -1   8 177.663 4.32961   1
  -1  -1   8 24.2009 0.67714   1
   0  -1   8 8.33945 0.26386   1
   1  -1   8 11.4113 0.35812   1
   2  -1   8 15.2042 0.43572   1
   3  -1   8 1.12152 0.13087   1
   4  -1   8 177.571 3.88049   1
   5  -1   8 10.7111 0.43241   1
   6  -1   8 66.6413 1.79747   1
   7  -1   8 -0.0357 0.16215   1
   8  -1   8 0.47346 0.55328   1
   9  -1   8 7.97417 1.18734   1
  -8   0   8 2.08009 0.70679   1
  -7   0   8 0.11595 0.42699   1
  -6   0   8 31.6357 1.80359   1
  -5   0   8 2.56410 0.37456   1
  -4   0   8 135.467 3.88942   1
  -3   0   8 49.4353 1.56404   1
  -2   0   8 53.5024 1.41401   1
  -1   0   8 113.148 2.41067   1
   0   0   8 388.297 7.23465   1
   1   0   8 61.3287 1.29447   1
   2   0   8 104.054 2.04200   1
   3   0   8 278.285 5.70927   1
   4   0   8 0.72055 0.12212   1
   5   0   8 15.2916 0.46080   1
   6   0   8 8.01279 0.39138   1
   7   0   8 9.03285 0.63818   1
   8   0   8 2.09807 0.66876   1
   9   0   8 13.8143 1.49490   1
  10   0   8 -0.1465 0.80987   1
  -7   1   8 12.1118 0.98802   1
  -6   1   8 0.48614 0.42902   1
  -5   1   8 0.83652 0.35452   1
  -4   1   8 5.03715 0.48330   1
  -3   1   8 509.495 13.2495   1
  -2   1   8 236.430 5.69721   1
  -1   1   8 203.092 4.23341   1
   0   1   8 166.451 3.16342   1
   1   1   8 968.779 18.6646   1
   2   1   8 29.1474 0.71447   1
   3   1   8 83.3292 1.65738   1
   4   1   8 0.23393 0.09204   1
   5   1   8 78.8346 1.87510   1
   6   1   8 0.12613 0.14567   1
   7   1   8 19.7238 0.91449   1
   8   1   8 94.9429 5.28967   1
   9   1   8 55.4205 3.39599   1
  10   1   8 25.4551 2.05639   1
  -7   2   8 0.50633 0.46450   1
  -6   2   8 0.31641 0.39142   1
  -5   2   8 50.5358 2.16826   1
  -4   2   8 258.761 8.09441   1
  -3   2   8 4.79462 0.31447   1
  -2   2   8 709.881 18.3359   1
  -1   2   8 62.1488 1.58725   1
   0   2   8 3.28447 0.22086   1
   1   2   8 221.947 4.24849   1
   2   2   8 127.601 2.87115   1
   3   2   8 209.241 4.19431   1
   4   2   8 56.2002 1.43147   1
   5   2   8 2.75535 0.22696   1
   6   2   8 149.989 4.77986   1
   7   2   8 49.9364 2.38343   1
   8   2   8 16.5537 1.41140   1
   9   2   8 58.1916 3.47543   1
  10   2   8 61.7400 3.72573   1
  -6   3   8 83.7477 3.35536   1
  -5   3   8 3.58866 0.47000   1
  -4   3   8 267.985 7.01342   1
  -3   3   8 274.990 8.51991   1
  -2   3   8 9.49438 0.46373   1
  -1   3   8 6.41549 0.32362   1
   0   3   8 231.052 4.87625   1
   1   3   8 55.0409 1.15934   1
   2   3   8 525.036 11.3671   1
   3   3   8 6.57536 0.28882   1
   4   3   8 565.465 11.9790   1
   5   3   8 0.21606 0.11319   1
   6   3   8 7.29890 0.44330   1
   7   3   8 1.02350 0.28077   1
   8   3   8 1.24002 0.50512   1
   9   3   8 117.221 6.27090   1
  10   3   8 2.53861 0.70745   1
  11   3   8 7.26427 1.37447   1
  -5   4   8 57.0281 2.01261   1
  -4   4   8 25.6747 1.00141   1
  -3   4   8 378.578 9.76798   1
  -2   4   8 17.9742 0.76360   1
  -1   4   8 118.576 2.72738   1
   0   4   8 61.4133 1.36490   1
   1   4   8 434.196 8.89662   1
   2   4   8 328.883 6.20581   1
   3   4   8 182.725 3.62474   1
   4   4   8 178.873 3.69656   1
   5   4   8 744.231 14.2617   1
   6   4   8 96.3510 2.84954   1
   7   4   8 145.176 4.57568   1
   8   4   8 98.2668 5.29238   1
   9   4   8 15.4293 1.35149   1
  10   4   8 128.396 6.86893   1
  11   4   8 0.08047 0.72227   1
  -5   5   8 28.8629 1.42774   1
  -4   5   8 127.588 3.57899   1
  -3   5   8 0.39193 0.26341   1
  -2   5   8 43.3858 1.39684   1
  -1   5   8 7.35568 0.46232   1
   0   5   8 171.193 3.66573   1
   1   5   8 754.615 15.3915   1
   2   5   8 0.44469 0.11697   1
   3   5   8 96.0404 1.90904   1
   4   5   8 120.624 2.33641   1
   5   5   8 192.521 4.68894   1
   6   5   8 8.11342 0.42771   1
   7   5   8 2.44965 0.33549   1
   8   5   8 19.5015 1.14942   1
   9   5   8 34.1810 2.18579   1
  10   5   8 27.6823 1.92412   1
  11   5   8 127.699 9.67826   1
  -4   6   8 0.81197 0.44992   1
  -3   6   8 10.7429 0.65106   1
  -2   6   8 42.4532 1.41302   1
  -1   6   8 16.0555 0.74412   1
   0   6   8 11.6065 0.51514   1
   1   6   8 10.1800 0.51088   1
   2   6   8 742.332 15.1821   1
   3   6   8 29.9253 0.81117   1
   4   6   8 104.567 2.37983   1
   5   6   8 6.37629 0.46046   1
   6   6   8 6.29649 0.41688   1
   7   6   8 343.933 11.8049   1
   8   6   8 2.21693 0.38331   1
   9   6   8 0.98557 0.72720   1
  10   6   8 -0.0075 0.63846   1
  11   6   8 115.498 8.80206   1
  -3   7   8 17.5197 1.11874   1
  -2   7   8 16.8088 0.81438   1
  -1   7   8 7.55937 0.51700   1
   0   7   8 0.93666 0.26740   1
   1   7   8 66.8698 1.81524   1
   2   7   8 17.2006 0.66718   1
   3   7   8 0.30094 0.18549   1
   4   7   8 14.7031 0.48417   1
   5   7   8 3.58724 0.31632   1
   6   7   8 92.9131 3.16707   1
   7   7   8 15.3527 0.98879   1
   8   7   8 1.75782 0.45765   1
   9   7   8 8.58825 1.38032   1
  10   7   8 9.32465 1.41467   1
  11   7   8 1.87273 0.86386   1
  -1   8   8 -0.3649 0.27236   1
   0   8   8 61.5962 1.85433   1
   1   8   8 0.67697 0.26342   1
   2   8   8 90.5660 2.35304   1
   3   8   8 35.5157 1.07902   1
   4   8   8 57.3491 1.42253   1
   5   8   8 13.5858 0.74248   1
   6   8   8 87.2117 3.45093   1
   7   8   8 22.3956 1.26061   1
   8   8   8 151.754 5.61289   1
   9   8   8 78.6186 3.54752   1
  10   8   8 22.8819 2.42520   1
   0   9   8 29.5853 1.96448   1
   1   9   8 50.0499 1.75700   1
   2   9   8 0.59536 0.30591   1
   3   9   8 13.2672 0.56331   1
   4   9   8 36.8358 1.13144   1
   5   9   8 104.986 3.62228   1
   6   9   8 26.4958 1.45028   1
   7   9   8 97.9597 3.85761   1
   8   9   8 92.6502 3.62764   1
   9   9   8 7.28893 0.75391   1
  10   9   8 53.5441 4.62457   1
   2  10   8 62.1154 2.13731   1
   3  10   8 4.02281 0.41606   1
   4  10   8 45.1641 2.20927   1
   5  10   8 48.3946 2.68476   1
   6  10   8 130.816 5.83348   1
   7  10   8 113.444 5.10488   1
   8  10   8 4.38282 0.75855   1
   9  10   8 218.356 9.09207   1
   5  11   8 71.6758 4.49702   1
   6  11   8 100.068 5.72897   1
   7  11   8 38.3494 2.93880   1
  -5 -10   9 0.10000 0.38142   1
  -4 -10   9 20.5473 1.18667   1
  -3 -10   9 4.18745 0.59302   1
  -2 -10   9 43.7052 1.87817   1
  -1 -10   9 6.76878 0.82704   1
  -7  -9   9 32.9202 1.49938   1
  -6  -9   9 40.7117 1.73258   1
  -5  -9   9 5.71781 0.56498   1
  -4  -9   9 1.24292 0.39978   1
  -3  -9   9 88.2900 2.93095   1
  -2  -9   9 6.81771 0.63517   1
  -1  -9   9 32.8232 1.39961   1
   0  -9   9 37.4305 1.13535   1
   1  -9   9 1.03747 0.34519   1
  -8  -8   9 39.6771 2.46056   1
  -7  -8   9 0.20971 0.29607   1
  -6  -8   9 74.3725 2.13471   1
  -5  -8   9 19.5619 0.81589   1
  -4  -8   9 78.8937 2.42705   1
  -3  -8   9 133.208 3.86819   1
  -2  -8   9 181.888 5.55028   1
  -1  -8   9 61.1762 1.98901   1
   0  -8   9 1.23008 0.26114   1
   1  -8   9 8.32000 0.50001   1
   2  -8   9 2.03140 0.33959   1
   3  -8   9 91.1621 3.50593   1
  -8  -7   9 2.26140 0.47734   1
  -7  -7   9 1.17450 0.31210   1
  -6  -7   9 66.4996 1.93128   1
  -5  -7   9 266.463 6.75842   1
  -4  -7   9 14.3412 0.66153   1
  -3  -7   9 78.1632 2.18741   1
  -2  -7   9 63.9642 1.73171   1
  -1  -7   9 60.6820 1.40296   1
   0  -7   9 202.131 4.36195   1
   1  -7   9 6.87347 0.41651   1
   2  -7   9 58.0941 1.55934   1
   3  -7   9 16.5813 0.83229   1
   4  -7   9 73.1238 3.43480   1
  -8  -6   9 50.5053 2.08001   1
  -7  -6   9 6.04113 0.56155   1
  -6  -6   9 0.30404 0.25312   1
  -5  -6   9 8.33165 0.48128   1
  -4  -6   9 13.6582 0.63366   1
  -3  -6   9 275.912 6.57747   1
  -2  -6   9 86.4023 2.22065   1
  -1  -6   9 2.72212 0.18364   1
   0  -6   9 78.7563 1.81753   1
   1  -6   9 95.4145 2.33259   1
   2  -6   9 -0.0913 0.21198   1
   3  -6   9 96.9328 2.60107   1
   4  -6   9 0.01101 0.32397   1
   5  -6   9 3.90164 0.69204   1
  -8  -5   9 3.43542 0.52758   1
  -7  -5   9 27.1412 1.17569   1
  -6  -5   9 2.38492 0.36879   1
  -5  -5   9 1.38355 0.26037   1
  -4  -5   9 245.948 6.22190   1
  -3  -5   9 60.8215 1.62181   1
  -2  -5   9 3.31720 0.27207   1
  -1  -5   9 18.4924 0.51284   1
   0  -5   9 2.15080 0.18988   1
   1  -5   9 6.70445 0.35903   1
   2  -5   9 23.8492 0.77520   1
   3  -5   9 3.33192 0.29945   1
   4  -5   9 17.1593 0.82084   1
   5  -5   9 105.952 3.07524   1
   6  -5   9 19.2976 1.16717   1
  -8  -4   9 5.54190 0.65322   1
  -7  -4   9 6.56830 0.59567   1
  -5  -3  10 -1.1335 1.02476  -2
  -6  -4   9 -1.1335 1.02476   1
  -5  -4   9 45.0114 1.63434   1
  -4  -4   9 2.82649 0.28131   1
  -3  -4   9 1.77256 0.21409   1
  -2  -4   9 21.3816 0.69052   1
  -1  -4   9 153.737 3.17507   1
   0  -4   9 1.81078 0.18296   1
   1  -4   9 73.8271 1.66383   1
   2  -4   9 38.4212 0.93317   1
   3  -4   9 88.4868 1.84201   1
   4  -4   9 92.7575 2.65963   1
   5  -4   9 43.3381 1.45389   1
   6  -4   9 8.13904 0.58304   1
   7  -4   9 8.01783 0.61348   1
  -8  -3   9 46.6232 2.03921   1
  -6  -2  10 8.92430 1.79645  -2
  -7  -3   9 8.92430 1.79645   1
  -6  -3   9 61.0012 2.14906   1
  -5  -3   9 19.7266 0.94679   1
  -4  -3   9 2.04612 0.27547   1
  -3  -3   9 15.7299 0.66359   1
  -2  -3   9 6.22801 0.36697   1
  -1  -3   9 1.77011 0.15834   1
   0  -3   9 220.251 4.55170   1
   1  -3   9 144.411 2.92844   1
   2  -3   9 132.465 2.73304   1
   3  -3   9 0.25837 0.16708   1
   4  -3   9 195.921 5.19251   1
   5  -3   9 130.758 3.59080   1
   6  -3   9 4.34363 0.40313   1
   7  -3   9 57.1358 1.82668   1
   8  -3   9 0.60280 0.59864   1
  -8  -2   9 15.6504 1.58141   1
  -7  -2   9 99.7620 3.34126   1
  -6  -2   9 5.38284 0.52258   1
  -5  -2   9 43.1063 1.58965   1
  -4  -2   9 33.8664 1.17841   1
  -3  -2   9 52.3056 1.63213   1
  -2  -2   9 310.404 7.45221   1
  -1  -2   9 109.526 2.42216   1
   0  -2   9 8.38100 0.31299   1
   1  -2   9 118.244 2.32900   1
   2  -2   9 228.750 4.37820   1
   3  -2   9 64.6658 1.37168   1
   4  -2   9 1.47345 0.21249   1
   5  -2   9 16.5182 0.73039   1
   6  -2   9 48.0824 1.53518   1
   7  -2   9 0.63082 0.26567   1
   8  -2   9 199.624 7.33084   1
  -8  -1   9 44.0784 2.81418   1
  -7  -1   9 16.9398 1.33298   1
  -6  -1   9 163.910 5.13221   1
  -5  -1   9 137.913 4.32965   1
  -4  -1   9 92.4644 2.75697   1
  -3  -1   9 0.81809 0.22334   1
  -2  -1   9 282.974 6.81777   1
  -1  -1   9 369.019 8.80171   1
   0  -1   9 168.041 3.34917   1
   1  -1   9 27.5484 0.69886   1
   2  -1   9 14.9472 0.44581   1
   3  -1   9 118.790 2.34304   1
   4  -1   9 19.0685 0.58319   1
   5  -1   9 397.006 8.51747   1
   6  -1   9 0.66330 0.24680   1
   7  -1   9 109.717 3.38249   1
   8  -1   9 0.11423 0.50831   1
   9  -1   9 21.2349 2.73285   1
  -7   0   9 12.5689 1.36950   1
  -6   0   9 3.89178 0.65499   1
  -5   0   9 19.9675 1.18490   1
  -4   0   9 211.368 5.93193   1
  -3   0   9 50.6076 1.62409   1
  -2   0   9 151.289 3.73862   1
  -1   0   9 496.153 11.1871   1
   0   0   9 80.9954 1.75328   1
   1   0   9 234.056 4.81444   1
   2   0   9 74.3250 1.56292   1
   3   0   9 11.4520 0.37315   1
   4   0   9 129.286 2.74033   1
   5   0   9 5.19098 0.25871   1
   6   0   9 211.473 5.62430   1
   7   0   9 95.8382 3.67341   1
   8   0   9 -0.3975 0.54200   1
   9   0   9 10.1874 1.27013   1
  -7   1   9 -0.1103 0.47921   1
  -6   1   9 0.23451 0.42804   1
  -5   1   9 36.3357 1.92600   1
  -4   1   9 33.1356 1.36876   1
  -3   1   9 249.189 6.60071   1
  -2   1   9 3.20617 0.25211   1
  -1   1   9 112.170 2.66305   1
   0   1   9 181.167 3.59127   1
   1   1   9 180.970 3.45327   1
   2   1   9 -0.1399 0.09612   1
   3   1   9 61.0759 1.32070   1
   4   1   9 0.39326 0.10627   1
   5   1   9 452.600 10.9537   1
   6   1   9 539.867 13.0129   1
   7   1   9 12.3659 0.88240   1
   8   1   9 5.74459 0.92247   1
   9   1   9 -0.2253 0.52527   1
  10   1   9 14.9576 1.57950   1
  -6   2   9 3.44326 0.59823   1
  -5   2   9 5.53382 0.66888   1
  -4   2   9 17.8788 0.97754   1
  -3   2   9 0.96115 0.23461   1
  -2   2   9 159.472 4.30474   1
  -1   2   9 0.39355 0.18115   1
   0   2   9 105.254 2.41444   1
   1   2   9 60.3608 1.26547   1
   2   2   9 0.07950 0.11706   1
   3   2   9 40.1301 0.96670   1
   4   2   9 90.4301 2.08231   1
   5   2   9 126.438 3.16934   1
   6   2   9 14.5248 0.47908   1
   7   2   9 15.9766 0.98225   1
   8   2   9 6.47797 0.95194   1
   9   2   9 28.3074 2.02300   1
  10   2   9 52.3831 3.26807   1
  -5   3   9 15.4375 1.11165   1
  -4   3   9 16.6032 0.72128   1
  -3   3   9 66.9851 2.34433   1
  -2   3   9 78.5779 2.29437   1
  -1   3   9 793.447 19.2192   1
   0   3   9 15.2716 0.51110   1
   1   3   9 441.577 8.34413   1
   2   3   9 254.621 4.86914   1
   3   3   9 113.079 2.42582   1
   4   3   9 14.4355 0.56598   1
   5   3   9 1.06179 0.17428   1
   6   3   9 3.38783 0.32896   1
   7   3   9 37.1614 1.56446   1
   8   3   9 223.287 11.4451   1
   9   3   9 0.63467 0.55846   1
  10   3   9 57.6657 3.48493   1
  -5   4   9 4.44013 0.65859   1
  -4   4   9 74.4759 2.21953   1
  -3   4   9 5.84400 0.44929   1
  -2   4   9 73.2385 2.16025   1
  -1   4   9 0.77011 0.25909   1
   0   4   9 261.547 5.26034   1
   1   4   9 808.763 16.4250   1
   2   4   9 107.866 2.13868   1
   3   4   9 323.440 6.63743   1
   4   4   9 1154.53 23.0661   1
   5   4   9 10.9659 0.38822   1
   6   4   9 10.9808 0.52707   1
   7   4   9 55.5459 2.21775   1
   8   4   9 15.9217 1.32766   1
   9   4   9 269.658 13.7078   1
  10   4   9 1.85916 0.64783   1
  11   4   9 13.5662 1.88575   1
  -4   5   9 17.5762 0.87563   1
  -3   5   9 98.4654 2.84871   1
  -2   5   9 0.93306 0.27995   1
  -1   5   9 76.8785 2.24466   1
   0   5   9 377.958 9.18765   1
   1   5   9 30.7118 0.78774   1
   2   5   9 137.137 2.92845   1
   3   5   9 29.1323 0.64092   1
   4   5   9 314.969 5.90437   1
   5   5   9 113.999 2.40716   1
   6   5   9 386.549 9.24764   1
   7   5   9 0.69335 0.24799   1
   8   5   9 175.640 9.05339   1
   9   5   9 0.72725 0.56503   1
  10   5   9 102.703 7.98017   1
  11   5   9 10.9344 1.66829   1
  -3   6   9 3.76951 0.53626   1
  -2   6   9 139.496 3.86623   1
  -1   6   9 7.87949 0.52553   1
   0   6   9 0.83306 0.31198   1
   1   6   9 21.7514 0.79944   1
   2   6   9 0.78920 0.22921   1
   3   6   9 111.700 2.58360   1
   4   6   9 0.74443 0.15500   1
   5   6   9 1.76190 0.18175   1
   6   6   9 70.2955 2.47415   1
   7   6   9 96.1533 3.68317   1
   8   6   9 3.26089 0.64136   1
   9   6   9 77.6968 6.29119   1
  10   6   9 0.80672 0.79249   1
  11   6   9 122.797 9.40053   1
  -2   7   9 16.2164 0.97616   1
  -1   7   9 50.6968 1.60725   1
   0   7   9 0.77336 0.27662   1
   1   7   9 39.5685 1.23485   1
   2   7   9 54.5771 1.53596   1
   3   7   9 62.4737 1.77339   1
   4   7   9 110.559 2.54532   1
   5   7   9 6.12086 0.50184   1
   6   7   9 124.622 4.14545   1
   7   7   9 32.6544 1.57406   1
   8   7   9 14.1931 0.98203   1
   9   7   9 1.06015 0.83377   1
  10   7   9 99.5123 7.77766   1
  -1   8   9 7.57334 0.83043   1
   0   8   9 60.4381 1.84398   1
   1   8   9 22.5642 0.88651   1
   2   8   9 3.54430 0.35343   1
   3   8   9 4.23933 0.36144   1
   4   8   9 95.6785 2.38218   1
   5   8   9 4.61030 0.44067   1
   6   8   9 20.0066 1.22279   1
   7   8   9 64.8381 2.70245   1
   8   8   9 27.3856 1.44967   1
   9   8   9 39.8703 2.67274   1
  10   8   9 0.76592 0.86827   1
   1   9   9 5.79859 0.72553   1
   2   9   9 8.54316 0.56915   1
   3   9   9 23.3111 0.97828   1
   4   9   9 0.35286 0.23220   1
   5   9   9 41.1010 1.51824   1
   6   9   9 21.4715 1.11523   1
   7   9   9 47.2242 2.15429   1
   8   9   9 0.52242 0.44258   1
   9   9   9 17.1495 1.30823   1
   3  10   9 82.3219 2.92418   1
   4  10   9 25.8587 1.06182   1
   5  10   9 82.1938 4.03071   1
   6  10   9 14.2182 1.36816   1
   7  10   9 0.18782 0.55857   1
   8  10   9 63.4695 3.18057   1
  -5  -9  10 4.10705 0.56425   1
  -4  -9  10 -0.2343 0.35430   1
  -3  -9  10 26.0131 1.21371   1
  -2  -9  10 5.13716 0.56299   1
  -1  -9  10 -0.1361 0.38109   1
   1  -8  11 3.94129 1.60403  -2
   0  -9  10 3.94129 1.60403   1
  -6  -8  10 6.46945 0.57860   1
  -5  -8  10 22.7283 0.99217   1
  -4  -8  10 125.153 3.94656   1
  -3  -8  10 131.551 4.13374   1
  -2  -8  10 18.9568 0.99481   1
   0  -7  11 83.6201 6.17894  -2
  -1  -8  10 83.6201 6.17894   1
   1  -7  11 0.97092 1.38525  -2
   0  -8  10 0.97092 1.38525   1
   1  -8  10 0.37025 0.25196   1
   2  -8  10 15.5136 0.92137   1
  -7  -7  10 4.13467 0.49915   1
  -6  -7  10 72.7602 2.09449   1
  -5  -7  10 349.026 8.78275   1
  -4  -7  10 2.29566 0.35685   1
  -3  -7  10 199.202 5.13802   1
  -1  -6  11 163.237 10.8878  -2
  -2  -7  10 163.237 10.8878   1
  -1  -7  10 104.777 2.69801   1
   0  -7  10 0.04192 0.19445   1
   1  -7  10 41.2686 1.17791   1
   2  -7  10 1.80267 0.29001   1
   3  -7  10 28.1566 1.35704   1
  -7  -6  10 55.7455 2.07004   1
  -6  -6  10 135.572 4.28986   1
  -5  -6  10 138.167 3.66205   1
  -4  -6  10 133.581 3.53960   1
  -3  -6  10 73.4885 2.07447   1
  -2  -6  10 176.117 4.30458   1
  -1  -6  10 4.65837 0.23288   1
   0  -6  10 163.984 3.57445   1
   1  -6  10 38.3527 1.09632   1
   2  -6  10 104.748 2.57919   1
   3  -6  10 15.8321 0.74404   1
   4  -6  10 126.031 3.33881   1
   5  -6  10 7.43014 1.17425   1
  -8  -5  10 35.8399 2.40155   1
  -7  -5  10 9.80115 0.71917   1
  -6  -5  10 0.12266 0.30252   1
  -5  -5  10 18.4068 0.92933   1
  -4  -5  10 0.54414 0.24137   1
  -3  -5  10 67.2039 1.79202   1
  -2  -5  10 12.1561 0.52741   1
  -1  -5  10 77.7938 1.68116   1
   0  -5  10 20.3475 0.62010   1
   1  -5  10 17.0880 0.61865   1
   2  -5  10 53.2514 1.42529   1
   3  -5  10 102.287 2.72163   1
   4  -5  10 1.95991 0.35118   1
   5  -5  10 298.660 8.45696   1
   6  -5  10 8.48422 0.87413   1
  -8  -4  10 18.7075 1.71281   1
  -7  -4  10 17.8891 1.00673   1
  -6  -4  10 1.64637 0.38364   1
  -5  -4  10 0.16364 0.25932   1
  -4  -4  10 23.7957 1.01782   1
  -3  -4  10 8.25318 0.46718   1
  -2  -4  10 -0.0079 0.17714   1
  -1  -4  10 0.60464 0.12907   1
   0  -4  10 36.9599 0.94594   1
   1  -4  10 20.4850 0.66208   1
   2  -4  10 0.88740 0.20581   1
   3  -4  10 53.7519 1.47534   1
   4  -4  10 44.2350 1.28693   1
   5  -4  10 94.6075 2.73579   1
   6  -4  10 129.005 3.63180   1
  -7  -3  10 17.0816 1.02768   1
  -6  -3  10 83.4009 2.81940   1
  -5  -3  10 4.65928 0.48828   1
  -4  -3  10 12.0181 0.71624   1
  -3  -3  10 19.1569 0.79299   1
  -2  -3  10 30.0157 0.97768   1
  -1  -3  10 54.1058 1.28536   1
   0  -3  10 20.1795 0.60085   1
   1  -3  10 178.970 4.15981   1
   2  -3  10 170.112 3.98672   1
   3  -3  10 134.552 2.80334   1
   4  -3  10 47.8416 1.33769   1
   5  -3  10 0.98085 0.28238   1
   6  -3  10 0.60026 0.29564   1
   7  -3  10 5.52445 0.57846   1
  -7  -2  10 35.4173 1.55669   1
  -6  -2  10 30.9147 1.35939   1
  -5  -2  10 10.3871 0.69224   1
  -4  -2  10 39.0961 1.34160   1
  -3  -2  10 29.8089 1.07292   1
  -2  -2  10 126.670 3.16889   1
  -1  -2  10 77.2403 2.00469   1
   0  -2  10 57.6875 1.37092   1
   1  -2  10 80.3879 1.86967   1
   2  -2  10 212.737 4.10480   1
   3  -2  10 239.406 4.61175   1
   4  -2  10 7.29796 0.39383   1
   5  -2  10 130.604 3.57060   1
   6  -2  10 -0.0976 0.25200   1
   7  -2  10 124.066 4.25185   1
   8  -2  10 12.1260 1.21721   1
  -7  -1  10 75.7940 4.17191   1
  -6  -1  10 36.9698 1.77117   1
  -5  -1  10 4.91733 0.50782   1
  -4  -1  10 4.41491 0.41228   1
  -3  -1  10 74.8173 2.27900   1
  -2  -1  10 12.8449 0.49414   1
  -1  -1  10 154.309 3.80536   1
   0  -1  10 411.840 8.76337   1
   1  -1  10 4.97970 0.28645   1
   2  -1  10 76.1763 1.62853   1
   3  -1  10 338.363 6.40656   1
   4  -1  10 154.241 3.28739   1
   5  -1  10 23.7497 0.78202   1
   6  -1  10 284.517 8.19729   1
   7  -1  10 2.31042 0.39163   1
   8  -1  10 239.096 8.64985   1
  -7   0  10 26.3605 3.11075   1
  -6   0  10 30.9658 1.86191   1
  -5   0  10 142.092 5.17681   1
  -4   0  10 228.098 6.39755   1
  -3   0  10 5.48714 0.43547   1
  -2   0  10 82.4193 2.11138   1
  -1   0  10 370.144 8.83554   1
   0   0  10 16.7493 0.53216   1
   1   0  10 476.401 9.58143   1
   2   0  10 2.11906 0.19113   1
   3   0  10 81.8581 1.73629   1
   4   0  10 70.4993 1.58369   1
   5   0  10 151.496 3.83111   1
   6   0  10 174.567 5.12194   1
   7   0  10 93.3881 3.22959   1
   8   0  10 35.4906 2.51211   1
   9   0  10 49.8980 3.28913   1
  -6   1  10 24.6414 1.70016   1
  -5   1  10 1.15604 0.48032   1
  -4   1  10 96.7435 3.30667   1
  -3   1  10 60.5577 1.78864   1
  -2   1  10 34.1904 1.09423   1
  -1   1  10 0.26109 0.16674   1
   0   1  10 277.795 5.96259   1
   1   1  10 0.80600 0.14979   1
   2   1  10 150.129 3.16503   1
   3   1  10 5.43209 0.27332   1
   4   1  10 387.716 8.39550   1
   5   1  10 252.833 5.88957   1
   6   1  10 0.92716 0.31596   1
   7   1  10 0.84534 0.40281   1
   8   1  10 0.11676 0.55611   1
   9   1  10 44.6231 2.97624   1
  -5   2  10 -0.1437 0.36459   1
  -4   2  10 4.32062 0.52920   1
  -3   2  10 36.4788 1.23796   1
  -2   2  10 107.579 3.03078   1
  -1   2  10 2.80465 0.31212   1
   0   2  10 3.79263 0.25862   1
   1   2  10 28.9588 0.73250   1
   2   2  10 30.8622 0.79684   1
   3   2  10 30.6036 0.95165   1
   4   2  10 170.049 3.79074   1
   5   2  10 86.3202 2.14868   1
   6   2  10 183.046 4.20251   1
   7   2  10 3.21406 0.50801   1
   8   2  10 2.22925 0.65213   1
   9   2  10 45.4912 2.93399   1
  10   2  10 0.06733 0.61478   1
  -5   3  10 44.4839 2.73185   1
  -4   3  10 25.1209 1.18419   1
  -3   3  10 8.42726 0.59675   1
  -2   3  10 2.84951 0.33404   1
  -1   3  10 59.0505 1.79444   1
   0   3  10 1.41405 0.23019   1
   1   3  10 14.5987 0.44742   1
   2   3  10 14.3541 0.44170   1
   3   3  10 9.76915 0.41213   1
   4   3  10 29.1565 0.83253   1
   5   3  10 8.27664 0.36587   1
   6   3  10 9.01236 0.34935   1
   7   3  10 40.7877 1.78341   1
   8   3  10 2.75637 0.69769   1
   9   3  10 27.5187 2.03481   1
  10   3  10 0.82332 0.62673   1
  -4   4  10 12.7564 0.70592   1
  -3   4  10 6.36876 0.48645   1
  -2   4  10 44.8816 1.47033   1
  -1   4  10 63.9921 1.79710   1
   0   4  10 69.9915 1.91137   1
   1   4  10 12.4374 0.45886   1
   2   4  10 32.6390 0.77350   1
   3   4  10 74.7769 1.60999   1
   4   4  10 1.87030 0.22691   1
   5   4  10 14.5716 0.48549   1
   6   4  10 6.11911 0.39624   1
   7   4  10 16.5027 0.85410   1
   8   4  10 49.0720 2.95810   1
   9   4  10 -0.8962 0.47692   1
  10   4  10 115.591 6.35440   1
  -3   5  10 3.03716 0.40689   1
  -2   5  10 69.4227 2.11969   1
  -1   5  10 1.21317 0.30231   1
   0   5  10 1.05357 0.27311   1
   1   5  10 93.4883 2.34268   1
   2   5  10 37.4188 1.00281   1
   3   5  10 333.003 7.25888   1
   4   5  10 55.0927 1.36796   1
   5   5  10 10.1057 0.44684   1
   6   5  10 26.6162 0.95632   1
   7   5  10 222.926 6.44955   1
   8   5  10 16.4928 2.08237   1
   9   5  10 150.565 11.3863   1
  10   5  10 0.41068 0.84524   1
  -2   6  10 25.4272 1.47340   1
  -1   6  10 53.6444 1.90296   1
   0   6  10 45.3389 1.65820   1
   1   6  10 80.7806 2.28430   1
   2   6  10 132.124 3.26762   1
   3   6  10 -0.0022 0.21283   1
   4   6  10 139.158 3.32975   1
   5   6  10 31.0029 0.97143   1
   6   6  10 48.1260 1.66221   1
   7   6  10 33.1203 1.56488   1
   8   6  10 275.102 14.4313   1
   9   6  10 121.666 9.40091   1
  10   6  10 117.013 9.09321   1
  -1   7  10 93.5766 3.04203   1
   0   7  10 14.0496 0.72942   1
   1   7  10 83.9103 2.37104   1
   3   8   9 34.9443 3.10089  -2
   2   7  10 34.9443 3.10089   1
   4   8   9 76.2918 5.61237  -2
   3   7  10 76.2918 5.61237   1
   4   7  10 0.25614 0.22978   1
   5   7  10 193.339 4.78632   1
   6   7  10 59.8281 2.22513   1
   7   7  10 145.064 5.42062   1
   8   7  10 45.2445 2.01987   1
   9   7  10 119.374 6.72998   1
  10   7  10 52.1413 4.57772   1
   0   8  10 50.4071 2.03571   1
   2   9   9 7.22027 1.23532  -2
   1   8  10 7.22027 1.23532   1
   3   9   9 19.2641 1.42198  -2
   2   8  10 19.2641 1.42198   1
   4   9   9 -0.1619 0.86798  -2
   3   8  10 -0.1619 0.86798   1
   4   8  10 17.8296 0.73396   1
   5   8  10 0.69488 0.30443   1
   6   8  10 90.9431 3.63920   1
   7   8  10 -0.1013 0.40219   1
   8   8  10 5.05886 0.66436   1
   9   8  10 94.9911 5.50369   1
   3  10   9 25.4193 2.03363  -2
   2   9  10 25.4193 2.03363   1
   3   9  10 35.8415 1.39373   1
   4   9  10 3.64293 0.36442   1
   5   9  10 76.1014 2.51349   1
   6   9  10 0.83043 0.41582   1
   7   9  10 5.42222 0.70666   1
   8   9  10 -0.5195 0.44013   1
  -5  -8  11 37.4736 1.60462   1
  -4  -8  11 0.19192 0.36427   1
  -3  -8  11 19.0157 1.00471   1
  -2  -8  11 2.57422 0.45186   1
  -1  -8  11 0.60063 0.37054   1
   0  -8  11 3.43551 0.30825   1
   1  -8  11 0.24528 0.32210   1
  -6  -7  11 64.5771 2.52397   1
  -5  -7  11 13.5703 0.69646   1
  -4  -7  11 35.5423 1.19778   1
  -3  -7  11 28.0129 1.01364   1
  -2  -7  11 55.3258 1.66716   1
  -1  -7  11 1.44845 0.29433   1
   0  -7  11 24.1277 0.72507   1
   1  -7  11 2.48297 0.28031   1
   2  -7  11 36.6268 1.52829   1
   3  -7  11 7.95337 1.07941   1
  -6  -6  11 12.1229 0.87554   1
  -5  -6  11 -0.2976 0.26138   1
  -4  -6  11 12.3120 0.63345   1
  -3  -6  11 111.589 3.01699   1
  -2  -6  11 9.11945 0.54080   1
  -1  -6  11 66.6005 1.80722   1
   0  -6  11 0.89255 0.21932   1
   1  -6  11 39.5848 1.13034   1
   2  -6  11 10.5248 0.52460   1
   3  -6  11 29.5427 1.08140   1
   4  -6  11 11.2116 0.87618   1
  -7  -5  11 27.5042 1.44034   1
  -6  -5  11 108.389 3.55230   1
  -5  -5  11 -0.0048 0.30377   1
  -4  -5  11 72.0852 2.24606   1
  -3  -5  11 0.42640 0.26234   1
  -2  -5  11 130.292 3.25660   1
  -1  -5  11 0.35550 0.21537   1
   0  -5  11 25.7354 0.74490   1
   1  -5  11 59.6566 1.55093   1
   2  -5  11 92.9496 2.31274   1
   3  -5  11 27.6882 1.00702   1
   4  -5  11 147.299 3.81313   1
   5  -5  11 60.1284 2.09646   1
  -7  -4  11 22.9122 1.43885   1
  -6  -4  11 17.6560 0.99226   1
  -5  -4  11 91.0992 3.02734   1
  -4  -4  11 0.14235 0.27337   1
  -3  -4  11 50.2521 1.64199   1
  -2  -4  11 50.7507 1.52456   1
  -1  -4  11 57.5550 1.69455   1
   0  -4  11 1.52060 0.22068   1
   1  -4  11 0.00465 0.19179   1
   2  -4  11 41.4607 1.24814   1
   3  -4  11 65.3798 1.84183   1
   4  -4  11 191.695 4.80011   1
   5  -4  11 107.987 2.89582   1
   6  -4  11 15.6472 1.11985   1
  -7  -3  11 4.27468 0.69941   1
  -6  -3  11 79.7851 2.73691   1
  -5  -3  11 19.9057 1.04396   1
  -4  -3  11 27.4489 1.15986   1
  -3  -3  11 15.7231 0.75120   1
  -2  -3  11 129.652 3.73758   1
  -1  -3  11 9.17607 0.48876   1
   0  -3  11 3.73388 0.27776   1
   1  -3  11 31.9363 0.97141   1
   2  -3  11 91.6210 2.39486   1
   3  -3  11 17.0927 0.66310   1
   4  -3  11 13.2550 0.59978   1
   5  -3  11 80.3305 2.09094   1
   6  -3  11 -0.2181 0.34269   1
   7  -3  11 0.69867 0.55482   1
  -6  -2  11 52.5895 1.98913   1
  -5  -2  11 2.07173 0.41005   1
  -4  -2  11 104.183 3.38034   1
  -3  -2  11 4.29683 0.40074   1
  -2  -2  11 6.46818 0.30503   1
  -1  -2  11 28.7093 0.93963   1
   0  -2  11 38.8666 1.04680   1
   1  -2  11 9.45546 0.45144   1
   2  -2  11 0.35224 0.18111   1
   3  -2  11 39.5661 1.06276   1
   4  -2  11 51.8300 1.40976   1
   5  -2  11 144.061 3.47059   1
   6  -2  11 -0.0844 0.33358   1
   7  -2  11 6.36284 0.62819   1
  -6  -1  11 43.3970 2.27827   1
  -5  -1  11 229.662 7.03739   1
  -4  -1  11 38.5775 1.50265   1
  -3  -1  11 8.30163 0.53321   1
  -2  -1  11 136.925 3.42751   1
  -1  -1  11 26.6642 0.89166   1
   0  -1  11 4.99675 0.32120   1
   1  -1  11 51.4694 1.27236   1
   2  -1  11 8.90902 0.36472   1
   3  -1  11 206.034 4.14400   1
   4  -1  11 302.248 6.89680   1
   5  -1  11 19.1361 0.77865   1
   6  -1  11 7.79537 0.63643   1
   7  -1  11 63.6094 2.38775   1
   8  -1  11 35.8866 1.85724   1
  -6   0  11 23.3637 1.92980   1
  -5   0  11 161.303 5.85344   1
  -4   0  11 54.5531 2.30241   1
  -3   0  11 3.85978 0.40796   1
  -2   0  11 39.1794 1.21749   1
  -1   0  11 1.30131 0.23697   1
   0   0  11 91.8787 2.32917   1
   2   1  11 14.7404 1.70240  -2
   1   0  11 14.7404 1.70240   1
   2   0  11 147.773 3.13950   1
   3   0  11 63.9003 1.52293   1
   4   0  11 41.1107 1.17120   1
   5   0  11 47.0283 1.41109   1
   6   0  11 45.5247 1.61328   1
   7   0  11 28.4440 1.28804   1
   8   0  11 25.7857 1.76959   1
  -5   1  11 80.0995 4.26844   1
  -4   1  11 166.173 5.95933   1
  -3   1  11 70.2210 2.24447   1
  -2   1  11 46.9601 1.60105   1
  -1   1  11 206.185 5.38510   1
   0   1  11 12.6698 0.62121   1
   1   1  11 374.210 7.63078   1
   2   1  11 72.2785 1.62778   1
   3   1  11 239.782 5.15032   1
   4   1  11 4.93539 0.38299   1
   5   1  11 0.42539 0.24108   1
   6   1  11 24.9028 0.98417   1
   7   1  11 48.3486 2.11892   1
   8   1  11 98.6007 5.59050   1
   9   1  11 0.83042 0.71589   1
  -5   2  11 5.89820 0.96759   1
  -4   2  11 54.3390 2.33529   1
  -3   2  11 101.248 2.93218   1
  -2   2  11 0.06880 0.22178   1
  -1   2  11 7.92692 0.49543   1
   0   2  11 330.705 8.68793   1
   1   2  11 131.101 2.85686   1
   2   2  11 310.851 6.19196   1
   3   2  11 128.971 3.11494   1
   4   2  11 550.412 13.3037   1
   5   2  11 20.0097 0.75188   1
   6   2  11 203.308 5.43529   1
   7   2  11 19.2935 1.17031   1
   8   2  11 4.95356 0.89067   1
   9   2  11 16.4042 1.62704   1
  -4   3  11 4.55528 0.73625   1
  -3   3  11 3.85980 0.43188   1
  -2   3  11 3.06084 0.36292   1
  -1   3  11 60.2718 1.85371   1
   0   3  11 186.656 5.05950   1
   1   3  11 -0.1311 0.18767   1
   2   3  11 21.4557 0.72626   1
   3   3  11 67.7936 1.85872   1
   4   3  11 56.3526 1.58754   1
   5   3  11 80.2121 2.01580   1
   6   3  11 60.2521 1.56212   1
   7   3  11 1.54105 0.36071   1
   8   3  11 64.2534 3.80330   1
   9   3  11 10.5110 1.26303   1
  -3   4  11 35.8609 1.35905   1
  -2   4  11 62.3873 1.94417   1
  -1   4  11 110.513 2.92739   1
   0   4  11 56.3932 1.62767   1
   1   4  11 44.1054 1.25649   1
   2   4  11 8.10992 0.41183   1
   3   4  11 5.92460 0.34377   1
   4   4  11 6.57307 0.37387   1
   5   4  11 24.3145 0.72938   1
   6   4  11 -0.2331 0.16151   1
   7   4  11 49.7317 1.84686   1
   8   4  11 1.05638 0.49959   1
   9   4  11 2.13621 1.00760   1
  10   4  11 0.48510 0.80403   1
  -2   5  11 0.05263 0.29839   1
  -1   5  11 0.54061 0.26601   1
   0   5  11 2.29843 0.34706   1
   1   5  11 253.659 6.80503   1
   2   5  11 82.0505 2.42820   1
   3   5  11 0.16038 0.21439   1
   4   5  11 18.7892 0.69595   1
   5   5  11 0.85201 0.25070   1
   6   5  11 221.755 6.41243   1
   7   5  11 2.76530 0.58506   1
   8   5  11 58.3402 3.67679   1
   9   5  11 29.7356 3.04799   1
  -1   6  11 74.7678 3.06096   1
   0   6  11 -0.1056 0.29731   1
   1   6  11 1.40480 0.36334   1
   2   6  11 3.56582 0.35636   1
   3   6  11 190.559 4.51929   1
   4   6  11 25.1489 0.92662   1
   6   7  10 166.217 9.02766  -2
   5   6  11 166.217 9.02766   1
   6   6  11 33.4339 1.29761   1
   7   6  11 100.302 3.87961   1
   8   6  11 30.2330 2.27124   1
   9   6  11 125.201 7.05936   1
   0   7  11 131.655 4.46595   1
   1   7  11 12.6418 0.69673   1
   3   8  10 86.9492 6.42362  -2
   2   7  11 86.9492 6.42362   1
   4   8  10 32.5608 2.29464  -2
   3   7  11 32.5608 2.29464   1
   5   8  10 114.909 5.04927  -2
   4   7  11 114.909 5.04927   1
   5   7  11 0.61078 0.23393   1
   6   7  11 2.09532 0.40934   1
   7   7  11 77.8290 3.16517   1
   8   7  11 8.05791 1.16812   1
   9   7  11 52.4878 3.42590   1
   2   8  11 4.57365 0.55630   1
   4   9  10 117.659 6.19613  -2
   3   8  11 117.659 6.19613   1
   4   8  11 30.8765 1.17032   1
   5   8  11 181.807 4.29135   1
   6   8  11 92.0110 3.71460   1
   7   8  11 6.40127 0.74792   1
   8   8  11 116.451 5.19185   1
   4   9  11 141.319 4.17536   1
   5   9  11 64.3270 2.46521   1
   6   9  11 54.6769 2.16797   1
   7   9  11 18.1051 1.77545   1
  -3  -8  12 60.5790 4.83944   1
  -2  -8  12 25.6612 1.50163   1
  -5  -7  12 3.59670 1.15272   1
  -4  -7  12 2.53112 0.41606   1
  -3  -7  12 0.03841 0.27900   1
  -2  -7  12 33.8092 1.15283   1
  -1  -7  12 40.1671 1.31868   1
   0  -7  12 17.6851 0.64254   1
   1  -7  12 3.73953 0.38383   1
  -5  -6  12 16.0023 1.03307   1
  -4  -6  12 13.9675 0.77617   1
  -3  -6  12 9.51595 0.61959   1
  -2  -6  12 22.5260 0.88633   1
  -1  -6  12 6.69714 0.43879   1
   0  -6  12 41.6513 1.07138   1
   1  -6  12 2.88897 0.28628   1
   2  -6  12 81.2451 2.54263   1
   3  -6  12 28.0597 1.30416   1
  -6  -5  12 24.3194 1.34500   1
  -5  -5  12 -0.0743 0.36103   1
  -4  -5  12 0.51769 0.32644   1
  -3  -5  12 28.8162 1.10934   1
  -2  -5  12 1.01560 0.30730   1
  -1  -5  12 85.8941 2.24927   1
   0  -5  12 1.21340 0.24653   1
   1  -5  12 85.0695 2.12179   1
   2  -5  12 69.8119 2.08292   1
   3  -5  12 21.3592 0.87483   1
   4  -5  12 46.5748 1.84680   1
  -6  -4  12 51.4989 2.41530   1
  -5  -4  12 43.8294 1.69977   1
  -4  -4  12 38.9759 1.53964   1
  -3  -4  12 9.26408 0.65834   1
  -2  -4  12 151.239 4.04050   1
  -1  -4  12 2.28870 0.26968   1
   0  -4  12 33.1913 0.95269   1
   1  -4  12 46.0458 1.25535   1
   2  -4  12 154.285 3.88295   1
   3  -4  12 73.7767 2.05891   1
   4  -4  12 1.24907 0.34018   1
   5  -4  12 30.8403 1.43289   1
  -6  -3  12 13.3579 1.09157   1
  -5  -3  12 34.7382 1.45044   1
  -4  -3  12 22.7345 1.12130   1
  -3  -3  12 6.85392 0.59348   1
  -2  -3  12 6.22970 0.48518   1
  -1  -3  12 177.704 4.37853   1
   0  -3  12 36.2779 1.01572   1
   1  -3  12 1.42208 0.25008   1
   2  -3  12 5.74224 0.40565   1
   3  -3  12 128.025 3.28849   1
   4  -3  12 54.2870 1.59215   1
   5  -3  12 18.8025 0.99870   1
   6  -3  12 90.7442 3.27127   1
  -6  -2  12 3.85388 0.88996   1
  -5  -2  12 56.4710 2.08270   1
  -4  -2  12 94.6262 3.14664   1
  -3  -2  12 99.7883 3.25125   1
  -2  -2  12 68.7628 2.15431   1
  -1  -2  12 42.0599 1.30408   1
   0  -2  12 50.9227 1.32163   1
   1  -2  12 12.0420 0.50499   1
   2  -2  12 6.78479 0.40992   1
   3  -2  12 68.1660 1.87195   1
   4  -2  12 17.5777 0.68680   1
   5  -2  12 32.6332 1.23564   1
   6  -2  12 6.64772 0.55908   1
   7  -2  12 36.0750 2.14107   1
  -5  -1  12 29.0940 1.43927   1
  -4  -1  12 3.75159 0.50472   1
  -3  -1  12 70.5679 2.23680   1
  -2  -1  12 147.140 3.93201   1
  -1  -1  12 32.4550 1.06502   1
   0  -1  12 41.9913 1.19570   1
   1  -1  12 16.3286 0.63086   1
   2  -1  12 4.57672 0.33396   1
   3  -1  12 27.6087 0.84696   1
   4  -1  12 203.027 5.12469   1
   5  -1  12 14.6505 0.76260   1
   6  -1  12 7.22669 0.56465   1
   7  -1  12 72.5694 2.67054   1
  -5   0  12 82.8456 3.73274   1
  -4   0  12 7.96671 0.79072   1
  -3   0  12 25.0621 1.04227   1
  -2   0  12 4.81046 0.37351   1
  -1   0  12 7.45562 0.45207   1
   0   0  12 11.3432 0.51186   1
   1   0  12 82.8272 2.13508   1
   2   0  12 0.30423 0.21070   1
   3   0  12 0.96466 0.23480   1
   4   0  12 20.6605 0.80650   1
   5   0  12 6.71574 0.50903   1
   6   0  12 0.64261 0.30493   1
   7   0  12 -0.2766 0.30758   1
   8   0  12 0.68165 0.58043   1
  -4   1  12 18.3260 1.23276   1
  -3   1  12 -0.5876 0.31231   1
  -2   1  12 177.446 5.20773   1
  -1   1  12 7.08118 0.44581   1
   0   1  12 178.651 4.70868   1
   1   1  12 1.52529 0.26389   1
   2   1  12 214.977 4.93410   1
   3   1  12 3.97530 0.36738   1
   4   1  12 29.1465 0.98045   1
   5   1  12 0.85849 0.26717   1
   6   1  12 12.9382 0.70400   1
   7   1  12 51.8924 1.84802   1
   8   1  12 8.10454 0.97542   1
  -4   2  12 11.0344 1.26972   1
  -3   2  12 186.295 5.12859   1
  -2   2  12 30.8646 1.14131   1
  -1   2  12 174.037 4.76733   1
   0   2  12 271.806 7.21561   1
   1   2  12 165.329 4.14193   1
   2   2  12 153.348 3.66456   1
   3   2  12 417.457 10.8588   1
   4   2  12 4.62772 0.39129   1
   5   2  12 -0.2098 0.22636   1
   6   2  12 125.058 3.76820   1
   7   2  12 3.50784 0.30622   1
   8   2  12 122.745 5.28010   1
   9   2  12 7.31633 1.61643   1
  -3   3  12 12.7986 0.89670   1
  -2   3  12 177.283 4.90591   1
  -1   3  12 74.3436 2.24468   1
   0   3  12 6.71130 0.48413   1
   1   3  12 111.795 3.39815   1
   2   3  12 63.5573 1.67804   1
   3   3  12 530.371 12.0287   1
   4   3  12 61.0610 1.72410   1
   5   3  12 34.6315 1.02665   1
   6   3  12 42.6723 1.27634   1
   7   3  12 364.676 10.2669   1
   8   3  12 1.57691 0.52876   1
   9   3  12 101.764 5.74226   1
  -2   4  12 6.09965 0.51137   1
  -1   4  12 23.9503 0.92089   1
   0   4  12 19.2757 0.79254   1
   1   4  12 2.81919 0.33214   1
   2   4  12 5.17061 0.35547   1
   3   4  12 43.4128 1.16053   1
   4   4  12 0.56696 0.22183   1
   5   4  12 1.56499 0.24580   1
   7   5  11 17.4230 1.74541  -2
   6   4  12 17.4230 1.74541   1
   7   4  12 14.9650 1.21358   1
   8   4  12 150.170 8.33099   1
   9   4  12 2.89567 1.13647   1
  -1   5  12 8.92101 0.85856   1
   0   5  12 21.1771 1.05204   1
   1   5  12 9.26831 0.66414   1
   2   5  12 0.22408 0.28454   1
   3   5  12 108.760 2.88129   1
   4   5  12 35.5704 1.09674   1
   5   5  12 0.58104 0.25692   1
   7   6  11 31.5285 2.46673  -2
   6   5  12 31.5285 2.46673   1
   7   5  12 -0.4413 0.58788   1
   8   5  12 -0.0061 0.64672   1
   9   5  12 94.0135 7.66641   1
   0   6  12 -0.0172 0.50239   1
   1   6  12 18.8394 0.97757   1
   2   6  12 1.40679 0.36977   1
   3   6  12 0.20091 0.27093   1
   4   6  12 164.478 3.92554   1
   6   7  11 160.538 12.3735  -2
   5   6  12 160.538 12.3735   1
   7   7  11 54.8811 4.94573  -2
   6   6  12 54.8811 4.94573   1
   7   6  12 12.7327 1.12786   1
   8   6  12 12.0592 1.45659   1
   1   7  12 32.7541 1.75251   1
   2   7  12 3.15392 0.48706   1
   3   7  12 9.42254 0.59959   1
   5   8  11 74.1894 6.34874  -2
   4   7  12 74.1894 6.34874   1
   5   7  12 164.802 3.92738   1
   6   7  12 50.8598 2.02828   1
   7   7  12 60.9313 2.62547   1
   8   7  12 41.2507 2.89714   1
   3   8  12 34.3311 2.24507   1
   4   8  12 78.9307 2.43517   1
   5   8  12 10.6854 0.53351   1
   6   8  12 0.19816 0.40520   1
  -4  -6  13 20.5459 2.46595   1
  -3  -6  13 -0.0113 0.31889   1
  -2  -6  13 -0.0303 0.29617   1
  -1  -6  13 9.60051 0.69026   1
   0  -6  13 4.29536 0.32613   1
   1  -6  13 9.13232 0.55391   1
  -4  -5  13 20.6970 1.20547   1
  -3  -5  13 7.41945 0.61510   1
  -2  -5  13 0.02850 0.28196   1
  -1  -5  13 13.3414 0.67614   1
   0  -5  13 2.36088 0.27423   1
   1  -5  13 10.2162 0.50821   1
   2  -5  13 5.27181 0.48363   1
   3  -5  13 66.9684 2.39184   1
  -4  -4  13 11.2593 0.87423   1
  -3  -4  13 69.7172 2.42601   1
  -2  -4  13 1.32114 0.38192   1
  -1  -4  13 59.2243 1.63999   1
   0  -4  13 65.3554 1.66122   1
   1  -4  13 33.3190 0.99959   1
   2  -4  13 0.95542 0.28883   1
   3  -4  13 7.92442 0.51794   1
   4  -4  13 114.201 4.18111   1
  -5  -3  13 24.3238 1.99755   1
  -4  -3  13 33.7924 1.42434   1
  -3  -3  13 12.6176 0.80225   1
  -2  -3  13 195.523 5.55654   1
  -1  -3  13 52.6661 1.60211   1
   0  -3  13 70.0692 1.76915   1
   1  -3  13 101.449 2.63152   1
   2  -3  13 17.9911 0.72688   1
   3  -3  13 192.630 5.13326   1
   4  -3  13 0.68959 0.40184   1
   5  -3  13 140.821 5.24052   1
  -4  -2  13 7.62510 0.67437   1
  -3  -2  13 41.2481 1.60593   1
  -2  -2  13 90.5349 2.76491   1
  -1  -2  13 2.71226 0.31567   1
   0  -2  13 49.8077 1.40244   1
   1  -2  13 53.5760 1.41514   1
   2  -2  13 303.461 7.80689   1
   3  -2  13 -0.2795 0.23969   1
   4  -2  13 53.4879 1.87791   1
   5  -2  13 1.10078 0.39582   1
   6  -2  13 128.718 4.82672   1
  -4  -1  13 44.8662 1.91247   1
  -3  -1  13 7.45558 0.63356   1
  -2  -1  13 -0.0845 0.18764   1
  -1  -1  13 169.951 4.52348   1
   0  -1  13 33.9200 1.03424   1
   1  -1  13 26.8610 0.88806   1
   2  -1  13 0.48021 0.24665   1
   3  -1  13 18.5549 0.90773   1
   4  -1  13 5.41545 0.49040   1
   5  -1  13 0.11355 0.30134   1
   6  -1  13 30.2783 1.20616   1
   7  -1  13 66.5895 4.05516   1
  -4   0  13 7.26916 0.86055   1
  -3   0  13 3.22310 0.47227   1
  -2   0  13 3.58696 0.34306   1
  -1   0  13 11.9055 0.60346   1
   0   0  13 46.0306 1.42890   1
   1   0  13 29.0562 0.93426   1
   2   0  13 65.1271 1.77341   1
   3   0  13 271.965 7.74139   1
   4   0  13 4.89828 0.42910   1
   5   0  13 -0.0945 0.28355   1
   6   0  13 23.2877 1.03034   1
   7   0  13 17.9285 0.95871   1
  -3   1  13 93.4502 4.06472   1
  -2   1  13 119.907 3.66411   1
  -1   1  13 8.42903 0.57761   1
   0   1  13 3.45425 0.35397   1
   1   1  13 24.9109 0.84819   1
   2   1  13 36.2318 1.15644   1
   3   1  13 29.8646 1.01812   1
   4   1  13 9.30181 0.53332   1
   5   1  13 15.1501 0.76482   1
   6   1  13 16.1523 0.81447   1
   7   1  13 0.09414 0.41766   1
  -3   2  13 1.61667 0.48494   1
  -2   2  13 0.85321 0.29776   1
  -1   2  13 44.2938 1.48382   1
   0   2  13 30.4628 1.11706   1
   1   2  13 20.8797 0.86225   1
   2   2  13 179.395 4.50375   1
   3   2  13 9.58952 0.51555   1
   4   2  13 3.17218 0.35182   1
   5   2  13 35.5548 1.15953   1
   6   2  13 9.55230 0.68626   1
   7   2  13 41.6739 1.28709   1
   8   2  13 6.66930 0.79899   1
  -2   3  13 29.6826 1.30469   1
  -1   3  13 5.26471 0.47164   1
   0   3  13 16.7421 0.80542   1
   1   3  13 106.772 3.06148   1
   2   3  13 75.4959 2.07046   1
   3   3  13 35.9203 1.08908   1
   4   3  13 13.7228 0.64315   1
   5   3  13 -0.2287 0.24172   1
   6   3  13 74.4802 2.04227   1
   7   3  13 0.40250 0.40860   1
   9   4  12 248.695 12.0397  -2
   8   3  13 248.695 12.0397   1
  -1   4  13 8.44693 0.80127   1
   0   4  13 12.7093 0.70547   1
   1   4  13 18.8938 0.85473   1
   2   4  13 -0.2922 0.26964   1
   3   4  13 52.2335 1.56963   1
   4   4  13 10.5569 0.58747   1
   5   4  13 70.6892 1.99626   1
   6   4  13 25.5518 1.03850   1
   8   5  12 254.582 18.9172  -2
   7   4  13 254.582 18.9172   1
   9   5  12 65.4164 5.82990  -2
   8   4  13 65.4164 5.82990   1
   0   5  13 76.2796 3.60291   1
   1   5  13 2.08123 0.42395   1
   2   5  13 26.8101 1.19487   1
   3   5  13 -0.0163 0.27457   1
   4   5  13 0.73220 0.28749   1
   5   5  13 26.1428 0.96523   1
   7   6  12 72.1901 6.25316  -2
   6   5  13 72.1901 6.25316   1
   8   6  12 23.8695 3.00668  -2
   7   5  13 23.8695 3.00668   1
   8   5  13 94.9055 7.80189   1
   1   6  13 26.1722 1.70954   1
   2   6  13 3.60566 0.53112   1
   3   6  13 -0.0570 0.37239   1
   4   6  13 4.70913 0.42855   1
   5   6  13 -0.0763 0.26286   1
   6   6  13 6.98443 0.39804   1
   7   6  13 5.93954 1.08800   1
   4   7  13 10.1415 0.63091   1
   5   7  13 4.49851 0.39862   1
   6   7  13 9.21848 0.87321   1
  -2  -5  14 12.9669 0.81742   1
  -1  -5  14 2.66425 0.45360   1
   0  -5  14 0.04104 0.21307   1
   1  -5  14 6.71081 0.48322   1
  -3  -4  14 -0.2854 0.36253   1
  -2  -4  14 0.06502 0.36045   1
  -1  -4  14 25.7037 1.07230   1
   0  -4  14 0.22400 0.22334   1
   1  -4  14 8.70750 0.49570   1
   2  -4  14 1.44120 0.33103   1
   3  -4  14 20.9232 1.20307   1
  -3  -3  14 6.28495 0.76768   1
  -2  -3  14 25.8695 1.22600   1
  -1  -3  14 -0.1907 0.20929   1
   0  -3  14 35.7792 1.10059   1
   1  -3  14 62.3686 1.63219   1
   2  -3  14 77.7390 1.98523   1
   3  -3  14 36.8299 1.58377   1
   4  -3  14 6.33656 0.87874   1
  -3  -2  14 135.233 5.32488   1
  -2  -2  14 1.53185 0.39380   1
  -1  -2  14 49.4143 1.53823   1
   0  -2  14 13.5869 0.76005   1
   1  -2  14 77.3845 2.07211   1
   2  -2  14 80.0209 2.15836   1
   3  -2  14 11.3677 0.72488   1
   4  -2  14 23.0737 1.21616   1
   5  -2  14 50.3279 3.11346   1
  -3  -1  14 41.5656 2.03422   1
  -2  -1  14 87.0680 2.71585   1
  -1  -1  14 0.21906 0.25323   1
   0  -1  14 147.805 4.00508   1
   1  -1  14 14.8825 0.65838   1
   2  -1  14 134.002 3.70079   1
   3  -1  14 22.5351 1.05123   1
   4  -1  14 4.30583 0.49983   1
   5  -1  14 0.53848 0.48590   1
  -2   0  14 22.8939 0.94560   1
  -1   0  14 95.2344 2.69006   1
   0   0  14 44.5717 1.43052   1
   1   0  14 63.1251 1.87137   1
   2   0  14 73.5698 2.17653   1
   3   0  14 215.363 6.23155   1
   4   0  14 6.83008 0.58386   1
   5   0  14 9.39329 0.63508   1
   6   0  14 3.56921 0.57261   1
  -2   1  14 70.8767 2.53233   1
  -1   1  14 16.4321 0.85839   1
   0   1  14 15.6156 0.82236   1
   1   1  14 9.65387 0.54714   1
   2   1  14 2.88207 0.35764   1
   3   1  14 52.3403 1.55872   1
   4   1  14 4.35349 0.44350   1
   5   1  14 1.85359 0.36800   1
   6   1  14 7.40109 0.70242   1
  -1   2  14 0.43337 0.40538   1
   0   2  14 1.40898 0.34712   1
   1   2  14 45.9251 1.52983   1
   2   2  14 0.23428 0.26658   1
   3   2  14 8.02545 0.51472   1
   4   2  14 13.2981 0.66000   1
   5   2  14 3.76469 0.42322   1
   6   2  14 19.2222 1.06207   1
   7   2  14 0.25839 0.31089   1
  -1   3  14 0.97207 1.02353   1
   0   3  14 62.4919 2.32320   1
   1   3  14 22.7167 0.96655   1
   2   3  14 12.7646 0.63646   1
   3   3  14 87.5994 2.38277   1
   4   3  14 1.46458 0.35041   1
   5   3  14 126.352 3.48471   1
   6   3  14 15.2308 0.78799   1
   7   3  14 96.2976 2.83919   1
   1   4  14 15.7846 1.32797   1
   2   4  14 47.6070 1.96101   1
   3   4  14 27.1875 1.10231   1
   4   4  14 185.313 4.71838   1
   5   4  14 0.03638 0.29644   1
   6   4  14 75.5194 2.61204   1
   2   5  14 1.80561 0.74952   1
   3   5  14 19.0829 0.98287   1
   4   5  14 15.6175 0.77255   1
   5   5  14 85.3876 2.52166   1
   6   5  14 16.9555 0.81223   1
   0  -3  15 4.17918 0.46437   1
   1  -3  15 34.8868 1.36257   1
  -1  -2  15 1.78669 0.34623   1
   0  -2  15 19.4389 0.89846   1
   1  -2  15 7.30211 0.55525   1
   2  -2  15 80.1058 2.79515   1
   3  -2  15 70.8350 3.91349   1
  -1  -1  15 94.6874 2.86135   1
   0  -1  15 2.26189 0.44530   1
   1  -1  15 47.7910 1.81434   1
   2  -1  15 18.3036 1.02671   1
   3  -1  15 4.64593 0.65415   1
   4  -1  15 0.28358 0.65916   1
  -1   0  15 51.3691 2.43170   1
   0   0  15 187.746 5.77202   1
   1   0  15 58.6152 2.13583   1
   2   0  15 83.0758 2.84353   1
   3   0  15 19.8941 1.08835   1
   4   0  15 -0.2418 0.50647   1
   0   1  15 22.6087 1.21574   1
   1   1  15 83.0942 2.89656   1
   2   1  15 258.692 7.32101   1
   3   1  15 21.0694 1.11479   1
   4   1  15 11.8967 1.02051   1
   5   1  15 4.58102 0.87574   1
   1   2  15 13.2674 0.97531   1
   2   2  15 -0.2665 0.33752   1
   3   2  15 1.57625 0.43056   1
   4   2  15 10.7971 0.76071   1
   5   2  15 10.1757 0.95870   1
   2   3  15 0.56060 0.50219   1
   3   3  15 -0.1676 0.39020   1
   4   3  15 23.6730 1.60669   1
   0   0   0    0.00    0.00   0
;
_shelx_hkl_checksum              70268
#END Tags that were not found in dictionaries
loop_
_space_group_symop_operation_xyz
'x, y, z'
'-x, -y, -z'
loop_
_atom_site_label
_atom_site_type_symbol
_atom_site_fract_x
_atom_site_fract_y
_atom_site_fract_z
_atom_site_U_iso_or_equiv
_atom_site_adp_type
_atom_site_occupancy
_atom_site_site_symmetry_order
_atom_site_calc_flag
_atom_site_refinement_flags_posn
_atom_site_refinement_flags_adp
_atom_site_refinement_flags_occupancy
_atom_site_disorder_assembly
_atom_site_disorder_group
S1 S 0.76746(4) 0.20591(4) 0.36865(3) 0.02063(10) Uani 1 1 d . . . . .
S2 S 0.76913(4) 0.36521(4) 0.17194(3) 0.02244(11) Uani 1 1 d . . . . .
N1 N 0.85416(15) 0.21395(14) 0.24030(10) 0.0221(3) Uani 1 1 d . . . . .
O1 O 0.83688(13) 0.05212(12) 0.38541(9) 0.0247(2) Uani 1 1 d . . . . .
O2 O 0.60210(12) 0.29011(12) 0.37464(9) 0.0262(2) Uani 1 1 d . . . . .
O3 O 0.69584(13) 0.48867(12) 0.25074(9) 0.0272(2) Uani 1 1 d . . . . .
O4 O 0.89046(13) 0.35429(13) 0.08473(9) 0.0281(3) Uani 1 1 d . . . . .
C1 C 0.9262(2) -0.1384(2) 0.13592(15) 0.0352(4) Uani 1 1 d . . . . .
H1 H 0.9081 -0.2178 0.1170 0.042 Uiso 1 1 calc R U . . .
C2 C 0.94881(19) -0.03958(18) 0.15950(13) 0.0278(3) Uani 1 1 d . . . . .
C3 C 0.99011(18) 0.07759(17) 0.17937(12) 0.0235(3) Uani 1 1 d . . . . .
H3 H 1.0162 0.1083 0.1053 0.028 Uiso 1 1 calc R U . . .
C4 C 1.13693(17) 0.02523(17) 0.22957(12) 0.0230(3) Uani 1 1 d . . . . .
C5 C 1.21242(19) 0.11194(17) 0.22230(13) 0.0267(3) Uani 1 1 d . . . . .
H5 H 1.1693 0.2032 0.1893 0.032 Uiso 1 1 calc R U . . .
C6 C 1.3504(2) 0.06633(19) 0.26291(14) 0.0300(4) Uani 1 1 d . . . . .
H6 H 1.4002 0.1270 0.2577 0.036 Uiso 1 1 calc R U . . .
C7 C 1.41654(19) -0.06751(19) 0.31116(13) 0.0290(3) Uani 1 1 d . . . . .
C8 C 1.34060(19) -0.15369(18) 0.31740(13) 0.0279(3) Uani 1 1 d . . . . .
H8 H 1.3842 -0.2454 0.3497 0.033 Uiso 1 1 calc R U . . .
C9 C 1.20249(18) -0.10854(17) 0.27739(13) 0.0250(3) Uani 1 1 d . . . . .
H9 H 1.1526 -0.1692 0.2827 0.030 Uiso 1 1 calc R U . . .
C10 C 1.5671(2) -0.1196(2) 0.35517(17) 0.0406(4) Uani 1 1 d . . . . .
H10A H 1.6083 -0.0495 0.3394 0.061 Uiso 1 1 calc R U . . .
H10B H 1.6438 -0.2170 0.3201 0.061 Uiso 1 1 calc R U . . .
H10C H 1.5466 -0.1260 0.4346 0.061 Uiso 1 1 calc R U . . .
C11 C 0.82963(18) 0.29199(16) 0.45666(12) 0.0209(3) Uani 1 1 d . . . . .
C12 C 0.73044(18) 0.43600(17) 0.50042(12) 0.0236(3) Uani 1 1 d . . . . .
H12 H 0.6305 0.4905 0.4804 0.028 Uiso 1 1 calc R U . . .
C13 C 0.78006(19) 0.49851(17) 0.57379(12) 0.0254(3) Uani 1 1 d . . . . .
H13 H 0.7125 0.5961 0.6052 0.030 Uiso 1 1 calc R U . . .
C14 C 0.92791(19) 0.41994(17) 0.60214(12) 0.0238(3) Uani 1 1 d . . . . .
C15 C 1.02473(19) 0.27637(17) 0.55675(13) 0.0246(3) Uani 1 1 d . . . . .
H15 H 1.1255 0.2223 0.5756 0.029 Uiso 1 1 calc R U . . .
C16 C 0.97671(18) 0.21068(17) 0.48447(12) 0.0233(3) Uani 1 1 d . . . . .
H16 H 1.0430 0.1122 0.4546 0.028 Uiso 1 1 calc R U . . .
C17 C 0.9833(2) 0.48862(19) 0.68000(13) 0.0299(4) Uani 1 1 d . . . . .
H17A H 1.0212 0.4226 0.7382 0.045 Uiso 0.5 1 d R U P A 1
H17B H 0.8963 0.5832 0.7124 0.045 Uiso 0.5 1 d R U P A 1
H17C H 1.0683 0.5048 0.6400 0.045 Uiso 0.5 1 d R U P A 1
H17D H 0.9801 0.5854 0.6536 0.045(12) Uiso 0.5 1 d R . P B 2
H17E H 1.0989 0.4370 0.6801 0.047(12) Uiso 0.5 1 d R . P B 2
H17F H 0.9304 0.4961 0.7461 0.061(15) Uiso 0.5 1 d R . P B 2
C18 C 0.62602(18) 0.34607(17) 0.11498(12) 0.0228(3) Uani 1 1 d . . . . .
C19 C 0.6734(2) 0.23267(19) 0.03522(14) 0.0301(4) Uani 1 1 d . . . . .
H19 H 0.7814 0.1676 0.0111 0.036 Uiso 1 1 calc R U . . .
C20 C 0.5614(2) 0.21547(19) -0.00878(14) 0.0305(4) Uani 1 1 d . . . . .
H20 H 0.5931 0.1360 -0.0616 0.037 Uiso 1 1 calc R U . . .
C21 C 0.40327(19) 0.31276(19) 0.02309(12) 0.0266(3) Uani 1 1 d . . . . .
C22 C 0.35915(19) 0.4286(2) 0.10039(13) 0.0307(4) Uani 1 1 d . . . . .
H22 H 0.2516 0.4979 0.1209 0.037 Uiso 1 1 calc R U . . .
C23 C 0.46967(19) 0.44487(18) 0.14824(13) 0.0280(3) Uani 1 1 d . . . . .
H23 H 0.4383 0.5224 0.2027 0.034 Uiso 1 1 calc R U . . .
C24 C 0.2850(2) 0.2911(2) -0.02740(14) 0.0339(4) Uani 1 1 d . . . . .
H24A H 0.2987 0.3062 -0.1058 0.051 Uiso 1 1 calc R U . . .
H24B H 0.1792 0.3622 0.0084 0.051 Uiso 1 1 calc R U . . .
H24C H 0.3000 0.1906 -0.0177 0.051 Uiso 1 1 calc R U . . .
loop_
_atom_site_aniso_label
_atom_site_aniso_U_11
_atom_site_aniso_U_22
_atom_site_aniso_U_33
_atom_site_aniso_U_23
_atom_site_aniso_U_13
_atom_site_aniso_U_12
S1 0.01862(19) 0.02061(19) 0.02204(18) -0.00167(13) -0.00404(14) -0.00846(15)
S2 0.0214(2) 0.02250(19) 0.02278(19) -0.00030(14) -0.00542(14) -0.00923(15)
N1 0.0196(6) 0.0215(6) 0.0200(6) -0.0026(5) -0.0039(5) -0.0052(5)
O1 0.0258(6) 0.0207(5) 0.0278(5) 0.0003(4) -0.0058(4) -0.0107(4)
O2 0.0190(5) 0.0289(6) 0.0290(6) -0.0026(4) -0.0045(4) -0.0097(5)
O3 0.0287(6) 0.0221(5) 0.0289(6) -0.0023(4) -0.0079(5) -0.0092(5)
O4 0.0249(6) 0.0313(6) 0.0291(6) 0.0035(5) -0.0047(5) -0.0139(5)
C1 0.0336(9) 0.0352(9) 0.0393(9) -0.0084(7) -0.0074(8) -0.0176(8)
C2 0.0219(8) 0.0295(8) 0.0276(8) -0.0061(6) -0.0050(6) -0.0080(7)
C3 0.0206(7) 0.0227(7) 0.0228(7) -0.0049(6) -0.0024(6) -0.0068(6)
C4 0.0188(7) 0.0236(7) 0.0228(7) -0.0053(6) -0.0014(6) -0.0073(6)
C5 0.0262(8) 0.0228(7) 0.0291(8) -0.0023(6) -0.0041(6) -0.0099(6)
C6 0.0272(8) 0.0298(8) 0.0351(9) -0.0047(7) -0.0043(7) -0.0154(7)
C7 0.0213(8) 0.0332(9) 0.0281(8) -0.0057(6) -0.0046(6) -0.0088(7)
C8 0.0249(8) 0.0268(8) 0.0269(8) 0.0006(6) -0.0047(6) -0.0080(6)
C9 0.0218(8) 0.0248(7) 0.0270(7) -0.0021(6) -0.0021(6) -0.0104(6)
C10 0.0274(9) 0.0457(11) 0.0465(11) -0.0032(8) -0.0145(8) -0.0126(8)
C11 0.0217(7) 0.0221(7) 0.0193(6) -0.0010(5) -0.0031(5) -0.0106(6)
C12 0.0202(7) 0.0227(7) 0.0249(7) -0.0010(6) -0.0025(6) -0.0080(6)
C13 0.0259(8) 0.0221(7) 0.0255(7) -0.0042(6) -0.0013(6) -0.0100(6)
C14 0.0288(8) 0.0257(7) 0.0211(7) 0.0010(6) -0.0041(6) -0.0163(6)
C15 0.0239(8) 0.0255(8) 0.0252(7) 0.0014(6) -0.0078(6) -0.0111(6)
C16 0.0233(8) 0.0212(7) 0.0232(7) -0.0009(5) -0.0049(6) -0.0084(6)
C17 0.0361(9) 0.0323(8) 0.0268(8) -0.0030(6) -0.0068(7) -0.0199(7)
C18 0.0212(7) 0.0261(7) 0.0208(7) 0.0015(6) -0.0054(6) -0.0103(6)
C19 0.0224(8) 0.0318(8) 0.0306(8) -0.0056(7) -0.0051(6) -0.0078(7)
C20 0.0305(9) 0.0315(8) 0.0288(8) -0.0038(6) -0.0075(7) -0.0131(7)
C21 0.0273(8) 0.0344(8) 0.0225(7) 0.0080(6) -0.0077(6) -0.0172(7)
C22 0.0196(8) 0.0375(9) 0.0284(8) 0.0006(7) -0.0034(6) -0.0081(7)
C23 0.0255(8) 0.0299(8) 0.0239(7) -0.0018(6) -0.0045(6) -0.0089(7)
C24 0.0336(9) 0.0451(10) 0.0325(9) 0.0090(7) -0.0132(7) -0.0241(8)
loop_
_atom_type_symbol
_atom_type_description
_atom_type_scat_dispersion_real
_atom_type_scat_dispersion_imag
_atom_type_scat_source
C C 0.0033 0.0016 'International Tables Vol C Tables 4.2.6.8 and 6.1.1.4'
H H 0.0000 0.0000 'International Tables Vol C Tables 4.2.6.8 and 6.1.1.4'
N N 0.0061 0.0033 'International Tables Vol C Tables 4.2.6.8 and 6.1.1.4'
O O 0.0106 0.0060 'International Tables Vol C Tables 4.2.6.8 and 6.1.1.4'
S S 0.1246 0.1234 'International Tables Vol C Tables 4.2.6.8 and 6.1.1.4'
loop_
_geom_angle_atom_site_label_1
_geom_angle_atom_site_label_2
_geom_angle_atom_site_label_3
_geom_angle
O1 S1 O2 120.54(7)
O1 S1 N1 104.23(6)
O2 S1 N1 107.55(7)
O1 S1 C11 108.54(7)
O2 S1 C11 109.40(7)
N1 S1 C11 105.51(7)
O3 S2 O4 119.87(7)
O3 S2 N1 107.02(6)
O4 S2 N1 104.79(7)
O3 S2 C18 109.71(7)
O4 S2 C18 108.62(7)
N1 S2 C18 105.88(7)
C3 N1 S2 118.87(10)
C3 N1 S1 120.40(10)
S2 N1 S1 119.80(7)
C1 C2 C3 174.21(18)
C2 C3 N1 112.83(13)
C2 C3 C4 113.71(13)
N1 C3 C4 112.69(12)
C9 C4 C5 118.90(14)
C9 C4 C3 122.74(14)
C5 C4 C3 118.29(14)
C6 C5 C4 120.61(15)
C5 C6 C7 120.77(15)
C8 C7 C6 118.12(15)
C8 C7 C10 120.28(16)
C6 C7 C10 121.59(16)
C9 C8 C7 121.40(15)
C8 C9 C4 120.20(15)
C16 C11 C12 121.41(14)
C16 C11 S1 118.30(11)
C12 C11 S1 120.23(12)
C13 C12 C11 118.87(14)
C12 C13 C14 120.90(14)
C15 C14 C13 118.93(14)
C15 C14 C17 120.08(15)
C13 C14 C17 121.00(14)
C16 C15 C14 121.22(15)
C15 C16 C11 118.67(14)
C23 C18 C19 121.18(15)
C23 C18 S2 119.94(12)
C19 C18 S2 118.86(12)
C20 C19 C18 119.22(15)
C19 C20 C21 120.97(15)
C20 C21 C22 118.67(15)
C20 C21 C24 119.39(15)
C22 C21 C24 121.94(15)
C23 C22 C21 121.17(15)
C18 C23 C22 118.72(15)
loop_
_geom_bond_atom_site_label_1
_geom_bond_atom_site_label_2
_geom_bond_distance
S1 O1 1.4277(11)
S1 O2 1.4293(11)
S1 N1 1.6982(13)
S1 C11 1.7565(15)
S2 O3 1.4260(11)
S2 O4 1.4343(12)
S2 N1 1.6793(13)
S2 C18 1.7580(16)
N1 C3 1.5074(18)
C1 C2 1.184(3)
C2 C3 1.471(2)
C3 C4 1.522(2)
C4 C9 1.391(2)
C4 C5 1.392(2)
C5 C6 1.390(2)
C6 C7 1.395(2)
C7 C8 1.391(2)
C7 C10 1.512(2)
C8 C9 1.388(2)
C11 C16 1.390(2)
C11 C12 1.392(2)
C12 C13 1.388(2)
C13 C14 1.396(2)
C14 C15 1.392(2)
C14 C17 1.506(2)
C15 C16 1.389(2)
C18 C23 1.382(2)
C18 C19 1.388(2)
C19 C20 1.383(2)
C20 C21 1.390(2)
C21 C22 1.391(2)
C21 C24 1.506(2)
C22 C23 1.391(2)
loop_
_geom_torsion_atom_site_label_1
_geom_torsion_atom_site_label_2
_geom_torsion_atom_site_label_3
_geom_torsion_atom_site_label_4
_geom_torsion
O3 S2 N1 C3 -155.88(11)
O4 S2 N1 C3 -27.60(13)
C18 S2 N1 C3 87.13(12)
O3 S2 N1 S1 35.11(10)
O4 S2 N1 S1 163.39(8)
C18 S2 N1 S1 -81.88(9)
O1 S1 N1 C3 -8.30(13)
O2 S1 N1 C3 -137.36(11)
C11 S1 N1 C3 105.95(12)
O1 S1 N1 S2 160.53(8)
O2 S1 N1 S2 31.48(10)
C11 S1 N1 S2 -85.22(10)
S2 N1 C3 C2 -107.10(14)
S1 N1 C3 C2 61.84(16)
S2 N1 C3 C4 122.43(12)
S1 N1 C3 C4 -68.63(16)
C2 C3 C4 C9 -15.4(2)
N1 C3 C4 C9 114.62(16)
C2 C3 C4 C5 161.39(14)
N1 C3 C4 C5 -68.60(18)
C9 C4 C5 C6 -0.5(2)
C3 C4 C5 C6 -177.42(14)
C4 C5 C6 C7 0.4(2)
C5 C6 C7 C8 0.0(2)
C5 C6 C7 C10 179.60(16)
C6 C7 C8 C9 -0.3(2)
C10 C7 C8 C9 -179.86(15)
C7 C8 C9 C4 0.1(2)
C5 C4 C9 C8 0.3(2)
C3 C4 C9 C8 177.03(14)
O1 S1 C11 C16 30.52(14)
O2 S1 C11 C16 163.86(12)
N1 S1 C11 C16 -80.70(13)
O1 S1 C11 C12 -146.89(12)
O2 S1 C11 C12 -13.56(15)
N1 S1 C11 C12 101.88(13)
C16 C11 C12 C13 -0.4(2)
S1 C11 C12 C13 176.95(11)
C11 C12 C13 C14 1.1(2)
C12 C13 C14 C15 -0.9(2)
C12 C13 C14 C17 178.76(14)
C13 C14 C15 C16 -0.1(2)
C17 C14 C15 C16 -179.76(14)
C14 C15 C16 C11 0.8(2)
C12 C11 C16 C15 -0.6(2)
S1 C11 C16 C15 -177.97(11)
O3 S2 C18 C23 0.63(15)
O4 S2 C18 C23 -132.13(13)
N1 S2 C18 C23 115.79(13)
O3 S2 C18 C19 179.34(12)
O4 S2 C18 C19 46.58(15)
N1 S2 C18 C19 -65.50(14)
C23 C18 C19 C20 -2.3(3)
S2 C18 C19 C20 179.01(13)
C18 C19 C20 C21 2.1(3)
C19 C20 C21 C22 0.1(2)
C19 C20 C21 C24 179.51(16)
C20 C21 C22 C23 -2.3(2)
C24 C21 C22 C23 178.35(15)
C19 C18 C23 C22 0.2(2)
S2 C18 C23 C22 178.88(12)
C21 C22 C23 C18 2.1(2)
