#------------------------------------------------------------------------------
#$Date: 2016-02-18 17:37:37 +0200 (Thu, 18 Feb 2016) $
#$Revision: 176729 $
#$URL: svn://www.crystallography.net/cod/cif/1/51/78/1517816.cif $
#------------------------------------------------------------------------------
#
# This file is available in the Crystallography Open Database (COD),
# http://www.crystallography.net/
#
# All data on this site have been placed in the public domain by the
# contributors.
#
data_1517816
loop_
_publ_author_name
'Antolak, Stephanie A.'
'Yao, Zhong-Ke'
'Richoux, Gary M.'
'Slebodnick, Carla'
'Carlier, Paul R.'
_publ_section_title
;
 Enantioselective Deprotonative Ring Contraction of
 N1-Methyl-N4-Boc-benzo[e][1,4]diazepine-2,5-diones.
;
_journal_issue                   19
_journal_name_full               'Organic letters'
_journal_page_first              5204
_journal_page_last               5207
_journal_paper_doi               10.1021/ol502586n
_journal_volume                  16
_journal_year                    2014
_chemical_formula_moiety         'C13 H16 N2 O2 S'
_chemical_formula_sum            'C13 H16 N2 O2 S'
_chemical_formula_weight         264.34
_space_group_crystal_system      monoclinic
_space_group_IT_number           4
_space_group_name_Hall           'P 2yb'
_space_group_name_H-M_alt        'P 1 21 1'
_symmetry_space_group_name_Hall  'P 2yb'
_symmetry_space_group_name_H-M   'P 1 21 1'
_atom_sites_solution_hydrogens   mixed
_audit_creation_date             2014-08-18
_audit_creation_method
;
Olex2 1.2
(compiled 2014.07.22 svn.r2960 for OlexSys, GUI svn.r4862)
;
_cell_angle_alpha                90
_cell_angle_beta                 100.0449(8)
_cell_angle_gamma                90
_cell_formula_units_Z            4
_cell_length_a                   8.97246(7)
_cell_length_b                   14.38622(13)
_cell_length_c                   10.17414(8)
_cell_measurement_reflns_used    17150
_cell_measurement_temperature    99.90(14)
_cell_measurement_theta_max      74.7370
_cell_measurement_theta_min      3.0540
_cell_volume                     1293.145(19)
_computing_cell_refinement
;
CrysAlisPro, Agilent Technologies,
Version 1.171.37.31 (release 14-01-2014 CrysAlis171 .NET)
(compiled Jan 14 2014,18:38:05)
;
_computing_data_collection
;
CrysAlisPro, Agilent Technologies,
Version 1.171.37.31 (release 14-01-2014 CrysAlis171 .NET)
(compiled Jan 14 2014,18:38:05)
;
_computing_data_reduction
;
CrysAlisPro, Agilent Technologies,
Version 1.171.37.31 (release 14-01-2014 CrysAlis171 .NET)
(compiled Jan 14 2014,18:38:05)
;
_computing_molecular_graphics    'Olex2 (Dolomanov et al., 2009)'
_computing_publication_material  'Olex2 (Dolomanov et al., 2009)'
_computing_structure_refinement  'ShelXL (Sheldrick, 2008)'
_diffrn_ambient_environment      N~2~
_diffrn_ambient_temperature      99.90(14)
_diffrn_detector                 'CCD plate'
_diffrn_detector_area_resol_mean 4.1587
_diffrn_detector_type            Onyx
_diffrn_measured_fraction_theta_full 0.999
_diffrn_measured_fraction_theta_max 0.998
_diffrn_measurement_details
;
  1 omega -118.00  -73.00   1.0000    1.0000
omega____ theta____ kappa____ phi______ frames
    -      -41.9419 -125.0000 -150.0000 45

  2 omega  -98.00   -2.00   1.0000    1.0000
omega____ theta____ kappa____ phi______ frames
    -      -41.9419  125.0000 -143.0000 96

  3 omega   12.00  117.00   1.0000    1.0000
omega____ theta____ kappa____ phi______ frames
    -       41.9419   37.0000  150.0000 105

  4 omega   15.00  115.00   1.0000    1.0000
omega____ theta____ kappa____ phi______ frames
    -       41.9419   57.0000   30.0000 100

  5 omega   15.00  115.00   1.0000    1.0000
omega____ theta____ kappa____ phi______ frames
    -       41.9419   57.0000  150.0000 100

  6 omega   22.00  104.00   1.0000    2.0000
omega____ theta____ kappa____ phi______ frames
    -      107.0000  -94.0000 -120.0000 82

  7 omega   30.00   69.00   1.0000    2.0000
omega____ theta____ kappa____ phi______ frames
    -      107.0000  -30.0000  -60.0000 39

  8 omega   30.00   69.00   1.0000    2.0000
omega____ theta____ kappa____ phi______ frames
    -      107.0000  -30.0000  120.0000 39

  9 omega   33.00   77.00   1.0000    2.0000
omega____ theta____ kappa____ phi______ frames
    -      107.0000  -45.0000   30.0000 44

 10 omega   22.00   96.00   1.0000    2.0000
omega____ theta____ kappa____ phi______ frames
    -      107.0000  -94.0000  -30.0000 74

 11 omega   77.00  178.00   1.0000    2.0000
omega____ theta____ kappa____ phi______ frames
    -      107.0000   30.0000   30.0000 101

 12 omega   33.00  136.00   1.0000    2.0000
omega____ theta____ kappa____ phi______ frames
    -      107.0000  -61.0000  120.0000 103

 13 omega   73.00  178.00   1.0000    2.0000
omega____ theta____ kappa____ phi______ frames
    -      107.0000   77.0000 -180.0000 105

 14 omega   30.00   69.00   1.0000    2.0000
omega____ theta____ kappa____ phi______ frames
    -      107.0000  -30.0000 -120.0000 39

 15 omega   27.00  115.00   1.0000    2.0000
omega____ theta____ kappa____ phi______ frames
    -      107.0000 -111.0000   60.0000 88

 16 omega   22.00  109.00   1.0000    2.0000
omega____ theta____ kappa____ phi______ frames
    -      107.0000  -94.0000  150.0000 87

 17 omega   33.00   77.00   1.0000    2.0000
omega____ theta____ kappa____ phi______ frames
    -      107.0000  -45.0000 -120.0000 44

 18 omega   27.00  101.00   1.0000    2.0000
omega____ theta____ kappa____ phi______ frames
    -      107.0000 -111.0000  -60.0000 74

 19 omega   79.00  178.00   1.0000    2.0000
omega____ theta____ kappa____ phi______ frames
    -      107.0000   45.0000   90.0000 99

 20 omega   27.00  115.00   1.0000    2.0000
omega____ theta____ kappa____ phi______ frames
    -      107.0000 -111.0000 -120.0000 88

 21 omega   27.00  115.00   1.0000    2.0000
omega____ theta____ kappa____ phi______ frames
    -      107.0000 -111.0000  150.0000 88

 22 omega   30.00   69.00   1.0000    2.0000
omega____ theta____ kappa____ phi______ frames
    -      107.0000  -30.0000   30.0000 39

 23 omega   33.00   77.00   1.0000    2.0000
omega____ theta____ kappa____ phi______ frames
    -      107.0000  -45.0000 -150.0000 44

 24 omega   77.00  178.00   1.0000    2.0000
omega____ theta____ kappa____ phi______ frames
    -      107.0000   30.0000   60.0000 101

 25 omega   28.00  141.00   1.0000    2.0000
omega____ theta____ kappa____ phi______ frames
    -      107.0000  -77.0000  -30.0000 113

 26 omega   27.00  115.00   1.0000    2.0000
omega____ theta____ kappa____ phi______ frames
    -      107.0000 -111.0000   90.0000 88

 27 omega -117.00  -62.00   1.0000    1.0000
omega____ theta____ kappa____ phi______ frames
    -      -41.9419 -145.0000  -28.0000 55

 28 omega   15.00  115.00   1.0000    1.0000
omega____ theta____ kappa____ phi______ frames
    -       41.9419   57.0000  -90.0000 100

 29 omega    8.00  120.00   1.0000    1.0000
omega____ theta____ kappa____ phi______ frames
    -       41.9419   77.0000  -30.0000 112

 30 omega   15.00  115.00   1.0000    1.0000
omega____ theta____ kappa____ phi______ frames
    -       41.9419   57.0000 -150.0000 100

 31 omega    2.00   98.00   1.0000    1.0000
omega____ theta____ kappa____ phi______ frames
    -       41.9419 -125.0000  120.0000 96

 32 omega   73.00  119.00   1.0000    1.0000
omega____ theta____ kappa____ phi______ frames
    -       41.9419  125.0000  -90.0000 46

 33 omega   77.00  118.00   1.0000    2.0000
omega____ theta____ kappa____ phi______ frames
    -      107.0000   30.0000  -60.0000 41
;
_diffrn_measurement_device       'four-circle diffractometer'
_diffrn_measurement_device_type  'Xcalibur, Onyx, Nova'
_diffrn_measurement_method       '\w scans'
_diffrn_orient_matrix_UB_11      0.0123373000
_diffrn_orient_matrix_UB_12      -0.1066618000
_diffrn_orient_matrix_UB_13      -0.0067827000
_diffrn_orient_matrix_UB_21      0.1645399000
_diffrn_orient_matrix_UB_22      0.0051641000
_diffrn_orient_matrix_UB_23      0.0749156000
_diffrn_orient_matrix_UB_31      -0.0564249000
_diffrn_orient_matrix_UB_32      -0.0083131000
_diffrn_orient_matrix_UB_33      0.1340745000
_diffrn_radiation_monochromator  mirror
_diffrn_radiation_probe          x-ray
_diffrn_radiation_type           CuK\a
_diffrn_radiation_wavelength     1.54184
_diffrn_reflns_av_R_equivalents  0.0348
_diffrn_reflns_av_unetI/netI     0.0244
_diffrn_reflns_Laue_measured_fraction_full 0.999
_diffrn_reflns_Laue_measured_fraction_max 0.998
_diffrn_reflns_limit_h_max       11
_diffrn_reflns_limit_h_min       -11
_diffrn_reflns_limit_k_max       17
_diffrn_reflns_limit_k_min       -17
_diffrn_reflns_limit_l_max       12
_diffrn_reflns_limit_l_min       -10
_diffrn_reflns_number            20608
_diffrn_reflns_point_group_measured_fraction_full 0.999
_diffrn_reflns_point_group_measured_fraction_max 0.998
_diffrn_reflns_theta_full        67.684
_diffrn_reflns_theta_max         74.767
_diffrn_reflns_theta_min         4.413
_diffrn_source                   'sealed X-ray tube'
_diffrn_source_type              'Nova (Cu) X-ray Source'
_exptl_absorpt_coefficient_mu    2.197
_exptl_absorpt_correction_T_max  0.840
_exptl_absorpt_correction_T_min  0.624
_exptl_absorpt_correction_type   gaussian
_exptl_absorpt_process_details
;
CrysAlisPro, Agilent Technologies,
Version 1.171.37.31 (release 14-01-2014 CrysAlis171 .NET)
(compiled Jan 14 2014,18:38:05)
Numerical absorption correction based on gaussian integration over
            a multifaceted crystal model
Empirical absorption correction using spherical harmonics,
 implemented in SCALE3 ABSPACK scaling algorithm.
;
_exptl_crystal_colour            colourless
_exptl_crystal_colour_primary    colourless
_exptl_crystal_density_diffrn    1.358
_exptl_crystal_description       irregular
_exptl_crystal_F_000             560
_exptl_crystal_recrystallization_method
'Crystallized from H2O / ethanol / ethyl acetate. Formed giant plated. Cut off an irregular shaped chunk from one of the plates.'
_exptl_crystal_size_max          0.3378
_exptl_crystal_size_mid          0.269
_exptl_crystal_size_min          0.1164
_refine_diff_density_max         0.565
_refine_diff_density_min         -0.231
_refine_diff_density_rms         0.050
_refine_ls_abs_structure_details
;
 Refined as an inversion twin.
;
_refine_ls_abs_structure_Flack   0.172(18)
_refine_ls_extinction_method     none
_refine_ls_goodness_of_fit_ref   1.048
_refine_ls_hydrogen_treatment    mixed
_refine_ls_matrix_type           full
_refine_ls_number_parameters     339
_refine_ls_number_reflns         5257
_refine_ls_number_restraints     1
_refine_ls_restrained_S_all      1.048
_refine_ls_R_factor_all          0.0350
_refine_ls_R_factor_gt           0.0346
_refine_ls_shift/su_max          0.000
_refine_ls_shift/su_mean         0.000
_refine_ls_structure_factor_coef Fsqd
_refine_ls_weighting_details
'w=1/[\s^2^(Fo^2^)+(0.0631P)^2^+0.3852P] where P=(Fo^2^+2Fc^2^)/3'
_refine_ls_weighting_scheme      calc
_refine_ls_wR_factor_gt          0.0959
_refine_ls_wR_factor_ref         0.0965
_reflns_Friedel_coverage         0.920
_reflns_Friedel_fraction_full    1.000
_reflns_Friedel_fraction_max     0.998
_reflns_number_gt                5181
_reflns_number_total             5257
_reflns_threshold_expression     'I > 2\s(I)'
_iucr_refine_instructions_details
;
TITL cs2053 in P21 #4
CELL 1.54184 8.972458 14.386219 10.174143 90 100.0449 90
ZERR 4 0.000074 0.000133 0.000084 0 0.0008 0
LATT -1
SYMM -X,0.5+Y,-Z
 
SFAC C H N O S
UNIT 52 64 8 8 4
 
L.S. 4
PLAN  5
TEMP -173
HTAB N2 O4
HTAB N4 O2
MORE -1
REM reset to P21 #4
BOND
fmap 2
acta
TWIN -1 0 0 0 -1 0 0 0 -1 2
REM <HKL>C:/Users/Carla/Documents/Xray/Carlier/2014paper/Re-refinements/cs2053
REM _ZKY-I-171LS/refine/cs2053.hkl</HKL>
 
WGHT    0.063100    0.385200
BASF   0.17207
FVAR       7.57302
S1    5    0.877196    0.134476    0.304808    11.00000    0.03445    0.03811 =
         0.02497   -0.00836    0.00901    0.00691
O1    4    1.146762    0.305172    0.764854    11.00000    0.01404    0.02744 =
         0.02863    0.00045    0.00478    0.00150
O2    4    0.647139    0.487948    0.640863    11.00000    0.02468    0.02311 =
         0.02136    0.00397    0.00657    0.00789
N1    3    0.962118    0.337668    0.883970    11.00000    0.01427    0.02170 =
         0.02048   -0.00053    0.00153    0.00078
N2    3    0.810158    0.372687    0.610501    11.00000    0.01923    0.02030 =
         0.01694    0.00333    0.00480    0.00363
H2    2    0.835167    0.401317    0.547963    11.00000   -1.20000
C1    1    1.011380    0.308507    0.771467    11.00000    0.01721    0.01582 =
         0.02266    0.00252    0.00441    0.00185
C2    1    0.886574    0.285365    0.653509    11.00000    0.01540    0.01878 =
         0.01799    0.00038    0.00567    0.00175
H2A   2    0.817088    0.241627    0.683518    11.00000   -1.20000
C3    1    0.715015    0.414909    0.678995    11.00000    0.01455    0.02017 =
         0.01768   -0.00109    0.00269    0.00052
C4    1    0.689224    0.367688    0.803959    11.00000    0.01767    0.01547 =
         0.01887   -0.00193    0.00404    0.00043
C5    1    0.539880    0.358962    0.825320    11.00000    0.01640    0.02016 =
         0.02227   -0.00429    0.00517    0.00169
AFIX  43
H5    2    0.459521    0.381792    0.759977    11.00000   -1.20000
AFIX   0
C6    1    0.507223    0.317872    0.939366    11.00000    0.02209    0.02230 =
         0.02806   -0.00310    0.01225    0.00027
AFIX  43
H6    2    0.405105    0.310040    0.950725    11.00000   -1.20000
AFIX   0
C7    1    0.625452    0.287888    1.037964    11.00000    0.02876    0.02316 =
         0.02259    0.00096    0.01297    0.00072
AFIX  43
H7    2    0.604052    0.261866    1.118455    11.00000   -1.20000
AFIX   0
C8    1    0.774529    0.296017    1.018659    11.00000    0.02606    0.02274 =
         0.01789    0.00136    0.00516    0.00356
AFIX  43
H8    2    0.854618    0.275903    1.086414    11.00000   -1.20000
AFIX   0
C9    1    0.807357    0.333521    0.900427    11.00000    0.01649    0.01711 =
         0.02051   -0.00281    0.00482    0.00039
C10   1    1.078283    0.357805    1.001019    11.00000    0.01973    0.02796 =
         0.02685   -0.00630   -0.00085    0.00070
AFIX 137
H10A  2    1.120257    0.299335    1.040854    11.00000   -1.50000
H10B  2    1.032828    0.392708    1.066720    11.00000   -1.50000
H10C  2    1.159306    0.394813    0.973614    11.00000   -1.50000
AFIX   0
C11   1    0.948631    0.239711    0.539252    11.00000    0.01793    0.02363 =
         0.02254   -0.00118    0.00710    0.00260
AFIX  23
H11A  2    0.998095    0.180340    0.570852    11.00000   -1.20000
H11B  2    1.026498    0.280679    0.511978    11.00000   -1.20000
AFIX   0
C12   1    0.825375    0.220661    0.418121    11.00000    0.02244    0.03269 =
         0.02511   -0.00457    0.00698    0.00655
AFIX  23
H12A  2    0.800829    0.279522    0.368664    11.00000   -1.20000
H12B  2    0.732805    0.199563    0.449889    11.00000   -1.20000
AFIX   0
C13   1    0.818306    0.030126    0.381344    11.00000    0.05487    0.03104 =
         0.05715   -0.00239   -0.00343    0.00119
AFIX 137
H13A  2    0.840355   -0.024356    0.330175    11.00000   -1.50000
H13B  2    0.709343    0.033105    0.382115    11.00000   -1.50000
H13C  2    0.873367    0.025186    0.473139    11.00000   -1.50000
AFIX   0
 
S2    5    0.626783    0.783773    0.715125    11.00000    0.02847    0.03126 =
         0.01869   -0.00070    0.00460    0.00965
O3    4    0.351836    0.622371    0.256029    11.00000    0.01548    0.02591 =
         0.03120    0.00021    0.00693    0.00007
O4    4    0.878074    0.461275    0.377362    11.00000    0.02384    0.02363 =
         0.02264    0.00616    0.00869    0.00874
N3    3    0.525268    0.580090    0.130799    11.00000    0.01609    0.01945 =
         0.02015   -0.00037    0.00226    0.00052
N4    3    0.705629    0.572268    0.398928    11.00000    0.01827    0.02001 =
         0.01795    0.00364    0.00755    0.00369
H4    2    0.694225    0.547081    0.475130    11.00000   -1.20000
C14   1    0.483999    0.619054    0.241610    11.00000    0.01898    0.01397 =
         0.02233    0.00208    0.00543    0.00042
C15   1    0.613958    0.652883    0.348501    11.00000    0.01706    0.01756 =
         0.01901    0.00226    0.00621    0.00196
AFIX  13
H15   2    0.677582    0.698083    0.308054    11.00000   -1.20000
AFIX   0
C16   1    0.798832    0.528111    0.330473    11.00000    0.01610    0.01832 =
         0.02093   -0.00005    0.00436   -0.00244
C17   1    0.804857    0.562504    0.193390    11.00000    0.01980    0.01494 =
         0.01986   -0.00060    0.00561   -0.00003
C18   1    0.947449    0.567556    0.155894    11.00000    0.02059    0.02032 =
         0.02440    0.00176    0.00780    0.00254
AFIX  43
H18   2    1.035498    0.553881    0.219426    11.00000   -1.20000
AFIX   0
C19   1    0.961511    0.592372    0.026683    11.00000    0.02723    0.02333 =
         0.02909    0.00273    0.01662    0.00252
AFIX  43
H19   2    1.058869    0.598008    0.002831    11.00000   -1.20000
AFIX   0
C20   1    0.832558    0.608869   -0.067285    11.00000    0.03358    0.02513 =
         0.02287    0.00557    0.01376    0.00613
AFIX  43
H20   2    0.841586    0.623428   -0.156635    11.00000   -1.20000
AFIX   0
C21   1    0.690461    0.604229   -0.031521    11.00000    0.02662    0.02278 =
         0.02001    0.00098    0.00541    0.00472
AFIX  43
H21   2    0.602829    0.615169   -0.096853    11.00000   -1.20000
AFIX   0
C22   1    0.674932    0.583663    0.099391    11.00000    0.01995    0.01516 =
         0.02094   -0.00046    0.00661    0.00046
C23   1    0.401611    0.545447    0.029015    11.00000    0.02132    0.02388 =
         0.02633   -0.00603   -0.00049   -0.00111
AFIX 137
H23A  2    0.326766    0.513623    0.072538    11.00000   -1.50000
H23B  2    0.442138    0.501822   -0.029823    11.00000   -1.50000
H23C  2    0.353302    0.597749   -0.023682    11.00000   -1.50000
AFIX   0
C24   1    0.555560    0.699029    0.464647    11.00000    0.01661    0.02123 =
         0.02165    0.00180    0.00833    0.00143
AFIX  23
H24A  2    0.503561    0.652086    0.511634    11.00000   -1.20000
H24B  2    0.480966    0.747636    0.429752    11.00000   -1.20000
AFIX   0
C25   1    0.684591    0.742776    0.563049    11.00000    0.02030    0.03014 =
         0.02093   -0.00453    0.00808    0.00383
AFIX  23
H25A  2    0.726487    0.795668    0.518981    11.00000   -1.20000
H25B  2    0.766268    0.696294    0.586477    11.00000   -1.20000
AFIX   0
C26   1    0.527743    0.888516    0.657455    11.00000    0.03866    0.02786 =
         0.02877   -0.00432    0.00414    0.00790
AFIX 137
H26A  2    0.488131    0.917649    0.731349    11.00000   -1.50000
H26B  2    0.443676    0.873594    0.585332    11.00000   -1.50000
H26C  2    0.597355    0.931484    0.624202    11.00000   -1.50000
AFIX   0
HKLF 4
 
REM  cs2053 in P21 #4
REM R1 =  0.0346 for    5181 Fo > 4sig(Fo)  and  0.0350 for all    5257 data
REM    339 parameters refined using      1 restraints
 
END  
     
WGHT      0.0631      0.3853 

REM Highest difference peak  0.565,  deepest hole -0.231,  1-sigma level  0.050
Q1    1   0.9176  0.0868  0.3617  11.00000  0.05    0.56
Q2    1   0.5831  0.8373  0.6400  11.00000  0.05    0.55
Q3    1   0.7427  0.3451  0.8387  11.00000  0.05    0.23
Q4    1   0.7021  0.3875  0.7382  11.00000  0.05    0.22
Q5    1   0.5557  0.6327  0.2936  11.00000  0.05    0.22

REM The information below was added by Olex2.
REM
REM R1 = 0.0346 for 5181 Fo > 4sig(Fo) and 0.0350 for all 20645 data
REM n/a parameters refined using n/a restraints
REM Highest difference peak 0.56, deepest hole -0.23
REM Mean Shift 0, Max Shift 0.000.

REM +++ Tabular Listing of Refinement Information +++
REM R1_all = 0.0350
REM R1_gt = 0.0346
REM wR_ref = 0.0965
REM GOOF = 1.048
REM Shift_max = 0.000
REM Shift_mean = 0
REM Reflections_all = 20645
REM Reflections_gt = 5181
REM Parameters = n/a
REM Hole = -0.23
REM Peak = 0.56
REM Flack = n/a

;
_cod_data_source_file            ol502586n_si_001.cif
_cod_data_source_block           cs2053
_cod_depositor_comments
'Adding full bibliography for 1517816--1517819.cif.'
_cod_original_cell_volume        1293.14(2)
_cod_database_code               1517816
#BEGIN Tags that were not found in dictionaries:
_shelxl_version_number           2014/6
_chemical_oxdiff_formula         'C13 H16 N2 O2 S'
_chemical_oxdiff_usercomment     'Zhongke Yao / Carlier ( zky-I-171LS)'
_shelx_space_group_comment
;
The symmetry employed for this shelxl refinement is uniquely defined
by the following loop, which should always be used as a source of
symmetry information in preference to the above space-group names.
They are only intended as comments.
;
_reflns_odcompleteness_completeness 99.92
_reflns_odcompleteness_iscentric 1
_reflns_odcompleteness_theta     66.97
_olex2_refinement_description
;
1. Fixed Uiso
 At 1.2 times of:
  All C(H) groups, All C(H,H) groups, All N(H) groups
 At 1.5 times of:
  All C(H,H,H) groups
2.a Ternary CH refined with riding coordinates:
 C15(H15)
2.b Secondary CH2 refined with riding coordinates:
 C11(H11A,H11B), C12(H12A,H12B), C24(H24A,H24B), C25(H25A,H25B)
2.c Aromatic/amide H refined with riding coordinates:
 C5(H5), C6(H6), C7(H7), C8(H8), C18(H18), C19(H19), C20(H20), C21(H21)
2.d Idealised Me refined as rotating group:
 C10(H10A,H10B,H10C), C13(H13A,H13B,H13C), C23(H23A,H23B,H23C), C26(H26A,H26B,
 H26C)
;
_olex2_exptl_crystal_mounting_method 'Mounted on a Cryoloop with Krytox oil.'
_olex2_submission_original_sample_id ZKY-I-171LS
_olex2_submission_special_instructions 'No special instructions were received'
#END Tags that were not found in dictionaries
loop_
_space_group_symop_operation_xyz
'x, y, z'
'-x, y+1/2, -z'
loop_
_atom_site_label
_atom_site_type_symbol
_atom_site_fract_x
_atom_site_fract_y
_atom_site_fract_z
_atom_site_U_iso_or_equiv
_atom_site_adp_type
_atom_site_occupancy
_atom_site_site_symmetry_order
_atom_site_calc_flag
_atom_site_refinement_flags_posn
S1 S 0.87720(9) 0.13448(6) 0.30481(8) 0.03205(19) Uani 1 1 d .
O1 O 1.1468(2) 0.30517(14) 0.7649(2) 0.0232(4) Uani 1 1 d .
O2 O 0.6471(2) 0.48795(14) 0.6409(2) 0.0227(4) Uani 1 1 d .
N1 N 0.9621(2) 0.33767(17) 0.8840(2) 0.0190(5) Uani 1 1 d .
N2 N 0.8102(3) 0.37269(16) 0.6105(2) 0.0186(5) Uani 1 1 d .
H2 H 0.835(4) 0.401(3) 0.548(4) 0.022 Uiso 1 1 d R
C1 C 1.0114(3) 0.30851(18) 0.7715(3) 0.0185(5) Uani 1 1 d .
C2 C 0.8866(3) 0.2854(2) 0.6535(2) 0.0171(5) Uani 1 1 d .
H2A H 0.817(4) 0.242(3) 0.684(3) 0.020 Uiso 1 1 d R
C3 C 0.7150(3) 0.4149(2) 0.6790(3) 0.0175(5) Uani 1 1 d .
C4 C 0.6892(3) 0.36769(18) 0.8040(3) 0.0172(5) Uani 1 1 d .
C5 C 0.5399(3) 0.35896(19) 0.8253(3) 0.0194(5) Uani 1 1 d .
H5 H 0.4595 0.3818 0.7600 0.023 Uiso 1 1 calc R
C6 C 0.5072(3) 0.3179(2) 0.9394(3) 0.0232(6) Uani 1 1 d .
H6 H 0.4051 0.3100 0.9507 0.028 Uiso 1 1 calc R
C7 C 0.6255(3) 0.2879(2) 1.0380(3) 0.0238(5) Uani 1 1 d .
H7 H 0.6041 0.2619 1.1185 0.029 Uiso 1 1 calc R
C8 C 0.7745(3) 0.2960(2) 1.0187(3) 0.0221(5) Uani 1 1 d .
H8 H 0.8546 0.2759 1.0864 0.026 Uiso 1 1 calc R
C9 C 0.8074(3) 0.33352(19) 0.9004(3) 0.0178(5) Uani 1 1 d .
C10 C 1.0783(3) 0.3578(2) 1.0010(3) 0.0254(6) Uani 1 1 d .
H10A H 1.1203 0.2993 1.0409 0.038 Uiso 1 1 calc GR
H10B H 1.0328 0.3927 1.0667 0.038 Uiso 1 1 calc GR
H10C H 1.1593 0.3948 0.9736 0.038 Uiso 1 1 calc GR
C11 C 0.9486(3) 0.2397(2) 0.5393(3) 0.0209(5) Uani 1 1 d .
H11A H 0.9981 0.1803 0.5709 0.025 Uiso 1 1 calc R
H11B H 1.0265 0.2807 0.5120 0.025 Uiso 1 1 calc R
C12 C 0.8254(3) 0.2207(2) 0.4181(3) 0.0264(6) Uani 1 1 d .
H12A H 0.8008 0.2795 0.3687 0.032 Uiso 1 1 calc R
H12B H 0.7328 0.1996 0.4499 0.032 Uiso 1 1 calc R
C13 C 0.8183(5) 0.0301(3) 0.3813(4) 0.0493(9) Uani 1 1 d .
H13A H 0.8404 -0.0244 0.3302 0.074 Uiso 1 1 calc GR
H13B H 0.7093 0.0331 0.3821 0.074 Uiso 1 1 calc GR
H13C H 0.8734 0.0252 0.4731 0.074 Uiso 1 1 calc GR
S2 S 0.62678(8) 0.78377(5) 0.71512(7) 0.02608(17) Uani 1 1 d .
O3 O 0.3518(2) 0.62237(15) 0.2560(2) 0.0239(4) Uani 1 1 d .
O4 O 0.8781(2) 0.46127(15) 0.37736(19) 0.0228(4) Uani 1 1 d .
N3 N 0.5253(2) 0.58009(17) 0.1308(2) 0.0187(4) Uani 1 1 d .
N4 N 0.7056(2) 0.57227(16) 0.3989(2) 0.0182(4) Uani 1 1 d .
H4 H 0.694(4) 0.547(3) 0.475(4) 0.022 Uiso 1 1 d R
C14 C 0.4840(3) 0.61905(18) 0.2416(3) 0.0182(5) Uani 1 1 d .
C15 C 0.6140(3) 0.65288(18) 0.3485(3) 0.0175(5) Uani 1 1 d .
H15 H 0.6776 0.6981 0.3081 0.021 Uiso 1 1 calc R
C16 C 0.7988(3) 0.52811(19) 0.3305(3) 0.0183(5) Uani 1 1 d .
C17 C 0.8049(3) 0.56250(18) 0.1934(3) 0.0179(5) Uani 1 1 d .
C18 C 0.9474(3) 0.5676(2) 0.1559(3) 0.0213(5) Uani 1 1 d .
H18 H 1.0355 0.5539 0.2194 0.026 Uiso 1 1 calc R
C19 C 0.9615(3) 0.5924(2) 0.0267(3) 0.0251(6) Uani 1 1 d .
H19 H 1.0589 0.5980 0.0028 0.030 Uiso 1 1 calc R
C20 C 0.8326(3) 0.6089(2) -0.0673(3) 0.0261(6) Uani 1 1 d .
H20 H 0.8416 0.6234 -0.1566 0.031 Uiso 1 1 calc R
C21 C 0.6905(3) 0.6042(2) -0.0315(3) 0.0230(6) Uani 1 1 d .
H21 H 0.6028 0.6152 -0.0969 0.028 Uiso 1 1 calc R
C22 C 0.6749(3) 0.58366(18) 0.0994(3) 0.0183(5) Uani 1 1 d .
C23 C 0.4016(3) 0.5454(2) 0.0290(3) 0.0244(6) Uani 1 1 d .
H23A H 0.3268 0.5136 0.0725 0.037 Uiso 1 1 calc GR
H23B H 0.4421 0.5018 -0.0298 0.037 Uiso 1 1 calc GR
H23C H 0.3533 0.5977 -0.0237 0.037 Uiso 1 1 calc GR
C24 C 0.5556(3) 0.6990(2) 0.4646(3) 0.0192(5) Uani 1 1 d .
H24A H 0.5036 0.6521 0.5116 0.023 Uiso 1 1 calc R
H24B H 0.4810 0.7476 0.4298 0.023 Uiso 1 1 calc R
C25 C 0.6846(3) 0.7428(2) 0.5630(3) 0.0233(6) Uani 1 1 d .
H25A H 0.7265 0.7957 0.5190 0.028 Uiso 1 1 calc R
H25B H 0.7663 0.6963 0.5865 0.028 Uiso 1 1 calc R
C26 C 0.5277(4) 0.8885(2) 0.6575(3) 0.0320(7) Uani 1 1 d .
H26A H 0.4881 0.9176 0.7313 0.048 Uiso 1 1 calc GR
H26B H 0.4437 0.8736 0.5853 0.048 Uiso 1 1 calc GR
H26C H 0.5974 0.9315 0.6242 0.048 Uiso 1 1 calc GR
loop_
_atom_site_aniso_label
_atom_site_aniso_U_11
_atom_site_aniso_U_22
_atom_site_aniso_U_33
_atom_site_aniso_U_23
_atom_site_aniso_U_13
_atom_site_aniso_U_12
S1 0.0344(4) 0.0381(4) 0.0250(3) -0.0084(3) 0.0090(3) 0.0069(3)
O1 0.0140(8) 0.0274(11) 0.0286(10) 0.0004(8) 0.0048(7) 0.0015(7)
O2 0.0247(9) 0.0231(10) 0.0214(9) 0.0040(8) 0.0066(7) 0.0079(8)
N1 0.0143(10) 0.0217(11) 0.0205(11) -0.0005(9) 0.0015(8) 0.0008(8)
N2 0.0192(10) 0.0203(12) 0.0169(10) 0.0033(9) 0.0048(8) 0.0036(8)
C1 0.0172(11) 0.0158(12) 0.0227(13) 0.0025(10) 0.0044(10) 0.0018(9)
C2 0.0154(10) 0.0188(12) 0.0180(11) 0.0004(10) 0.0057(9) 0.0018(10)
C3 0.0146(11) 0.0202(13) 0.0177(11) -0.0011(10) 0.0027(9) 0.0005(9)
C4 0.0177(12) 0.0155(12) 0.0189(12) -0.0019(10) 0.0040(10) 0.0004(9)
C5 0.0164(11) 0.0202(13) 0.0223(12) -0.0043(10) 0.0052(9) 0.0017(10)
C6 0.0221(13) 0.0223(13) 0.0281(14) -0.0031(11) 0.0122(11) 0.0003(10)
C7 0.0288(13) 0.0232(13) 0.0226(12) 0.0010(11) 0.0130(10) 0.0007(12)
C8 0.0261(12) 0.0227(13) 0.0179(12) 0.0014(10) 0.0052(10) 0.0036(11)
C9 0.0165(12) 0.0171(12) 0.0205(12) -0.0028(10) 0.0048(9) 0.0004(9)
C10 0.0197(12) 0.0280(15) 0.0269(14) -0.0063(12) -0.0008(10) 0.0007(11)
C11 0.0179(12) 0.0236(13) 0.0225(13) -0.0012(11) 0.0071(10) 0.0026(10)
C12 0.0224(13) 0.0327(16) 0.0251(14) -0.0046(12) 0.0070(11) 0.0066(11)
C13 0.055(2) 0.0310(18) 0.057(2) -0.0024(17) -0.0034(19) 0.0012(16)
S2 0.0285(3) 0.0313(4) 0.0187(3) -0.0007(3) 0.0046(2) 0.0097(3)
O3 0.0155(8) 0.0259(11) 0.0312(10) 0.0002(9) 0.0069(7) 0.0001(8)
O4 0.0238(9) 0.0236(10) 0.0226(9) 0.0062(8) 0.0087(7) 0.0087(8)
N3 0.0161(10) 0.0195(11) 0.0202(10) -0.0004(8) 0.0023(8) 0.0005(8)
N4 0.0183(10) 0.0200(11) 0.0179(10) 0.0036(9) 0.0075(8) 0.0037(9)
C14 0.0190(12) 0.0140(12) 0.0223(12) 0.0021(10) 0.0054(9) 0.0004(10)
C15 0.0171(11) 0.0176(13) 0.0190(12) 0.0023(10) 0.0062(9) 0.0020(10)
C16 0.0161(11) 0.0183(13) 0.0209(12) 0.0000(10) 0.0044(9) -0.0024(9)
C17 0.0198(12) 0.0149(12) 0.0199(12) -0.0006(10) 0.0056(10) 0.0000(10)
C18 0.0206(12) 0.0203(13) 0.0244(13) 0.0018(11) 0.0078(10) 0.0025(11)
C19 0.0272(14) 0.0233(14) 0.0291(14) 0.0027(11) 0.0166(11) 0.0025(11)
C20 0.0336(15) 0.0251(15) 0.0229(13) 0.0056(11) 0.0138(11) 0.0061(12)
C21 0.0266(13) 0.0228(13) 0.0200(12) 0.0010(11) 0.0054(10) 0.0047(11)
C22 0.0200(12) 0.0152(13) 0.0209(12) -0.0005(10) 0.0066(10) 0.0005(10)
C23 0.0213(13) 0.0239(14) 0.0263(13) -0.0060(11) -0.0005(10) -0.0011(11)
C24 0.0166(11) 0.0212(13) 0.0216(12) 0.0018(10) 0.0083(10) 0.0014(10)
C25 0.0203(12) 0.0301(15) 0.0209(12) -0.0045(11) 0.0081(10) 0.0038(11)
C26 0.0387(16) 0.0279(15) 0.0288(15) -0.0043(12) 0.0041(12) 0.0079(13)
loop_
_atom_type_symbol
_atom_type_description
_atom_type_scat_dispersion_real
_atom_type_scat_dispersion_imag
_atom_type_scat_source
C C 0.0181 0.0091 'International Tables Vol C Tables 4.2.6.8 and 6.1.1.4'
H H 0.0000 0.0000 'International Tables Vol C Tables 4.2.6.8 and 6.1.1.4'
N N 0.0311 0.0180 'International Tables Vol C Tables 4.2.6.8 and 6.1.1.4'
O O 0.0492 0.0322 'International Tables Vol C Tables 4.2.6.8 and 6.1.1.4'
S S 0.3331 0.5567 'International Tables Vol C Tables 4.2.6.8 and 6.1.1.4'
loop_
_exptl_crystal_face_index_h
_exptl_crystal_face_index_k
_exptl_crystal_face_index_l
_exptl_crystal_face_perp_dist
_exptl_oxdiff_crystal_face_indexfrac_h
_exptl_oxdiff_crystal_face_indexfrac_k
_exptl_oxdiff_crystal_face_indexfrac_l
_exptl_oxdiff_crystal_face_x
_exptl_oxdiff_crystal_face_y
_exptl_oxdiff_crystal_face_z
-1 -9 2 0.0255 -1.0029 -8.9845 1.9973 0.9324 -0.0618 0.3991
0 9 -1 0.0610 0.0036 8.9870 -0.9980 -0.9518 -0.0278 -0.2087
5 4 -1 0.0966 4.9981 3.9854 -1.0000 -0.3566 0.7680 -0.4492
-6 0 1 0.1253 -5.9958 0.0109 1.0008 -0.0819 -0.9115 0.4724
0 2 6 0.1391 0.0007 2.0022 5.9942 -0.2542 0.4595 0.7870
1 -3 -6 0.1364 0.9982 -3.0026 -5.9946 0.3732 -0.3004 -0.8351
1 -7 4 0.0557 0.9965 -6.9889 3.9949 0.7306 0.4272 0.5375
-5 0 -3 0.1470 -4.9965 0.0065 -2.9956 -0.0420 -1.0465 -0.1198
loop_
_geom_angle_atom_site_label_1
_geom_angle_atom_site_label_2
_geom_angle_atom_site_label_3
_geom_angle
C12 S1 C13 99.64(18)
C1 N1 C9 123.3(2)
C1 N1 C10 117.0(2)
C9 N1 C10 118.7(2)
C3 N2 C2 122.9(2)
O1 C1 N1 121.8(2)
O1 C1 C2 123.0(2)
N1 C1 C2 115.2(2)
N2 C2 C1 106.8(2)
N2 C2 C11 110.9(2)
C11 C2 C1 112.2(2)
O2 C3 N2 122.9(2)
O2 C3 C4 120.7(2)
N2 C3 C4 116.4(2)
C5 C4 C3 117.8(2)
C5 C4 C9 119.2(2)
C9 C4 C3 123.0(2)
C6 C5 C4 121.3(3)
C5 C6 C7 119.4(2)
C8 C7 C6 120.1(3)
C7 C8 C9 120.5(3)
C4 C9 N1 122.3(2)
C8 C9 N1 118.2(2)
C8 C9 C4 119.4(2)
C2 C11 C12 112.5(2)
C11 C12 S1 113.97(19)
C26 S2 C25 101.13(14)
C14 N3 C22 124.6(2)
C14 N3 C23 116.2(2)
C22 N3 C23 118.5(2)
C16 N4 C15 123.9(2)
O3 C14 N3 121.6(2)
O3 C14 C15 122.6(2)
N3 C14 C15 115.8(2)
N4 C15 C14 108.0(2)
N4 C15 C24 108.8(2)
C24 C15 C14 111.5(2)
O4 C16 N4 122.4(2)
O4 C16 C17 120.4(2)
N4 C16 C17 117.2(2)
C18 C17 C16 117.2(2)
C18 C17 C22 119.5(2)
C22 C17 C16 123.2(2)
C19 C18 C17 120.6(3)
C20 C19 C18 119.6(3)
C19 C20 C21 120.4(2)
C20 C21 C22 120.7(3)
C17 C22 N3 122.5(2)
C21 C22 N3 118.3(2)
C21 C22 C17 119.1(2)
C15 C24 C25 111.3(2)
C24 C25 S2 113.34(18)
loop_
_geom_bond_atom_site_label_1
_geom_bond_atom_site_label_2
_geom_bond_distance
S1 C12 1.808(3)
S1 C13 1.812(4)
O1 C1 1.229(3)
O2 C3 1.242(3)
N1 C1 1.363(3)
N1 C9 1.429(3)
N1 C10 1.468(3)
N2 C2 1.461(3)
N2 C3 1.338(3)
C1 C2 1.528(3)
C2 C11 1.523(3)
C3 C4 1.495(4)
C4 C5 1.400(3)
C4 C9 1.402(4)
C5 C6 1.378(4)
C6 C7 1.395(4)
C7 C8 1.390(4)
C8 C9 1.396(4)
C11 C12 1.530(4)
S2 C25 1.814(3)
S2 C26 1.795(3)
O3 C14 1.221(3)
O4 C16 1.241(3)
N3 C14 1.367(3)
N3 C22 1.434(3)
N3 C23 1.467(3)
N4 C15 1.462(3)
N4 C16 1.338(4)
C14 C15 1.529(3)
C15 C24 1.526(4)
C16 C17 1.490(4)
C17 C18 1.399(4)
C17 C22 1.406(4)
C18 C19 1.389(4)
C19 C20 1.387(4)
C20 C21 1.387(4)
C21 C22 1.395(4)
C24 C25 1.528(4)
loop_
_geom_hbond_atom_site_label_D
_geom_hbond_atom_site_label_H
_geom_hbond_atom_site_label_A
_geom_hbond_distance_DH
_geom_hbond_distance_HA
_geom_hbond_distance_DA
_geom_hbond_angle_DHA
N2 H2 O4 0.82(4) 2.03(4) 2.851(3) 173(3)
N4 H4 O2 0.88(4) 2.00(4) 2.873(3) 174(3)
loop_
_refln_index_h
_refln_index_k
_refln_index_l
_refln_F_squared_meas
_refln_F_squared_sigma
_refln_scale_group_code
0 -17 0 163.849 55.934 7
0 -17 1 15364.8 565.61 7
0 -17 2 250.537 65.776 15
0 -17 2 298.578 83.5394 7
0 -17 3 7863.25 377.3 7
0 -16 0 1192.64 181.788 7
0 -16 -1 1872.83 208.985 7
0 -16 1 1906.56 229.77 7
0 -16 2 3121.62 291.361 7
0 -16 2 2992.56 254.122 15
0 -16 3 14834.4 638.044 7
0 -16 3 13543 536.032 15
0 -16 4 16022.1 556.033 15
0 -16 4 18304.3 668.198 7
0 -16 5 14015.6 458.419 15
0 -15 0 104.34 81.5816 7
0 -15 -1 3182.5 306.998 7
0 -15 1 3305.85 331.39 7
0 -15 2 12159 658.037 7
0 -15 3 26891 942.203 15
0 -15 3 29451.2 1040.51 7
0 -15 4 2042.57 223.981 15
0 -15 4 2119.64 253.367 7
0 -15 5 37896.1 1023.96 15
0 -15 5 37264.1 1091.22 7
0 -15 6 724.516 111.598 15
0 -14 0 15946.4 786.546 7
0 -14 -1 405.39 107.817 13
0 -14 -1 384.157 119.306 7
0 -14 1 110.026 79.3696 7
0 -14 -2 20390.4 826.322 7
0 -14 -2 18998.2 685.614 13
0 -14 2 21364.4 935.778 7
0 -14 -3 522.834 110.111 13
0 -14 3 473.051 141.434 7
0 -14 4 405.864 125.555 15
0 -14 -4 354.72 100.327 13
0 -14 4 385.944 132.451 7
0 -14 5 17231 720.355 15
0 -14 -5 15890.9 566.511 13
0 -14 5 16773.2 754.956 7
0 -14 -6 6697.9 314.724 13
0 -14 6 6794.52 426.867 7
0 -14 6 6788.81 402.887 15
0 -14 7 16235 569.94 15
0 -13 0 -18.7392 76.1961 7
0 -13 0 73.3219 63.7586 13
0 -13 -1 5082.82 355.396 13
0 -13 1 5029.77 357.409 13
0 -13 -2 6835.92 411.679 13
0 -13 2 6563.44 416.025 13
0 -13 3 314.71 115.977 7
0 -13 -3 184.917 80.736 13
0 -13 -4 53421.6 1344.32 13
0 -13 4 53266.6 1616.49 7
0 -13 5 1547.02 244.69 7
0 -13 5 1975.27 264.366 15
0 -13 -5 1404.84 181.346 13
0 -13 -6 24366.1 770.52 13
0 -13 6 22770.3 786.069 25
0 -13 6 23758.2 941.863 7
0 -13 -7 1093.57 136.483 13
0 -13 7 940.435 131.013 25
0 -13 7 1202.04 174.366 15
0 -13 -8 1643.52 129.979 13
0 -13 8 2168.76 193.499 15
0 -12 0 46226.9 2021.48 1
0 -12 0 42874.1 1182.51 13
0 -12 -1 14861.9 1058.48 5
0 -12 -1 13828.5 1095.92 1
0 -12 -1 13731 609.088 13
0 -12 1 13896.8 1081.57 1
0 -12 1 14178.9 624.587 13
0 -12 1 16166.9 815.951 7
0 -12 -2 26266.1 895.551 13
0 -12 -2 28118 1597.12 1
0 -12 2 30429.7 1167.82 7
0 -12 -2 27853 1472.65 5
0 -12 2 26221.4 905.121 13
0 -12 2 27164.2 1516.77 1
0 -12 3 27207.6 934.371 13
0 -12 -3 26358.6 925.792 13
0 -12 4 36089.7 1158.85 25
0 -12 4 33940.8 1068.82 13
0 -12 5 3975.48 325.186 13
0 -12 5 4478.35 430.883 7
0 -12 5 4460.48 425.748 15
0 -12 5 4028.65 355.208 25
0 -12 6 568.66 138.72 25
0 -12 6 445.74 143.422 15
0 -12 6 547.826 121.797 13
0 -12 6 440.252 128.311 7
0 -12 7 1619.67 208.505 25
0 -12 7 1684.22 235.158 15
0 -12 8 720.064 139.983 15
0 -12 8 329.005 88.527 25
0 -12 9 8352.49 362.165 15
0 -11 0 319.916 97.385 13
0 -11 0 -485.856 255.685 1
0 -11 -1 12097.3 559.098 13
0 -11 -1 12915.5 1014.11 1
0 -11 1 11693.6 552.034 13
0 -11 1 12597.7 969.926 1
0 -11 -1 12682.3 818.695 30
0 -11 -1 12784.5 922.704 5
0 -11 2 8838.31 588.375 7
0 -11 2 7245.39 434.892 13
0 -11 2 7256.57 742.636 1
0 -11 -2 8115.56 682.68 30
0 -11 -2 6905.91 441.45 13
0 -11 -2 7172.91 700.324 5
0 -11 -3 34734.8 1564.35 30
0 -11 -3 36806.1 1651.15 3
0 -11 3 38325.3 1321.39 7
0 -11 -3 36245.1 1664.29 5
0 -11 3 33674.2 1671.44 1
0 -11 3 31993.7 1045.83 13
0 -11 -4 16724.8 1122.48 3
0 -11 4 20069.4 944.204 7
0 -11 -4 16967.3 1123 30
0 -11 4 17025 722.558 13
0 -11 4 17482.1 786.624 25
0 -11 -4 16945.3 1158.92 5
0 -11 5 14502.7 724.73 25
0 -11 5 15523.4 826.275 15
0 -11 5 15428.4 834.675 7
0 -11 5 13922.7 661.102 13
0 -11 6 4702.56 447.183 7
0 -11 6 5482.25 469.494 15
0 -11 6 5142.64 422.09 25
0 -11 6 4506.4 356.303 13
0 -11 7 2706.7 314.665 7
0 -11 7 2310.31 241.838 13
0 -11 7 3006.63 332.502 15
0 -11 7 3168.28 320.71 25
0 -11 8 10285 526.744 25
0 -11 8 8838.16 423.397 13
0 -11 9 12719.3 503.357 25
0 -11 9 13342.8 547.99 15
0 -10 0 12315.4 743.368 30
0 -10 0 11201.1 816.456 5
0 -10 0 13448.6 957.743 1
0 -10 -1 6709.49 568.397 30
0 -10 1 7779.56 712.354 1
0 -10 -1 6526.64 627.6 5
0 -10 -2 345.339 122.239 3
0 -10 -2 279.553 120.237 30
0 -10 -2 298.671 134.257 5
0 -10 3 11010.1 596.976 25
0 -10 3 13081.9 726.402 7
0 -10 3 11569.1 568.78 13
0 -10 -3 12418.7 914.513 5
0 -10 -3 12023.2 882.811 3
0 -10 -3 12486.3 879.714 30
0 -10 3 13318.4 992.979 1
0 -10 4 34791.2 1272.68 7
0 -10 4 30842.2 1033.51 13
0 -10 4 32201.8 1120.68 25
0 -10 -4 34368.7 1568.01 3
0 -10 -4 37679.2 1681.68 5
0 -10 -4 35490.8 1634.29 30
0 -10 -5 18959.6 1228.22 30
0 -10 5 20757.6 1009.42 15
0 -10 -5 18677 1221.72 5
0 -10 -5 17732.9 1147.19 3
0 -10 5 19197 860.401 25
0 -10 5 21271.6 981.552 7
0 -10 5 19016.5 802.344 13
0 -10 6 10681.4 586.569 13
0 -10 6 10744.3 640 25
0 -10 6 10661.3 694.51 7
0 -10 6 12285.6 713.569 15
0 -10 6 9614.65 542.754 26
0 -10 7 3059.12 298.186 10
0 -10 7 3201.45 370.116 15
0 -10 7 2982.38 295.746 13
0 -10 7 2612.39 333.181 7
0 -10 7 3626.22 361.37 25
0 -10 7 2714.02 278.134 26
0 -10 8 6527.77 406.382 13
0 -10 8 6615.37 406.976 26
0 -10 8 8055.05 504.898 25
0 -10 8 7395.97 515.863 15
0 -10 9 9056.92 414.196 13
0 -10 9 9748.17 434.948 26
0 -10 9 12245.3 581.679 15
0 -10 9 11997.3 551.518 25
0 -10 10 7134.69 347.696 15
0 -10 10 6876.49 332.789 25
0 -9 0 7.50047 105.521 5
0 -9 0 6.8996 39.9279 30
0 -9 0 -29.7489 110.151 1
0 -9 1 16901.7 799.043 30
0 -9 -1 15920.9 843.394 30
0 -9 -1 16347.5 930.788 5
0 -9 -1 16469.3 932.424 3
0 -9 1 17934.2 1027.2 1
0 -9 2 21034.3 1163.03 1
0 -9 -2 21919.6 1061.84 30
0 -9 -2 21514.7 1108.52 3
0 -9 -2 20764.3 1082.1 5
0 -9 -3 29382.9 1353.7 3
0 -9 3 28241.9 1075.4 7
0 -9 -3 31054.7 1368.76 30
0 -9 -3 31187.5 1396.68 5
0 -9 3 28846.1 1432.65 1
0 -9 -4 12613.7 906.249 5
0 -9 -4 12560.1 892.621 3
0 -9 4 12417.1 698.687 7
0 -9 -4 14188.9 971.951 30
0 -9 4 12497.3 651.425 25
0 -9 4 11701.8 592.554 13
0 -9 -5 27781 1477.75 30
0 -9 5 27534.9 1181.33 15
0 -9 5 26569.2 1028.79 25
0 -9 -5 27640.9 1426.93 5
0 -9 5 27254.1 1117.46 7
0 -9 -5 27503.7 1393.36 3
0 -9 5 24905.2 923.128 26
0 -9 5 23278.4 923.752 13
0 -9 6 41846.8 1293.75 10
0 -9 6 43324.2 1410.74 25
0 -9 6 39921.5 1278.67 13
0 -9 -6 43549.5 1985.31 30
0 -9 -6 44640 1913.17 5
0 -9 6 41579.8 1470.98 7
0 -9 6 40192.7 1272.97 26
0 -9 6 46530.4 1549.98 15
0 -9 7 5723.29 494.842 7
0 -9 7 6503.52 508.714 25
0 -9 7 6244.21 455.169 26
0 -9 7 5991.45 448.434 13
0 -9 7 6740.53 544.948 15
0 -9 7 6344.71 458.807 10
0 -9 8 584.983 167.517 15
0 -9 8 513.857 141.707 13
0 -9 8 746.509 157.573 26
0 -9 8 737.482 167.815 25
0 -9 8 1068.95 190.554 10
0 -9 9 3235.24 276.855 13
0 -9 9 3966.44 306.871 26
0 -9 9 4342.33 378.462 15
0 -9 9 4248.45 360.636 25
0 -9 10 4506.81 309.629 15
0 -9 10 3973.08 289.269 25
0 -8 0 4517.27 389.92 30
0 -8 0 5012.48 469.094 5
0 -8 1 68862.3 2159.04 1
0 -8 -1 71541.4 2001.51 5
0 -8 1 63254.3 1700.67 30
0 -8 -1 69551.6 1982.93 3
0 -8 -1 67744.2 1837.2 30
0 -8 -2 101303 2542.38 5
0 -8 -2 99602.4 2558.61 3
0 -8 2 92569.7 2196.31 30
0 -8 -2 95844.8 2427.94 30
0 -8 2 101705 2690.42 1
0 -8 -3 111996 2820.91 30
0 -8 3 110820 2978.76 1
0 -8 -3 114043 2837.2 3
0 -8 -4 35226.4 1485.12 3
0 -8 -4 37721.5 1537.58 5
0 -8 -4 38909.2 1612.43 30
0 -8 -5 25453.1 1307.93 5
0 -8 5 26200.7 1126.66 15
0 -8 5 26517.4 1015.94 25
0 -8 5 23771.5 927.49 13
0 -8 -5 28473.2 1450.82 30
0 -8 5 23560.3 898.027 26
0 -8 5 26032.5 1064.74 7
0 -8 -5 26688.1 1310.17 3
0 -8 -6 15643.5 1148.31 30
0 -8 -6 14999.1 1013.93 3
0 -8 -6 13581.3 998.304 5
0 -8 6 13600.7 778.753 7
0 -8 6 14953 721.45 10
0 -8 6 15865.8 806.975 25
0 -8 6 13908.3 712.277 26
0 -8 6 16614.7 877.496 15
0 -8 6 13798.1 709.743 13
0 -8 7 1725.83 273.831 7
0 -8 7 1667.15 253.963 26
0 -8 7 1369.02 226.618 10
0 -8 7 1853.84 279.653 25
0 -8 7 1593.26 243.831 13
0 -8 7 1707.15 284.801 15
0 -8 8 11097.8 681.227 25
0 -8 8 11902.3 652.063 10
0 -8 8 11611.5 644.905 13
0 -8 8 11222 627.682 26
0 -8 8 11856.8 737.764 15
0 -8 9 1557.16 218.096 13
0 -8 9 1527.75 240.134 25
0 -8 9 1568.64 246.854 15
0 -8 9 1510.09 213.655 26
0 -8 10 210.062 98.8028 15
0 -8 10 123.486 70.6825 26
0 -8 10 237.537 95.4609 25
0 -8 11 1104.04 112.826 26
0 -8 11 1123.32 129.427 15
0 -8 11 1251.83 137.76 25
0 -7 0 -82.3548 71.3739 5
0 -7 0 76.5885 80.4038 3
0 -7 0 159.735 81.3955 30
0 -7 -1 180950 3591.41 3
0 -7 1 172855 3302.3 30
0 -7 1 179741 3721.7 1
0 -7 1 178088 3625.02 5
0 -7 -1 178479 3565.02 5
0 -7 -2 31387.6 1179.06 3
0 -7 -2 28766.8 1115.66 30
0 -7 2 28251.7 1211.69 1
0 -7 -2 29091.6 1132.62 5
0 -7 2 28503.8 982.796 30
0 -7 3 23423.3 851.489 31
0 -7 3 23710 1161.45 1
0 -7 -3 26656.1 1126.06 5
0 -7 -3 28905.6 1167.59 3
0 -7 -3 27233.3 1162.91 30
0 -7 3 24859.4 962.047 30
0 -7 -4 35732.1 1414.15 5
0 -7 -4 37052.8 1519.82 30
0 -7 4 33813.1 1187.41 31
0 -7 -4 36118.9 1406.65 3
0 -7 -5 2937.69 417.176 5
0 -7 -5 2500.77 369.342 3
0 -7 -5 2965.63 447.864 30
0 -7 5 2296.94 316.747 31
0 -7 5 3031.66 352.76 15
0 -7 6 16342.5 768.773 10
0 -7 6 16183.5 826.516 7
0 -7 6 14868.3 743.359 13
0 -7 -6 17273.8 1079.73 5
0 -7 -6 15723.8 1008.44 3
0 -7 6 17038.5 826.907 25
0 -7 -6 17579.4 1182.91 30
0 -7 6 17068.2 875.5 15
0 -7 6 14452.7 907.828 31
0 -7 6 15822.6 764.553 26
0 -7 -7 19367.7 1221.74 5
0 -7 7 21712 1012.46 15
0 -7 7 15649.2 1016.5 31
0 -7 7 18315 870.238 26
0 -7 7 19150.6 926.737 25
0 -7 -7 19432.4 1339.01 30
0 -7 7 18577.2 861.827 13
0 -7 7 19172.7 873.957 10
0 -7 7 17587.9 876.833 7
0 -7 8 40250.2 1348.83 10
0 -7 8 39065.2 1318.55 26
0 -7 8 39490.7 1329.81 13
0 -7 8 40991.9 1453.22 15
0 -7 8 41047.2 1423.7 25
0 -7 9 7723.89 552.285 25
0 -7 9 7474.49 559.532 15
0 -7 9 7904.45 520.394 13
0 -7 9 7619.02 509.933 26
0 -7 10 16278.6 730.659 25
0 -7 10 15524.1 661.566 26
0 -7 10 15935.3 723.814 15
0 -7 11 53014 1216.47 15
0 -7 11 53738.8 1247.88 25
0 -7 11 50853 1158.54 26
0 -6 0 119456 2535 5
0 -6 0 120210 2542.9 3
0 -6 0 117054 2395.25 30
0 -6 1 24114.3 938.138 5
0 -6 -1 22980.5 900.693 3
0 -6 1 24584.2 991.052 1
0 -6 -1 24318 914.12 5
0 -6 1 21706.3 569.36 31
0 -6 -1 23194.9 853.756 30
0 -6 1 23020.6 793.497 30
0 -6 2 116645 2380.23 30
0 -6 -2 113680 2555.57 30
0 -6 -2 120213 2585.23 3
0 -6 -2 113859 2539.22 5
0 -6 2 114305 2185.71 31
0 -6 -3 160213 3451.71 30
0 -6 3 157861 3507.87 1
0 -6 -3 165113 3367.7 5
0 -6 3 157561 3053.49 31
0 -6 3 156374 3142.46 30
0 -6 -4 86725.9 2240.74 3
0 -6 -4 83839.9 2237.28 5
0 -6 -4 84988.9 2383.89 30
0 -6 5 65486.2 1944.37 31
0 -6 -5 68357.8 2052.74 3
0 -6 -5 65982.3 2061.99 5
0 -6 -5 69802.8 2271.74 30
0 -6 6 8788.82 546.511 10
0 -6 -6 9552.66 766.965 5
0 -6 -6 10440.3 774.807 3
0 -6 6 9435.08 617.882 15
0 -6 6 9456.13 600.975 25
0 -6 -6 11301.7 916.712 30
0 -6 6 9175.38 556.441 13
0 -6 6 8705.21 696.659 31
0 -6 6 9463.41 579.357 26
0 -6 7 17638.9 886.784 15
0 -6 7 14167.2 976.134 31
0 -6 -7 16684.8 1218.71 30
0 -6 7 17627.9 833.595 10
0 -6 -7 15920.7 1083.93 5
0 -6 7 17528.7 870.765 25
0 -6 7 15536.7 787.53 13
0 -6 7 16096.5 818.754 26
0 -6 8 3378.08 370.643 13
0 -6 8 3599.64 406.362 15
0 -6 8 4023.32 420.823 25
0 -6 8 4154.66 413.07 10
0 -6 8 3904.86 399.302 26
0 -6 9 5509.19 484.724 25
0 -6 9 5807.21 493.606 15
0 -6 9 5530.46 450.883 13
0 -6 9 5854.95 471.451 26
0 -6 10 823.942 175.949 15
0 -6 10 918.341 194.281 25
0 -6 10 626.98 152.127 26
0 -6 11 1369.95 177.529 15
0 -6 11 1363.49 170.883 26
0 -6 11 1489.75 190.871 25
0 -5 0 73.9173 61.1466 5
0 -5 0 17.4116 49.5982 3
0 -5 0 -6.03731 48.1893 30
0 -5 0 151.354 26.2391 31
0 -5 1 50092.5 1412.9 1
0 -5 1 47943.1 979.455 31
0 -5 1 47823.1 1172.9 30
0 -5 -1 47116.9 1257.1 30
0 -5 -1 45915.3 1267.6 3
0 -5 -1 46123.2 1258.5 5
0 -5 1 46890.6 1296.52 5
0 -5 -2 12855.6 615.44 3
0 -5 2 12300.3 671.661 1
0 -5 -2 12880 613.051 5
0 -5 2 12063.8 536.199 30
0 -5 2 12972.5 508.603 31
0 -5 -2 13143.9 640.587 30
0 -5 3 4705.07 352.811 30
0 -5 -3 4786.39 396.757 5
0 -5 -3 4761.32 394.232 3
0 -5 3 4546.51 420.413 1
0 -5 3 4593.03 348.603 31
0 -5 -4 69153 1853.29 3
0 -5 4 64014.9 1760.32 31
0 -5 -4 69095.9 1901.63 5
0 -5 5 13095.6 775.947 31
0 -5 -5 13259.4 810.283 5
0 -5 -5 13569 787.36 3
0 -5 6 23950.9 1189.84 31
0 -5 -6 24270.1 1215.26 5
0 -5 -6 25594 1189.91 3
0 -5 7 121823 3316.77 31
0 -5 7 122869 2744.22 10
0 -5 7 120344 2791.91 26
0 -5 7 128246 2815.3 15
0 -5 7 118205 2671.42 13
0 -5 7 124782 2797.19 25
0 -5 -7 122732 3359.64 5
0 -5 -8 23662.3 1393.94 5
0 -5 -8 22997.2 1487.38 30
0 -5 8 25128.1 1076.6 15
0 -5 8 25468.9 1082.02 25
0 -5 8 24859 1034.59 13
0 -5 8 26123.3 1077.22 10
0 -5 8 22605.1 1330.29 31
0 -5 8 25714.8 1085.63 26
0 -5 9 10810.6 685.21 25
0 -5 9 11135.8 664.135 13
0 -5 9 10656 676.182 26
0 -5 9 11360.8 690.764 15
0 -5 10 12775.1 682.522 15
0 -5 10 11689.2 656.976 26
0 -5 10 11558.5 671.787 25
0 -5 11 18856.2 741.99 25
0 -5 11 17987.2 700.085 15
0 -5 11 20086.9 741.965 26
0 -5 12 4117.62 238.237 25
0 -5 12 5095.77 251.998 26
0 -4 1 911716 13907.8 1
0 -4 -2 47061.8 1251.47 3
0 -4 2 51889.2 1186.43 31
0 -4 2 53495.9 1385.26 1
0 -4 -2 52091.5 1296.15 5
0 -4 2 48999.3 1171.57 30
0 -4 3 190.564 79.9478 31
0 -4 3 165.067 89.9675 27
0 -4 -3 38.3154 51.9862 3
0 -4 3 132.034 85.141 1
0 -4 -3 -46.2464 53.3274 5
0 -4 4 14781 741.632 31
0 -4 4 14392.5 817.198 27
0 -4 -4 15720.3 774.932 5
0 -4 -4 14670.2 716.243 3
0 -4 5 3856.24 418.177 31
0 -4 -5 4282.18 447.44 5
0 -4 -5 3897.34 393.02 3
0 -4 -6 4626.69 509.764 5
0 -4 -6 4048.36 446.242 3
0 -4 6 5041 540.695 31
0 -4 7 1898.47 275.927 10
0 -4 7 2084.69 279.809 25
0 -4 7 1616.19 246.842 20
0 -4 -7 2054.03 345.267 3
0 -4 7 1512.69 235.577 13
0 -4 7 1651.45 254.031 26
0 -4 7 2227.26 380.295 31
0 -4 7 1863.26 266.095 15
0 -4 -7 1526.59 319.317 5
0 -4 8 5038.71 610.405 31
0 -4 -8 5223.34 644.602 5
0 -4 8 4978.09 466.069 26
0 -4 8 4963 468.69 10
0 -4 8 5389.67 476.682 25
0 -4 8 5316.63 462.931 15
0 -4 8 5325.35 453.245 13
0 -4 9 1429.34 242.306 15
0 -4 9 1452.81 251.219 25
0 -4 9 1795.96 287.989 26
0 -4 9 1610.25 252.84 13
0 -4 10 10821.5 622.51 15
0 -4 10 10184.1 634.308 26
0 -4 10 10082.7 628.357 25
0 -4 11 4738.57 366.089 26
0 -4 11 4689.04 371.259 25
0 -4 11 4680.2 351.047 15
0 -4 12 3047.43 216.774 26
0 -4 12 2362.71 193.036 25
0 -3 0 92.4923 53.247 3
0 -3 0 32.6687 42.6602 30
0 -3 0 25.0705 40.6587 5
0 -3 1 349376 5335.73 30
0 -3 -1 336787 5414.7 5
0 -3 1 341388 5474.56 5
0 -3 -1 347203 5457.18 30
0 -3 1 350623 5274.56 31
0 -3 1 353139 5533.96 1
0 -3 2 167530 2951.28 1
0 -3 2 165613 2773.45 30
0 -3 -2 159055 2858.38 3
0 -3 2 168896 2855.04 31
0 -3 -2 161791 2895.67 5
0 -3 -3 16432.1 684.161 5
0 -3 3 15880.7 722.563 27
0 -3 -3 16280.5 649.119 3
0 -3 -4 16853 728.338 3
0 -3 4 16346.9 782.635 31
0 -3 4 18137.7 883.001 27
0 -3 -4 17052.3 793.972 5
0 -3 -5 3656.65 406.136 5
0 -3 5 3689.95 455.635 27
0 -3 5 3386.5 393.938 31
0 -3 -5 3659.7 368.021 3
0 -3 -6 4676.22 455.981 3
0 -3 6 3872.06 475.12 31
0 -3 -6 3843.55 466.157 5
0 -3 7 4716.22 403.44 15
0 -3 7 5027.39 402.806 13
0 -3 7 4484.19 399.191 25
0 -3 -7 5065.38 530.709 3
0 -3 7 5468.91 453.226 26
0 -3 -7 5466.49 603.328 5
0 -3 7 4808.51 417.534 10
0 -3 7 4322.07 547.378 31
0 -3 -8 41534.7 1889.77 5
0 -3 8 43455.5 1418.68 10
0 -3 8 40562.9 1371.79 25
0 -3 8 38740.6 1849.77 31
0 -3 8 42256.1 1444.41 26
0 -3 8 41852.4 1357.93 15
0 -3 8 39497.6 1322.76 13
0 -3 9 25877.5 1049.06 13
0 -3 9 25552.5 1082.58 26
0 -3 9 26425.1 1077.59 25
0 -3 9 24350.3 1010.26 15
0 -3 10 5782.62 473.053 25
0 -3 10 5770.91 476.963 26
0 -3 10 6445.56 471.482 15
0 -3 11 3733.54 314.524 15
0 -3 11 4030.34 346.439 25
0 -3 11 4001.42 349.163 26
0 -3 12 13471.1 465.547 15
0 -3 12 13609.4 506.383 25
0 -3 12 13348.6 510.344 26
0 -2 0 125472 2102.75 3
0 -2 0 125876 2092.13 5
0 -2 0 119691 2034.29 30
0 -2 1 7835.83 279.776 2
0 -2 1 8397.56 279.044 30
0 -2 1 7345.39 286.542 27
0 -2 1 8437.3 298.169 31
0 -2 -1 9039.83 332.021 5
0 -2 1 7938.79 325.552 1
0 -2 -1 8317.93 313.718 3
0 -2 2 3139.09 230.955 31
0 -2 2 2702.62 211.398 1
0 -2 2 3338.34 260.371 27
0 -2 -2 3040.32 230.129 5
0 -2 2 2804.6 227.691 2
0 -2 -2 3046.89 218.676 3
0 -2 3 20785.6 792.199 2
0 -2 3 20486.7 823.382 27
0 -2 -3 18869.1 726.285 5
0 -2 3 19029.9 740.786 31
0 -2 -3 20052.8 699.139 3
0 -2 -4 189821 3615.97 3
0 -2 -4 194517 3772.18 5
0 -2 4 196156 3799.89 31
0 -2 5 56342.4 1778.22 31
0 -2 -5 56556.6 1756.69 5
0 -2 5 55126.1 1915.55 27
0 -2 -5 54449 1602.62 3
0 -2 -6 30499.2 1358.3 5
0 -2 -6 28992 1204.52 3
0 -2 6 26324.1 1286.01 31
0 -2 -7 40901.2 1577.16 3
0 -2 -7 40297.6 1750.12 5
0 -2 7 40187 1225.62 13
0 -2 7 39056.8 1265.33 10
0 -2 7 38614 1229.17 25
0 -2 7 39296.6 1744.94 31
0 -2 7 41676.7 1314.78 26
0 -2 7 39476.7 1244.97 15
0 -2 8 10817.5 572.869 21
0 -2 8 12641.9 692.18 25
0 -2 8 12585.4 678.249 13
0 -2 8 13144 728.723 26
0 -2 8 12584.6 705.969 10
0 -2 8 11893.7 633.081 9
0 -2 8 10736.6 943.816 31
0 -2 -8 12618.6 1026.06 5
0 -2 8 13475 703.072 15
0 -2 9 725.836 173.43 26
0 -2 9 874.582 163.473 21
0 -2 9 1014.26 209.739 25
0 -2 9 930.935 189.483 15
0 -2 10 660.062 139.636 21
0 -2 10 737.607 176.107 25
0 -2 10 1072.78 211.031 26
0 -2 10 1015.71 189.177 15
0 -2 11 7854.71 456.495 15
0 -2 11 7586.1 481.276 25
0 -2 11 7956.95 498.541 26
0 -2 12 1698.88 178.788 26
0 -2 12 1588.32 150.258 15
0 -2 12 1739.14 176.495 25
0 -1 0 99.3929 27.9215 3
0 -1 0 49.2366 17.9873 5
0 -1 1 142531 2383.65 2
0 -1 -1 151429 2405.37 5
0 -1 1 146693 2441.29 27
0 -1 1 152171 2324.87 30
0 -1 1 153017 2391.04 31
0 -1 1 142481 2370.12 1
0 -1 -1 147238 2368.39 3
0 -1 2 146156 2495.86 31
0 -1 -2 134891 2473.13 5
0 -1 -2 137087 2427.93 3
0 -1 2 140976 2612.78 27
0 -1 2 140976 2535.95 2
0 -1 3 845.515 158.931 2
0 -1 -3 651.224 48.1127 4
0 -1 -3 828.082 148.05 5
0 -1 -3 817.33 130.064 3
0 -1 3 762.084 163.429 27
0 -1 4 121302 2647.87 31
0 -1 -4 120518 2636.1 5
0 -1 -4 118970 2527.91 3
0 -1 -5 6082.61 481.681 3
0 -1 -5 7193.38 570.963 5
0 -1 5 6866.27 642.4 27
0 -1 5 6240.09 524.141 31
0 -1 6 22402.9 1318 27
0 -1 -6 19591 1096.96 5
0 -1 -6 20721.7 1021.52 3
0 -1 6 21069.6 1121.3 31
0 -1 -7 21249.7 1114.46 3
0 -1 7 20217.2 852.47 10
0 -1 -7 22067.7 1279.93 5
0 -1 7 19277.5 812.289 25
0 -1 7 23413.2 907.504 26
0 -1 7 20441.7 1213.88 31
0 -1 7 20616.1 828.87 13
0 -1 8 81436.2 2061.71 25
0 -1 8 81557.8 1985.39 9
0 -1 8 87453.3 2137.71 26
0 -1 8 86819.5 2084.91 15
0 -1 8 85854.1 2075.06 13
0 -1 -8 91101.1 2957.69 5
0 -1 8 82803.7 1962.77 21
0 -1 8 74727.9 2725.22 31
0 -1 9 38514.3 1285.82 25
0 -1 9 37010.4 1287.59 26
0 -1 9 34412.9 1140.74 21
0 -1 9 36761.4 1230.52 15
0 -1 9 34312.5 1147.29 9
0 -1 10 535.27 147.331 25
0 -1 10 537.625 132.127 21
0 -1 10 818.02 183.009 26
0 -1 10 664.591 163.22 15
0 -1 11 5910.02 387.928 15
0 -1 11 5307.09 343.334 21
0 -1 11 5814.27 414.895 26
0 -1 11 5591.29 404.249 25
0 -1 12 2771.27 215.1 25
0 -1 12 3025.7 252.584 26
0 -1 12 2606.44 200.415 15
0 0 1 245.187 52.4028 27
0 0 1 275.242 53.592 2
0 0 -1 247.8 34.9948 4
0 0 1 225.269 39.5521 32
0 0 -2 13437.6 383.816 4
0 0 2 13427.7 447.916 32
0 0 2 13034 471.162 31
0 0 2 12989.6 551.269 27
0 0 2 12658.4 496.057 2
0 0 3 515037 7805.77 27
0 0 3 427686 7380.99 31
0 0 -3 485772 7096.31 4
0 0 3 498164 7609.43 2
0 0 -3 420488 7290.98 3
0 0 -4 907.146 160.941 3
0 0 4 1185.36 249.012 27
0 0 -4 1323.32 135.028 4
0 0 4 1332.83 208.956 31
0 0 -5 700.357 172.797 3
0 0 5 718.783 223.024 27
0 0 5 741.387 198.94 31
0 0 -6 1911.05 344.323 5
0 0 -6 2112.95 322.862 3
0 0 6 1980.69 342.769 31
0 0 6 2252.31 442.217 27
0 0 -7 2620.86 391.786 3
0 0 7 2431.25 278.517 26
0 0 -7 2863.26 468.416 5
0 0 7 2685.9 293.77 10
0 0 7 2545.53 419.876 31
0 0 7 2704.43 280.709 13
0 0 8 315.47 139.559 25
0 0 8 332.688 189.073 31
0 0 8 400.858 135.916 15
0 0 8 362.159 103.806 16
0 0 8 538.736 155.985 26
0 0 8 97.4514 91.3549 9
0 0 8 263.231 104.767 21
0 0 9 267.627 106.679 25
0 0 9 235.942 118.788 21
0 0 9 170.922 87.9314 9
0 0 9 315.332 131.804 26
0 0 9 139.598 108.959 15
0 0 10 1846.04 261.871 26
0 0 10 1919.43 244.581 21
0 0 10 2332.51 275.252 15
0 0 10 1637.34 242.051 25
0 0 11 447.275 122.624 26
0 0 11 482.958 113.998 15
0 0 11 397.768 106.935 21
0 0 11 535.531 135.383 25
0 0 12 5150.96 263.466 21
0 0 12 5861.12 320.659 26
0 0 12 5477.29 275.723 15
0 1 0 29.5711 20.8716 4
0 1 -1 148829 2448.64 4
0 1 -1 135707 2289.01 29
0 1 1 149415 2289.14 31
0 1 1 153911 2437.95 27
0 1 1 144235 2293.18 29
0 1 1 152857 2368.85 32
0 1 1 136563 2334.37 2
0 1 2 142342 2677.85 27
0 1 2 144849 2454.56 31
0 1 -2 146533 2528.65 4
0 1 2 142499 2546.02 2
0 1 3 1172.8 158.718 31
0 1 -3 1125.21 147.297 4
0 1 -3 935.179 108.726 29
0 1 3 1203.01 185.043 2
0 1 3 1037.88 152.487 32
0 1 3 1185.45 205.033 27
0 1 -4 123436 2394.83 4
0 1 4 127223 2568.76 31
0 1 4 125829 2579.81 32
0 1 5 6240.24 501.794 31
0 1 5 5842 633.005 27
0 1 -5 5998.01 395.887 4
0 1 -5 6649.71 523.673 3
0 1 6 22394.7 1098.17 31
0 1 -6 21047.6 1081.47 3
0 1 6 21943.3 1368.27 27
0 1 7 21532 855.794 21
0 1 -7 21084.3 1164.33 3
0 1 -7 20135.6 1260.58 5
0 1 7 22563.5 1207.37 31
0 1 8 78979.4 1943.86 16
0 1 -8 79988.7 2937.95 5
0 1 8 82435.5 1982.47 9
0 1 8 86235.9 2062.86 25
0 1 8 81972.9 2734.1 31
0 1 8 91663.4 2109.09 26
0 1 8 87982.5 2051.26 15
0 1 8 86047.4 2088.64 21
0 1 9 32811.2 1093.47 16
0 1 9 37392.2 1234.21 21
0 1 9 35547.1 1209.92 25
0 1 9 32721.5 1126.65 9
0 1 9 36543.1 1201.77 15
0 1 9 35652.5 1207.64 26
0 1 10 348.926 99.6517 16
0 1 10 446.532 126.241 26
0 1 10 383.052 120.732 25
0 1 10 359.687 133.267 21
0 1 10 322.322 115.766 15
0 1 10 216.509 92.3373 9
0 1 11 6006.85 395.545 21
0 1 11 5858.11 386.282 25
0 1 11 5883.89 392.174 26
0 1 11 5830.59 369.401 15
0 1 12 2787.08 207.82 26
0 1 12 2834.65 207.68 21
0 2 0 129295 2227.14 29
0 2 0 126126 2231.99 4
0 2 1 8122.2 315.721 27
0 2 1 9215.34 299.232 2
0 2 -1 8809.73 357.015 29
0 2 1 8768.24 249.153 31
0 2 1 8679.62 341.999 29
0 2 1 9155.51 345.973 32
0 2 -1 8264.45 403.603 4
0 2 1 8538.29 274.823 4
0 2 2 3590.95 212.329 31
0 2 -2 3408.96 223.001 29
0 2 2 3848.81 264.53 32
0 2 2 3820.9 256.428 2
0 2 2 4256.76 314.551 27
0 2 2 3575.88 220.985 29
0 2 -2 3559.02 290.973 4
0 2 -3 16011.2 565.416 29
0 2 3 18158.9 705.069 32
0 2 3 17631 624.198 31
0 2 3 20225.7 854.144 27
0 2 -3 17698.1 722.66 4
0 2 3 18421.8 732.519 2
0 2 -4 179649 3287.84 29
0 2 4 192273 3547.58 31
0 2 4 203257 3725.86 32
0 2 -4 190251 3644.97 4
0 2 4 210474 4160.89 27
0 2 -5 53532.3 1578.71 4
0 2 5 54833.3 2033.56 27
0 2 5 59664.6 1652.74 31
0 2 6 28154.9 1579.53 27
0 2 6 27592.5 1182.62 31
0 2 -6 24952.7 1222.35 3
0 2 7 37698.8 1566.57 31
0 2 7 39652.6 1186.34 26
0 2 7 38126.3 1196.28 16
0 2 -7 35466.6 1595.56 3
0 2 7 39925.7 1260.72 21
0 2 8 13160.4 670.755 26
0 2 8 12425.1 658.292 16
0 2 8 13511.1 720.854 21
0 2 8 12759.4 652.067 9
0 2 -8 12798.9 1089.62 5
0 2 8 13806.6 670.849 15
0 2 8 11633.5 897.936 31
0 2 8 12333.3 650.793 25
0 2 9 813.391 169.732 15
0 2 9 816.782 181.869 21
0 2 9 723.085 161.156 9
0 2 9 958.2 186.083 26
0 2 9 707.46 159.975 16
0 2 9 838.933 179.863 25
0 2 10 918.77 167.791 16
0 2 10 1490.04 217.529 26
0 2 10 1121.01 199.619 25
0 2 10 821.449 164.972 9
0 2 10 1538.81 212.687 15
0 2 10 1222.42 217.366 21
0 2 11 8498.42 434.476 15
0 2 11 7070.85 408.756 25
0 2 11 7828.29 468.506 21
0 2 11 6481.57 365.475 16
0 2 11 7760.69 432.731 26
0 2 12 1670.65 147.074 26
0 2 12 1793.03 171.524 21
0 3 0 40.4104 65.1945 4
0 3 0 31.6935 55.0293 29
0 3 1 352945 5567.96 29
0 3 1 337773 5277.74 27
0 3 1 345920 5123.65 31
0 3 -1 346801 5718.79 4
0 3 1 348069 5400.6 4
0 3 -1 333320 5539.61 29
0 3 -2 157049 2878.97 29
0 3 2 150301 2468.55 4
0 3 2 163339 2641.49 31
0 3 2 166403 2962.86 32
0 3 2 170525 2899.43 29
0 3 -2 156929 3135.56 4
0 3 2 179446 2994.62 27
0 3 -3 16704.5 647.956 29
0 3 -3 16709 795.995 4
0 3 3 17267.2 602.405 31
0 3 3 19311.8 833.573 27
0 3 3 18447.2 765.964 32
0 3 3 19109.9 670.199 29
0 3 4 16728.6 801.049 32
0 3 4 15580.3 663.189 31
0 3 4 16177.6 911.751 27
0 3 -4 16484.5 835.62 4
0 3 -4 15982.8 657.237 29
0 3 5 4011.5 372.995 31
0 3 5 3971.85 427.85 32
0 3 -5 3495.01 394.645 4
0 3 5 3876.82 496.148 27
0 3 6 4527.07 448.972 31
0 3 -6 4167.66 451.421 4
0 3 -7 3715.65 496.596 3
0 3 7 4689.53 373.825 9
0 3 7 4501.23 390.631 16
0 3 7 4560.56 407.792 21
0 3 7 4203.58 340.454 15
0 3 7 4301.66 348.758 26
0 3 7 3830.41 462.001 31
0 3 8 39592.8 1321.77 16
0 3 8 39789.9 1262.85 9
0 3 8 41010.2 1243.44 15
0 3 8 42651.9 1409.26 21
0 3 8 38034.7 1677.21 31
0 3 8 42597.2 1276.55 26
0 3 8 38646.1 1228.41 25
0 3 9 22483.9 909.374 12
0 3 9 26628.3 1080.33 21
0 3 9 26242.5 975.328 26
0 3 9 24849.7 955.542 25
0 3 9 26781.9 968.507 15
0 3 9 24688.3 993.196 16
0 3 9 25795.7 981.532 9
0 3 10 6747.77 448.78 25
0 3 10 7169.75 472.171 16
0 3 10 7875.66 474.272 15
0 3 10 7033.07 454.977 26
0 3 10 7311.8 521.975 21
0 3 11 3828.74 288.829 16
0 3 11 4030.33 340.325 21
0 3 11 3342.57 266.811 26
0 3 12 14978.1 534.077 21
0 4 0 999999 15239.3 29
0 4 -1 822424 12595.5 29
0 4 1 843599 12639.2 29
0 4 1 806768 12425.9 4
0 4 -1 799809 12773.1 4
0 4 2 52913.6 1414.48 32
0 4 -2 50791.5 1372.56 29
0 4 -2 53497.3 1584.96 4
0 4 2 52342.7 1063.2 31
0 4 2 55668.8 1411.05 29
0 4 2 53561.2 1116.43 4
0 4 2 55724.1 1298.61 27
0 4 3 107.858 66.8831 32
0 4 3 85.6592 98.1048 27
0 4 -3 226.044 81.0953 29
0 4 3 321.092 100.505 29
0 4 3 48.2808 53.4112 31
0 4 -3 32.9048 68.3296 4
0 4 -4 17389.4 930.246 4
0 4 4 14294.5 880.084 27
0 4 4 16501.1 846.418 32
0 4 -4 15218.1 703.38 29
0 4 4 15377.4 643.094 31
0 4 -5 4659.62 503.717 4
0 4 5 4601.12 484.645 32
0 4 5 5086.29 409.821 31
0 4 6 4788.51 457.587 31
0 4 -6 5378.84 567.974 4
0 4 7 1751.44 252.923 16
0 4 7 1632.61 253.816 21
0 4 7 1593.61 285.555 31
0 4 7 2088.51 237.824 15
0 4 7 1946.36 226.712 26
0 4 7 1694.95 227.278 9
0 4 -7 1708.65 350.376 3
0 4 8 5558.34 485.706 16
0 4 8 5886.2 455.391 9
0 4 8 5988.58 428.718 26
0 4 8 5312.86 409.407 25
0 4 8 5483.66 496.708 21
0 4 8 5957.42 425.61 15
0 4 9 1373.55 229.039 12
0 4 9 1530.98 257.048 21
0 4 9 1753.56 236.679 15
0 4 9 1443.35 210.252 26
0 4 9 1520.28 224.893 25
0 4 9 1710.15 262.142 16
0 4 10 10487.3 531.547 26
0 4 10 11415.8 558.448 15
0 4 10 9372.22 561.569 16
0 4 10 10072.7 621.304 21
0 4 11 4045.65 337.43 21
0 4 11 3543.79 288.157 16
0 4 12 2445.14 197.86 21
0 5 0 52.8259 58.5018 4
0 5 0 105.599 75.7991 29
0 5 1 46566.3 1314.6 4
0 5 1 44566.2 1398.8 29
0 5 -1 49671.3 1410.52 29
0 5 -1 47462 1486.6 4
0 5 2 12579.8 524.882 4
0 5 2 12420.9 664.531 32
0 5 -2 12702.5 756.242 4
0 5 -2 12491.9 655.902 29
0 5 2 12137.3 661.468 29
0 5 -3 5679.76 532.846 4
0 5 3 5298.41 473.416 32
0 5 3 4828.55 411.764 29
0 5 -3 5020.42 416.109 29
0 5 3 5396.74 305.121 31
0 5 4 65535.1 1793.25 29
0 5 4 69012.2 2036.65 32
0 5 4 68424.3 1594.04 31
0 5 -4 68529.2 2174.83 4
0 5 -4 65883.8 1796.17 29
0 5 -5 14242.2 970.852 4
0 5 5 14202.4 699.822 31
0 5 5 14426.1 924.699 32
0 5 6 28499.9 1441.15 32
0 5 6 25836.1 1078.75 31
0 5 -6 25570.6 1395.65 4
0 5 7 120788 2488.12 15
0 5 7 122877 2769.79 16
0 5 7 116717 2578.94 9
0 5 7 122510 2741.82 21
0 5 8 24947 1088.59 16
0 5 8 23963.9 909.209 15
0 5 8 25640 903.605 26
0 5 8 23721.6 1052.68 21
0 5 9 9401.71 608.325 12
0 5 9 11093.6 578.408 15
0 5 9 10686.1 552.46 26
0 5 9 10242.6 657.923 21
0 5 9 10417.9 653.194 16
0 5 10 12262.4 648.702 16
0 5 10 11890.3 662.248 21
0 5 11 18521 729.677 21
0 5 11 18103.9 684.842 16
0 5 12 5178.48 269.317 21
0 6 0 119782 2722.91 29
0 6 0 111781 2652.15 4
0 6 1 23497.2 956.635 4
0 6 1 23416.2 1046.05 29
0 6 -1 22010.4 1042.87 4
0 6 -1 24357.7 1019.54 29
0 6 -2 119326 2706.93 29
0 6 2 115438 2443.95 4
0 6 2 113679 2784.85 29
0 6 2 121432 2790.98 32
0 6 -2 121607 2999.55 4
0 6 -3 168556 3463.6 29
0 6 3 164834 3615.25 32
0 6 -3 167966 3873.99 4
0 6 4 81597 2231.37 29
0 6 -4 86000.1 2626.01 4
0 6 4 82493.3 2452.09 32
0 6 -4 83336.2 2202.63 29
0 6 -5 64590.9 2364.43 4
0 6 5 70749.7 2354.78 32
0 6 6 10295.4 557.985 15
0 6 6 9991.05 597.105 21
0 6 -6 7853.47 825.845 4
0 6 6 9348.01 613.396 16
0 6 6 9689.16 882.38 32
0 6 7 14070.3 788.169 16
0 6 7 14042.9 673.418 15
0 6 7 14109 762.553 21
0 6 8 3946.53 401.408 21
0 6 8 3494.07 401.053 16
0 6 9 5218.62 468.179 16
0 6 9 4590.67 423.271 21
0 6 9 5194.28 440.92 12
0 6 10 857.974 171.736 21
0 6 10 944.008 167.707 12
0 6 10 897.864 175.128 16
0 6 11 1559.55 190.137 21
0 6 11 1486.91 184.753 16
0 7 0 -132.466 105.382 29
0 7 0 -25.1734 81.9635 4
0 7 -1 181260 3862.24 29
0 7 1 185308 3991.24 29
0 7 -1 183963 3990.59 4
0 7 1 170901 3681.58 4
0 7 -2 31220.3 1395.25 4
0 7 -2 31829.8 1260.43 29
0 7 2 29297.2 1303.57 29
0 7 2 32282.5 1301.03 32
0 7 3 26497.7 1277.56 32
0 7 3 24707 1213.56 29
0 7 -3 25225.4 1333.88 4
0 7 -3 28464.6 1209.18 29
0 7 4 28584.8 1424.87 32
0 7 -4 29540.1 1272.46 29
0 7 4 30606.6 1362.36 29
0 7 -4 28955.8 1507.88 4
0 7 5 2582.59 451.578 32
0 7 -5 2548.38 457.158 4
0 7 6 15893.9 1194.41 32
0 7 -6 15081.6 1192.81 4
0 7 6 17486.5 855.377 16
0 7 6 16702.1 773.669 21
0 7 7 20267.3 890.113 21
0 7 7 18701.4 930.422 16
0 7 8 42068.9 1377.5 21
0 7 8 40908 1454.88 16
0 7 8 43535.4 1438.64 12
0 7 9 7465.27 543.902 16
0 7 9 7838.78 528.382 21
0 7 9 7501.17 519.017 12
0 7 10 16473.6 695.966 21
0 7 10 14905.8 662.634 12
0 7 10 16076.8 726.97 16
0 7 11 55573.5 1235.84 16
0 7 11 57110.4 1200.96 21
0 8 0 3411.2 435.438 29
0 8 0 3262.98 421.367 4
0 8 1 64643.8 1996.41 4
0 8 -1 71138.1 2173.36 29
0 8 1 64961.6 1978.66 32
0 8 -1 67937.5 2210.17 4
0 8 1 74017 2298.96 29
0 8 -2 92560.1 2581.38 29
0 8 2 96524.3 2783.79 29
0 8 -2 101643 2910.02 4
0 8 2 94581 2642.84 32
0 8 3 106988 3067.32 29
0 8 -3 104673 2854.45 29
0 8 3 105320 3015.7 32
0 8 4 34675.9 1677.77 32
0 8 -4 31900.9 1432.07 29
0 8 -4 36472.9 1780.95 4
0 8 4 34524.7 1610.01 29
0 8 5 25789.5 1539.71 32
0 8 5 28013.3 1053.83 16
0 8 -5 24121.8 1520.68 4
0 8 6 14727.1 1218.87 32
0 8 6 15808.7 728.171 21
0 8 -6 15488 1265.1 4
0 8 6 17019.8 836.048 16
0 8 7 1228.57 209.283 21
0 8 7 1476.42 262.687 16
0 8 8 12006.7 707.079 16
0 8 8 11218.1 623.317 21
0 8 8 12139.4 688.782 12
0 8 9 1635.61 220.505 21
0 8 9 1774.81 243.118 12
0 8 9 1381.55 224.262 16
0 8 10 158.356 82.0091 21
0 8 10 30.2171 59.7812 16
0 8 10 188.675 82.9121 12
0 8 11 987.813 112.047 21
0 8 11 1043.64 127.676 16
0 9 0 213.968 132.01 29
0 9 0 33.5479 75.4882 4
0 9 1 16355.1 1073.58 29
0 9 1 14374.7 911.941 4
0 9 -1 14405.4 1002.71 4
0 9 1 14461.5 893.053 32
0 9 -1 13466.4 947.035 29
0 9 2 21033.4 1167.87 32
0 9 -2 19974 1254.05 4
0 9 -2 17831.3 1090.25 29
0 9 2 21848.7 1281.15 29
0 9 3 29833 1552.69 29
0 9 3 27419.8 1457.03 32
0 9 -3 29050.3 1604.4 4
0 9 -3 25921.4 1341.6 29
0 9 4 14081.7 676.174 16
0 9 4 11791.9 986.78 29
0 9 -4 10992.9 862.669 29
0 9 -4 11297.4 678.466 11
0 9 4 12373.2 1027.93 32
0 9 -4 11164.8 1034.25 4
0 9 5 27391 1013.23 16
0 9 -5 24745.2 1587.65 4
0 9 5 23630.8 1531.53 32
0 9 -5 23382 1013.74 11
0 9 -6 39190.5 2099.26 4
0 9 6 41595.4 2157.78 32
0 9 6 43633.4 1390.33 16
0 9 7 5810.14 477.96 16
0 9 7 6132.87 482.849 12
0 9 7 5685.72 418.808 21
0 9 8 1034.59 210.762 12
0 9 8 1080.06 176.056 21
0 9 8 1120.29 212.608 16
0 9 9 4389.74 357.586 12
0 9 9 3711.23 297.939 21
0 9 9 4210.91 352.723 16
0 9 10 4455.73 298.085 12
0 9 10 3918.31 252.757 21
0 9 10 4507.29 310.044 16
0 10 0 10357.9 744.621 32
0 10 0 11922.5 959.112 29
0 10 -1 6338.54 706.092 29
0 10 1 7102.89 654.674 32
0 10 -1 6218.33 700.295 4
0 10 1 7397.8 762.914 29
0 10 1 6990.95 655.858 4
0 10 -2 539.333 216.829 4
0 10 2 427.807 201.578 32
0 10 2 220.35 167.292 29
0 10 -2 154.519 143.488 29
0 10 3 12614.7 608.146 12
0 10 3 12037.9 974.014 32
0 10 -3 11726.3 712.257 11
0 10 3 12248.2 1034.4 29
0 10 -3 12309.6 1067.08 4
0 10 -3 10008.8 874.681 29
0 10 -4 31767.5 1823.96 4
0 10 -4 29904.7 1547.47 29
0 10 4 30764.5 1724.63 29
0 10 -4 31918.7 1239.48 11
0 10 4 33883.1 1784.12 32
0 10 4 34591.5 1123.97 12
0 10 5 19434.1 834.418 16
0 10 5 20401 864.863 12
0 10 5 17803.7 1341.93 32
0 10 -5 19066.5 916.876 11
0 10 -5 18964.9 1438.97 4
0 10 6 10956 630.635 16
0 10 6 12279.7 678.589 12
0 10 -7 2836.65 329.425 24
0 10 7 3029.72 322.882 16
0 10 7 2925.33 325.051 12
0 10 8 7436.02 482.426 16
0 10 8 7862.38 501.772 12
0 10 9 11996.4 550.232 16
0 10 9 12999.7 574.076 12
0 10 10 7606.8 350.147 16
0 10 10 7108.03 336.265 12
0 11 0 298.512 203.849 29
0 11 0 613.326 220.685 4
0 11 -1 13529.7 1065.15 4
0 11 1 11519.5 867.657 32
0 11 -1 9735.15 910.499 29
0 11 1 12312.4 1030.38 29
0 11 2 8786.64 890.684 29
0 11 -2 8952.76 907.662 4
0 11 -2 7429.69 567.345 11
0 11 2 8319.41 780.36 32
0 11 -2 6935.78 759.566 29
0 11 -3 32243.7 1826.9 4
0 11 -3 29613.9 1617.48 29
0 11 -3 33815.7 1272.32 11
0 11 3 31194.8 1636.31 32
0 11 3 33869.7 1081.31 12
0 11 3 33551.6 1828.33 29
0 11 4 17155.5 755.557 12
0 11 4 15617.6 1192.27 32
0 11 4 14059.7 1168.49 29
0 11 -4 15521.7 1288.42 4
0 11 -4 16161.5 849.734 11
0 11 -5 13549.4 769.811 11
0 11 5 14114.5 674.212 16
0 11 5 15085.1 724.346 12
0 11 6 5573.62 419.722 16
0 11 6 5517.46 431.582 12
0 11 -6 4824.7 420.111 11
0 11 7 2298.46 263.167 16
0 11 7 2405.31 281.004 12
0 11 -7 2011.95 272.621 24
0 11 8 11170.7 541.336 16
0 11 8 10522.6 525.584 8
0 11 9 11719.3 484.756 16
0 11 9 13644 532.854 12
0 12 0 42806.7 2069.95 29
0 12 0 44654.9 1488.43 11
0 12 -1 14769.7 1173.44 29
0 12 -1 14677.4 810.309 11
0 12 1 14033.1 771.089 11
0 12 -1 12547 1100.19 4
0 12 1 14575.6 1194.66 29
0 12 -2 28343.9 1160.61 11
0 12 -2 24079.1 1514.54 29
0 12 -2 27854.3 1679.73 4
0 12 2 27804.8 1668.51 29
0 12 2 26208.4 1059.68 11
0 12 -3 27168.5 1151.68 11
0 12 -4 32028.3 1256.15 11
0 12 4 35585.9 1125.86 12
0 12 5 3781.17 338.063 12
0 12 -5 2956.77 349.143 11
0 12 6 476.281 127.682 12
0 12 -6 294.749 107.392 11
0 12 6 575.454 125.187 16
0 12 -7 1057.39 183.335 24
0 12 7 936.147 154.433 16
0 12 7 1158.09 180.951 12
0 12 8 581.469 122.416 12
0 12 8 428.447 103.593 8
0 12 8 597.098 106.651 16
0 12 9 9008.08 370.763 12
0 13 0 -63.2748 83.4563 8
0 13 0 189.632 111.868 11
0 13 1 4748.83 442.782 11
0 13 -1 5601.85 490.505 11
0 13 2 7896.2 548.403 11
0 13 -2 7912.16 596.046 11
0 13 -3 322.087 124.284 11
0 13 4 50988.5 1357.82 12
0 13 -4 49559.3 1574.13 11
0 13 5 1731.09 216.145 12
0 13 -5 1337.63 228.765 11
0 13 -6 22788 865.204 11
0 13 -6 24225.2 975.95 24
0 13 6 25163.2 840.854 12
0 13 -7 1105.04 173.099 24
0 13 7 1307.48 183.028 8
0 13 7 1163.1 157.904 12
0 13 8 1321.43 137.336 8
0 13 8 2079.34 176.606 12
0 14 0 16768 758.085 8
0 14 0 16605 845.54 11
0 14 1 227.767 92.6889 8
0 14 -1 116.546 107.339 11
0 14 1 297.136 123.594 11
0 14 2 18740.8 846.519 8
0 14 2 18341.7 846.404 11
0 14 -2 21079.3 968.465 11
0 14 -3 451.428 159.241 11
0 14 3 442.45 137.428 8
0 14 -4 125.051 78.7881 11
0 14 4 289.314 108.061 8
0 14 5 15057.3 690.647 8
0 14 -5 13801.5 682.118 11
0 14 5 13389.8 545.386 12
0 14 -6 6209.16 382.96 11
0 14 6 8540.97 467.657 8
0 14 6 7092.81 362.147 12
0 14 -6 7598.98 469.177 24
0 14 -7 12856.3 515.107 24
0 14 7 14489.6 479.561 12
0 15 0 -24.2406 65.519 11
0 15 1 2914.27 297.239 8
0 15 1 2921.83 315.878 11
0 15 -1 3242.44 355.939 11
0 15 -2 12227.9 695.18 11
0 15 2 12397.2 634.086 8
0 15 -3 32147 1145.02 11
0 15 3 29306.8 1016.07 8
0 15 4 1722.41 220.272 8
0 15 -4 1747.33 242.017 11
0 15 -5 40720.9 1204.64 24
0 15 5 43334 1140.89 8
0 15 -6 1197.16 159.842 24
0 15 6 1177.06 150.58 8
0 16 0 1641.35 223.474 11
0 16 1 1914.28 234.734 11
0 16 -1 2152.86 275.844 11
0 16 1 2145 225.459 8
0 16 2 2192.15 227.675 11
0 16 -2 2898.01 305.398 11
0 16 2 2854.6 264.719 8
0 16 -3 18111.6 751.89 11
0 16 3 15042.5 616.56 8
0 16 -4 19225.9 731.408 11
0 16 4 18253.4 652.454 8
0 16 -5 15752.4 561.401 11
0 16 5 17334.1 568.918 8
0 17 0 154.084 64.8546 24
0 17 0 20.8632 60.936 11
0 17 1 13987.4 530.715 11
0 17 -1 14922 583.28 24
0 17 -2 219.861 73.9852 24
0 17 -2 283.689 93.2023 11
0 17 2 274.188 96.8278 8
0 17 -3 10277.4 472.237 11
0 17 -3 10941.9 486.031 24
0 17 -4 9766.26 419.865 24
-1 -17 4 9081.97 364.596 7
-1 -17 3 2588.79 208.041 7
-1 -17 2 4269.1 281.904 7
-1 -17 1 3414.74 253.938 7
-1 -17 0 780.02 117.102 7
1 -17 1 5080.55 292.447 7
1 -17 2 3438.84 222.43 15
1 -17 3 6032.4 274.708 15
-1 -16 5 1910.39 179.445 7
-1 -16 4 554.493 88.8159 15
1 -16 -4 556.149 85.7277 13
-1 -16 3 3466.93 236.216 15
1 -16 -3 4303.75 241.891 13
-1 -16 2 10491.9 536.412 7
1 -16 -2 9302.82 388.221 13
-1 -16 1 7409.9 445.906 7
1 -16 -1 6677.55 331.442 13
1 -16 0 463.918 112.406 7
1 -16 0 295.323 79.574 13
-1 -16 0 381.824 112.581 7
-1 -16 -1 12032.6 542.955 7
1 -16 1 12204.3 580.935 7
1 -16 2 12834 597.252 7
1 -16 3 7580.94 401.129 15
1 -16 3 6676.56 408.106 7
1 -16 4 6475.8 339.824 15
1 -16 5 574.828 87.7855 15
-1 -15 6 1525.58 150.282 15
1 -15 -6 1821.51 138.194 13
-1 -15 5 2660.66 257.51 7
-1 -15 5 2302.03 213.862 15
1 -15 -5 2719.31 200.383 13
-1 -15 4 11625.7 587.176 7
1 -15 -4 10735.1 448.206 13
-1 -15 4 10140.2 485.45 15
-1 -15 3 1372.85 184.156 15
1 -15 -3 1530.98 171.646 13
-1 -15 3 1774.02 241.426 7
1 -15 -2 13403.4 545.603 13
-1 -15 2 14721.1 720.807 7
-1 -15 1 3090.15 320.396 7
1 -15 -1 2454.52 262.709 7
1 -15 -1 2697.02 236.505 13
-1 -15 0 804.438 161.45 7
1 -15 0 602.795 140.677 7
1 -15 0 633.303 118.77 13
1 -15 1 206.765 81.2501 13
-1 -15 -1 324.476 109.809 7
1 -15 1 280.406 101.853 7
1 -15 2 4235.74 297.887 13
-1 -15 -2 4870.03 361.311 7
1 -15 3 8963.56 549.696 7
1 -15 3 7569.59 386.885 13
1 -15 4 4198.59 333.153 15
1 -15 4 4200.7 353.18 7
1 -15 5 52655.2 1269.32 15
1 -15 6 720.385 108.325 15
-1 -14 7 1183.7 142.816 15
-1 -14 7 1143.03 121.041 25
1 -14 -7 1392.06 134.571 13
1 -14 -6 3225.39 232.876 13
-1 -14 6 2486.56 213.752 25
-1 -14 6 2453.54 234.507 15
-1 -14 6 2650.79 265.715 7
-1 -14 5 6567.66 384.586 25
-1 -14 5 7240.16 476.1 7
-1 -14 5 7343.66 438.08 15
1 -14 -5 7161.3 386.171 13
-1 -14 4 2753.41 277.766 15
1 -14 -4 2422.88 234.739 13
-1 -14 4 2748.96 308.233 7
1 -14 -3 2527.11 243.618 13
-1 -14 3 2944.87 331.35 7
-1 -14 3 2468.83 282.647 15
1 -14 -2 2403.14 240.471 13
-1 -14 2 2270.81 295.578 7
1 -14 -1 13541.2 599.341 13
-1 -14 1 14851.2 765.098 7
1 -14 -1 13853.4 695.242 7
1 -14 0 3255.86 341.207 7
1 -14 0 3108.54 278.024 13
1 -14 1 194.93 108.898 7
1 -14 1 177.504 94.686 13
1 -14 2 8669.95 585.304 7
1 -14 2 8346.22 471.046 13
1 -14 3 13932 613.648 13
1 -14 3 15624.4 792.309 7
1 -14 4 41860 1246.43 15
1 -14 4 37805.9 1258.3 7
1 -14 5 13531.5 673.859 7
1 -14 5 14651.3 657.775 15
1 -14 6 2045.14 217.996 15
1 -14 7 4702.89 279.119 15
-1 -13 8 3915.7 259.384 15
-1 -13 8 4030.58 244.542 25
1 -13 -8 4758.34 251.393 13
-1 -13 7 2608.02 247.186 15
-1 -13 7 2465.52 228.377 25
1 -13 -7 2971.62 236.319 13
-1 -13 6 692.583 145.111 25
1 -13 -6 786.025 141.21 13
-1 -13 6 819.992 164.247 15
-1 -13 6 837.323 169.613 7
-1 -13 5 6853.93 467.788 15
1 -13 -5 7439.54 437.492 13
-1 -13 5 6733.92 441.314 25
-1 -13 5 7185.32 508.362 7
-1 -13 4 11703.7 602.386 25
1 -13 -4 13168.5 605.969 13
-1 -13 4 11985.4 692.741 7
-1 -13 4 12854.6 672.704 15
-1 -13 3 12498.2 710.287 7
-1 -13 3 10327.1 562.943 25
1 -13 -3 12216.1 582.842 13
-1 -13 2 8693.99 589.169 7
1 -13 -2 7451.98 452.899 13
1 -13 -1 1771.94 259.125 7
1 -13 -1 2207.06 239.665 13
1 -13 0 7655.5 548.878 7
1 -13 0 7198.95 446.432 13
1 -13 1 1532.1 259.057 7
1 -13 1 1346.32 196.685 13
1 -13 2 3779.61 327.771 13
1 -13 2 4104.36 407.271 7
1 -13 3 5134.75 384.584 13
1 -13 3 5368.58 477.301 7
1 -13 4 2779.28 343.506 7
1 -13 4 2062.44 241.707 13
1 -13 5 5274.84 457.685 7
1 -13 5 5519.16 371.145 13
1 -13 5 6447.71 468.388 15
1 -13 6 4445.39 310.419 13
1 -13 6 6355.64 429.213 15
1 -13 7 5868.64 306.595 13
1 -13 7 7878.14 422.908 15
1 -13 8 3006.64 213.368 15
-1 -12 9 448.004 84.6133 15
-1 -12 9 525.488 90.5121 25
1 -12 -9 586.003 89.862 13
-1 -12 8 13834.4 583.226 15
-1 -12 8 13171.5 554.302 25
-1 -12 7 18767.2 749.498 25
-1 -12 7 19798.3 791.752 15
-1 -12 6 3720.52 340.077 25
-1 -12 6 3605.44 351.197 15
-1 -12 6 3130.41 344.347 7
-1 -12 5 5906.43 440.026 25
-1 -12 5 6200.48 492.95 7
-1 -12 5 5485.67 455.914 15
-1 -12 4 38780.5 1335.56 7
-1 -12 4 39041.2 1296.94 15
-1 -12 3 3706.01 339.19 25
1 -12 -3 3682.83 334.706 13
-1 -12 3 3590.14 383.437 7
1 -12 -2 30713.9 1005.99 13
-1 -12 2 30203.7 1030.3 25
1 -12 -2 29467.4 1512.96 5
1 -12 -2 29560 1443.36 30
-1 -12 2 31413.3 1712.64 1
1 -12 -1 25465.8 1468.82 1
-1 -12 1 27494.2 1585.82 1
1 -12 -1 24218 1246.27 30
1 -12 -1 27607.3 1047.93 7
1 -12 -1 27539.6 929.491 13
-1 -12 0 3915.21 580.726 1
1 -12 0 3733.79 538.804 1
1 -12 0 4747.49 430.914 7
1 -12 0 4394.36 348.148 13
-1 -12 -1 13031.2 1008.64 5
1 -12 1 15056.4 798.764 7
1 -12 1 13425.6 635.085 13
-1 -12 -2 12549.3 1071.95 1
-1 -12 -2 12180.5 966.544 5
1 -12 2 12902.7 629.171 13
1 -12 2 14374.5 788.112 7
1 -12 3 36117.8 1152.4 13
1 -12 3 38251.7 1373.93 7
1 -12 4 20789.6 832.733 13
1 -12 4 21533.8 1000.61 7
1 -12 5 722.878 152.869 13
1 -12 5 817.782 192.865 7
1 -12 5 953.562 220.512 15
1 -12 6 453.047 149.611 7
1 -12 6 523.281 123.685 13
1 -12 6 509.169 149.58 15
1 -12 7 4487.47 359.417 15
1 -12 7 3997.24 291.393 25
1 -12 7 4145.92 301.264 13
1 -12 8 2496.71 189.141 25
1 -12 8 2261.41 186.018 13
1 -12 9 7115.09 301.616 15
-1 -11 10 4038.79 222.199 15
-1 -11 9 558.343 110.199 25
-1 -11 9 444.418 106.194 15
-1 -11 8 5701.27 349.132 10
-1 -11 8 6233.69 420.202 25
-1 -11 8 5896.03 418.346 15
-1 -11 7 29374.4 954.459 10
-1 -11 7 31277.1 1081.76 25
-1 -11 7 31085 1101.88 15
-1 -11 7 28171 1059.67 7
-1 -11 6 1156.11 207.958 25
-1 -11 6 976.528 208.013 7
-1 -11 6 898.476 200.464 15
-1 -11 5 48183.9 1499.58 15
-1 -11 5 49239.4 1545.18 7
-1 -11 4 94278.9 2318.55 7
1 -11 -4 89765.3 2841.14 5
1 -11 -4 92563.5 2921.63 30
-1 -11 4 86506 2124.45 25
1 -11 -3 12879 951.064 5
1 -11 -3 13711.9 978.84 30
-1 -11 3 13438.1 736.872 7
-1 -11 3 11964.2 996.862 1
-1 -11 3 12251.7 639.722 25
1 -11 -2 20276.2 1156.18 30
-1 -11 2 18082.5 1233.55 1
1 -11 -2 17115 729.27 13
-1 -11 2 19505.3 796.535 25
1 -11 -2 19496 1163.74 5
1 -11 -1 10943.5 866.149 5
1 -11 -1 11134.9 554.748 13
1 -11 -1 11554.3 829.656 30
-1 -11 1 11667.4 978.82 1
-1 -11 0 25076.8 1334.03 5
1 -11 0 26777.8 1405.49 1
-1 -11 0 28595.2 1538.71 1
1 -11 0 24807.4 870.546 13
1 -11 0 24692.7 1197.82 30
1 -11 0 27202.4 1051.13 7
1 -11 1 5067.11 575.608 1
1 -11 1 4674.3 355.073 13
-1 -11 -1 5196.63 590.394 5
-1 -11 -1 5843.56 701.402 1
1 -11 1 5855.44 477.871 7
-1 -11 -1 4042.27 346.173 19
-1 -11 -2 8651.2 770.946 3
-1 -11 -2 8210.63 764.95 5
1 -11 2 8555.27 588.804 7
1 -11 2 7769.86 477.098 13
1 -11 3 24973.9 1064.21 7
-1 -11 -3 21934.7 1298.21 5
1 -11 3 21693.1 861.209 13
-1 -11 -3 22641.4 1313.07 3
1 -11 4 21240.7 1001.99 7
1 -11 4 19252.9 816.514 13
1 -11 5 53289.3 1487.73 13
1 -11 5 54941.9 1744.48 7
1 -11 5 56048.7 1771.6 15
1 -11 5 50319.8 1417.08 26
1 -11 5 55762.9 1525.98 25
1 -11 6 1827.45 239.815 13
1 -11 6 1508.1 211.572 26
1 -11 6 1941.88 293.163 7
1 -11 6 1873.46 243.199 25
1 -11 6 1875.14 277.483 15
1 -11 7 1087.35 170.531 26
1 -11 7 1279.91 192.801 25
1 -11 7 1111.87 181.312 13
1 -11 7 1584.8 241.776 15
1 -11 8 20119 708.408 25
1 -11 8 18232.7 643.245 26
1 -11 8 19270.3 675.496 13
1 -11 9 361.209 71.8073 25
1 -11 9 279.845 66.1491 26
1 -11 9 350.389 86.8361 15
-1 -10 10 17220.9 588.455 15
-1 -10 10 17764 594.78 25
-1 -10 9 4824.81 362.613 25
-1 -10 9 5687.83 395.071 15
-1 -10 8 6488.1 478.713 15
-1 -10 8 5357.31 386.585 10
-1 -10 8 6540.75 466.323 25
-1 -10 7 2136.06 289.545 25
-1 -10 7 1608.16 225.473 10
-1 -10 7 1479.84 246.786 15
-1 -10 7 1461.87 250.132 7
-1 -10 6 2792.12 298.116 10
-1 -10 6 3116.67 355.173 15
-1 -10 6 2939.66 337.812 25
-1 -10 6 2938.67 350.135 7
-1 -10 5 5226.57 436.042 25
1 -10 -5 5095.92 649.785 30
1 -10 -5 4339.52 565.062 5
-1 -10 5 5979.81 505.81 15
-1 -10 5 5519.26 481.256 7
-1 -10 5 4862.82 386.19 10
1 -10 -4 27252.6 1403.82 5
-1 -10 4 28169.9 1039.34 25
-1 -10 4 28552 1117.85 7
1 -10 -4 28002.3 1469.92 30
1 -10 -4 26325.7 1332.16 3
-1 -10 4 24656.1 1455.74 1
1 -10 -3 21288.4 1185.76 5
-1 -10 3 21070.6 851.508 25
-1 -10 3 21975 1347.44 1
1 -10 -3 21073.4 1196.81 30
1 -10 -2 26510 1286.45 5
-1 -10 2 28684.7 1487.36 1
-1 -10 1 26199.9 954.072 19
1 -10 -1 28318.3 1329.5 5
1 -10 -1 31704.1 1328.64 30
-1 -10 1 32295 1546.64 1
1 -10 0 33064.5 1498.75 1
1 -10 0 34630.9 1383.57 30
-1 -10 0 35254 1513.33 5
-1 -10 0 36931.9 1676.32 1
1 -10 1 3566.33 298.212 13
1 -10 1 3862.22 375.048 7
-1 -10 -1 3587.33 473.527 3
1 -10 1 3138.8 378.89 30
1 -10 1 3294.02 449.012 1
-1 -10 -1 4346.54 510.356 5
1 -10 2 79631.8 1851.35 13
-1 -10 -2 87444.8 2594.44 5
-1 -10 -2 83626.7 2570.77 3
1 -10 2 86188.8 2562.12 1
1 -10 2 80411.8 2274.48 30
-1 -10 -2 85744.3 2363.94 30
1 -10 2 87134.7 2155.81 7
1 -10 3 10520.5 654.331 7
-1 -10 -3 10156.1 841.453 5
1 -10 3 9727.94 544.144 13
-1 -10 -3 9725.2 815.165 3
-1 -10 -3 10962.7 798.49 30
1 -10 4 7586.07 497.94 13
-1 -10 -4 7520.97 731.047 5
-1 -10 -4 7162.58 682.394 30
1 -10 4 7747.01 587.154 7
-1 -10 -4 6630.76 703.838 3
1 -10 5 79489.3 2168.4 7
1 -10 5 75023.3 1903.2 13
-1 -10 -5 70570.1 2497.84 30
-1 -10 -5 77044.8 2625.87 5
-1 -10 -5 74180.7 2573.41 3
1 -10 5 73051 1828.53 26
1 -10 5 73898.6 1906.49 25
1 -10 6 387.052 170.416 7
1 -10 6 384.002 137.864 25
1 -10 6 537.646 164.762 15
1 -10 6 236.888 109.068 26
1 -10 6 586.36 159.513 13
1 -10 7 16562.9 738.365 26
1 -10 7 17364.6 772.805 13
1 -10 7 18464.9 873.874 15
1 -10 7 17932.5 802.741 25
1 -10 8 700.686 147.882 13
1 -10 8 630.16 138.52 25
1 -10 8 848.382 173.675 15
1 -10 8 852.445 155.557 26
1 -10 9 1768.65 185.1 13
1 -10 9 1927.77 203.991 25
1 -10 9 1885.34 191.019 26
1 -10 9 1976.11 217.484 15
1 -10 10 2004.08 158.37 15
-1 -9 11 484.303 78.7031 25
-1 -9 11 561.093 84.2018 15
-1 -9 10 8357.96 441.467 15
-1 -9 10 8116.2 434.461 25
-1 -9 9 15217 722.529 15
-1 -9 9 14120.9 640.855 10
-1 -9 9 15227.5 714.941 25
-1 -9 8 10961.3 605.791 10
-1 -9 8 11410.1 663.211 25
-1 -9 8 9561.11 521.528 26
-1 -9 8 11536.6 694.44 15
-1 -9 7 9036.75 563.111 10
-1 -9 7 8163.22 498.175 26
-1 -9 7 9926.85 635.048 25
-1 -9 7 9125.01 634.611 15
-1 -9 7 8154.92 582.474 7
-1 -9 6 7293.6 497.751 10
-1 -9 6 6545.26 536.762 15
1 -9 -6 6308.88 684.239 5
-1 -9 6 6355.65 508.352 25
1 -9 -6 6487.1 726.821 30
-1 -9 6 6411.2 510.149 7
1 -9 -5 2757.7 450.533 5
1 -9 -5 3741.65 467.616 3
-1 -9 5 3326.53 385.607 15
1 -9 -5 3638.59 529.999 30
-1 -9 5 3311.94 322.055 10
-1 -9 5 3113.45 353.295 7
-1 -9 5 3286.64 353.536 25
1 -9 -4 3012.47 421.878 3
1 -9 -4 2722.2 432.512 30
-1 -9 4 3109.23 322.134 25
-1 -9 4 3253.8 355.619 7
-1 -9 4 3914.15 547.31 1
1 -9 -4 2683.5 415.654 5
-1 -9 3 79074.4 2631.73 1
1 -9 -3 73626.5 2278.42 5
1 -9 -3 72691.5 2263.15 3
-1 -9 2 123420 3306.1 1
1 -9 -2 120019 2977.56 30
1 -9 -1 30367 1262.45 30
-1 -9 1 31494.5 1347.94 5
-1 -9 1 34214.2 1513.26 1
1 -9 -1 31643 1326.18 5
1 -9 0 94774.7 2606.29 5
1 -9 0 93640.6 2423.93 30
-1 -9 0 96750.1 2241.52 30
-1 -9 0 99175.5 2813.01 1
-1 -9 0 94388.3 2566.23 3
-1 -9 0 98940.8 2626.34 5
-1 -9 -1 136403 2999.05 30
-1 -9 -1 145073 3353.15 5
-1 -9 -1 137645 3316.46 3
1 -9 1 136380 3290.18 1
1 -9 1 131843 3072.18 30
-1 -9 -2 12193.2 833.104 3
1 -9 2 11931.9 733.808 30
1 -9 2 10990.3 787.499 1
-1 -9 -2 11616 829.418 5
-1 -9 -2 12125.4 754.118 30
-1 -9 -3 27833.6 1336.54 5
-1 -9 -3 27722.9 1274.95 30
1 -9 3 26386 1177.52 30
-1 -9 -3 26949.7 1331.02 3
1 -9 3 26479.7 1050.06 7
1 -9 3 26181.4 916.856 13
1 -9 4 9699.3 556.401 13
-1 -9 -4 10121 811.872 30
1 -9 4 10731.9 668.358 7
-1 -9 -4 10197.3 834.195 3
-1 -9 -4 10746.4 844.694 5
1 -9 4 9381.19 562.046 25
-1 -9 -5 18172.3 1155.17 5
1 -9 5 17719.1 911.704 7
-1 -9 -5 16467.1 1119.5 30
1 -9 5 17593.5 813.671 25
-1 -9 -5 16066.3 1092.45 3
1 -9 5 16866.9 795.067 13
1 -9 6 34699.1 1215.57 13
1 -9 6 34000.5 1211.58 25
1 -9 6 32375.2 1162.17 26
1 -9 6 34986.5 1359.6 7
1 -9 7 4853.83 421.583 13
1 -9 7 4893.79 431.392 25
1 -9 7 5171.42 417.856 26
1 -9 7 4779.96 462.208 15
1 -9 8 5197.13 446.579 15
1 -9 8 5250.72 410.018 13
1 -9 8 5063.97 394.07 26
1 -9 8 5379.41 429.796 25
1 -9 9 8087.83 472.613 25
1 -9 9 7119.06 418.199 26
1 -9 9 7323.41 426.658 13
1 -9 9 7716.1 479.68 15
1 -9 10 18182.8 575.335 26
1 -9 10 18418.6 614.728 15
1 -9 10 19763.9 629.136 25
-1 -8 11 1068.66 137.413 15
-1 -8 11 1200.94 143.02 25
-1 -8 10 5183.31 385.421 15
-1 -8 10 4570.97 307.066 26
-1 -8 10 4939.65 371.843 25
-1 -8 9 612.03 130.756 13
-1 -8 9 909.685 185.3 25
-1 -8 9 1066.93 174.458 26
-1 -8 9 1104.8 197.199 10
-1 -8 9 923.476 207.526 15
-1 -8 8 8012.99 508.068 26
-1 -8 8 8605.75 597.608 25
-1 -8 8 7492.07 486.554 13
-1 -8 8 8149.14 547.822 10
-1 -8 8 8160.56 597.665 15
-1 -8 7 12585.8 731.624 25
-1 -8 7 12140.6 639.311 26
-1 -8 7 12316.4 681.91 10
-1 -8 7 10763 661.885 7
-1 -8 7 10824.4 605.849 13
-1 -8 7 13404.9 785.12 15
-1 -8 6 41199.7 1394.92 7
-1 -8 6 46488.7 1536.18 15
-1 -8 6 46753.6 1402.21 10
1 -8 -6 42059.7 1792.19 5
1 -8 -6 47537.2 2050.18 30
-1 -8 6 41871.4 1284.79 26
-1 -8 6 46889.6 1474.29 25
1 -8 -5 3617.06 511.487 30
-1 -8 5 3610.03 367.108 7
-1 -8 5 3790.12 371.262 25
-1 -8 5 4129.66 413.284 15
1 -8 -5 3327.95 435.439 3
1 -8 -5 2970.68 431.133 5
-1 -8 5 3109.39 314.353 10
1 -8 -4 40309.1 1659.62 30
-1 -8 4 38007.7 1725.78 1
1 -8 -4 35127 1431.26 3
1 -8 -4 36911.7 1513.13 5
1 -8 -3 72988.6 2134.94 3
1 -8 -3 77338.7 2276.99 30
-1 -8 3 77161.1 2479.84 1
1 -8 -3 71547.3 2134.78 5
-1 -8 2 92137.4 2653.09 1
1 -8 -2 86613.3 2355.9 30
1 -8 -2 89700.3 2379.51 5
1 -8 -2 89369.1 2359.59 3
1 -8 -1 42423.4 1477.18 5
-1 -8 1 40834.8 1459.44 5
1 -8 -1 40637.8 1403.6 30
-1 -8 1 39792 1557.48 1
-1 -8 1 40296.4 1140.65 30
-1 -8 0 14832.4 820.088 3
1 -8 0 13812.5 749.294 30
-1 -8 0 14575.6 808.216 5
-1 -8 0 12983.9 634.017 30
1 -8 0 14150.9 819.091 5
1 -8 1 43143.2 1518.39 1
-1 -8 -1 47091.4 1592.91 5
-1 -8 -1 44165.9 1368.08 30
1 -8 1 43055.3 1422.23 30
-1 -8 -1 48035.5 1604.09 3
-1 -8 -2 47720.2 1558.46 30
1 -8 2 47441.2 1542.15 30
-1 -8 -2 52993.5 1749.25 3
-1 -8 -2 50222 1705.2 5
1 -8 2 53531.4 1733.34 1
-1 -8 -3 6700.21 586.431 30
1 -8 3 6376.05 582.184 1
1 -8 3 6089.31 539.527 30
-1 -8 -3 6700.89 598.027 5
-1 -8 -3 5834.88 567.699 3
-1 -8 -4 27295.3 1328.86 30
1 -8 4 27211.1 1072.03 7
-1 -8 -4 27393.2 1327.94 5
-1 -8 -4 28631.9 1355.11 3
-1 -8 -5 39816.6 1694.49 3
1 -8 5 37335.6 1249.21 25
1 -8 5 38094.4 1360.88 7
-1 -8 -5 40623.1 1755.82 30
1 -8 5 36670.3 1224.44 13
-1 -8 -5 35973.8 1625.9 5
-1 -8 -6 20266 1246.75 5
1 -8 6 21378.8 868.41 10
1 -8 6 21341.6 936.62 25
-1 -8 -6 20216 1310.23 30
1 -8 6 21811.1 1023.25 15
1 -8 6 20357.6 1002.86 7
-1 -8 -6 20679.9 1258.34 3
1 -8 6 20590.6 910.1 26
1 -8 6 20299.2 911.817 13
1 -8 7 18643.6 883.157 25
1 -8 7 18925 866.807 26
1 -8 7 18375.4 870.098 13
1 -8 7 17813.8 913.279 15
1 -8 8 12136 690.17 25
1 -8 8 11929.8 671.536 13
1 -8 8 12264.7 718.174 15
1 -8 8 12099.2 660.446 26
1 -8 9 15054.6 719.466 25
1 -8 9 13532.9 647.357 26
1 -8 9 13602.4 654.886 13
1 -8 9 14463.7 712.139 15
1 -8 10 9921.04 485.654 25
1 -8 10 9607.09 450.061 26
1 -8 10 8732.09 449.552 15
-1 -7 11 9565.59 454.562 15
-1 -7 11 9639.56 457.614 25
-1 -7 10 8344.32 525.453 25
-1 -7 10 8896.11 545.393 15
-1 -7 10 8076.79 458.896 26
-1 -7 9 1604.5 222.996 13
-1 -7 9 1814.42 247.437 26
-1 -7 9 1469.01 240.811 10
-1 -7 9 1739.79 286.412 15
-1 -7 9 1704.23 271.672 25
-1 -7 8 9364.08 611.012 10
-1 -7 8 8458.83 628.413 15
-1 -7 8 8574.02 550.957 26
-1 -7 8 9034 620.963 25
-1 -7 8 7761.94 531.43 13
-1 -7 7 13422.5 703.201 26
1 -7 -7 14848.3 1150.03 30
1 -7 -7 12002.1 936.925 5
-1 -7 7 14965.7 767.879 10
-1 -7 7 12654.7 674.478 13
-1 -7 7 15778.9 848.455 15
-1 -7 7 14535.3 796.757 25
-1 -7 6 4423.36 394.554 10
-1 -7 6 3207.07 319.805 13
1 -7 -6 3605.21 534.812 30
-1 -7 6 4140.35 408.638 15
-1 -7 6 3913.68 389.953 25
-1 -7 6 3883.3 350.201 26
1 -7 -6 3996.13 502.428 5
-1 -7 6 4333.01 468.341 31
-1 -7 6 3459.02 360.571 7
-1 -7 5 2835.62 338.438 31
1 -7 -5 2652.84 360.484 3
1 -7 -5 2683 396.486 5
1 -7 -5 2695.83 433.164 30
1 -7 -4 9672.56 670.772 3
-1 -7 4 9528.19 550.051 31
-1 -7 4 9940.4 819.159 1
1 -7 -4 10020.2 763.352 30
1 -7 -4 9265.28 673.39 5
1 -7 -3 86339.3 2219.62 3
-1 -7 3 82011.5 2514.51 1
1 -7 -3 83983.7 2324 30
1 -7 -3 84152.4 2210.04 5
-1 -7 2 12662.6 838.708 1
1 -7 -2 13152.8 725.853 3
1 -7 -2 12826 720.351 5
1 -7 -2 12793.4 740.204 30
1 -7 -1 4807.45 429.302 5
1 -7 -1 5184.53 433.135 30
-1 -7 1 4999.68 435.716 5
-1 -7 1 5180.02 335.988 30
-1 -7 1 5080.08 504.018 1
1 -7 0 8487.42 573.395 5
-1 -7 0 7186.84 526.308 5
1 -7 0 8237.04 542.692 30
-1 -7 0 7507.94 439.759 30
-1 -7 0 7958.24 545.056 3
1 -7 1 80078.2 1680.21 31
-1 -7 -1 84540.3 2140.13 5
-1 -7 -1 86582.1 2161.46 3
1 -7 1 83942.2 2121.65 1
-1 -7 -1 81262.3 1936.21 30
1 -7 1 83045.6 2035.24 30
-1 -7 -2 232771 4367.24 5
-1 -7 -2 235245 4411.47 3
1 -7 2 216001 4308.74 1
-1 -7 -2 211223 4171.85 30
1 -7 2 210509 3847.12 31
1 -7 2 212378 4171.97 30
1 -7 3 35063.4 1337.07 1
-1 -7 -3 33954.1 1334.94 30
1 -7 3 32661.6 1124.2 31
-1 -7 -3 34940.5 1352.25 5
1 -7 3 33677.4 1279.54 30
-1 -7 -3 36508.4 1408.36 3
1 -7 4 16145.8 838.238 31
-1 -7 -4 15259.7 930.807 3
-1 -7 -4 16532.6 955.912 5
-1 -7 -4 17129.4 1002.67 30
-1 -7 -5 2020.06 365.302 5
-1 -7 -5 1814.22 335.125 3
1 -7 5 1722.86 245.27 13
-1 -7 -5 1844.18 347.988 30
1 -7 5 1643.71 280.17 31
1 -7 5 1786.59 242.298 25
1 -7 5 1806.75 270.177 7
1 -7 6 22230.1 956.778 25
1 -7 6 20995.3 920.037 26
-1 -7 -6 22265.6 1279.96 5
-1 -7 -6 21344.7 1236.9 3
1 -7 6 19593.8 959.074 7
1 -7 6 20321.5 1132.75 31
1 -7 6 24154 1051.21 15
-1 -7 -6 22892.7 1370.23 30
1 -7 6 22812.1 912.224 10
1 -7 6 21074.6 925.616 13
-1 -7 -7 9645.11 947.556 30
1 -7 7 11716.5 701.543 13
-1 -7 -7 10732.7 901.846 3
1 -7 7 12381.2 710.874 26
1 -7 7 8797.38 787.552 31
1 -7 7 12580.2 681.718 10
-1 -7 -7 10879.9 940.269 5
1 -7 7 12366.7 723.618 25
1 -7 7 11633.7 735.183 15
1 -7 8 149.83 102.723 26
1 -7 8 155.929 117.897 25
1 -7 8 140.188 108.932 15
1 -7 8 159.882 111.463 13
1 -7 9 13988.5 727.85 25
1 -7 9 14022.1 732.026 15
1 -7 9 13959.5 697.85 26
1 -7 9 12941 638.901 9
1 -7 9 13317.3 694.425 13
1 -7 10 3150.28 280.313 26
1 -7 10 3131.42 296.667 25
1 -7 10 2689.79 266.676 15
1 -7 11 1394.8 143.996 26
1 -7 11 1110.34 124.134 15
1 -7 11 1316.69 143.819 25
-1 -6 11 9649.92 454.832 26
-1 -6 11 10150.1 510.779 15
-1 -6 11 9166.3 486.122 25
-1 -6 10 6253.38 436.805 26
-1 -6 10 6714.92 497.595 15
-1 -6 10 6300.08 475.262 25
-1 -6 9 6969.59 493.372 13
-1 -6 9 7419.1 571.662 15
-1 -6 9 7823.84 564.842 10
-1 -6 9 7672.98 529.592 26
-1 -6 9 7093.47 550.112 25
-1 -6 8 6525.35 487.584 13
-1 -6 8 6557.3 546.567 15
-1 -6 8 6142.56 489.08 26
-1 -6 8 6789.37 532.179 10
-1 -6 8 6614.49 540.435 25
1 -6 -7 15598.1 1043.09 5
1 -6 -7 16438.4 1189.98 30
-1 -6 7 14041.1 713.504 13
-1 -6 7 14809 766.555 26
-1 -6 7 16508.2 845.832 25
-1 -6 7 17408.2 885.2 15
-1 -6 7 14188.1 949.281 31
-1 -6 7 15649 802.198 10
-1 -6 6 1199.66 250.081 31
-1 -6 6 1641.6 243.811 18
-1 -6 6 1225.61 219.588 25
1 -6 -6 1372.97 279.219 5
-1 -6 6 1614.74 245.387 20
-1 -6 6 1645.07 257.587 15
-1 -6 6 1535.44 228.948 26
1 -6 -6 1339.04 334.228 30
-1 -6 6 1609.69 240.078 10
1 -6 -5 40061.6 1505.56 5
1 -6 -5 41600.7 1675.67 30
-1 -6 5 38383.5 1353.48 31
1 -6 -5 41143 1440.26 3
1 -6 -4 19869.1 918.092 3
1 -6 -4 21302.5 1076.43 30
-1 -6 4 19547.8 822.1 31
1 -6 -4 20922.8 970.924 5
-1 -6 3 24985.1 1183.51 1
-1 -6 3 23560.4 800.92 31
1 -6 -3 25294.3 1086.81 30
1 -6 -3 25476.8 1001.69 5
1 -6 -3 26360.7 1010.33 3
1 -6 -2 6050.12 468.193 30
1 -6 -2 5673.17 429.658 5
-1 -6 2 6823.39 574.983 1
-1 -6 2 5627.39 312.197 30
-1 -6 2 5679.85 286.535 31
1 -6 -2 5940.35 441.419 3
-1 -6 1 1095.26 235.481 1
-1 -6 1 603.346 149.029 5
1 -6 -1 1178.62 194.32 3
-1 -6 1 787.637 161.865 3
1 -6 -1 992.58 182.01 30
-1 -6 1 908.921 135.532 30
1 -6 -1 1139.27 191.902 5
-1 -6 0 11776 620.249 3
1 -6 0 11134.2 592.432 30
-1 -6 0 10919.3 494.816 30
1 -6 0 11241.7 611.912 5
-1 -6 0 11415.5 607.704 5
-1 -6 -1 24946.5 951.596 3
-1 -6 -1 23814.3 846.347 30
1 -6 1 23137.2 913.988 1
1 -6 1 24135.9 740.08 31
1 -6 1 22447.1 879.398 30
-1 -6 -1 23917.7 926.342 5
-1 -6 -2 104915 2439.11 3
-1 -6 -2 101688 2399 5
1 -6 2 109162 2431.58 1
-1 -6 -2 100626 2340.63 30
1 -6 2 105360 2180.05 31
1 -6 2 105647 2363.56 30
1 -6 3 19900.6 892.931 1
-1 -6 -3 22715.5 986.76 5
1 -6 3 20851.8 932.689 30
-1 -6 -3 23304.1 1011.83 3
1 -6 3 20433.1 840.056 31
1 -6 4 13239.5 753.551 27
-1 -6 -4 15013.6 857.906 5
1 -6 4 13821 763.4 31
-1 -6 -4 16016.8 880.962 3
-1 -6 -5 179.578 116.532 3
-1 -6 -5 88.9837 85.681 5
1 -6 6 49469.3 1582.34 7
-1 -6 -6 55450.1 2055.94 5
1 -6 6 56301.8 1628.45 26
1 -6 6 54879.9 1971.62 31
1 -6 6 54918.5 1581.99 13
1 -6 6 54540.5 1554.55 10
-1 -6 -6 59978 2071.95 3
1 -6 6 58770.7 1647.56 25
1 -6 6 60505.8 1719.46 15
1 -6 7 45918.3 1511.97 25
1 -6 7 48136.4 1549.48 15
-1 -6 -7 47552.8 2132.43 30
1 -6 7 48653.3 1546.28 26
1 -6 7 43197 1839.3 31
1 -6 7 47812.9 1472.04 10
-1 -6 -7 46361.6 1922.69 3
-1 -6 -7 47784.8 1992.83 5
1 -6 7 46088.6 1494.06 13
1 -6 8 11366.5 708.862 15
1 -6 8 11562.1 714.388 25
1 -6 8 11537.2 703.011 13
1 -6 8 12140.7 734.482 26
1 -6 9 9570.03 605.739 13
1 -6 9 10075 628.653 26
1 -6 9 10241.8 598.139 9
1 -6 9 9941.62 625.056 15
1 -6 9 9316.23 618.677 25
1 -6 10 19041.9 808.186 25
1 -6 10 18026.3 756.112 15
1 -6 10 19101.9 780.519 26
1 -6 11 5320.65 317.519 26
1 -6 11 4822.71 284.072 15
-1 -5 12 1145.74 123.3 26
-1 -5 12 1008.9 122.689 15
-1 -5 11 2383.77 243.286 26
-1 -5 11 1968.14 236.688 25
-1 -5 11 2588.89 269.834 15
-1 -5 10 8188.23 563.539 25
-1 -5 10 8994.64 560.821 26
-1 -5 10 9398.8 600.531 15
-1 -5 9 13081.2 738.255 26
-1 -5 9 14295.2 789.698 15
-1 -5 9 13540.6 773.675 25
-1 -5 9 12512.8 703.785 13
-1 -5 9 14785.7 802.346 10
-1 -5 8 2458.92 327.825 15
-1 -5 8 1976.77 387.765 31
-1 -5 8 2026.49 280.461 13
-1 -5 8 1838.2 282.364 26
-1 -5 8 2353.91 322.593 25
-1 -5 8 2434.46 328.637 10
1 -5 -8 2273.23 406.92 5
1 -5 -8 1741.43 414.4 30
-1 -5 7 86881.3 2126.93 13
-1 -5 7 86199.2 2148.62 20
1 -5 -7 90491.6 2964.76 30
-1 -5 7 96631.8 2326.7 15
-1 -5 7 92517.7 2709.3 31
-1 -5 7 96139.4 2286.66 10
1 -5 -7 96533.3 2786.31 5
-1 -5 7 87861.2 2219.48 26
-1 -5 7 95524.5 2316.09 25
1 -5 -6 52468.1 1813.98 5
1 -5 -6 52853 2000.72 30
-1 -5 6 51312.4 1767.27 31
-1 -5 5 21395 970.771 31
1 -5 -5 23706.7 998.581 3
1 -5 -5 23322.6 1180.09 30
1 -5 -5 23742.5 1062.58 5
1 -5 -4 8916.82 573.299 5
-1 -5 4 8694.58 530.95 31
1 -5 -4 7827.53 518.546 3
1 -5 -4 8745.29 651.354 30
-1 -5 4 9224.59 576.116 2
1 -5 -3 255244 4541.29 3
-1 -5 3 264440 4961.87 1
-1 -5 3 252339 4365.55 31
-1 -5 3 252247 4415.47 2
1 -5 -3 257015 4809.73 30
1 -5 -3 253855 4562.16 5
-1 -5 2 74940.2 1493.26 31
1 -5 -2 74894.3 1753.2 5
-1 -5 2 75064.4 1459.3 30
-1 -5 2 74623.6 1519.55 2
1 -5 -2 74243.7 1852.76 30
1 -5 -2 75418.7 1769.04 3
-1 -5 1 42950.5 964.208 30
1 -5 -1 44821 1238.39 30
1 -5 -1 44327 1190.07 3
-1 -5 1 44302.3 1208.2 5
1 -5 -1 45274.1 1203.54 5
-1 -5 1 45957.9 1394.81 1
-1 -5 1 44322.2 1203.9 3
-1 -5 0 89953.1 1791.9 5
1 -5 0 95544.1 1849.85 30
-1 -5 0 89799.1 1791.51 3
1 -5 0 90747.5 1823.84 5
1 -5 1 50747.7 1294.37 30
1 -5 1 49701.1 1302.94 1
-1 -5 -1 49101.2 1299.26 3
-1 -5 -1 52162.1 1304.72 5
-1 -5 -1 48068.7 1205.26 30
1 -5 2 55766.7 1110.22 28
1 -5 2 51836.5 1309.69 27
1 -5 2 60463.3 1523.37 1
1 -5 2 59824.6 1526.15 30
-1 -5 -2 60459.8 1559.1 3
-1 -5 -2 61433.7 1548.92 5
1 -5 2 48794.3 1347.46 31
1 -5 3 13518.6 661.959 31
1 -5 3 14211.6 717.04 30
-1 -5 -3 13322.5 705.601 5
-1 -5 -3 13534.5 704.495 3
1 -5 4 7884 601.974 27
1 -5 4 8177.35 572.9 31
-1 -5 -4 8632.97 607.446 3
-1 -5 -4 8916.97 641.843 5
-1 -5 -5 45309.4 1597.76 3
-1 -5 -5 44212.3 1622.77 5
1 -5 5 42101.6 1670.14 27
1 -5 5 42675.6 1579.75 31
1 -5 6 14446.4 948.823 31
1 -5 6 13169 675.886 13
1 -5 6 13215 702.605 15
-1 -5 -6 14161.9 911.064 3
1 -5 6 13907.3 694.995 10
-1 -5 -6 15604.5 995.886 5
1 -5 6 14108.2 734.303 26
1 -5 6 12436.7 675.375 25
1 -5 7 5939 486.745 25
-1 -5 -7 5186.53 646.943 5
1 -5 7 5486.14 457.551 13
1 -5 7 5385.72 461.949 15
-1 -5 -7 5969.67 630.616 3
1 -5 7 5064.68 600.814 31
1 -5 7 5938.3 481.473 10
1 -5 7 6273.46 513.717 26
1 -5 8 24659.6 1087.57 26
1 -5 8 24533.8 1054.68 13
1 -5 8 25067.4 1072.32 25
1 -5 8 24514 1041.25 15
1 -5 9 10243.1 634.895 15
1 -5 9 10005 607.775 9
1 -5 9 10836.4 660.408 13
1 -5 9 10065.2 653.627 25
1 -5 9 10135.2 657.225 26
1 -5 10 32901 1154.55 25
1 -5 10 33661.5 1097.15 15
1 -5 10 32838.2 1130.6 26
1 -5 11 6225.86 389.37 25
1 -5 11 5398.48 319.904 15
1 -5 11 5841.89 363.002 26
-1 -4 12 19008.7 605.666 15
-1 -4 12 17894.8 589.885 26
-1 -4 11 1106.62 188.491 15
-1 -4 11 1199.06 188.825 26
-1 -4 11 967.869 175.658 25
-1 -4 10 33043.6 1189.95 25
-1 -4 10 35266.6 1228.3 15
-1 -4 10 33069.8 1194.52 26
-1 -4 9 15506 814.728 15
-1 -4 9 16701.9 874.209 10
-1 -4 9 15455.2 819.356 26
-1 -4 9 15236.2 816.301 25
-1 -4 8 14321.6 779.433 10
-1 -4 8 13623.9 704.113 20
-1 -4 8 11866.3 952.884 31
-1 -4 8 13887.5 756.741 15
1 -4 -8 12257.8 1045.35 30
-1 -4 8 12668.3 735.413 26
-1 -4 8 13730.6 761.575 25
-1 -4 8 12077.6 684.54 13
1 -4 -8 12953.1 980.698 5
1 -4 -7 21148 1166.46 5
-1 -4 7 17251.4 790.314 6
-1 -4 7 20766.3 909.401 18
-1 -4 7 19773 883.696 10
-1 -4 7 20190 840.05 20
-1 -4 7 19395 873.332 25
1 -4 -7 19436.5 1240.37 30
-1 -4 7 19155.8 820.087 13
-1 -4 7 19513.8 880.032 26
-1 -4 7 20740.6 1182.68 31
-1 -4 7 20790.7 897.617 15
1 -4 -6 58251 1734.99 3
1 -4 -6 58278.9 2069.8 30
-1 -4 6 61850.3 1966.94 31
1 -4 -6 59418.2 1916.91 5
1 -4 -5 15117.3 733.879 3
1 -4 -5 15603.2 810.539 5
-1 -4 5 14033 834.569 2
-1 -4 5 13396.3 761.182 31
1 -4 -4 20687.5 857.254 5
-1 -4 4 20188.1 888.328 2
-1 -4 4 19550.6 827.862 31
1 -4 -4 19873.9 785.658 3
1 -4 -4 19973.7 941.6 30
1 -4 -3 128609 2535.8 3
1 -4 -3 135854 2820.43 30
-1 -4 3 125996 2529.27 31
-1 -4 3 132489 2606.26 2
1 -4 -3 128504 2576.53 5
-1 -4 3 133823 2847.46 1
1 -4 -2 110323 2319.68 30
1 -4 -2 107464 2151.06 5
-1 -4 2 105206 2039.63 2
1 -4 -2 110595 2172.4 3
-1 -4 2 109147 1869.42 30
-1 -4 2 106573 2013.55 31
-1 -4 1 90763.9 1866.46 3
-1 -4 1 86798.4 1588.23 30
-1 -4 1 89560.2 1531.44 31
-1 -4 1 89193.9 1586.2 2
1 -4 -1 88849.5 1838 3
-1 -4 1 90221.5 1873.33 5
1 -4 -1 91099.5 1930.44 30
1 -4 -1 90256.2 1848.58 5
-1 -4 0 5413.74 281.816 30
-1 -4 0 5834.7 348.953 5
-1 -4 0 5826.92 211.855 2
1 -4 0 6011.04 360.847 5
-1 -4 0 5607.25 344.877 3
1 -4 0 5635.41 357.015 30
1 -4 1 11575.5 524.443 30
1 -4 1 11496 503.561 1
-1 -4 -1 11494.3 517.574 3
-1 -4 -1 11429.4 512.17 5
1 -4 1 11044.3 420.391 28
1 -4 2 3096.29 275.189 27
1 -4 2 3468.72 288.725 31
-1 -4 -2 3831.2 314.291 3
1 -4 2 3325.06 295.244 30
1 -4 2 3615.37 189.795 28
-1 -4 -2 3812.02 312.162 5
1 -4 2 3406.04 270.547 1
1 -4 3 16527 765.302 27
-1 -4 -3 17373.1 763.68 3
1 -4 3 17586.2 761.63 30
1 -4 3 16940.7 747.816 31
-1 -4 -3 16171.3 750.762 5
1 -4 4 37399.9 1394.63 27
1 -4 4 38178 1316.6 31
-1 -4 -4 38168.5 1295.37 3
-1 -4 -4 38582.8 1354.44 5
1 -4 5 24988.8 1264.19 27
1 -4 5 26668.1 1206.67 31
-1 -4 -5 26030.9 1134.97 3
-1 -4 -5 27881 1227.94 5
1 -4 6 58648.2 2233.45 27
-1 -4 -6 62398.9 2120.8 5
1 -4 6 62526.7 2127.22 31
-1 -4 -6 60864.1 2001.66 3
1 -4 7 54118.8 2126.48 31
-1 -4 -7 56188.8 2157.9 5
1 -4 7 53579.3 1587.86 15
-1 -4 -7 55185.9 2032.03 3
1 -4 7 55994.2 1635.73 25
1 -4 7 56659.7 1690.41 26
1 -4 7 57090.6 1627.9 10
1 -4 7 53730.1 1567.82 13
1 -4 8 2390.55 312.921 9
1 -4 8 2473.93 324.211 25
1 -4 8 2469.11 335.036 26
1 -4 8 2333.32 442.357 31
1 -4 8 2659.2 319.284 15
-1 -4 -8 2672.99 462.34 5
1 -4 8 2554.15 324.82 13
1 -4 9 30515.8 1200.83 26
1 -4 9 28855.4 1101.86 15
1 -4 9 29577.2 1165.82 25
1 -4 9 30065.7 1164.64 13
1 -4 9 31185.7 1126.51 9
1 -4 10 10357 572.507 15
1 -4 10 9946.15 607.644 25
1 -4 10 8970.22 503.154 9
1 -4 10 9760.2 598.764 26
1 -4 11 296.451 85.3532 15
1 -4 11 329.318 111.273 25
1 -4 11 238.924 77.8505 26
-1 -3 12 4849.83 298.241 15
-1 -3 12 3872.53 261.029 25
-1 -3 12 4646.5 301.276 26
-1 -3 11 4246.01 357.203 25
-1 -3 11 4430.68 372.213 26
-1 -3 11 4532.23 366.142 15
-1 -3 10 978.996 200.257 15
-1 -3 10 1138.2 173.415 21
-1 -3 10 1305.74 228.021 25
-1 -3 10 1436.79 241.894 26
-1 -3 9 2731.72 342.785 26
-1 -3 9 2892.78 339.569 15
-1 -3 9 2781.19 357.342 10
-1 -3 9 2641.76 272.094 21
-1 -3 9 3262.39 339.889 20
-1 -3 9 2886.98 337.649 25
-1 -3 8 6106.36 502.073 10
1 -3 -8 5253.27 640.871 30
1 -3 -8 4927.01 607.988 5
-1 -3 8 6495.67 461.251 20
-1 -3 8 6215.38 470.146 13
-1 -3 8 6532.68 513.2 26
-1 -3 8 5174.69 384.59 21
-1 -3 8 4615.83 617.415 31
-1 -3 8 6280.03 489.292 25
-1 -3 8 5862.84 478.017 15
-1 -3 7 452.838 128.895 13
1 -3 -7 277.611 143.59 5
-1 -3 7 489.766 129.09 25
-1 -3 7 344.007 145.534 18
-1 -3 7 394.746 186.41 31
-1 -3 7 464.538 142.471 26
-1 -3 7 408.908 138.527 10
-1 -3 7 379.688 129.709 15
1 -3 -6 31588.6 1151.44 3
-1 -3 6 31050.1 1348.9 31
1 -3 -6 30215.1 1288.3 5
1 -3 -5 25755.8 943.118 3
1 -3 -5 26318.9 1071.23 5
-1 -3 5 27835.1 1137.98 31
-1 -3 4 140577 2909.35 31
-1 -3 4 144505 3021.3 2
1 -3 -4 143042 2882.66 5
1 -3 -4 141001 2728.4 3
-1 -3 3 3868.78 305.516 31
-1 -3 3 4096.34 330.571 2
1 -3 -3 4020.91 299.692 5
1 -3 -3 3590.84 261.575 3
-1 -3 2 686989 10224.8 31
1 -3 -2 658977 10472.4 30
-1 -3 1 104213 1913.07 3
1 -3 -1 99090.6 1870.76 5
-1 -3 1 103035 1914.08 5
1 -3 -1 96516.2 1967.5 30
1 -3 -1 97721.1 1862.6 3
-1 -3 1 100858 2075.96 1
-1 -3 1 98206.6 1620.85 30
-1 -3 1 103483 1767.73 2
-1 -3 1 100507 1701.2 31
-1 -3 0 5781.12 251.941 30
1 -3 0 6450.9 326.514 5
-1 -3 0 5955.65 311.877 3
-1 -3 0 6409.43 317.175 5
1 -3 0 5882.3 330.373 30
1 -3 2 98285.3 1714.62 28
1 -3 2 99156.3 2015.39 30
1 -3 2 96123 2078.95 27
-1 -3 -2 99338.2 2045.11 5
-1 -3 -2 99089.4 2034.41 3
1 -3 2 95685.8 1847.38 1
1 -3 3 94507.2 2062.25 31
-1 -3 -3 89938.3 1999.89 3
-1 -3 -3 92106.2 2056.9 5
1 -3 3 92556.2 2190.02 27
-1 -3 -4 453.157 136.828 5
1 -3 4 756.016 188.799 31
1 -3 4 671.658 219.634 27
-1 -3 -4 532.623 151.323 3
1 -3 5 35838.9 1428.16 31
-1 -3 -5 37298.6 1434.29 5
-1 -3 -5 38056.1 1382.33 3
1 -3 5 35490.5 1539.92 27
1 -3 6 14980.8 1079.39 27
1 -3 6 13828.4 961.148 31
-1 -3 -6 13154.5 908.746 5
-1 -3 -6 13916 875.11 3
1 -3 7 34571.8 1672.72 31
1 -3 7 39923 1334.19 26
-1 -3 -7 40512.7 1797.95 5
-1 -3 -7 37433.1 1620.62 3
1 -3 7 38212.2 1231.16 15
1 -3 7 37328.9 1267.06 10
1 -3 7 37223.8 1254.03 25
1 -3 7 37343 1224.18 13
1 -3 8 3143.97 357.148 25
1 -3 8 2898.9 356.011 26
1 -3 8 2780.24 330.078 9
1 -3 8 3163.8 351.736 13
1 -3 8 3254.06 535.591 31
-1 -3 -8 2541.61 458.505 5
1 -3 8 2709.68 311.36 15
1 -3 9 3708.19 361.039 15
1 -3 9 4065.22 412.039 25
1 -3 9 3991.56 417.491 26
1 -3 9 3971.17 375.812 9
1 -3 9 4108.47 399.944 13
1 -3 10 2679.64 278.676 9
1 -3 10 2747.18 289.129 15
1 -3 10 2787.17 325.617 26
1 -3 10 2540.22 312.583 25
1 -3 11 2647.05 275.532 25
1 -3 11 2148.53 212.707 15
1 -3 11 2665.35 268.488 26
1 -3 12 1988.96 162.424 26
1 -3 12 1665.62 154.169 25
-1 -2 12 4037.39 275.287 15
-1 -2 12 3376.07 244.492 25
-1 -2 12 4137.12 295.639 26
-1 -2 11 9514.94 531.282 25
-1 -2 11 8824.62 441.791 21
-1 -2 11 10617.6 562.551 15
-1 -2 11 10364.5 582.381 26
-1 -2 10 15254.9 760.721 25
-1 -2 10 15687.7 685.869 21
-1 -2 10 16379.4 817.366 26
-1 -2 10 16261.3 780.332 15
-1 -2 9 5971.58 501.008 26
-1 -2 9 5944 478.142 25
-1 -2 9 6411.09 496.285 15
-1 -2 9 5806.01 422.935 21
-1 -2 9 6183.04 508.832 10
-1 -2 8 66742.7 1780.87 13
-1 -2 8 68360.5 1830.58 25
-1 -2 8 74263.8 1896.82 15
-1 -2 8 76193.1 1954.31 26
1 -2 -8 68265.6 2432.44 5
-1 -2 8 70126.2 1885.62 10
-1 -2 8 67671.6 1698.5 21
-1 -2 8 71087.7 1770.24 20
-1 -2 8 66804.7 2504.89 31
-1 -2 7 15196.2 749.252 18
-1 -2 7 14816.8 733.3 26
-1 -2 7 15546.1 731.64 15
1 -2 -7 14650.3 974.882 5
-1 -2 7 14268.5 990.529 31
-1 -2 7 14756.7 720.436 10
-1 -2 6 116238 2990.41 31
1 -2 -6 121110 2954.47 5
1 -2 -6 117396 2623.69 3
1 -2 -5 58869.4 1684.54 5
1 -2 -5 56735 1471.4 3
-1 -2 5 55031.3 1782.63 2
-1 -2 5 54100 1695.9 31
-1 -2 4 9070.92 547.685 31
1 -2 -4 9042.82 442.448 3
1 -2 -4 9241.57 523.561 5
-1 -2 4 9801.36 598.905 2
-1 -2 3 739.079 145.863 2
1 -2 -3 976.161 145.467 5
1 -2 -3 1029.16 123.907 3
1 -2 -2 46745.6 1034.43 5
-1 -2 2 48046 1083.17 31
-1 -2 2 48968.2 1131.15 2
1 -2 -2 47420.4 1167.31 30
1 -2 -2 49387 998.951 3
-1 -2 2 45550.8 1187.74 1
1 -2 -1 348676 5349.97 3
-1 -2 1 345820 5368.98 2
-1 -2 1 349999 5314.61 31
-1 -2 1 350817 5540.46 1
1 -2 -1 357978 5521.01 30
-1 -2 0 4571.72 224.491 5
1 -2 0 4823.37 259.723 30
1 -2 0 4875.03 232.401 5
-1 -2 0 4426.04 224.506 3
1 -2 1 217097 3336.95 1
1 -2 1 217577 3539.82 30
-1 -2 -1 223897 3558.9 5
1 -2 1 209756 3381.44 28
-1 -2 -1 212373 3556.98 3
1 -2 2 191769 3383.77 31
-1 -2 -2 187569 3361.94 5
1 -2 2 187537 3289.2 30
1 -2 2 190022 3057.56 28
-1 -2 -3 70526.3 1724.2 5
1 -2 3 68752.1 1720.05 31
-1 -2 -3 66233 1651.97 3
1 -2 3 67852.6 1377.39 28
-1 -2 -4 168.062 96.9539 5
-1 -2 -4 285.858 122.109 3
1 -2 4 221.216 128.808 31
1 -2 4 400.098 193.299 27
-1 -2 -5 121830 2882.15 3
-1 -2 -5 126025 3037.49 5
1 -2 5 120864 3004.08 31
1 -2 5 120181 3222.55 27
1 -2 6 13018 911.335 31
-1 -2 -6 12177.1 881.249 5
-1 -2 -6 12141.7 831.917 3
1 -2 6 14065.7 1057.52 27
1 -2 7 8599.74 531.423 13
1 -2 7 8171.87 517.072 15
1 -2 7 8357.5 544.808 25
1 -2 7 7873.71 784.582 31
1 -2 7 9506.07 959.727 27
-1 -2 -7 7630.13 702.983 3
-1 -2 -7 8722.33 817.936 5
1 -2 7 8443.81 553.15 26
1 -2 8 70874.3 2717.52 31
1 -2 8 81560.3 2096.93 26
1 -2 8 81018.9 2070.22 25
-1 -2 -8 73796.1 2537.21 3
1 -2 8 82798.1 2043.46 9
1 -2 8 77044.6 1964.33 15
1 -2 8 82628.3 2051.75 13
1 -2 8 74306.4 1821.04 21
-1 -2 -8 86683.6 2956.64 5
1 -2 9 128147 2750.07 9
1 -2 9 121736 2692.86 15
1 -2 9 124117 2568.62 21
1 -2 9 129301 2877.37 26
1 -2 9 127806 2864.73 25
1 -2 10 3878.93 303.767 21
1 -2 10 4472.08 407.962 25
1 -2 10 4369.56 396.935 26
1 -2 10 5114.68 386.571 15
1 -2 10 4133.83 351.016 9
1 -2 11 12462 524.021 15
1 -2 11 11729.6 575.337 26
1 -2 11 13390.7 628.895 25
1 -2 12 595.397 94.8761 26
1 -2 12 503.745 90.4367 25
-1 -1 12 3462.8 254.59 15
-1 -1 12 3444.38 269.286 26
-1 -1 12 2486.75 201.638 25
-1 -1 12 2864.38 195.528 21
-1 -1 11 7532.67 465.962 15
-1 -1 11 6323.13 391.15 21
-1 -1 11 6394.96 421.327 25
-1 -1 11 7135.22 477.731 26
-1 -1 10 3711.33 333.043 21
-1 -1 10 3769.75 384.32 26
-1 -1 10 3639.79 360.137 15
-1 -1 10 4148.92 377.971 25
-1 -1 9 677.181 174.032 26
-1 -1 9 482.849 157.382 25
-1 -1 9 644.739 157.122 21
-1 -1 9 689.934 171.518 15
1 -1 -8 647.394 242.739 5
-1 -1 8 696.114 252.195 31
-1 -1 8 823.23 183.068 10
-1 -1 8 1200.32 218.187 15
-1 -1 8 1298.26 220.692 26
-1 -1 8 1244.07 196.098 21
-1 -1 8 1069.37 199.923 25
-1 -1 7 2949.7 442.842 31
1 -1 -7 3306.83 450.532 5
1 -1 -6 71084.5 1874.4 3
-1 -1 6 68341.8 2278.83 2
-1 -1 6 72206.8 2180.18 31
1 -1 -6 72989.6 2169.15 5
1 -1 -5 1508.46 231.897 5
1 -1 -5 1464.26 209.381 3
-1 -1 5 1613.87 272.196 31
-1 -1 5 1323.22 259.691 2
1 -1 -4 268652 4267.02 4
-1 -1 4 282787 4830.86 31
-1 -1 4 283437 4984.99 2
1 -1 -4 276905 4512.04 3
-1 -1 3 26709 857.859 31
1 -1 -3 27170.9 817.983 5
1 -1 -3 27044.4 712.364 3
-1 -1 3 28528.1 925.666 2
-1 -1 2 40762.3 1001.08 2
-1 -1 2 39689 947.211 31
1 -1 -2 40695.3 893.304 5
1 -1 -2 40408 784.358 3
-1 -1 1 80516.8 1384.78 31
1 -1 -1 74548.2 1417.78 30
1 -1 -1 79670.9 1253.92 3
-1 -1 1 72162.1 1408.3 2
-1 -1 1 78529.2 1288.26 3
1 -1 -1 76805.3 1271.11 5
-1 -1 1 74855.6 1460.51 1
1 -1 1 83197.8 1438.22 28
-1 -1 -1 85596.8 1566.06 5
1 -1 1 83331.1 1531.8 30
1 -1 1 80364.1 1300.36 32
-1 -1 -1 85056.7 1575.54 3
1 -1 2 1483.97 177.797 31
-1 -1 -2 1336.5 168.363 5
-1 -1 -2 1407.9 171.576 3
1 -1 2 1687.61 216.745 27
1 -1 2 1652.02 144.722 28
-1 -1 -3 3392.49 313.813 5
-1 -1 -3 3505.42 315.462 3
1 -1 3 3047.05 344.315 27
1 -1 3 4205.54 348.463 31
1 -1 3 3682.22 255.842 28
-1 -1 -4 58200.8 1713.04 5
-1 -1 -4 58434.5 1669.82 3
1 -1 4 59160.1 1702.77 31
1 -1 5 44676.2 1798.32 27
1 -1 5 44055.2 1594.89 31
-1 -1 -5 45455.6 1628.72 5
-1 -1 -5 43788.3 1541.61 3
-1 -1 -6 10900.6 853.816 5
1 -1 6 11267.5 958.051 27
1 -1 6 10133.8 795.991 31
-1 -1 -6 10336.4 771.865 3
1 -1 7 53456.5 1463.2 15
-1 -1 -7 53629.7 2019.28 3
-1 -1 -7 56463.9 2243.2 5
1 -1 7 57008.1 2471.68 27
1 -1 7 53611.4 1497.3 13
1 -1 7 54041 1517.33 25
1 -1 7 51301.3 2070.93 31
1 -1 7 50479 1405.59 21
1 -1 7 55864.1 1546.44 26
1 -1 7 50959.4 1474.22 9
-1 -1 -8 525.462 197.972 3
1 -1 8 449.457 134.166 26
1 -1 8 702.79 160.959 9
1 -1 8 500.964 130.395 21
1 -1 8 343.583 124.502 13
1 -1 8 650.634 177.776 25
1 -1 8 680.184 152.852 15
1 -1 8 982.534 286.393 31
-1 -1 -8 457.12 244.37 5
1 -1 9 7199.97 532.72 25
1 -1 9 6923.96 488.307 9
1 -1 9 7383.11 497.402 15
1 -1 9 7250.83 528.955 26
1 -1 9 6989.48 468.516 21
1 -1 10 7314.16 472.58 9
1 -1 10 6828.09 488.629 26
1 -1 10 6649.38 425.994 21
1 -1 10 7359.02 518.496 25
1 -1 10 7520.88 466.333 15
1 -1 11 2305.28 244.75 26
1 -1 11 2004.12 191.543 21
1 -1 11 2428.12 265.193 25
1 -1 11 2172.52 203.581 15
1 -1 12 4588.82 270.64 25
1 -1 12 4124.98 240.255 26
-1 0 12 9954.68 434.866 15
-1 0 12 8799.17 388.768 21
-1 0 12 9509.77 449.159 26
-1 0 11 8284.42 467.198 21
-1 0 11 8487.53 486.48 15
-1 0 11 8997.08 528.785 26
-1 0 11 7673.3 448.924 25
-1 0 10 119.407 78.464 26
-1 0 10 109.156 104.301 15
-1 0 10 138.182 92.3956 25
-1 0 10 82.0386 89.5462 21
-1 0 9 13680.6 651.947 16
-1 0 9 16031.6 779.435 15
-1 0 9 14930.7 765.355 26
-1 0 9 14348.6 721.65 21
-1 0 9 15119.4 737.704 25
-1 0 8 206.339 111.51 26
-1 0 8 138.905 72.868 16
-1 0 8 93.9141 54.8208 21
-1 0 8 11.4893 71.7109 25
-1 0 8 211.353 119.473 10
1 0 -8 -25.8016 93.4216 5
-1 0 8 297.445 115.161 15
1 0 -7 544.245 202.567 5
-1 0 7 -9.8468 52.7211 31
-1 0 6 826.802 215.638 2
1 0 -6 650.051 159.026 3
-1 0 6 431.653 161.9 31
1 0 -6 556.897 179.009 5
-1 0 5 36573.7 1288.13 31
1 0 -5 34940.7 1148.8 3
-1 0 5 35704.6 1384.1 2
-1 0 4 1038.09 215.964 2
-1 0 4 1090.07 181.413 31
1 0 -4 1268.14 164.409 4
1 0 -4 1094.14 159.529 3
1 0 -3 6127.04 298.691 3
-1 0 3 5712.37 353.573 31
-1 0 3 5885.16 392.358 2
-1 0 2 43120.7 982.137 31
1 0 -2 41952 800.301 3
-1 0 2 42138.3 1028.65 2
-1 0 1 586.227 81.1386 2
-1 0 1 591.131 75.8162 31
1 0 -1 552.426 61.5696 30
1 0 0 5122.15 202.016 28
-1 0 0 4771.17 158.824 1
-1 0 0 4792.16 180.94 3
1 0 0 5288.55 183.298 30
1 0 1 1516.47 103.956 32
1 0 1 1335.33 114.157 28
-1 0 -1 1285.09 110.425 4
-1 0 -2 1159.72 147.244 3
1 0 2 1237.26 138.257 28
1 0 2 1337.78 164.23 31
-1 0 -2 1296.45 127.021 4
1 0 2 1263.43 126.595 32
1 0 3 4190.64 285.706 32
1 0 3 4439.97 344.526 31
-1 0 -3 3596.94 233.193 4
-1 0 -3 3668.42 322.775 3
1 0 3 3812.32 403.115 27
1 0 3 4147.05 296.091 28
-1 0 -4 27041.7 1063.43 3
1 0 4 27932.3 1047.8 31
-1 0 -4 24684.3 724.184 4
-1 0 -5 1.4446 78.0879 3
1 0 5 200.101 102.938 31
-1 0 -6 13619.4 912.193 3
1 0 6 12049.7 852.933 31
-1 0 -6 14092.7 995.378 5
1 0 6 13138.4 1074.41 27
1 0 7 -2.66992 44.0172 21
-1 0 -7 340.341 170.736 5
-1 0 -7 -249.102 151.486 3
1 0 7 30.5071 97.4506 31
1 0 7 35.0583 61.1221 15
1 0 7 -45.7683 64.1091 13
1 0 7 34.4688 56.97 26
1 0 7 156.679 83.6853 9
1 0 7 65.0623 57.2173 25
1 0 7 -237.912 205.974 27
1 0 8 25.9141 80.0515 25
1 0 8 -128.565 101.231 31
1 0 8 96.2927 62.2528 26
1 0 8 134.027 89.2572 9
1 0 8 -153.989 87.8027 15
1 0 8 -82.7469 80.3193 21
1 0 9 4133.67 376.777 9
1 0 9 4091.5 398.386 25
1 0 9 4104.34 384.191 26
1 0 9 4156.21 373.344 21
1 0 9 3667.05 345.526 15
1 0 10 32786.2 1104.81 26
1 0 10 31598 1045.28 21
1 0 10 31552.4 1126.24 25
1 0 10 32035.5 1071.22 9
1 0 10 34995.1 1064.09 15
1 0 11 628.023 132.815 25
1 0 11 638.352 123.963 21
1 0 11 600.051 125.034 26
1 0 11 525.126 120.847 9
1 0 12 2503.18 194.94 25
-1 1 12 3862.82 256.988 15
-1 1 12 3218.61 240.167 21
-1 1 12 3641.44 261.469 26
-1 1 11 6560.94 431.603 26
-1 1 11 5754.41 370.013 25
-1 1 11 7131.44 439.664 15
-1 1 11 6196.59 415.766 21
-1 1 10 3250.14 342.059 26
-1 1 10 3140.52 322.826 15
-1 1 10 2983.45 289.097 16
-1 1 10 2986.77 321.231 21
-1 1 10 3124.28 310.301 25
-1 1 9 625.165 164.229 21
-1 1 9 879.613 169.602 16
-1 1 9 805.985 180.594 26
-1 1 9 706.787 168.358 25
-1 1 9 1161.55 195.636 15
-1 1 8 787.555 164.515 25
1 1 -8 1093.39 300.181 5
-1 1 8 818.762 178.675 21
-1 1 8 332.205 169.523 31
-1 1 8 952.818 189.455 26
-1 1 8 819.648 166.746 15
-1 1 8 753.067 159.072 16
1 1 -7 3242.41 465.501 5
-1 1 7 3518.19 457.579 31
-1 1 6 72551 2116.46 31
1 1 -6 71382.2 1993.94 3
-1 1 6 73265.7 2352.82 2
-1 1 5 1296.99 228.653 31
1 1 -5 1568.93 216.589 4
-1 1 5 1044.5 241.347 2
1 1 -5 1028.55 190.164 29
1 1 -5 906.364 187.288 3
-1 1 4 282799 4892.1 31
-1 1 4 290919 5143.01 2
-1 1 3 27909.5 850.867 31
-1 1 3 29595.6 946.332 2
-1 1 2 37424.2 965.759 2
-1 1 2 40508.1 934.937 31
-1 1 1 81943.5 1373.99 4
-1 1 1 73566.1 1411.47 2
1 1 -1 74461 1305.58 28
-1 1 1 80059.6 1399.73 31
1 1 0 273189 4229.1 29
-1 1 -1 79986.2 1341.58 29
1 1 1 83867.1 1521.39 28
1 1 1 83552.7 1428.04 29
-1 1 -1 80760.4 1545.4 4
1 1 2 1735.52 170.785 32
1 1 2 1929.72 185.66 28
-1 1 -2 1694.37 170.066 4
1 1 2 1910.45 249.046 27
1 1 2 1672.07 170.307 31
1 1 2 1433.12 87.3477 29
1 1 3 5072.53 349.693 31
1 1 3 4519.05 320.884 32
-1 1 -3 4887.07 317.097 4
1 1 3 4408.2 438.878 27
-1 1 -4 58251.9 1463.34 4
-1 1 -4 62282.5 1777.5 3
1 1 4 62635.5 1633.88 32
-1 1 -5 45493.3 1619.93 3
1 1 5 45409.8 1884.31 27
1 1 5 49092.2 1564.87 31
1 1 6 9332.26 723.197 31
-1 1 -6 10352.4 810.921 3
1 1 6 11676.8 1030.54 27
-1 1 -7 58300.5 2357.71 5
1 1 7 57011.7 1540.18 13
1 1 7 55421.5 1538.34 25
1 1 7 52838.5 1455.86 16
1 1 7 53847.8 1511.86 9
-1 1 -7 58665.9 2206.42 3
1 1 7 55014.8 1546.39 21
1 1 7 55869.8 2069.55 31
1 1 7 56758.2 1517.77 26
1 1 8 686.166 179.078 25
1 1 8 968.621 273.702 31
1 1 8 673.359 138.335 15
1 1 8 686.74 158.473 22
1 1 8 581.493 147.037 9
1 1 8 643.218 151.3 16
-1 1 -8 197.904 162.142 5
-1 1 -8 70.7617 91.2783 3
1 1 8 404.347 126.391 26
1 1 8 730.161 183.788 21
1 1 9 7027.83 487.979 9
1 1 9 6738.71 447.812 16
1 1 9 6983.73 487.862 26
1 1 9 7217.38 470.261 15
1 1 9 7647.05 537.253 25
1 1 9 7758.7 527.084 21
1 1 10 7545.4 444.728 15
1 1 10 6586 450.869 9
1 1 10 6887.46 466.858 21
1 1 10 6987.49 458.209 26
1 1 10 7466.46 507.65 25
1 1 11 1996.2 228.003 25
1 1 11 1868.12 200.239 26
1 1 11 2020.66 216.575 21
-1 2 12 3657.78 247.907 26
-1 2 12 3941.05 271.939 21
-1 2 11 9828.04 516.339 26
-1 2 11 9488.49 533.088 21
-1 2 11 10358.5 521.149 15
-1 2 10 14258.4 673.852 16
-1 2 10 15754.9 735.526 15
-1 2 10 14587.9 740.983 21
-1 2 10 15596.8 738.096 26
-1 2 10 13938.5 654.384 25
-1 2 9 6182.11 493.757 21
-1 2 9 5962.79 460.784 26
-1 2 9 5744.33 441.322 16
-1 2 9 6866.56 488.517 15
-1 2 9 4763.59 394.211 25
-1 2 8 66830.3 1705.97 25
-1 2 8 71265.5 1874.16 21
1 2 -8 61289.9 2443.45 5
-1 2 8 74448 1834.13 26
-1 2 8 67024.9 2371.47 31
-1 2 8 67900.5 1777.41 16
-1 2 8 75827.2 1840.14 15
-1 2 7 14479.7 660.192 15
-1 2 7 13652.1 680.387 21
-1 2 7 14005 911.321 31
-1 2 7 14889.4 671.507 26
-1 2 6 118244 2793.26 31
1 2 -6 103642 2638.37 3
-1 2 5 56002.6 1587.76 31
1 2 -5 54915.7 1662.76 4
-1 2 5 51371.7 1719.52 2
1 2 -5 51639 1474.14 29
1 2 -4 9875.66 339.88 28
-1 2 4 11325.8 651.435 2
1 2 -4 10440.6 545.86 29
-1 2 4 10297.2 541.227 31
1 2 -4 10157.4 629.476 4
1 2 -3 1003.86 153.669 29
-1 2 3 893.182 164.776 2
-1 2 3 1262.79 163.002 31
1 2 -3 1169.93 89.6734 28
1 2 -2 45190.3 819.403 28
-1 2 2 50030.9 1124.73 32
-1 2 2 46536.6 1099.79 2
-1 2 2 49162.4 1053.23 31
1 2 -2 47229.3 1145.14 29
-1 2 1 351291 5355.33 2
-1 2 1 358169 5495.15 29
1 2 -1 343517 5228.35 28
1 2 -1 356279 5533.24 29
-1 2 1 343103 5360.3 4
1 2 0 4302.09 255.93 29
-1 2 0 4442.84 254.578 4
-1 2 0 4399.33 150.077 32
1 2 0 4412.52 214.66 28
-1 2 0 4439.09 239.883 29
1 2 1 207567 3577.3 29
1 2 1 214644 3587.38 28
-1 2 -1 215623 3485.89 29
-1 2 -1 231261 3716.87 4
1 2 1 223630 3415.42 31
1 2 2 190089 3196.48 31
1 2 2 196508 3356.43 32
1 2 2 185456 3105.34 29
1 2 2 194255 3371.21 28
-1 2 -2 196375 3427.07 4
-1 2 -2 182946 3052.15 29
1 2 3 64076.6 1257.68 29
1 2 3 68077.9 1517.77 31
-1 2 -3 62291 1195 29
-1 2 -3 68051.8 1628.01 4
1 2 3 71364.8 1638.37 32
1 2 4 990.327 258.358 27
-1 2 -4 922.478 168.025 4
1 2 4 1231.4 213.945 32
1 2 5 126349 2783.64 31
1 2 5 121955 3381.68 27
1 2 5 111037 2740.25 32
-1 2 -5 112314 2577.66 4
1 2 6 10541.5 741.233 31
1 2 6 10923.9 1004 27
-1 2 -6 11221.5 876.815 3
1 2 7 8546.48 521.314 25
1 2 7 8426.33 551.606 21
1 2 7 7581.7 506.592 16
1 2 7 7520.27 688.367 31
-1 2 -7 8134.36 797.464 3
1 2 7 9144.04 544.163 9
1 2 7 8664.33 512.919 26
1 2 7 7392.67 473.02 22
1 2 7 9896.18 1052.9 27
1 2 8 80259 1966.45 9
-1 2 -8 77026.8 2995.46 5
1 2 8 73767.8 1892.11 16
1 2 8 76111.8 1822.99 15
1 2 8 71736.5 1827.1 22
1 2 8 76939.1 1884.47 26
-1 2 -8 68402.7 2611.96 3
1 2 8 79602.6 2036.89 21
1 2 8 77903.5 1946.97 25
1 2 8 68632.1 2447.88 31
1 2 9 125851 2810.6 21
1 2 9 125665 2763 25
1 2 9 130193 2759.69 9
1 2 9 120433 2644.26 16
1 2 9 135814 2652.73 15
1 2 9 120813 2653.23 26
1 2 10 4873.58 386.064 9
1 2 10 4985.5 409.969 21
1 2 10 4710.61 361.403 26
1 2 10 4494.77 345.537 16
1 2 10 4706.4 392.829 25
1 2 11 12938 578.882 21
1 2 11 11610.5 488.954 26
1 2 11 12483 558.243 25
1 2 12 613.88 94.1813 21
-1 3 12 4211.26 284.692 21
-1 3 12 3505.76 222.735 26
-1 3 11 3698.66 296.997 16
-1 3 11 3759.49 338.832 21
-1 3 11 4059.36 311.392 26
-1 3 11 4579.95 331.823 15
-1 3 10 1376.41 213.153 15
-1 3 10 1642.34 233.277 16
-1 3 10 1298.92 230.305 21
-1 3 10 1404.18 213.251 26
-1 3 9 1747.69 248.479 16
-1 3 9 1495.61 220.894 12
-1 3 9 1596.81 267.432 21
-1 3 9 1874.39 258.024 15
-1 3 9 1796.68 253.873 26
-1 3 8 4988.1 575.21 31
-1 3 8 4950.76 390.78 9
-1 3 8 6399.71 453.968 15
-1 3 8 4578.63 402.381 12
-1 3 8 6026.54 490.18 21
-1 3 8 5130.33 429.503 16
-1 3 8 5119.12 408.159 26
-1 3 7 246.588 110.83 15
-1 3 7 241.13 104.497 16
-1 3 7 381.643 118.941 21
-1 3 7 240.666 100.39 26
1 3 -6 31558.2 1382.5 4
-1 3 6 29534.9 1210.77 31
-1 3 5 30181.8 1252.43 2
-1 3 5 29499.2 1077.54 31
1 3 -5 29279 1260.51 4
1 3 -5 25974.1 1026.49 29
-1 3 4 146063 2815.61 31
1 3 -4 135786 3171.93 4
-1 3 4 148697 3075.99 2
-1 3 4 148526 3053.47 32
1 3 -4 133335 2861.15 29
-1 3 3 4600.05 351.069 32
-1 3 3 4146.5 330.609 2
-1 3 3 3632.73 269.701 31
1 3 -3 3828.6 319.076 29
1 3 -3 3023.48 354.204 4
-1 3 2 658297 9935.62 2
1 3 -2 668252 10165.6 29
-1 3 1 103959 1882.66 32
1 3 -1 104585 1738.19 28
-1 3 1 109958 1947.14 4
-1 3 1 97976.8 1777.05 2
-1 3 1 104212 2034.6 29
1 3 -1 96842.2 2047.47 29
1 3 0 6821.69 309.375 28
-1 3 0 7260.24 373.646 29
-1 3 0 6965.5 256.676 32
1 3 0 7318.87 394.187 29
-1 3 0 7416.21 391.354 4
1 3 2 101166 1996.59 29
-1 3 -2 103534 2225.45 4
1 3 2 98339.2 1803.99 31
1 3 2 106181 2264.1 27
-1 3 -2 96343.9 1927.57 29
1 3 2 100270 2112.4 32
1 3 3 87690 2282.56 27
-1 3 -3 89591.4 1769.74 29
1 3 3 89993.2 1847.23 31
1 3 3 89431.3 1785.41 29
1 3 3 92096.7 2107.36 32
-1 3 -3 94270.6 2189.9 4
-1 3 -4 890.25 185.621 4
1 3 4 869.435 202.331 32
1 3 4 529.262 202.36 27
1 3 4 874.198 161.448 31
-1 3 -5 34344.2 1308.61 4
1 3 5 33645.9 1619.93 27
1 3 5 34311.5 1351.25 32
1 3 5 34837.7 1226.46 31
1 3 6 12990.2 1126.46 27
-1 3 -6 13376.9 975.624 3
1 3 6 13979.2 914.976 32
1 3 6 12756.2 790.852 31
1 3 7 36925.8 1244.85 16
1 3 7 38217.8 1297.76 21
1 3 7 35713.3 1113.01 26
-1 3 -7 36327.5 1799 3
1 3 7 38503.5 1212.99 9
1 3 7 34394.3 1495.71 31
1 3 7 36772.8 1188.4 25
1 3 7 34519.8 1141.99 22
1 3 8 1411.97 311.732 31
1 3 8 1959.45 241.84 26
-1 3 -8 2020.96 440.616 5
1 3 8 1856.57 266.642 9
1 3 8 2213.78 283.51 25
1 3 8 1857.31 256.774 22
1 3 8 1739.63 267.201 16
1 3 8 1760.55 277.228 21
-1 3 -8 1194.85 322.721 3
1 3 9 4098.01 381.98 16
1 3 9 2969.31 316.45 22
1 3 9 4160.83 348.719 26
1 3 9 4055.22 381.485 9
1 3 9 3845.86 369.48 25
1 3 9 3609.86 388.315 21
1 3 10 1488.61 209.275 16
1 3 10 1604.82 227.183 25
1 3 10 1527.95 197.773 26
1 3 10 1663.98 248.118 21
1 3 11 1955.01 186.105 16
1 3 11 1877.55 201.057 25
1 3 12 1558.15 141.93 21
-1 4 12 19185 636.296 21
-1 4 11 1080.61 154.511 26
-1 4 11 1071.16 167.279 16
-1 4 11 1080.94 181.249 21
-1 4 10 38680.6 1160.9 15
-1 4 10 34094.5 1153.05 16
-1 4 10 34175.1 1213.55 21
-1 4 10 37446.4 1132.88 26
-1 4 9 14526.2 731.783 12
-1 4 9 15979.4 744.466 26
-1 4 9 15480.2 819.331 21
-1 4 9 15681.5 790.33 16
-1 4 9 17125.4 772.037 15
-1 4 8 14185.6 792.356 21
-1 4 8 14356.8 974.166 31
-1 4 8 14520.9 790.892 16
-1 4 8 15957 733.052 15
-1 4 8 15418.2 720.11 26
-1 4 8 13995.5 742.282 12
-1 4 7 20133.2 885.628 16
-1 4 7 20301.1 890.238 21
-1 4 7 20484.7 799.878 26
-1 4 7 18086.4 764.142 9
-1 4 7 20319.3 1070.07 31
-1 4 7 20549.4 810.481 15
1 4 -6 53336.1 1997.46 4
-1 4 6 55960.4 1734.96 31
1 4 -5 15421.1 802.287 29
1 4 -5 15609.4 969.562 4
-1 4 5 16446.3 774.075 31
-1 4 5 16809 927.11 32
1 4 -4 21295.6 915.316 29
-1 4 4 20982.7 795.617 31
-1 4 4 22810.2 986.124 32
-1 4 4 21408.3 917.784 2
1 4 -4 21575.6 1081.37 4
1 4 -3 125285 2953.74 4
-1 4 3 134413 2692.98 29
-1 4 3 126458 2540.72 2
1 4 -3 125245 2695.06 29
-1 4 3 127173 2404.83 31
-1 4 3 126881 2674.22 32
1 4 -2 109430 2502.32 4
-1 4 2 114049 2027.96 2
1 4 -2 114555 2354.53 29
-1 4 2 115375 2233.33 32
-1 4 2 110938 1983.72 4
-1 4 1 87884.7 1577.85 2
-1 4 1 93469.1 2010.5 29
-1 4 1 86381 1779.64 32
1 4 -1 87944.4 2112.72 4
1 4 -1 91421.3 2020.4 29
-1 4 1 97713.8 1917.58 4
-1 4 0 4971.96 364.896 4
-1 4 0 4775.68 357.895 29
-1 4 0 4673.08 188.663 2
1 4 0 5641.76 394.234 29
-1 4 -1 10414.7 524.376 29
1 4 1 11061.1 568.491 29
-1 4 -1 11148.3 603.096 4
1 4 2 2095.95 195.172 4
1 4 2 2350.02 256.867 29
-1 4 -2 1727.56 210.977 29
-1 4 -2 2307.01 294.605 4
1 4 2 1854.09 233.232 27
1 4 2 2268.66 152.742 31
1 4 3 15957.8 825.406 27
1 4 3 17323.7 596.208 31
1 4 3 16130.7 675.512 29
1 4 3 17287.2 831.478 32
-1 4 -3 16518.8 674.7 29
-1 4 -4 38414.6 1439.04 4
1 4 4 34748.7 1045.77 29
1 4 4 38863.4 1401.03 32
1 4 4 37533.3 1103.53 31
1 4 4 41428.4 1542.99 27
-1 4 -5 26572.4 1235.36 4
1 4 5 24690.9 982.723 31
1 4 5 25502.9 1384.76 27
1 4 5 26687.4 1227.84 32
-1 4 -6 56394.9 1992.67 4
1 4 6 62863.3 2483.79 27
1 4 6 62484.3 2174.89 32
1 4 6 59131.9 1820.16 31
1 4 7 53019.2 1509.02 9
1 4 7 49849.6 1795.89 31
1 4 7 53521.9 1490.6 22
-1 4 -7 48562.5 2180.53 3
1 4 7 49785.3 1587.23 16
1 4 7 54022.7 1507.09 25
1 4 7 53580.9 1638.32 21
1 4 8 3071.74 363.824 16
1 4 8 2915.19 318.453 25
1 4 8 3348.89 353.075 9
-1 4 -8 3388.88 589.911 3
1 4 8 3033.16 326.039 22
1 4 8 3194.79 382.607 21
1 4 9 33363.8 1169.23 9
1 4 9 31715.4 1111.92 25
1 4 9 30814.2 1198.89 21
1 4 9 30823 1151.85 16
1 4 10 8327.95 512.061 16
1 4 10 8984.39 510.262 25
1 4 10 8379.4 481.487 12
1 4 10 9462.48 582.623 21
1 4 11 355.388 90.2158 16
1 4 11 423.066 119.156 21
-1 5 12 1115.73 134.74 21
-1 5 11 3179.48 293.64 21
-1 5 11 2892 229.068 26
-1 5 11 2680.68 266.139 16
-1 5 10 9837.26 518.618 26
-1 5 10 9654.92 595.898 21
-1 5 10 9199.45 572.15 16
-1 5 10 8293.15 499.585 12
-1 5 9 13590.5 731.935 12
-1 5 9 14901.3 696.393 26
-1 5 9 14168.7 770.681 16
-1 5 9 15961.5 737.657 15
-1 5 9 14419 785.349 21
-1 5 8 2333.89 314.811 21
-1 5 8 3006.36 310.37 15
-1 5 8 2425.64 313.027 12
-1 5 8 3142.75 312.934 26
-1 5 8 2432.41 334.808 16
-1 5 7 91093.6 2256.05 12
-1 5 7 91607.4 2536.78 31
-1 5 7 95598.9 2135.2 15
-1 5 7 92712.4 2074.55 26
-1 5 7 92532.4 2256.36 21
-1 5 7 96503.1 2337.92 16
-1 5 6 51123.1 1634.82 31
1 5 -6 49176.7 2026.85 4
1 5 -5 21246.1 1022.95 29
-1 5 5 23655.6 1180.21 32
-1 5 5 22232.2 918.054 31
1 5 -5 20693.4 1200.28 4
-1 5 4 5540.02 449.668 2
-1 5 4 6354.06 417.87 31
-1 5 4 6235.94 540.591 32
1 5 -4 7385.89 653.957 4
1 5 -4 6738.01 536.669 29
-1 5 3 251589 4317.23 2
-1 5 3 266916 4701.09 29
1 5 -3 251893 5003.57 4
1 5 -3 257359 4690.61 29
-1 5 3 260128 4685.92 32
-1 5 3 253327 4216.02 31
1 5 -2 77335.5 1954.15 29
-1 5 2 75305.4 1648.26 4
1 5 -2 73452.8 2084.68 4
-1 5 2 78893.3 1959.79 29
-1 5 2 72450.1 1507.31 2
-1 5 2 76526.7 1838.85 32
-1 5 1 46884 1290.78 4
1 5 -1 42738.6 1326.42 29
-1 5 1 41523.8 1142.76 32
-1 5 1 38246.6 791.523 2
-1 5 1 44237.7 1346.71 29
1 5 -1 44168.5 1413.78 4
1 5 0 92167.9 1877.38 4
-1 5 0 96457.9 1916.58 29
1 5 0 92169.9 1878.54 29
1 5 1 49547.3 1340.74 4
-1 5 -1 46906.3 1383.74 29
-1 5 -1 50965.8 1536.94 4
1 5 1 51590.6 1464.42 29
1 5 2 52103.2 1369.88 27
-1 5 -2 56884.6 1539.75 29
1 5 2 61594.6 1658.13 29
1 5 2 60242.8 1380.83 4
-1 5 -2 60895.1 1809.56 4
-1 5 -3 13152.3 828.14 4
1 5 3 11620.5 646.954 29
-1 5 -3 11474.3 622.818 29
1 5 3 11155.4 444.902 31
1 5 3 12043.7 759.006 32
1 5 3 12121 687.025 27
-1 5 -4 7494.78 662.112 4
1 5 4 8750.59 680.836 32
1 5 4 6898.89 411.518 31
1 5 4 7341.82 494.349 29
1 5 4 8856.16 670.453 27
1 5 5 48531.4 1816.55 32
1 5 5 46488.5 1859.97 27
1 5 6 11837 613.494 22
1 5 6 12716.8 967.901 32
-1 5 -6 11654.3 916.115 4
1 5 6 9734.89 923.001 27
1 5 6 11559.7 609.187 9
1 5 6 12553.5 690.837 21
1 5 7 6163.8 522.657 16
1 5 7 6050.94 460.617 9
1 5 7 6112.74 508.666 21
-1 5 -7 5597.08 721.944 3
1 5 7 6335.72 475.619 22
1 5 7 5635.62 434.202 25
1 5 8 24422.5 1077.79 16
1 5 8 23031.1 943.415 25
1 5 8 26650.2 1047.49 9
1 5 8 25804.1 1098.47 21
1 5 9 10161.5 644.931 16
1 5 9 10066.2 645.473 21
1 5 9 9156.22 546.43 25
1 5 10 27994.7 916.755 25
1 5 10 29802.1 1031.49 16
1 5 11 5662.18 337.97 16
1 5 11 6862.77 401.241 21
-1 6 11 10674.5 507.994 21
-1 6 11 10411.5 511.104 16
-1 6 10 6178.3 467.468 16
-1 6 10 6554.27 389.185 26
-1 6 10 5398.12 406.643 12
-1 6 10 6336.23 461.247 21
-1 6 9 9194.03 509.253 26
-1 6 9 8193.75 571.709 21
-1 6 9 8094.39 551.68 12
-1 6 9 8020.89 578.375 16
-1 6 8 6079.2 491.276 21
-1 6 8 6103.74 448.511 15
-1 6 8 5790.52 503.413 16
-1 6 8 6242.17 425.571 26
-1 6 8 6027.21 500.066 12
-1 6 7 17417.6 729.038 26
-1 6 7 17601.1 857.643 12
-1 6 7 19154.7 801 15
-1 6 7 17363.3 825.358 21
-1 6 7 17281.9 866.808 16
-1 6 6 1389.19 206.181 15
-1 6 6 1490.58 222.5 21
-1 6 6 1191.54 211.572 16
1 6 -6 1396.53 341.223 4
1 6 -5 37157.5 1730.87 4
-1 6 5 39273.7 1660.96 32
1 6 -5 36857.8 1470.08 29
1 6 -4 22558.8 1076.87 29
1 6 -4 24396.6 1296.7 4
-1 6 4 22863.6 1144.34 32
1 6 -3 26290.3 1285.42 4
-1 6 3 27112.3 1166 29
1 6 -3 26250.1 1134.44 29
-1 6 3 27204.9 1143.2 32
1 6 -2 5539.3 546.306 4
-1 6 2 5393.2 396.141 4
-1 6 2 5869.76 518.93 29
-1 6 2 5389.45 447.055 32
1 6 -2 6841.2 535.325 29
-1 6 1 1015.32 200.24 4
-1 6 1 775.765 155.851 32
1 6 -1 980.828 204.535 29
1 6 -1 779.396 205.755 4
-1 6 1 1260.4 248.943 29
1 6 0 10476.1 652.365 4
-1 6 0 9265.76 491.76 32
1 6 0 11270.1 675.826 29
-1 6 0 10813.9 687.661 4
-1 6 0 11719.2 712.553 29
1 6 1 23417.3 959.134 4
1 6 1 26410.6 1087.34 29
-1 6 -1 22528.1 1014.85 29
-1 6 -1 23697.1 1109.96 4
1 6 2 104059 2256.53 4
1 6 2 98817.3 2571.56 32
-1 6 -2 102469 2490.67 29
1 6 2 104022 2118.53 27
1 6 2 98623.8 2528.71 29
1 6 3 19828.9 973.422 29
-1 6 -3 20435.6 949.73 29
-1 6 -3 21957.2 1185.68 4
1 6 3 21501.8 901.405 27
1 6 3 20250.2 1086.98 32
1 6 4 14070.7 790.992 29
1 6 4 15074.6 967.491 32
1 6 4 12702.9 853.852 27
-1 6 -4 14375.1 996.239 4
1 6 5 204.345 137.345 27
-1 6 -5 468.993 215.031 4
1 6 5 527.558 192.231 32
1 6 6 57142.5 1556.53 9
1 6 6 52339.2 1503.01 22
1 6 6 50263 1460.99 25
1 6 6 55709.3 2247.42 32
-1 6 -6 50779.3 2169.43 4
1 6 6 56495.3 1627.68 21
1 6 7 43576.8 1328.54 25
1 6 7 46007.1 1566.12 16
1 6 8 11588.7 727.259 16
1 6 8 11996.4 714.076 21
1 6 8 10140 590.729 25
1 6 9 9545.7 626.373 16
1 6 9 8676.67 514.717 25
1 6 9 9730.49 597.612 12
1 6 9 9694.48 613.237 21
1 6 10 21911 844.006 21
1 6 10 20285.1 823.166 16
1 6 11 6617.31 355.911 16
1 6 11 6756.66 368.195 21
-1 7 11 9396.77 453.051 16
-1 7 11 8851.14 412.249 21
-1 7 10 7524.73 465.304 12
-1 7 10 8517.06 495.55 21
-1 7 10 9059 541.429 16
-1 7 9 1450.22 238.727 12
-1 7 9 1815.57 270.49 16
-1 7 9 1711.05 248.956 21
-1 7 8 9439.92 587.034 21
-1 7 8 7376.43 566.142 16
-1 7 8 8390.11 591.798 12
-1 7 7 17364.8 833.857 12
-1 7 7 14772.3 742.269 21
-1 7 7 15452.4 819.837 16
-1 7 6 4141.47 397.003 16
1 7 -6 3853.18 586.252 4
-1 7 6 4286.47 364.154 21
-1 7 6 4218.15 390.58 12
1 7 -5 2082.85 339.856 29
1 7 -5 2836.23 482.902 4
-1 7 5 3080.65 474.15 32
-1 7 4 9338.54 768.069 32
1 7 -4 10402.5 758.45 29
1 7 -4 8911.37 822.009 4
1 7 -3 93292.4 2499.54 29
-1 7 3 86341.2 2446.85 32
-1 7 3 81908.3 2476.95 29
1 7 -3 88562.1 2698.87 4
1 7 -2 12421.1 865.612 4
-1 7 2 12232.4 842.097 29
-1 7 2 11051.2 660.149 4
1 7 -2 12675.7 793.263 29
-1 7 1 4690.52 462.793 4
-1 7 1 4822.72 424.144 32
-1 7 1 4702.91 510.332 29
1 7 -1 5596.12 513.325 29
1 7 -1 4511.72 489.343 4
1 7 0 8183.3 623.233 4
1 7 0 7848.69 620.315 29
-1 7 0 8128.28 659.524 29
-1 7 0 7785.69 487.313 32
-1 7 0 8452.54 656.749 4
1 7 1 85101.4 2197.08 4
-1 7 -1 84166.4 2487.92 4
1 7 1 84998.8 2355.08 29
-1 7 -1 85114.8 2361.26 29
-1 7 -2 233163 5001.3 4
1 7 2 223524 4677.87 29
-1 7 -2 228301 4610.17 29
1 7 3 32993.9 1422.07 29
-1 7 -3 35203.6 1380.92 29
1 7 3 33121.5 1537.16 32
-1 7 -3 36948.4 1661.11 4
1 7 4 16074.8 951.334 29
-1 7 -4 14539.7 1073.74 4
1 7 4 17663.2 1147.35 32
-1 7 -5 2208.09 434.298 4
1 7 5 2243.23 428.422 32
-1 7 -6 18605.4 1360.51 4
1 7 6 21198.4 984.071 16
1 7 6 22880 937.404 21
1 7 6 21225.2 1430.47 32
-1 7 -6 17795 908.348 24
1 7 7 14107.2 808.63 16
1 7 7 12988 724.765 21
1 7 8 119.24 86.612 21
1 7 8 179.913 124.813 16
1 7 9 12392.9 666.344 12
1 7 9 12491.2 697.503 16
1 7 9 13551.7 688.596 21
1 7 10 2614.96 258.031 21
1 7 10 2716.9 255.234 12
1 7 10 2652.56 273.187 16
1 7 11 1223.2 139.344 21
1 7 11 1387.11 148.462 16
-1 8 11 971.736 115.625 21
-1 8 11 1042.72 134.332 16
-1 8 11 745.516 104.92 12
-1 8 10 4840.48 349.119 12
-1 8 10 4835.53 369.666 16
-1 8 10 4735.32 326.191 21
-1 8 9 837.588 183.325 16
-1 8 9 970.598 172.292 21
-1 8 9 866.798 188.854 12
-1 8 8 8837.85 589.936 12
-1 8 8 8546.31 593.361 16
-1 8 8 8436.13 525.015 21
-1 8 7 13387.5 734.08 12
-1 8 7 13289.9 748.392 16
-1 8 7 12628.5 651.82 21
-1 8 6 46485.8 1430.36 12
-1 8 6 42770.3 1277.17 21
1 8 -6 42481.8 2108.35 4
-1 8 6 46734.7 1449.13 16
1 8 -5 3962.27 518.374 29
-1 8 5 3748.64 359.117 16
-1 8 5 4336.43 609.877 32
1 8 -5 3310.49 544.379 4
-1 8 5 4171.08 368.314 12
1 8 -4 34188.7 1528.87 29
-1 8 4 34407.6 1634.2 32
1 8 -4 37609.3 1812.95 4
-1 8 3 71819.4 2434.36 29
-1 8 3 67868 2245.2 32
1 8 -3 70582.6 2260.4 29
1 8 -2 92953.1 2747.21 4
-1 8 2 90398.2 2709.24 29
1 8 -2 84022.1 2462.17 29
-1 8 2 91330.5 2443.16 32
-1 8 1 39518 1550.7 4
1 8 -1 39529.1 1633.15 4
1 8 -1 42084 1614.66 29
-1 8 1 44020.2 1476.14 32
-1 8 1 43731.8 1754.49 29
-1 8 0 11991.1 669.696 32
1 8 0 11996.3 813.034 4
1 8 0 13483.1 881.986 29
-1 8 0 12836.9 900.83 29
-1 8 0 13381.4 896.934 4
-1 8 -1 42296.1 1751.73 4
1 8 1 44572.3 1571.38 4
1 8 1 43845.1 1682.63 29
-1 8 -1 44203.8 1699.57 29
1 8 2 48354.7 1846.38 29
-1 8 -2 47113.3 1767.61 29
-1 8 -2 51852.2 2030.47 4
1 8 2 49119.8 1839.19 32
-1 8 -3 7091.32 749.432 4
1 8 3 6390.34 684.056 32
1 8 3 5609.5 615.003 29
-1 8 -3 5160.9 544.959 29
-1 8 -4 28570.6 1610.47 4
1 8 4 24126.2 1312.66 29
1 8 4 26285.7 1499.5 32
1 8 5 38076 1185.98 21
-1 8 -5 33258.2 1227.12 11
1 8 5 37743.7 1920.63 32
-1 8 -5 35121.5 1882.9 4
-1 8 -6 17160 917.52 24
1 8 6 20808 874.481 21
-1 8 -6 17662 1355.83 4
1 8 6 18902.2 1413.06 32
1 8 7 17855.2 900.055 16
1 8 7 17789.5 818.485 21
1 8 8 11908.1 692.222 16
1 8 8 10597.7 607.215 21
1 8 9 14787.4 719.849 16
1 8 9 14253.2 677.105 12
1 8 9 14297.9 652.123 21
1 8 10 9172.51 437.184 21
1 8 10 9887.04 492.973 16
1 8 10 9224.06 451.373 12
-1 9 10 8547.96 432.66 12
-1 9 10 7884.37 423.877 16
-1 9 10 7048.51 350.318 21
-1 9 9 14237 608.409 21
-1 9 9 16053.4 716.703 16
-1 9 9 15859.7 711.293 12
-1 9 8 12427.7 666.705 12
-1 9 8 12227.7 667.916 16
-1 9 8 11826.9 582.554 21
-1 9 7 8883.37 582.822 16
-1 9 7 8174.43 488.436 21
-1 9 7 8806.56 578.63 12
-1 9 6 6080.11 465.424 16
1 9 -6 5671.64 772.458 4
-1 9 6 5862.72 467.424 12
1 9 -5 2494.68 316.064 11
1 9 -5 3179.05 534.994 4
-1 9 5 2833.29 485.771 32
-1 9 5 3175.9 329.242 12
-1 9 5 2699.04 293.909 16
1 9 -5 2767.68 469.89 29
-1 9 4 2707.51 286.023 12
1 9 -4 2539.37 418.16 29
-1 9 4 2312.03 414.261 32
1 9 -4 3005.18 510.707 4
1 9 -3 69694.8 2384.81 29
-1 9 3 78101.6 2734.12 29
-1 9 3 71462.4 2411.8 32
1 9 -3 74750.9 2663.29 4
1 9 -2 111474 3137.06 29
-1 9 2 109148 2959.22 32
1 9 -2 118099 3374.35 4
1 9 -1 32756.4 1518.3 29
-1 9 1 32059.8 1298.18 32
1 9 -1 32881.2 1539.82 4
-1 9 1 30560.4 1429.35 4
-1 9 1 33978.5 1623.79 29
1 9 0 100727 2892.01 29
-1 9 0 97227.6 2917.99 29
-1 9 0 93312.6 2839.59 4
1 9 0 101239 2813.08 4
-1 9 -1 127510 3471.15 29
1 9 1 130444 3250.21 4
-1 9 -1 141463 3704.85 4
1 9 1 143097 3632.18 29
-1 9 -2 9905.41 821.825 29
1 9 2 12225.9 915.576 32
-1 9 -2 12215.5 991.72 4
1 9 2 10825 880.776 29
-1 9 -3 24732.3 1047.5 11
-1 9 -3 24881.6 1324.83 29
1 9 3 25114.9 1391.06 29
1 9 3 28721.4 1533.65 32
-1 9 -3 30292.5 1653.09 4
-1 9 -4 9016.75 927.206 4
-1 9 -4 9181.08 623.492 11
1 9 4 9696.79 928.687 32
1 9 4 7739.78 785.875 29
-1 9 -5 15220.6 1263.77 4
-1 9 -5 14068.6 789.585 11
1 9 5 14553.5 1213.29 32
1 9 5 16989.5 800.354 16
1 9 6 32132.9 1083.9 21
1 9 6 34840.3 1239.13 16
1 9 7 4672.05 383.051 21
-1 9 -7 4070.99 400.097 24
1 9 7 4348.04 423.36 16
1 9 8 4358.01 354.458 21
1 9 8 4238.62 377.527 12
1 9 8 4484.29 395.589 16
1 9 9 8055.69 469.417 12
1 9 9 7018.75 406.628 21
1 9 9 8450.56 489.209 16
1 9 10 19447.2 619.136 12
1 9 10 19718.3 644.877 16
-1 10 10 18199.2 591.059 12
-1 10 10 17889.5 588.732 16
-1 10 9 5298.12 367.753 12
-1 10 9 4891.15 350.047 16
-1 10 8 5911.21 423.434 16
-1 10 8 4491.6 372.713 8
-1 10 8 5361.51 414.932 12
-1 10 7 1748.97 243.93 16
-1 10 7 2114.08 281.777 12
-1 10 6 2696.61 301.099 16
-1 10 6 2860.97 324.011 12
-1 10 5 4152.91 632.896 32
-1 10 5 4837.64 403.909 12
1 10 -5 4087.05 407.332 11
1 10 -5 3726.16 617.808 4
-1 10 5 4367.5 369.167 16
1 10 -4 26178.7 1479.04 29
1 10 -4 25226.9 1603.66 4
-1 10 4 29087.3 1014.63 12
-1 10 4 27690.1 1572.55 32
1 10 -3 22022.2 1434.22 4
-1 10 3 21071.2 1418.83 29
-1 10 3 21181.9 1256.09 32
-1 10 3 19486.3 774.498 12
1 10 -3 18440.1 1213.81 29
1 10 -2 28317.5 1572.87 4
-1 10 2 25484.2 1299.09 32
-1 10 2 29334 1635.38 29
1 10 -2 25073.3 1411.32 29
-1 10 1 30150 1473.78 4
1 10 -1 29658.2 1537.64 29
-1 10 1 31853.6 1656.75 29
1 10 -1 32121.6 1606.69 4
-1 10 0 33731.8 1672.96 29
-1 10 0 34658.2 1647.93 4
1 10 0 33574.9 1584.18 4
-1 10 0 34256.2 1214.55 11
1 10 0 33858 1654.63 29
1 10 1 4202.35 567 29
-1 10 -1 3536.2 518.842 29
-1 10 -1 3953.22 568.159 4
1 10 1 4568.63 536.547 32
-1 10 -1 4292.96 416.724 11
1 10 2 84031.3 2813.87 29
-1 10 -2 85084.2 2947.56 4
-1 10 -2 80926.1 2143.01 11
1 10 2 84137 2716.68 32
1 10 3 10769.8 946.464 29
-1 10 -3 9626.58 977.769 4
-1 10 -3 9283.79 647.067 11
1 10 3 9387.88 889.189 32
-1 10 -3 9324.07 838.607 29
1 10 4 8227.67 874.079 32
1 10 4 8960.67 545.406 16
-1 10 -4 9065.73 637.384 11
1 10 4 7591.57 806.273 29
-1 10 -4 8238 923.015 4
1 10 5 75789.7 1912.64 16
-1 10 -5 66167.4 2843.53 4
1 10 5 78600.6 3015.9 32
-1 10 -5 70230.5 2018.72 11
1 10 6 190.802 98.7344 16
-1 10 -6 232.1 117.804 24
1 10 7 18649.9 822.644 12
-1 10 -7 16288 813.678 24
1 10 7 17557 804.871 16
1 10 7 16617.6 699.354 21
1 10 8 829.146 135.516 21
1 10 8 981.867 183.416 12
1 10 8 1100.63 189.549 16
1 10 9 2016.81 181.133 21
1 10 9 2176.8 221.278 16
1 10 9 2225.95 223.942 12
1 10 10 1887.61 156.543 12
1 10 10 1943.27 160.285 16
-1 11 10 4224.71 223.769 12
-1 11 9 340.847 89.7234 12
-1 11 9 357.844 89.8367 16
-1 11 8 5473.6 371.401 16
-1 11 8 6182.69 413.595 12
-1 11 8 5076.14 363.309 8
-1 11 7 28400.7 1052.3 8
-1 11 7 31831.6 1071.99 12
-1 11 7 29409.2 990.111 16
1 11 -6 848.231 170.214 11
-1 11 6 718.903 150.864 16
-1 11 6 462.701 147.984 12
1 11 -5 42596.3 1439.78 11
-1 11 5 47335.9 1382.49 12
1 11 -4 83020.7 2190.74 11
1 11 -4 84853 3196.59 4
-1 11 4 80304.8 2846.21 32
-1 11 4 86465 2011.84 12
1 11 -4 77619.7 2834.01 29
1 11 -3 13646.7 1162.62 4
-1 11 3 13325.3 628.758 12
-1 11 3 13056.1 1160.55 29
1 11 -3 10747.2 971.971 29
-1 11 2 18545 878.54 11
-1 11 2 21528.2 1454.57 29
1 11 -2 21297.3 1412.02 4
1 11 -2 17967.9 1253.22 29
1 11 -1 13048.2 1044.07 4
1 11 -1 12316.4 1028.18 29
-1 11 1 12224.4 1048.57 29
-1 11 1 11941.8 700.946 11
-1 11 0 22426.6 1362.91 4
-1 11 0 20497.9 1359.95 29
-1 11 0 21786.4 888.819 8
1 11 0 22748.1 1416.03 29
1 11 0 21473.6 1216.23 32
-1 11 0 21841.2 983.863 11
1 11 0 22467.7 1321.29 4
1 11 1 3343.11 493.095 32
-1 11 -1 3496.03 561.812 4
-1 11 -1 3730.07 568.429 29
1 11 1 3129.03 531.384 29
-1 11 -1 3685.77 401.925 11
1 11 2 8528 865.485 29
-1 11 -2 8027.56 603.195 11
-1 11 -2 7616.56 854.159 4
1 11 2 7238.63 759.477 32
-1 11 -2 6660.28 746.51 29
-1 11 -3 20480.2 1468.23 4
1 11 3 20958.1 1356.01 32
-1 11 -3 22418.8 1029.22 11
1 11 3 19623.9 1333.65 29
-1 11 -3 17310.7 1205.81 29
-1 11 -4 19588.5 972.278 11
1 11 5 53220.8 1497.51 12
-1 11 -5 49479.9 1619.57 11
1 11 5 51679.7 1478.78 16
1 11 6 1559.71 235.896 12
-1 11 -6 971.352 218.61 24
1 11 6 1258.37 211.827 16
-1 11 -6 880.358 178.595 11
1 11 7 1080.49 183.364 16
-1 11 -7 791.088 161.921 24
1 11 8 21070.4 761.686 16
1 11 8 23512.6 815.298 12
1 11 9 319.553 82.644 12
1 11 9 394.289 85.773 16
-1 12 9 838.991 117.448 12
-1 12 8 12014.4 521.568 8
-1 12 8 12102.5 491.634 16
-1 12 7 18940.9 774.341 8
-1 12 7 17291.1 656.727 16
1 12 -7 15678.8 742.917 24
-1 12 7 20611.9 777.993 12
-1 12 6 3224.11 344.493 8
-1 12 6 3186.41 313.583 12
1 12 -6 2965.72 312.249 11
1 12 -5 5596.56 472.17 11
-1 12 5 5875.03 425.654 12
1 12 -4 31854 1244.45 11
-1 12 4 36949.5 1145.1 12
1 12 -3 3224.85 378.213 11
1 12 -2 27621.6 1647.35 29
1 12 -2 29816.2 1748.94 4
-1 12 2 29064.3 1123.82 11
-1 12 2 28882.7 1734.74 29
-1 12 1 26469 1629.76 29
-1 12 1 25547.3 1067.39 11
-1 12 1 25187.4 998.374 8
1 12 -1 25290.5 1582.3 29
1 12 -1 21859.7 1429.32 4
-1 12 0 4142.84 373.825 8
-1 12 0 4226.94 426.133 11
-1 12 0 2586.74 463.739 4
-1 12 0 4040.71 622.158 29
1 12 0 2734.88 551.699 29
-1 12 -1 11823.1 1060.23 29
-1 12 -1 14504.4 817.643 11
1 12 1 12620.5 1109.24 29
1 12 1 13407.7 1021 32
-1 12 -1 11389.2 1036.71 4
-1 12 -2 11795.3 741.877 11
-1 12 -2 11614.4 1021.56 29
1 12 2 12601.2 1081.89 29
1 12 2 9264.1 871.665 32
-1 12 -2 9661.21 962.78 4
-1 12 -3 34249.6 1318.11 11
1 12 4 21698.3 850.957 12
-1 12 -4 20562.6 983.56 11
1 12 5 730.56 141.868 16
1 12 5 623.593 148.886 12
-1 12 -5 651.025 164.481 11
-1 12 -6 230.997 143.38 24
1 12 6 409.099 124.96 12
-1 12 -6 305.155 104.09 11
1 12 6 549.337 128.485 16
1 12 7 4622.61 343.482 12
1 12 7 4283.31 320.226 16
-1 12 -7 4030.44 344.413 24
1 12 8 3007.41 230.25 16
1 12 8 2678.92 220.149 8
1 12 9 6527.18 286.256 12
-1 13 8 3742.13 237.939 8
-1 13 8 4885.19 298.046 12
-1 13 7 2813.26 247.603 12
1 13 -7 2203.47 245.552 24
-1 13 7 2643.82 254.476 8
-1 13 6 570.033 130.595 12
-1 13 6 460.016 135.665 8
1 13 -6 606.906 143.511 11
1 13 -5 7276.43 524.616 11
-1 13 5 7314.11 445.771 12
-1 13 5 7261.18 511.927 8
-1 13 4 12298.6 687.343 8
1 13 -4 11622.1 706.301 11
-1 13 4 12748.5 604.782 12
1 13 -3 12337.6 744.586 11
-1 13 3 12654.8 703.447 8
-1 13 2 7409.97 531.068 8
1 13 -2 8491.09 628.496 11
-1 13 2 7540.47 540.622 11
-1 13 1 1921.8 277.88 11
-1 13 1 1963.71 272.357 8
-1 13 0 7416.85 499.895 8
-1 13 0 7960.5 588.538 11
-1 13 -1 1263.22 242.706 11
-1 13 -2 3647.28 413.782 11
1 13 2 3308.4 356.145 11
-1 13 -3 4912.92 475.026 11
-1 13 -4 2600.28 333.401 11
1 13 4 2317.59 250.554 12
-1 13 -5 6079.46 507.185 24
1 13 5 6165.77 397.114 12
-1 13 -5 6234.85 477.634 11
-1 13 -6 5311.99 419.598 24
-1 13 -6 4564.11 354.615 11
1 13 6 5627.62 359.841 12
1 13 7 5925.57 309.631 16
1 13 7 7195.81 373.166 12
-1 13 -7 6092.71 382.344 24
1 13 7 7771.21 421.895 8
1 13 8 2865.46 194.219 12
-1 14 7 1076.48 124.19 12
-1 14 7 1399.31 161.275 8
1 14 -7 1037.02 137.733 24
1 14 -6 2837.04 288.596 24
-1 14 6 3010.82 280.552 8
-1 14 6 2690.83 223.193 12
1 14 -6 2638.58 250.181 11
-1 14 5 7099.63 391.963 12
-1 14 5 8446.63 509.367 8
1 14 -5 7800.4 511.1 11
1 14 -4 2598.45 316.231 11
-1 14 4 2378.4 284.115 8
-1 14 3 2855.28 320.17 8
1 14 -3 3077.37 366.325 11
-1 14 2 2555.28 304.87 8
1 14 -2 2829.62 357.069 11
-1 14 2 2092.09 272.297 11
-1 14 1 12722.5 673.605 8
-1 14 1 13615.2 739.721 11
1 14 -1 13738.2 776.065 11
1 14 0 3247.15 324.948 8
-1 14 0 2800.37 338.9 11
-1 14 0 3286.13 321.598 8
1 14 0 2955.06 352.636 11
-1 14 -1 -6.3149 76.1613 11
1 14 1 131.861 90.7478 11
1 14 2 7489.28 521.295 11
-1 14 -2 8558.96 610.634 11
-1 14 -3 17220.5 855.146 11
-1 14 -4 37699.6 1258.96 11
-1 14 -5 13002.2 676.214 24
-1 14 -5 12311.4 621.027 11
-1 14 -6 2111.25 234.219 24
1 14 6 1999.93 221.009 8
-1 14 -6 1555.21 181.333 11
1 14 6 1877.95 173.221 12
-1 14 -7 3230.07 225.039 24
1 14 7 3877.17 211.768 12
1 15 -6 2174.33 220.583 24
-1 15 6 2469 216.17 8
1 15 -5 3344.5 300.22 11
-1 15 5 3477.96 291.117 8
1 15 -4 12581.9 658.065 11
-1 15 4 11333.7 576.108 8
-1 15 3 1850.32 243.771 8
1 15 -3 1918.44 280.216 11
-1 15 2 16135.5 723.707 8
1 15 -2 15657.2 800.746 11
-1 15 1 3092.11 325.315 11
1 15 -1 3604.83 375.305 11
-1 15 1 3427.65 321.663 8
-1 15 0 987.919 173.564 8
-1 15 0 773.739 175.493 11
1 15 0 570.069 154.162 11
1 15 1 189.655 88.857 8
-1 15 -1 273.178 124.057 11
1 15 1 194.998 106.007 11
1 15 2 4066.81 350.848 11
-1 15 -2 5148.83 433.895 11
1 15 2 4766.09 382.908 8
-1 15 -3 10885.4 622.344 11
1 15 3 9616.02 539.241 8
-1 15 -3 9025.48 595.947 24
1 15 4 3903.98 321.879 8
-1 15 -4 3644.29 332.218 11
-1 15 -4 3826.92 353.066 24
-1 15 -5 51272.1 1337.23 24
1 15 5 49978.7 1241.53 8
-1 15 -6 1058.89 143.091 24
1 15 6 1022.97 130.59 8
1 16 -5 1622.03 177.354 11
-1 16 5 1624.85 168.235 8
1 16 -5 2038.6 211.004 24
1 16 -4 977.185 165.093 11
-1 16 4 937.648 144.507 8
-1 16 3 3880.19 301.478 8
1 16 -3 4561.5 374.75 11
-1 16 2 8369.12 441.317 11
-1 16 2 9673.53 492.494 8
-1 16 1 8197.09 448.675 8
-1 16 1 7965.1 464.389 11
1 16 -1 8525.54 527.321 11
-1 16 0 362.755 102.311 24
-1 16 0 436.152 124.13 11
1 16 0 413.18 128.427 11
1 16 1 13171 606.828 11
1 16 1 12735.6 557.1 8
-1 16 -1 13089.5 623.97 24
-1 16 -2 16130.6 702.858 24
1 16 2 12794.9 552.213 11
1 16 2 13579.4 583.237 8
-1 16 -2 16867.2 723.127 11
1 16 3 6770.24 386.47 8
-1 16 -3 7555.73 460.413 11
-1 16 -4 6143.99 370.397 11
1 16 4 5513.73 321.827 8
1 16 5 567.665 94.0525 8
-1 16 -5 627.143 112.958 24
1 17 -4 13280.8 510.982 24
1 17 -3 3242.07 261.28 11
1 17 -3 3827.1 285.94 24
-1 17 2 3677.36 238.167 8
1 17 -2 4177.16 312.34 11
-1 17 1 2736.37 217.403 11
1 17 -1 3831.31 294.431 11
-1 17 0 456.018 103.454 11
1 17 0 551.425 113.362 11
-1 17 -1 5418.29 318.857 24
-1 17 -1 6049.5 363.941 11
1 17 1 5105.64 294.577 11
-1 17 -2 4204.72 299.538 11
-1 17 -2 3948.83 278.939 24
-1 17 -3 6366.45 342.563 24
-1 17 -3 6692.11 357.983 11
-2 -17 3 399.546 84.1249 7
-2 -17 2 2901.94 222.525 7
-2 -17 1 4735.42 285.608 7
2 -17 -1 3815.2 202.172 13
-2 -17 0 8724.24 381.785 7
-2 -17 -1 142.759 41.7847 7
2 -17 2 10901.9 403.843 15
-2 -16 5 212.081 64.7066 7
2 -16 -5 158.461 44.5111 13
-2 -16 4 2054.91 206.164 7
2 -16 -4 2167.04 167.712 13
-2 -16 3 3126.13 268.116 7
2 -16 -3 2926.56 211.431 13
2 -16 -2 7385.11 356.13 13
-2 -16 2 8132.02 451.347 7
2 -16 -1 2820.7 221.227 13
-2 -16 1 3292.99 288.396 7
-2 -16 0 2672.38 253.359 7
2 -16 0 2413.68 206.549 13
2 -16 1 995.674 155.093 7
2 -16 1 923.389 128.565 13
-2 -16 -1 1241.3 160.42 7
-2 -16 -2 3406.29 242.143 7
2 -16 2 2925.96 211.622 13
2 -16 3 100.054 61.6716 15
2 -16 3 56.2442 40.466 13
2 -16 4 575.665 100.613 15
2 -15 -6 7721.42 312.05 13
-2 -15 6 5401.84 309.194 7
2 -15 -5 47.4544 44.1933 13
-2 -15 5 69.8187 41.1587 25
-2 -15 5 -68.862 61.2627 7
-2 -15 4 4041.32 274.356 25
2 -15 -4 5000.74 306.004 13
-2 -15 4 5040.03 367.606 7
2 -15 -3 5511.4 340.851 13
-2 -15 3 5622.68 412.324 7
2 -15 -2 13349 560.459 13
-2 -15 2 14462.9 692.183 7
2 -15 -1 1413.28 181.386 13
-2 -15 1 1402.67 219.695 7
2 -15 0 16665.5 729.986 7
2 -15 0 19171.4 701.112 13
2 -15 1 92.4811 71.9358 13
2 -15 1 165.858 82.1404 7
2 -15 2 6331.43 451.861 7
2 -15 2 6138.01 370.62 13
2 -15 3 985.628 181.965 7
2 -15 3 1264.67 167.15 13
2 -15 4 149.427 80.6639 15
2 -15 4 132.879 64.8185 13
2 -15 5 22518.1 615.956 13
2 -15 5 26556.9 758.743 15
2 -15 6 4249.64 234.716 15
-2 -14 7 208.855 61.6881 25
2 -14 -7 180.928 56.62 13
-2 -14 7 249.681 66.4816 15
-2 -14 6 27966.6 884.243 7
-2 -14 6 26656.6 807.976 25
-2 -14 5 6734.44 399.681 25
-2 -14 5 5710.56 358.765 15
-2 -14 5 6607.27 438.931 7
-2 -14 4 8601.76 475.032 25
-2 -14 4 10139.1 580.597 7
2 -14 -4 9958.17 490.151 13
-2 -14 3 8130.62 542.671 7
2 -14 -3 8891.27 475.497 13
-2 -14 3 8414.42 479.352 25
-2 -14 2 8416.65 560.607 7
2 -14 -2 7432.06 440.265 13
-2 -14 2 6996.73 436.666 25
2 -14 -1 7502.92 446.79 13
2 -14 0 746.086 147.094 13
2 -14 0 876.008 170.674 7
2 -14 1 10495.2 638.242 7
2 -14 1 11197.3 560.072 13
2 -14 2 2644.48 321.96 7
2 -14 2 2674.93 271.39 13
2 -14 3 19672.4 734.89 13
2 -14 3 15517.3 790.777 7
2 -14 4 4467.83 397.344 7
2 -14 4 4473.73 327.935 13
2 -14 4 5372.1 413.753 15
2 -14 5 246.312 77.4961 13
2 -14 5 311.685 102.245 15
2 -14 6 7858.46 348.697 13
2 -14 6 8825.94 423.39 15
2 -14 7 4030.2 226.884 15
-2 -13 8 740.225 108.488 15
2 -13 -8 927.222 118.081 13
-2 -13 8 841.029 117.331 25
-2 -13 7 5120.83 337.617 25
-2 -13 7 4843.54 324.888 7
-2 -13 7 4246.71 299.11 15
-2 -13 6 5556.38 386.043 25
2 -13 -6 5970.49 377.979 13
-2 -13 6 5264.08 393.789 7
-2 -13 6 4984.39 357.939 15
-2 -13 5 7917.38 518.079 7
-2 -13 5 6885.16 443.514 15
-2 -13 5 7746.85 481.391 25
2 -13 -5 8084.18 469.316 13
-2 -13 4 10415.8 571.558 25
-2 -13 4 10071.7 619.85 7
2 -13 -4 10641.3 552.171 13
-2 -13 4 9964.8 548.904 15
-2 -13 3 44873.3 1326.28 25
2 -13 -3 47932.3 1323.91 13
-2 -13 3 45126.7 1334.49 15
2 -13 -2 9070.27 513.509 13
-2 -13 2 9293.49 537.078 25
2 -13 -1 20291.3 792.804 13
2 -13 0 11232.6 582.089 13
2 -13 0 11344.9 668.551 7
2 -13 1 16981.6 860.179 7
2 -13 1 18254.1 763.105 13
2 -13 2 21260.9 841.332 13
2 -13 2 21834.3 996.52 7
2 -13 3 17695.3 749.848 13
2 -13 3 17321.2 883.15 7
2 -13 4 2488.26 271.298 13
2 -13 4 2233.83 307.723 7
2 -13 5 28722.1 935.855 13
2 -13 5 32841.5 1088.09 15
2 -13 6 1728.7 194.514 13
2 -13 6 1826.48 222.289 15
2 -13 7 2737.1 203.204 13
2 -13 7 2818.3 233.222 15
-2 -12 9 7162.92 335.546 25
2 -12 -9 7673.94 332.008 13
-2 -12 8 3368.17 234.147 10
-2 -12 8 4338.9 311.414 25
-2 -12 8 3937.94 289.186 15
-2 -12 7 2632.28 265.78 15
-2 -12 7 2366.62 223.411 10
-2 -12 7 1833.74 226.854 7
-2 -12 7 2768.02 283.62 25
-2 -12 6 4881.93 409.947 7
-2 -12 6 4954.52 389.174 15
-2 -12 6 5465.79 418.318 25
-2 -12 6 4889.71 345.062 10
-2 -12 5 5106.53 405.14 15
-2 -12 5 5517.03 456.144 7
-2 -12 5 5350.4 419.6 25
-2 -12 4 5606.37 467.82 7
-2 -12 4 4639.27 402.524 15
2 -12 -4 5406.29 413.765 13
-2 -12 4 4982.05 404.764 25
-2 -12 3 7950.59 512.549 25
2 -12 -3 7858.58 492.197 13
2 -12 -2 700.079 155.057 13
2 -12 -2 607.452 227.399 30
2 -12 -1 61183.3 1559.01 13
-2 -12 1 66369.4 2599.41 1
-2 -12 0 1690.07 240.399 19
2 -12 0 2283.34 259.32 13
-2 -12 0 1470.85 400.58 1
2 -12 0 1344.42 287.477 30
2 -12 0 2144.89 280.257 7
2 -12 1 23203.5 877.465 13
-2 -12 -1 20675.7 1249.53 5
-2 -12 -1 20825.9 840.329 19
2 -12 1 23120.3 1011.05 7
2 -12 2 1717.19 235.952 13
2 -12 2 2345.41 325.504 7
2 -12 3 6431.37 458.189 13
2 -12 3 6643.82 557.084 7
2 -12 4 9171.33 544.22 13
2 -12 4 8630.81 634.138 7
2 -12 5 2270.98 269.356 13
2 -12 5 1948.58 233.461 26
2 -12 5 2129.24 296.893 15
2 -12 5 2058.71 303.554 7
2 -12 6 12460 588.153 13
2 -12 6 11433.8 541.642 26
2 -12 7 7442.41 406.415 13
2 -12 7 6684.53 358.868 26
2 -12 7 7947.55 450.237 15
2 -12 8 1135.73 128.815 13
2 -12 8 1257.77 147.954 15
2 -12 8 840.992 101.424 26
-2 -11 10 5658.95 268.251 25
2 -11 -10 5822.5 258.493 13
-2 -11 9 6027.44 358.518 25
-2 -11 9 5660.37 335.038 15
-2 -11 8 14083.7 642.307 25
-2 -11 8 12655.2 600.116 15
-2 -11 8 13136.4 566.966 10
-2 -11 7 20533.3 845.861 15
-2 -11 7 19220.5 753.464 10
-2 -11 7 19522.8 832.629 25
-2 -11 6 943.876 187.573 25
-2 -11 6 995.838 199.735 7
-2 -11 6 1019.03 172.961 10
-2 -11 6 855.582 183.204 15
-2 -11 5 16251.3 813.113 7
-2 -11 5 16259.2 775.7 15
-2 -11 5 15783.9 772.79 25
-2 -11 5 15889 707.164 10
-2 -11 4 3974.56 399.344 7
2 -11 -4 4243.74 597.033 30
-2 -11 4 4175.85 387.938 15
-2 -11 4 3821.39 330.332 10
-2 -11 4 4116.87 375.578 25
-2 -11 3 6274.62 463.325 25
2 -11 -3 5829.87 641.062 5
-2 -11 3 5640.11 744.562 1
2 -11 -3 5212.92 640.495 30
-2 -11 2 7893.1 820.6 1
2 -11 -2 7258.3 465.259 13
2 -11 -2 6835.6 678.002 30
-2 -11 1 2343.73 281.367 19
2 -11 -1 2893.4 284.51 13
2 -11 -1 2956.09 426.27 30
2 -11 -1 2537.5 409.327 1
2 -11 0 5067.24 378.847 13
-2 -11 0 4792.75 400.007 19
2 -11 0 4592.92 520.368 30
-2 -11 0 6522.19 741.29 1
-2 -11 0 5324.08 611.109 5
2 -11 0 5146.31 437.143 7
-2 -11 -1 1866.06 369.855 3
2 -11 1 2864.77 339.43 7
2 -11 1 2043.61 348.113 30
-2 -11 -1 3097.12 510.635 1
-2 -11 -1 2264.28 260.066 19
-2 -11 -1 2738.92 419.173 5
2 -11 1 2541.51 273.303 13
2 -11 2 2205.85 261.929 13
-2 -11 -2 1558.42 332.695 5
2 -11 2 2297.68 316.483 7
-2 -11 -2 2277.51 245.896 19
-2 -11 -2 2652.04 472.958 1
2 -11 2 2300.44 365.899 30
-2 -11 -2 1593.69 351.742 3
2 -11 3 569.374 176.391 7
-2 -11 -3 286.489 171.14 3
-2 -11 -3 570.821 206.716 5
-2 -11 -3 455.819 285.27 1
2 -11 3 439.258 122.946 13
2 -11 4 1738.4 250.841 13
2 -11 4 1626.04 288.989 7
2 -11 5 14895.5 846.043 15
2 -11 5 14570.4 694.661 26
2 -11 5 14716.1 722.574 13
2 -11 5 14321.2 833.775 7
2 -11 6 27473.6 986.446 13
2 -11 6 27958.9 1077.41 15
2 -11 6 25899.2 941.196 26
2 -11 7 5331.31 408.756 15
2 -11 7 4520.18 351.401 13
2 -11 7 4484.39 339.86 26
2 -11 8 7675.32 387.664 26
2 -11 8 7658.14 424.694 15
2 -11 8 8574.37 424.198 13
2 -11 9 4704.49 245.611 15
-2 -10 10 7156.9 365.283 25
-2 -10 10 7218.67 349.552 15
-2 -10 9 1672.21 211.652 15
-2 -10 9 1708.74 215.217 25
-2 -10 9 1993.65 212.517 10
-2 -10 8 1379.9 222.287 25
-2 -10 8 1172.35 188.865 10
-2 -10 8 1193.54 206.119 15
-2 -10 7 3173.27 348.775 25
-2 -10 7 3052.87 345.919 15
-2 -10 7 2870.76 316.885 7
-2 -10 7 3295.31 322.596 10
-2 -10 6 10516.9 592.277 10
-2 -10 6 10300.1 630.43 7
-2 -10 6 10508 639.593 25
-2 -10 6 10214.3 628.511 15
-2 -10 5 2136.46 291.363 7
2 -10 -5 2752.49 469.659 30
-2 -10 5 2166.42 263.11 10
-2 -10 5 1866.91 284.798 15
-2 -10 5 2522.18 305.235 25
-2 -10 4 702.052 279.013 1
-2 -10 4 480.759 125.344 10
2 -10 -4 697.508 249.949 30
-2 -10 4 481.702 134.535 15
-2 -10 4 516.826 137.794 25
2 -10 -4 303.745 161.035 5
2 -10 -3 5616.28 598.769 5
-2 -10 3 5741.92 396.764 10
2 -10 -3 4899.02 590.281 30
-2 -10 3 5634.48 702.193 1
2 -10 -2 12100.4 606.376 13
2 -10 -2 12482.6 894.875 30
2 -10 -2 12539.3 878.345 5
-2 -10 2 13729.6 1058.3 1
-2 -10 1 9236.13 758.187 5
-2 -10 1 9467.48 864.672 1
-2 -10 1 8543.92 541.141 14
2 -10 -1 8306.78 478.804 13
2 -10 -1 9699.44 759.787 30
-2 -10 1 8593.07 506.649 19
2 -10 0 893.806 175.916 7
2 -10 0 873.893 237.15 1
-2 -10 0 745.825 166.736 14
2 -10 0 985.877 166.763 13
-2 -10 0 503.051 241.258 1
-2 -10 0 967.713 261.281 3
-2 -10 0 620.837 206.763 5
-2 -10 0 1352.31 199.343 19
2 -10 0 794.919 250.469 30
2 -10 1 3151.55 414.561 30
2 -10 1 3500.7 364.907 7
2 -10 1 3515.9 304.826 13
-2 -10 -1 3447.9 336.481 14
-2 -10 -1 3680.64 477.856 3
-2 -10 -1 3436.64 309.684 19
-2 -10 -1 2902.7 507.506 1
-2 -10 -1 3577.6 465.708 5
2 -10 2 13888.2 761.932 7
-2 -10 -2 12002.8 599.985 19
-2 -10 -2 14638.5 984.122 5
2 -10 2 13128.9 889.19 30
-2 -10 -2 14602.3 982.376 3
2 -10 2 14191.1 657.153 13
-2 -10 -2 12263 649.458 14
2 -10 3 11383.8 704.094 7
-2 -10 -3 10908.2 889.525 3
2 -10 3 8963.69 739.653 30
2 -10 3 9764.53 568.509 13
-2 -10 -3 11330.5 889.239 5
2 -10 4 7373.02 589.83 7
-2 -10 -4 6973.99 736.899 3
2 -10 4 7148.23 498.186 13
-2 -10 -4 7073.44 719.543 5
2 -10 5 4838.65 493.475 7
2 -10 5 5625.72 449.954 13
2 -10 6 7784.48 554.367 15
2 -10 6 8113.33 522.336 26
2 -10 6 7297.31 509.365 13
2 -10 6 7686.39 499.902 25
2 -10 7 14387.4 666.111 25
2 -10 7 14965.8 708.197 13
2 -10 7 15970.6 766.014 15
2 -10 7 13878.7 668.982 26
2 -10 8 644.988 130.186 25
2 -10 8 758.753 148.987 13
2 -10 8 494.286 136.597 15
2 -10 8 586.526 129.323 26
2 -10 9 3363.15 247.555 15
2 -10 9 3681.19 249.601 26
2 -10 9 3173.35 217.632 25
-2 -9 11 2903.3 188.381 25
-2 -9 10 1591.58 197.479 25
-2 -9 10 1759.48 197.229 15
-2 -9 9 8830.72 509.754 10
-2 -9 9 8955.53 532.145 15
-2 -9 9 8888.49 538.562 25
-2 -9 8 1256.6 230.681 25
-2 -9 8 1244.07 223.29 15
-2 -9 8 1332.89 216.875 10
-2 -9 7 3375.8 342.194 10
-2 -9 7 3815.22 392.851 25
-2 -9 7 3607.7 393.183 15
-2 -9 6 761.244 168.963 7
-2 -9 6 882.468 181.459 10
-2 -9 6 596.507 152.385 15
-2 -9 6 920.209 199.056 25
2 -9 -5 1393.9 344.119 30
-2 -9 5 1656.39 254.651 25
-2 -9 5 1913.83 250.104 10
-2 -9 5 1809.6 261.374 7
2 -9 -5 1718.11 324.825 5
-2 -9 5 1452.43 255.675 15
-2 -9 4 6104.59 455.449 25
2 -9 -4 6346.19 662.58 30
-2 -9 4 5982.71 712.645 1
-2 -9 4 6012.67 421.998 10
2 -9 -4 4996.76 546.478 5
-2 -9 4 6117.74 475.836 15
2 -9 -3 26726.1 1332.64 30
2 -9 -3 23070.7 1175.71 5
-2 -9 3 26980.7 1515.04 1
-2 -9 2 42241.3 1849.82 1
2 -9 -2 42506.3 1662.42 30
2 -9 -2 38985.3 1534.78 5
2 -9 -1 8355.89 680.25 30
-2 -9 1 7040.23 619.966 5
-2 -9 1 7180.79 707.206 1
-2 -9 0 3151.17 429.832 3
-2 -9 0 3051.7 402.028 5
2 -9 0 2592.32 337.407 28
2 -9 0 3226.83 416.844 30
-2 -9 0 3323.97 473.63 1
2 -9 0 2304.46 345.555 1
2 -9 1 45066.2 1658.92 30
-2 -9 -1 48846 1937.18 1
-2 -9 -1 49130.5 1766.05 3
-2 -9 -1 51317.9 1798.32 5
2 -9 2 22814 844.609 13
-2 -9 -2 27068.7 1305.88 3
-2 -9 -2 24502.3 1254.14 5
-2 -9 -2 23338.3 1061.49 30
2 -9 2 23983.1 1174.89 30
2 -9 2 24875.5 1000.79 7
2 -9 3 1922.38 279.206 7
2 -9 3 1366.63 314.794 30
-2 -9 -3 2174.02 373.674 3
2 -9 3 1704.61 231.363 13
-2 -9 -3 1926.64 354.221 5
-2 -9 -3 1759.73 318.3 30
2 -9 4 12085.6 746.316 7
2 -9 4 12164.7 658.251 13
-2 -9 -4 11688.2 871.396 30
-2 -9 -4 12547.8 954.013 3
-2 -9 -4 12035.3 932.404 5
2 -9 5 17432.1 818.764 13
-2 -9 -5 15317.4 1092.83 3
2 -9 5 16331.2 904.147 7
-2 -9 -5 17328.5 1165.79 5
-2 -9 -5 13753.2 1023.27 30
2 -9 5 16573.1 767.822 25
2 -9 6 11795.3 654.645 25
2 -9 6 11643 672.132 13
2 -9 6 11423.8 711.793 15
2 -9 6 11071.4 643.448 26
2 -9 7 1595.92 236.133 25
2 -9 7 1453.09 237.394 13
2 -9 7 1137.8 202.556 26
2 -9 7 1334.88 235.233 15
2 -9 8 5802.41 427.743 13
2 -9 8 5307.26 420.538 15
2 -9 8 5005.08 384.883 25
2 -9 8 4943.9 390.065 26
2 -9 9 7720.51 427.846 13
2 -9 9 6460.87 390.262 15
2 -9 9 7346.72 403.163 25
2 -9 9 7121.12 376.486 9
2 -9 9 7464.89 412.177 26
2 -9 10 264.802 63.0917 26
-2 -8 11 6960.55 348.764 25
-2 -8 11 7153.31 346.249 15
-2 -8 10 3489.98 310.351 25
-2 -8 10 3595.11 313.137 15
-2 -8 10 2646.88 217.404 26
-2 -8 9 12469.7 650.291 10
-2 -8 9 11758.2 661.388 15
-2 -8 9 11811.9 662.339 25
-2 -8 8 6563.13 517.018 25
-2 -8 8 5535.57 486.719 15
-2 -8 8 5201.74 383.482 26
-2 -8 8 6322.5 492.162 10
-2 -8 7 1318.48 225.613 10
-2 -8 7 1255.22 239.434 25
-2 -8 7 1290.08 259.873 15
-2 -8 6 33021.5 1257.84 15
2 -8 -6 37182.9 1781.47 30
-2 -8 6 33062.2 1116.71 18
-2 -8 6 35160.8 1205.79 10
-2 -8 6 35022.9 1242.02 25
-2 -8 6 31900.2 1157.15 7
-2 -8 5 6282.67 494.416 15
-2 -8 5 7260.91 517.476 25
2 -8 -5 7533.99 664.001 5
2 -8 -5 8479.58 770.994 30
-2 -8 5 6960.84 496.698 7
-2 -8 5 7272.46 487.095 10
-2 -8 4 27761.3 1552.79 1
2 -8 -4 28647.5 1408.51 30
2 -8 -4 27222.4 1261.43 5
-2 -8 4 29399.7 1034.23 25
2 -8 -3 15249.8 878.68 5
2 -8 -3 15365.8 958.993 30
-2 -8 3 17179.9 1145.77 1
2 -8 -2 9939.89 727.322 30
-2 -8 2 9972.65 820.699 1
2 -8 -2 9086 654.882 5
2 -8 -1 62530.9 1939.1 30
2 -8 -1 60747.9 1871.5 5
-2 -8 1 60893.7 2093.46 1
-2 -8 1 60685 1829.65 3
-2 -8 1 60269.8 1840.89 5
-2 -8 0 12004.7 746.735 3
-2 -8 0 10972.7 729.843 5
2 -8 0 11138.6 729.891 30
-2 -8 0 11426 828.265 1
2 -8 1 8951.54 614.368 1
2 -8 1 8727.43 648.021 30
-2 -8 -1 9686.4 695.149 3
-2 -8 -1 9216.57 671.105 5
-2 -8 -1 8689.59 534.854 30
-2 -8 -2 16589 952.197 3
-2 -8 -2 14722.8 795.432 30
-2 -8 -2 16522.7 931.174 5
2 -8 2 15057.6 880.434 30
2 -8 2 13629.2 706.092 31
2 -8 3 10360.1 661.881 31
-2 -8 -3 11817.1 838.422 3
-2 -8 -3 10647.1 741.709 30
-2 -8 -3 12110 843.335 5
2 -8 3 10137.7 767.195 30
2 -8 4 29231.4 1059.58 13
-2 -8 -4 31246.9 1462.09 3
-2 -8 -4 32011.5 1465.03 5
2 -8 4 27764.9 1224.57 31
-2 -8 -4 29178.3 1388.5 30
2 -8 4 29478.6 1171.4 7
2 -8 5 10829.8 792.085 31
-2 -8 -5 11981 945.134 30
2 -8 5 11758.9 747.817 7
-2 -8 -5 11394 922.301 5
2 -8 5 11696.3 645.344 25
2 -8 5 12841.5 692.912 13
-2 -8 -5 11158.9 907.885 3
-2 -8 -6 101431 3099.69 5
-2 -8 -6 89084.5 2996.38 30
2 -8 6 103210 2398.74 26
-2 -8 -6 92406.5 2982.5 3
2 -8 6 92736.1 2289.11 25
2 -8 6 96486.3 2425.05 15
2 -8 6 98645.7 2370.48 13
2 -8 7 5988.68 500.161 15
2 -8 7 6839.18 517.654 26
2 -8 7 6296.91 489.532 25
2 -8 7 5728.88 479.23 13
2 -8 8 508.965 138.048 25
2 -8 8 284.696 146.775 13
2 -8 8 410.86 123.882 15
2 -8 8 425.643 129.673 26
2 -8 9 12686.6 607.883 15
2 -8 9 15456.9 666.76 26
2 -8 9 13981 615.828 9
2 -8 9 14053.4 640.739 25
2 -8 9 16042 688.926 13
2 -8 10 2956.2 212.802 15
2 -8 10 3363.88 245.419 25
2 -8 10 3300.83 240.737 26
-2 -7 11 3418.76 268.274 25
-2 -7 11 3536.55 272.736 15
-2 -7 11 2687.03 196.354 26
-2 -7 10 10318.6 580.456 25
-2 -7 10 9367.65 478.939 26
-2 -7 10 10978.7 602.803 15
-2 -7 9 2176.58 302.975 15
-2 -7 9 1914.39 237.321 26
-2 -7 9 2158.51 291.116 10
-2 -7 9 2228.01 300.363 25
-2 -7 8 9476.25 639.324 25
-2 -7 8 9225.83 660.455 15
-2 -7 8 10033.9 642.331 10
-2 -7 8 9268.61 551.347 26
-2 -7 7 24491.2 1052.59 25
2 -7 -7 24595 1471.09 30
-2 -7 7 22771.8 943.789 18
-2 -7 7 25563.3 1032.12 10
-2 -7 7 22884.5 1050.46 15
-2 -7 7 22514 886.24 26
2 -7 -6 10052.7 772.443 5
2 -7 -6 10463.6 892.803 30
-2 -7 6 10247.2 593.041 18
-2 -7 6 10249.4 646.208 15
-2 -7 6 10246.5 633.714 25
-2 -7 6 10294.2 630.804 20
-2 -7 6 10762.2 624.64 10
-2 -7 5 17212.9 782.6 25
-2 -7 5 16179 754.319 20
2 -7 -5 15475.7 907.643 5
-2 -7 5 16218.4 738.763 10
-2 -7 5 15623.3 765.161 6
2 -7 -5 16471.7 1070.53 30
2 -7 -4 5971.36 531.382 5
2 -7 -4 5655.46 488.003 3
-2 -7 4 7183.42 753.216 1
2 -7 -4 6996.49 647.742 30
2 -7 -3 77960.1 2108.36 5
-2 -7 3 77357.7 2530.1 1
2 -7 -3 81832 2320.89 30
-2 -7 2 24154.9 1254.22 1
2 -7 -2 25157.7 1036.64 5
2 -7 -2 24232.5 1106.37 30
-2 -7 1 3017.27 415.131 1
2 -7 -1 3120.47 349.164 5
-2 -7 1 3202.6 350.027 5
2 -7 -1 3111.87 365.21 30
-2 -7 1 2716.06 323.536 3
-2 -7 0 39495 1076.11 30
2 -7 0 43283.8 1448.72 30
-2 -7 0 42122.1 1396.75 3
-2 -7 0 42425.7 1390.71 5
-2 -7 0 41423.2 1564.77 1
2 -7 1 6021.52 457.557 1
2 -7 1 7030.24 467.359 28
-2 -7 -1 6628 445.384 30
-2 -7 -1 7570.28 572.263 3
-2 -7 -1 6638.47 534.214 5
2 -7 1 6987.81 543.636 30
2 -7 2 103524 2337.77 31
-2 -7 -2 110289 2666.72 3
2 -7 2 98040.9 2523.53 30
-2 -7 -2 91972.8 2341.96 30
-2 -7 -2 101073 2541.37 5
-2 -7 -3 44971.8 1649.71 3
2 -7 3 43374.6 1444.04 31
2 -7 3 43698.9 1630.31 30
-2 -7 -3 46207.2 1625.59 5
-2 -7 -3 42547.3 1524.7 30
-2 -7 -4 3260.94 424.433 5
-2 -7 -4 2794.69 409.363 3
2 -7 4 2964.43 388.509 31
2 -7 5 4461.25 441.814 7
2 -7 5 5587.49 439.237 25
-2 -7 -5 5279.56 586.213 3
2 -7 5 4370.45 507.243 31
-2 -7 -5 4812.55 566.754 5
2 -7 5 5001.11 428.445 13
-2 -7 -6 110258 3362.43 30
-2 -7 -6 116945 3348.89 3
2 -7 6 114946 2673.68 13
2 -7 6 112007 2605.54 25
-2 -7 -6 118312 3372.31 5
2 -7 6 114115 2729.02 15
2 -7 7 5190.95 471.648 13
2 -7 7 4817.46 438.378 25
2 -7 7 5119.53 459.019 26
2 -7 7 5498.13 485.351 15
2 -7 8 12513.9 708.803 13
2 -7 8 11052.8 666.686 15
2 -7 8 12653.8 708.493 26
2 -7 8 11811.3 677.96 25
2 -7 9 10604 598.303 13
2 -7 9 10217.6 566.628 9
2 -7 9 10496.1 586.719 25
2 -7 9 9114.59 537.938 15
2 -7 9 10328 587.241 26
2 -7 10 1333.13 177.378 26
2 -7 10 1021.29 143.661 15
2 -7 10 982.555 131.496 9
2 -7 10 1486.88 187.47 25
-2 -6 12 7077.41 302.671 15
-2 -6 11 33573.6 997.495 25
-2 -6 11 35724.8 1037 15
-2 -6 10 17967.6 818.829 25
-2 -6 10 18978.3 853.877 15
-2 -6 10 19755.4 849.003 10
-2 -6 10 18467.8 749.128 26
-2 -6 9 91.3005 98.3416 10
-2 -6 9 17.1762 95.1475 25
-2 -6 9 253.863 134.702 15
-2 -6 9 132.936 91.0436 26
-2 -6 8 10318 676.742 25
-2 -6 8 10455.8 660.595 10
-2 -6 8 10875.1 693.381 15
-2 -6 8 9729.13 598.214 26
-2 -6 7 2901.05 332.109 20
2 -6 -7 3250.68 509.23 30
-2 -6 7 2797.62 393.425 31
-2 -6 7 2484 297.312 26
-2 -6 7 3025.79 348.16 10
-2 -6 7 2667.62 333.917 25
-2 -6 7 3160.6 351.607 6
-2 -6 7 2774.13 344.288 15
-2 -6 7 2413.28 298.706 18
-2 -6 6 20048.6 887.719 25
-2 -6 6 18884.5 848.55 6
2 -6 -6 20848.9 1232.09 30
-2 -6 6 20094.6 850.757 20
-2 -6 6 18208.9 979.995 31
-2 -6 6 18692.1 869.218 15
-2 -6 6 20651.8 885.158 10
2 -6 -6 17772.3 1002.23 5
-2 -6 6 19680.5 838.99 18
2 -6 -5 4812.12 550.371 30
-2 -6 5 4413.89 426.993 31
2 -6 -5 5146.55 493.932 5
-2 -6 5 4269.98 454.71 2
2 -6 -4 40419.6 1562.2 30
-2 -6 4 37768.3 1193.26 31
2 -6 -4 37432 1252.66 3
2 -6 -4 39787.2 1358.71 5
-2 -6 4 37896 1271.22 2
-2 -6 3 60357.3 1520.75 2
-2 -6 3 58818.4 1412.41 31
-2 -6 3 60903.8 2079.99 1
2 -6 -3 63933.5 1722.26 5
2 -6 -3 59795 1638.1 3
-2 -6 2 23220.5 752.674 2
2 -6 -2 26529.7 980.377 5
-2 -6 2 25750.3 1226.62 1
2 -6 -2 26856.5 1089.74 30
-2 -6 1 221395 4334.33 1
-2 -6 1 207093 3854.41 3
-2 -6 1 212807 3871.24 5
2 -6 -1 218137 3909.89 5
-2 -6 1 203381 3365.46 2
2 -6 0 7061.43 513.934 30
-2 -6 0 7097.33 368.202 30
-2 -6 0 7112.32 494.825 3
-2 -6 0 6990.86 480.378 5
-2 -6 0 6332.66 301.374 2
-2 -6 0 7309.06 582.61 1
2 -6 1 21858.7 824.372 28
2 -6 1 23442.2 973.583 30
-2 -6 -1 21042.2 798.944 30
-2 -6 -1 23056.3 956.32 3
2 -6 1 23250.6 845.855 1
-2 -6 -1 22463.5 925.943 5
-2 -6 -2 130585 2891.81 5
2 -6 2 124948 2642.53 1
-2 -6 -2 137817 2979.56 3
2 -6 2 131261 2758.73 31
2 -6 2 129273 2938.63 30
-2 -6 -3 50410.9 1616.88 5
2 -6 3 49178 1522.04 31
-2 -6 -3 54008.3 1692.12 3
2 -6 3 52083.3 1712.77 30
2 -6 4 2188.85 336.584 27
-2 -6 -4 2461.14 362.948 5
2 -6 4 2475.19 338.388 31
-2 -6 -4 2804.24 384.399 3
2 -6 5 23091.7 929.612 13
-2 -6 -5 23094.9 1203.98 3
2 -6 5 23942.1 1193.01 31
2 -6 5 21837.4 971.364 15
2 -6 5 20905.9 938.08 7
-2 -6 -5 23855.4 1237.42 5
2 -6 6 67808.6 2349.2 31
-2 -6 -6 74674.9 2495.27 5
2 -6 6 71797.5 1929.05 13
2 -6 6 75455.1 1991.59 15
-2 -6 -6 72255.7 2438.11 3
2 -6 6 70808.6 1906.56 25
2 -6 6 73917.7 1978.64 26
-2 -6 -7 27684.2 1535.34 5
2 -6 7 26575.6 1139.53 26
2 -6 7 26532.4 1084.6 25
-2 -6 -7 25300.9 1445.67 3
2 -6 7 27364.8 1119.47 13
2 -6 7 22888.5 1343.43 31
2 -6 7 26174.9 1074.83 15
2 -6 8 15621.1 805.023 15
2 -6 8 15863.8 829.467 13
2 -6 8 15867.1 839.248 26
2 -6 8 15011.4 791.789 25
2 -6 9 1004.21 198.007 25
2 -6 9 779.603 188.057 13
2 -6 9 1052.47 205.027 26
2 -6 9 758.686 172.601 9
2 -6 9 796.591 174.615 15
2 -6 10 1105.75 156.701 15
2 -6 10 885.562 141.601 9
2 -6 10 1345.3 196.257 25
2 -6 10 1459.64 200.256 26
2 -6 11 4006.99 251.18 25
2 -6 11 3758.68 233.753 26
-2 -5 12 429.079 76.023 26
-2 -5 12 521.922 98.0554 15
-2 -5 11 5004.63 370.218 25
-2 -5 11 5752.48 405.746 15
-2 -5 11 5151.09 351.132 26
-2 -5 10 3706.37 368.969 25
-2 -5 10 3818.14 385.668 10
-2 -5 10 3778.87 381.43 15
-2 -5 10 3513.78 335.788 26
-2 -5 9 15533.1 819.663 25
-2 -5 9 15684.9 828.542 15
-2 -5 9 13737.7 735.36 26
-2 -5 9 14981.6 813.24 10
-2 -5 8 13151.7 750.161 25
-2 -5 8 10110.5 859.857 31
-2 -5 8 12220.4 727.735 15
-2 -5 8 12205.7 701.623 20
-2 -5 8 12558 720.769 18
-2 -5 8 12414.7 692.008 26
-2 -5 8 13219.8 750.28 10
2 -5 -8 10452.5 966.731 30
-2 -5 7 4046.64 380.61 6
-2 -5 7 3026.29 439.548 31
-2 -5 7 3560.5 371.682 10
-2 -5 7 3561.2 362.071 20
-2 -5 7 3279.29 345.081 26
-2 -5 7 4544.97 407.716 18
-2 -5 7 4015.59 403.463 15
2 -5 -7 3721.85 527.803 30
-2 -5 7 3821.19 385.841 25
-2 -5 6 11847.2 610.298 20
2 -5 -6 10369.1 723.665 5
-2 -5 6 11662 643.532 10
2 -5 -6 11674.6 890.965 30
-2 -5 6 10780.7 755.565 31
-2 -5 6 11831.3 831.79 2
2 -5 -5 60906.8 2022.95 30
-2 -5 5 60041.1 1759.42 31
2 -5 -5 60746.6 1769.2 5
-2 -5 5 57274.6 1822.96 2
2 -5 -4 104187 2255.47 3
-2 -5 4 100548 2289.18 31
2 -5 -4 104914 2381.38 5
2 -5 -4 111770 2731.11 30
-2 -5 4 96158.1 2357.33 2
-2 -5 3 67816.9 1697.95 2
2 -5 -3 73214.7 1714.64 3
2 -5 -3 76085.8 2033.91 30
-2 -5 3 74438.2 2187.39 1
2 -5 -3 73091.5 1767.44 5
-2 -5 3 70799.7 1630.16 31
-2 -5 2 64778.8 1374.86 31
-2 -5 2 69363.4 2010.2 1
2 -5 -2 69073.6 1827.78 30
2 -5 -2 68511.6 1634.81 5
-2 -5 2 65355.1 1489.82 2
-2 -5 1 21037.1 972.94 1
-2 -5 1 21737.7 793.406 5
-2 -5 1 20808.9 781.484 3
2 -5 -1 18986.8 749.445 5
-2 -5 1 18852.7 464.98 30
2 -5 -1 20189 859.842 30
-2 -5 1 19891.4 619.965 2
-2 -5 0 5043.19 277.754 2
-2 -5 0 5280.86 456.125 1
-2 -5 0 4838.58 279.692 30
-2 -5 0 4842.5 364.041 5
-2 -5 0 5248.96 383.753 3
2 -5 0 5084.34 412.228 30
2 -5 1 88454.9 2039.3 30
2 -5 1 87649.7 1835.22 28
-2 -5 -1 91402.6 1959.21 5
-2 -5 -1 92618.1 1995.29 3
2 -5 2 3282.2 313.614 27
2 -5 2 2624.81 236.199 1
2 -5 2 3074.88 249.364 28
-2 -5 -2 2958.76 323.946 3
-2 -5 -2 3170.46 326.604 5
2 -5 2 3277.83 356.439 30
-2 -5 -3 15267.9 802.69 3
2 -5 3 14962.7 778.392 31
2 -5 3 16248.1 857.889 30
-2 -5 -3 15251.8 797.595 5
2 -5 3 13670 766.628 27
2 -5 4 16729.1 971.558 27
-2 -5 -4 20063.2 1004.83 5
-2 -5 -4 19788.1 996.352 3
2 -5 4 17648.9 936.412 31
-2 -5 -5 61396.8 2026.11 3
2 -5 5 61162.3 2034.84 31
2 -5 5 56830.6 2095.61 27
-2 -5 -5 63185.8 2083.05 5
2 -5 6 45543.3 1852.25 31
2 -5 6 45500.7 1424.37 25
2 -5 6 44097.1 1975.56 27
-2 -5 -6 43884.7 1855.22 5
-2 -5 -6 46190.7 1845.7 3
2 -5 6 45542.5 1414.37 13
2 -5 6 44428.3 1395.71 15
2 -5 7 38368.9 1812.99 31
2 -5 7 39357 1341.06 15
2 -5 7 42245.6 1408.5 25
-2 -5 -7 42520.6 1932.61 5
-2 -5 -7 40463.3 1829.92 3
2 -5 7 44041.8 1423.93 13
2 -5 7 42451.3 1463.23 26
2 -5 8 9742.65 644.296 13
2 -5 8 9475.24 655.688 26
2 -5 8 9499.66 609.252 15
2 -5 8 10362.4 660.548 25
2 -5 9 1616.58 252.926 9
2 -5 9 1465.96 221.18 15
2 -5 9 1732.24 273.35 26
2 -5 9 1925.72 274.698 13
2 -5 9 1511.39 252.165 25
2 -5 10 46704.8 1318.21 26
2 -5 10 42744.1 1179.88 9
2 -5 10 40447.5 1134.23 15
2 -5 10 47840.8 1339.9 25
2 -5 11 5993.62 329.291 26
2 -5 11 6595.79 361.659 25
-2 -4 12 9684.82 405.075 26
-2 -4 12 10793.2 450.891 15
-2 -4 11 7251.43 471.084 15
-2 -4 11 6469.35 431.49 25
-2 -4 11 7135.87 445.697 26
-2 -4 10 13475.5 740.316 15
-2 -4 10 12917.9 703.848 25
-2 -4 10 12913.1 700.145 26
-2 -4 10 14465 766.954 10
-2 -4 9 7574.86 529.162 20
-2 -4 9 6795.64 531.62 15
-2 -4 9 6441.64 510.425 26
-2 -4 9 6673.89 521.689 25
-2 -4 9 6883.46 549.538 10
-2 -4 8 3677.85 385.077 15
-2 -4 8 3418.62 377.115 25
-2 -4 8 3533.24 389.41 18
-2 -4 8 3728.28 393.977 10
-2 -4 8 3120.7 340.239 6
-2 -4 8 2181.09 406.634 31
-2 -4 8 3716.19 365.481 20
2 -4 -8 2135.02 444.84 30
-2 -4 8 3422.62 375.404 26
-2 -4 7 22935.2 1241.81 31
-2 -4 7 22632.7 942.079 25
-2 -4 7 23157.2 929.649 6
-2 -4 7 24721.2 1003.83 10
2 -4 -7 23663 1345.32 30
-2 -4 7 23433.4 971.709 15
-2 -4 7 24771.4 997.503 18
-2 -4 7 23352.2 952.903 26
-2 -4 7 25060.6 943.524 20
-2 -4 6 21496.1 1088.93 31
2 -4 -6 22365.9 1211.6 30
-2 -4 6 23248.4 1201.09 2
2 -4 -6 22120 1046.04 5
-2 -4 5 37211.6 1415.51 2
2 -4 -5 37480.5 1478.66 30
-2 -4 5 37299.9 1336.62 31
2 -4 -5 38477.2 1274.03 5
2 -4 -4 7095.81 459.329 5
2 -4 -4 7237.27 420.16 3
2 -4 -4 7065.72 570.046 30
-2 -4 4 6744.05 503.121 2
-2 -4 4 7182.47 483.67 31
-2 -4 3 220536 3796.09 31
2 -4 -3 212757 4113.09 30
-2 -4 3 217609 3907.27 2
-2 -4 3 220546 4282.68 1
2 -4 -3 216437 3710.21 3
-2 -4 2 66203.3 1394.9 31
-2 -4 2 63763.8 1472.77 2
2 -4 -2 62272.5 1462.86 5
2 -4 -2 64216.3 1678.38 30
-2 -4 1 17052.4 561.888 2
2 -4 -1 17643.3 620.997 5
-2 -4 1 17572.3 634.151 5
-2 -4 1 18391.5 809.674 1
-2 -4 1 17326.9 634.735 3
2 -4 -1 18027.2 736.953 30
-2 -4 0 29156.9 770.26 2
-2 -4 0 29230.2 874.986 5
-2 -4 0 28117 892.264 3
2 -4 0 29239.6 975.724 30
-2 -4 0 29615.4 1051.26 1
2 -4 0 28764.5 909.869 28
2 -4 1 75172 1507.29 1
2 -4 1 75584.7 1658.65 28
2 -4 1 75768.5 1831.43 30
-2 -4 -1 76631.5 1752.44 3
-2 -4 -1 79905.5 1744.61 5
-2 -4 -2 7612.45 477.702 5
2 -4 2 6904.51 475.798 30
-2 -4 -2 7377.85 477.231 3
2 -4 2 7303.09 384.507 28
-2 -4 -3 167781 3500.53 5
2 -4 3 170362 3061.33 28
2 -4 3 173918 3584.43 30
-2 -4 -3 172423 3527.47 3
2 -4 3 178762 3567.77 31
-2 -4 -4 6492.5 545.684 3
2 -4 4 6438.92 548.203 31
-2 -4 -4 6513.58 557.397 5
2 -4 4 6403.35 596.954 27
2 -4 5 10418.7 844.952 27
-2 -4 -5 11379.7 813.162 5
2 -4 5 11073.7 799.378 31
-2 -4 -5 10390.9 752.858 3
-2 -4 -6 285.507 142.523 3
2 -4 6 -68.0959 114.077 27
-2 -4 -6 340.957 149.431 5
2 -4 6 -216.823 147.502 31
2 -4 6 16.9912 82.325 15
2 -4 6 95.9468 83.1903 13
2 -4 6 53.4725 75.113 25
2 -4 6 347.442 134.593 26
2 -4 7 56100.2 1654.26 25
2 -4 7 57096.9 1638.96 13
2 -4 7 53893.1 1576.58 15
-2 -4 -7 56700.5 2160.51 3
2 -4 7 52311.4 2163.65 31
2 -4 7 57216.2 1727.57 26
-2 -4 -7 57022.4 2265.7 5
2 -4 7 49589.3 2323.08 27
2 -4 8 4620.45 439.628 25
2 -4 8 4691.04 440.907 13
2 -4 8 4528.13 436.528 9
2 -4 8 4032.53 384.013 15
2 -4 8 4376.05 444.509 26
2 -4 9 2565.78 289.651 15
2 -4 9 2718.29 333.102 13
2 -4 9 2943.05 345.398 25
2 -4 9 2741.38 323.41 9
2 -4 9 2468.05 325.469 26
2 -4 10 6577.29 402.663 15
2 -4 10 7883.99 469.894 9
2 -4 10 8016.04 510.91 26
2 -4 10 8422.3 535.443 25
2 -4 11 2052.38 215.854 25
2 -4 11 2205.64 210.399 26
-2 -3 12 149.851 68.1308 26
-2 -3 12 37.4965 59.3712 15
-2 -3 12 85.2873 52.1638 25
-2 -3 11 14124.6 668.792 15
-2 -3 11 12570.5 635.409 26
-2 -3 11 12545.1 603.759 25
-2 -3 10 1693.02 252.386 25
-2 -3 10 1811.34 220.524 21
-2 -3 10 2219.04 278.85 20
-2 -3 10 1637.72 259.537 26
-2 -3 10 1842.39 268.5 15
-2 -3 9 10799.6 648.473 25
-2 -3 9 11019.9 667.823 15
-2 -3 9 9790.21 542.755 21
-2 -3 9 10752.7 671.599 26
-2 -3 9 9864.91 652.904 10
-2 -3 9 10680.9 616.958 20
-2 -3 8 4625.95 420.58 25
-2 -3 8 5674.43 474.295 10
-2 -3 8 4097.6 380.795 6
-2 -3 8 5250.49 416.636 20
-2 -3 8 3659.33 515.192 31
2 -3 -8 4947.08 650.82 30
-2 -3 8 5049 469.904 18
-2 -3 8 5199.97 442.8 15
-2 -3 8 4590.42 423.764 26
-2 -3 8 4492.12 357.857 21
-2 -3 7 4989.24 417.408 15
-2 -3 7 5335.07 405.975 6
-2 -3 7 5376.48 585.533 31
-2 -3 7 5270.03 416.748 25
-2 -3 7 5055.34 596.641 2
-2 -3 7 5326.2 443.301 18
-2 -3 7 4623.24 410.284 10
-2 -3 7 5649.15 403.006 20
2 -3 -7 5383.4 621.726 30
-2 -3 7 5071.25 424.911 26
-2 -3 6 21330.8 1162.82 2
-2 -3 6 21319.1 1087.44 31
2 -3 -6 21706.7 1153.09 30
2 -3 -6 20816.2 983.465 5
2 -3 -5 11329.1 743.402 30
-2 -3 5 10478.3 673.967 31
2 -3 -5 11021 619.496 5
-2 -3 5 10436.8 708.941 2
-2 -3 4 146554 3005.79 31
2 -3 -4 145293 2824.26 5
2 -3 -4 153065 3204.69 30
2 -3 -4 144702 2651.15 3
-2 -3 4 146475 3107.32 2
-2 -3 3 32537.4 990.048 31
2 -3 -3 31116.7 812.099 3
-2 -3 3 32308.8 1049.68 2
2 -3 -3 30777 1082.93 30
2 -3 -3 31532.3 883.653 5
-2 -3 2 160938 2895.03 2
-2 -3 2 162782 3132.04 1
-2 -3 2 159325 2807.53 31
2 -3 -2 159450 3038.68 30
2 -3 -1 25783.2 863.232 30
-2 -3 1 27302.7 758.042 2
-2 -3 1 27777.8 933.416 1
-2 -3 1 26959.8 759.801 3
2 -3 -1 25286.3 719.517 5
-2 -3 1 25639 740.439 5
2 -3 0 89613.8 1921.94 30
-2 -3 0 84190.5 1953.54 1
-2 -3 0 90539 1794.98 3
-2 -3 0 90771.8 1755.6 5
2 -3 0 88045 1829.76 28
-2 -3 -1 39187.8 1023.24 5
2 -3 1 39249.7 1115.85 30
2 -3 1 35146.7 734.622 1
-2 -3 -1 36597 1017.98 3
2 -3 1 37151.9 974.915 28
2 -3 2 194549 3410.2 28
2 -3 2 202295 3688.36 30
-2 -3 -2 202703 3668.27 3
2 -3 2 197406 3818.67 27
-2 -3 -2 195437 3617.43 5
-2 -3 -3 8426.78 548.414 3
2 -3 3 8818.06 439.386 28
-2 -3 -3 8494.83 554.852 5
2 -3 3 9597.88 603.265 31
-2 -3 -4 23726.7 1048.82 3
2 -3 4 24511.5 1194.6 27
-2 -3 -4 23041.6 1059.06 5
2 -3 4 22407 1054.1 31
-2 -3 -5 15149.9 900.397 3
-2 -3 -5 16381.6 968.137 5
2 -3 5 15291.2 1035.63 27
2 -3 5 15888.5 967.358 31
2 -3 6 13515.1 686.385 25
-2 -3 -6 12699.9 938.072 5
-2 -3 -6 12632.9 899.124 3
2 -3 6 13046.9 695.953 26
2 -3 6 11928.3 915.186 31
2 -3 6 12715 638.727 13
2 -3 6 11612.1 994.408 27
2 -3 7 13152.8 705.614 13
-2 -3 -7 13536.5 1055.67 5
-2 -3 -7 14666.3 1041.61 3
2 -3 7 12503.1 1023.11 31
2 -3 7 13869.9 741.9 25
2 -3 7 13857.1 698.012 15
2 -3 7 14338.5 1198.37 27
2 -3 7 14281.9 776.015 26
2 -3 8 40616.9 1414.7 26
2 -3 8 37665.2 1248.57 15
2 -3 8 40917.5 1361.3 13
2 -3 8 40717.7 1380.48 9
2 -3 8 41505.7 1395.05 25
2 -3 9 11167.5 673.593 25
2 -3 9 10921.6 659.432 13
2 -3 9 10956.7 677.131 26
2 -3 9 11077.6 595.346 15
2 -3 9 11173.7 651.117 9
2 -3 10 2546.09 271.543 9
2 -3 10 2400.43 280.388 26
2 -3 10 2533.93 299.599 25
2 -3 11 13220.6 550.549 26
2 -3 11 14303 602.652 25
-2 -2 12 20.9815 55.5634 15
-2 -2 12 38.2968 62.1917 26
-2 -2 11 4209.52 307.714 21
-2 -2 11 5338.33 400.948 15
-2 -2 11 4263.46 372.182 26
-2 -2 11 4418.82 339.49 25
-2 -2 10 7368.65 491.918 20
-2 -2 10 7631.78 532.057 15
-2 -2 10 7887.59 550.866 26
-2 -2 10 7479.52 503.36 25
-2 -2 10 7117.89 459.211 21
-2 -2 9 27320.2 1050.46 25
-2 -2 9 27621.6 991.666 21
-2 -2 9 27415.3 1015.54 20
-2 -2 9 28168.9 1130.68 26
-2 -2 9 28424 1094.53 15
-2 -2 9 27948.9 1115.47 10
-2 -2 8 29402.7 1075.13 25
-2 -2 8 28682.8 1045.69 6
-2 -2 8 29308.3 1115.54 10
-2 -2 8 29938.3 1020.27 21
2 -2 -8 28759 1542.06 30
-2 -2 8 31370.9 1189.87 18
-2 -2 8 31051.8 1150.68 26
-2 -2 8 31120.4 1131.76 15
-2 -2 8 31274 1054.03 20
2 -2 -7 78.6087 92.9893 30
-2 -2 7 83.7813 70.8144 20
-2 -2 7 532.713 144.456 18
-2 -2 7 -434.14 221.595 2
-2 -2 7 -134.167 109.107 31
-2 -2 7 20.8809 94.7568 10
-2 -2 7 -61.3364 66.3857 15
-2 -2 7 210.958 108.72 26
-2 -2 6 80786.9 2472.79 2
2 -2 -6 80334.3 2138.67 5
-2 -2 6 79414.1 2326.07 31
2 -2 -6 74796.6 2275.98 30
2 -2 -5 98024.9 2484.91 30
2 -2 -5 104382 2279.93 5
-2 -2 5 94272.1 2433.36 31
-2 -2 5 98305 2573.43 2
-2 -2 4 6777.75 476.454 31
-2 -2 4 6335.37 495.641 2
2 -2 -4 6525.54 310.004 3
2 -2 -4 6638.74 486.17 30
2 -2 -4 6627.17 393.076 5
2 -2 -3 108488 2336.45 30
-2 -2 3 110202 2290.15 31
2 -2 -3 111673 2061.98 5
2 -2 -3 115703 1916.92 3
-2 -2 3 112019 2396.23 2
-2 -2 2 29167.3 950.704 1
-2 -2 2 31788.7 869.694 31
2 -2 -2 29438.5 904.968 30
-2 -2 2 32825.9 936.568 2
2 -2 -2 29257.8 702.375 5
2 -2 -1 28990.4 847.731 30
-2 -2 1 27115.8 846.653 1
2 -2 -1 28715.3 638.975 5
-2 -2 1 27857.8 695.267 3
-2 -2 1 27528.1 674.593 5
-2 -2 1 28861.1 789.341 2
-2 -2 0 39327.3 927.587 3
2 -2 0 40076.2 1020.03 30
-2 -2 0 39809.3 889.655 5
-2 -2 0 38002.8 1009.47 1
2 -2 0 39425.5 994.056 28
2 -2 1 52061.5 1258.68 30
-2 -2 -1 54062.7 1224.04 5
-2 -2 -1 51090.5 1237.23 3
2 -2 1 52688.6 1187.68 28
-2 -2 -2 7513.48 451.623 3
2 -2 2 6888.24 366.562 28
-2 -2 -2 8214.05 467.546 5
2 -2 2 7062.63 434.353 30
-2 -2 -3 86937.6 2108.18 3
-2 -2 -3 91233.2 2159.79 5
2 -2 3 86969.7 2143.65 31
2 -2 3 83279.4 1852.23 28
2 -2 4 37110.3 1128.48 28
-2 -2 -4 41341.7 1466.98 5
2 -2 4 41873.5 1625.88 27
-2 -2 -4 41599.7 1439.06 3
2 -2 4 38935 1443.6 31
2 -2 5 27038.6 1300.78 31
-2 -2 -5 30442 1323.43 3
-2 -2 -5 29379.5 1348.16 5
2 -2 5 28756.8 1477.18 27
2 -2 6 37038 1675.22 31
-2 -2 -6 40320.3 1699.15 3
-2 -2 -6 39858.2 1771.82 5
2 -2 6 40422.2 1936.8 27
2 -2 7 48297.1 1480.73 26
2 -2 7 44503.6 2016.64 31
2 -2 7 45787.9 1412.11 13
2 -2 7 45587.8 1353.48 15
2 -2 7 45622.2 1293.23 21
2 -2 7 49281 1488.29 25
-2 -2 -7 52858.8 2179.63 5
-2 -2 -7 50828.1 2044.22 3
2 -2 7 51649.5 2372.51 27
-2 -2 -8 21531.3 1352.1 3
2 -2 8 22444.8 852.973 21
2 -2 8 24587.7 929.754 15
2 -2 8 25268.1 1047.03 25
2 -2 8 25787.7 1053.39 9
2 -2 8 21868.7 900.758 22
2 -2 8 24246.2 1019.35 26
2 -2 8 25113.4 1007.59 13
2 -2 9 15707.9 722.376 22
2 -2 9 16927.4 835.366 25
2 -2 9 15637.4 665.482 21
2 -2 9 15531 795.651 26
2 -2 9 16023.5 788.009 9
2 -2 9 16544 720.299 15
2 -2 10 4546.37 380.291 26
2 -2 10 4773.31 380.175 9
2 -2 10 5153.45 427.936 25
2 -2 11 1524.4 201.089 25
2 -2 11 1240.66 160.024 9
2 -2 11 1165.44 161.761 26
-2 -1 12 7926.06 424.792 26
-2 -1 12 8718.63 429.669 15
-2 -1 12 7587.46 345.345 21
-2 -1 11 6172.25 390.931 21
-2 -1 11 5590.13 371.76 25
-2 -1 11 6845.18 451.733 15
-2 -1 11 6106.55 446.96 26
-2 -1 10 5213.39 433.224 15
-2 -1 10 4585.84 377.148 21
-2 -1 10 4325.87 368.356 20
-2 -1 10 4815.17 396.232 25
-2 -1 10 4742.71 434.611 26
-2 -1 9 14393.7 717.422 25
-2 -1 9 16180.7 815.454 26
-2 -1 9 15643.6 733.938 21
-2 -1 9 15676.9 785.92 15
-2 -1 9 13785.6 642.913 16
-2 -1 9 15070.6 712.184 20
-2 -1 9 13981.2 756.603 10
-2 -1 8 16526.9 751.165 25
-2 -1 8 15020.1 711.174 21
-2 -1 8 17521.1 739.732 20
-2 -1 8 17709 814.791 15
-2 -1 8 15958.8 823.439 18
-2 -1 8 16229.9 779.292 10
-2 -1 8 19100 854.212 26
-2 -1 8 15397.4 1122.26 31
-2 -1 8 15830.1 685.738 16
-2 -1 7 5648.59 429.299 15
-2 -1 7 5030.69 577.442 31
-2 -1 7 5857.81 430.77 26
2 -1 -7 5273.43 535.028 5
2 -1 -7 4972.32 558.888 30
-2 -1 7 4852.05 626.747 2
-2 -1 6 6461.13 636.382 2
-2 -1 6 6096 575.171 31
2 -1 -6 6540.78 532.052 5
-2 -1 5 287526 5557.7 2
-2 -1 5 285033 5365.75 31
2 -1 -5 289965 5127.07 5
2 -1 -4 20348.1 541.617 3
-2 -1 4 21534.2 947.629 2
2 -1 -4 22614.4 770.373 5
2 -1 -4 22047.7 869.009 30
-2 -1 4 22781.2 897.441 31
2 -1 -3 2957.25 201.667 5
-2 -1 3 2813.18 289.664 2
-2 -1 3 2683.32 263.639 31
2 -1 -3 2677.88 251.395 30
2 -1 -3 2659.64 113.636 3
-2 -1 2 39919.1 1031.82 31
2 -1 -2 40650.2 1014.98 30
-2 -1 2 40416 1092.15 2
2 -1 -2 40497.9 760.427 5
-2 -1 1 461633 7186.66 1
-2 -1 0 216311 3447.32 3
-2 -1 0 210679 3344.37 5
2 -1 0 212636 3498.33 30
2 -1 0 222208 3555.61 28
2 -1 1 152009 2377.94 32
2 -1 1 154013 2679.61 28
-2 -1 -1 152161 2754.89 3
-2 -1 -1 151568 2691.87 5
2 -1 1 152616 2722.84 30
2 -1 2 18424.8 639.686 28
-2 -1 -2 18272.7 729.337 3
2 -1 2 17689.3 491.746 32
-2 -1 -2 19413.5 734.363 5
2 -1 3 192821 3837.45 31
-2 -1 -3 193951 3823.8 5
2 -1 3 191878 3575.93 28
-2 -1 -3 193740 3826.73 3
-2 -1 -4 90038.7 2393.15 5
2 -1 4 88027.3 2079.7 28
2 -1 4 88509.6 2354.39 31
-2 -1 -4 90011.9 2362.69 3
-2 -1 -5 17215.7 989.581 3
2 -1 5 15635.5 954.35 31
2 -1 5 15920.4 1111.12 27
-2 -1 -5 15717.6 987.173 5
-2 -1 -6 11418.3 935.996 5
-2 -1 -6 12329.2 915.609 3
2 -1 6 10548.6 856.223 31
2 -1 6 11359 1030.28 27
2 -1 7 46235.1 1401.17 26
-2 -1 -7 48742 2156.68 5
2 -1 7 44817.2 1312.4 21
-2 -1 -7 46128.7 1993.75 3
2 -1 7 43281.9 1975.13 31
2 -1 7 46135.7 1384.08 13
2 -1 7 46777 1447.44 25
2 -1 7 46393.7 1440.67 9
2 -1 7 49894.3 2384.1 27
2 -1 8 1799.92 248.106 21
-2 -1 -8 2015.61 437.998 5
2 -1 8 1851.25 274.622 9
2 -1 8 1847.84 273.713 25
2 -1 8 1550.65 247.344 26
2 -1 8 1960.58 488.117 27
2 -1 8 1156.08 318.375 31
-2 -1 -8 2044.69 419.469 3
2 -1 8 1721.2 245.667 22
2 -1 8 1923.32 270.374 13
2 -1 9 20258.4 878.051 26
2 -1 9 19754.9 823.817 22
2 -1 9 20296.1 886.313 9
2 -1 9 18773.7 779.305 21
2 -1 9 20529.9 927.16 25
2 -1 10 22227.7 845.817 26
2 -1 10 21686.3 891.005 25
2 -1 10 21004.7 829.822 9
2 -1 10 18909.6 712.181 21
2 -1 11 2090.42 203.286 26
2 -1 11 2150.23 207.864 9
2 -1 11 2214.08 235.857 25
-2 0 12 1790.19 192.93 15
-2 0 12 2014.25 210.217 26
-2 0 12 1737.84 172.891 21
-2 0 11 6788.15 462.852 26
-2 0 11 6959.31 454.832 15
-2 0 11 6449.52 419.362 21
-2 0 10 12102 589.567 16
-2 0 10 12852 662.634 21
-2 0 10 11411.9 597.348 25
-2 0 10 13674.5 727.334 26
-2 0 10 13249.8 691.957 15
-2 0 9 11284.3 656.267 15
-2 0 9 10835.6 624.127 21
-2 0 9 12013.4 612.003 20
-2 0 9 10853.8 600.27 25
-2 0 9 11678 677.701 26
-2 0 9 10161.9 566.435 16
-2 0 8 14360.9 659.345 20
-2 0 8 14617.2 706.838 21
-2 0 8 13209.3 663.12 25
-2 0 8 14790 737.591 15
-2 0 8 14886.8 1092.96 31
-2 0 8 14172.9 658.933 16
-2 0 8 14540.5 777.565 18
-2 0 8 14421.1 716.832 10
-2 0 8 14888.9 738.292 26
-2 0 7 2797.54 293.111 15
-2 0 7 2546.62 279.218 26
-2 0 7 2150.49 420.435 2
-2 0 7 3106.57 447.221 31
2 0 -7 2396.81 370.825 5
2 0 -6 9833.49 688.87 5
-2 0 6 9225.22 766.649 2
-2 0 6 9895.12 730.307 31
2 0 -5 39247.3 1279.94 5
-2 0 5 40577.4 1506.03 2
2 0 -5 36562 1243.76 4
-2 0 5 40425.8 1393.39 31
2 0 -4 904.511 143.201 5
-2 0 4 871.862 193.859 31
2 0 -3 60115.4 1365.03 30
-2 0 3 65863.3 1525.84 31
-2 0 3 65980.7 1616.21 2
2 0 -3 57455.2 1250.92 5
-2 0 2 163652 2820.36 31
2 0 -2 160677 2644.86 30
-2 0 2 161718 2918 2
2 0 -2 159815 2743.93 28
2 0 -1 226437 3771.21 28
2 0 -1 233589 3622.94 30
-2 0 1 230988 3465.4 3
-2 0 1 225684 3830.82 2
-2 0 0 7.66317 20.99 1
2 0 0 46.1367 40.5637 30
2 0 0 20.6648 35.787 28
2 0 2 125751 2346.42 28
2 0 2 122854 2190.16 32
-2 0 -2 119029 2460.99 3
-2 0 -2 117894 2286.67 4
-2 0 -3 502101 8360 3
2 0 3 505075 8118.76 28
2 0 3 491873 7910.49 32
2 0 3 492139 8304.97 31
-2 0 -3 488655 7933.83 4
-2 0 -4 49455.4 1292.98 4
2 0 4 51510.6 1498.26 28
2 0 4 50090.1 1368.99 32
2 0 4 50667.7 1643.67 31
-2 0 -4 54490 1721.29 3
2 0 5 2164.75 341.093 31
-2 0 -5 2291.63 371.51 5
2 0 5 1874.41 404.16 27
-2 0 -5 2140.26 349.258 3
2 0 6 1481.52 309.108 31
2 0 6 1163.07 280.211 27
-2 0 -6 1450.84 352.783 5
-2 0 -6 901.069 250.757 3
-2 0 -7 13139 1115.76 5
-2 0 -7 13668.2 1070.69 3
2 0 7 11417.9 610.871 22
2 0 7 12115.1 678.899 9
2 0 7 13440 673.811 26
2 0 7 14697.1 1283.14 27
2 0 7 11409.7 1017.07 31
-2 0 -7 11995.6 639.396 19
2 0 7 13828.9 687.785 13
2 0 7 11643.3 628.141 21
2 0 7 13497.9 710.258 25
2 0 8 58023.2 1638.85 26
2 0 8 63888.1 1749.93 9
2 0 8 59443.8 1624.48 22
2 0 8 59584.1 1642.62 21
2 0 8 64235.4 1774.85 25
-2 0 -8 63501.3 2710.14 5
2 0 8 62933.7 3022.38 27
2 0 8 56799.8 2357.86 31
-2 0 -8 56955.5 2384.29 3
2 0 9 1223.61 222.812 25
2 0 9 1297.62 214.211 26
2 0 9 899.115 178.85 22
2 0 9 1352.54 224.443 9
2 0 9 911.902 180.434 21
2 0 10 16779.7 773.181 25
2 0 10 16109 689.926 26
2 0 10 16493.4 725.773 9
2 0 10 15375 661.818 21
2 0 11 3350.91 237.427 21
2 0 11 3488.06 272.169 9
2 0 11 3086.11 236.915 26
2 0 11 4068.26 316.221 25
-2 1 12 8700.24 431.872 26
-2 1 12 8489.68 405.538 21
-2 1 12 9047.74 428.276 15
-2 1 11 6471.77 439.357 26
-2 1 11 6133.92 418.815 21
-2 1 11 5413.66 345.9 16
-2 1 11 6498.48 433.509 15
-2 1 10 5273.52 439.5 26
-2 1 10 4589.12 400.417 21
-2 1 10 4539.76 366.199 16
-2 1 10 5003.23 418.347 15
-2 1 9 16213.3 790.178 26
-2 1 9 14797.5 711.018 16
-2 1 9 14897.1 687.789 20
-2 1 9 15437.3 777.233 15
-2 1 9 15770.3 775.475 21
-2 1 8 16905.6 784.961 21
-2 1 8 17312.8 724.435 20
-2 1 8 16231.8 1125.74 31
-2 1 8 17202.7 818.509 18
-2 1 8 18003 805.551 26
-2 1 8 16207.2 753.256 10
-2 1 8 15791.4 724.946 16
-2 1 8 18042.3 813.883 15
-2 1 7 6046.68 424.167 21
2 1 -7 6097.86 605.997 5
-2 1 7 5728.19 414.493 26
-2 1 7 6513.35 723.698 2
-2 1 7 5033.23 572.88 31
-2 1 7 6102.08 432.131 15
-2 1 6 6790 660.555 2
2 1 -6 6359.63 571.481 29
2 1 -6 5889.32 535.894 5
-2 1 6 6066.65 569.67 31
-2 1 5 280450 5535.13 2
2 1 -5 273202 5297.95 4
2 1 -5 285023 4829.42 28
2 1 -4 24466.5 759.621 28
-2 1 4 24857 926.2 31
-2 1 4 25186 1039.86 2
2 1 -3 4369.2 271.61 28
-2 1 3 4657.91 376.921 2
2 1 -3 4177.28 248.194 30
-2 1 3 3797.46 306.151 31
2 1 -2 41615.4 797.819 30
-2 1 2 41305.2 1050.76 31
2 1 -2 38589.7 945.097 28
2 1 -1 481950 7475.08 28
-2 1 1 498367 7609.04 2
2 1 0 218383 3680.68 28
-2 1 0 229623 3765.41 4
-2 1 -1 152175 2751.15 4
2 1 1 156316 2717.48 28
2 1 2 16806.6 606.804 32
2 1 2 16511.9 644.501 28
2 1 2 17500.8 455.469 29
-2 1 -2 16317.9 642.048 4
2 1 3 199069 3739.03 28
2 1 3 206372 3820.28 31
2 1 3 203989 3636.34 32
2 1 4 94897.2 2322.32 31
2 1 4 90146 2124.07 32
-2 1 -4 94004.8 2460.12 3
-2 1 -5 15438.3 991.355 3
2 1 5 15033.1 789.883 32
2 1 5 15652.2 883.253 31
-2 1 -6 11199.4 919.719 3
2 1 6 11246.6 832.95 31
2 1 6 12692.7 1130.67 27
2 1 7 47230.4 1393.94 13
2 1 7 44748.5 1394.58 21
2 1 7 44601.4 1893.26 31
2 1 7 48472.8 1442.91 9
2 1 7 44980.4 1346.14 22
-2 1 -7 48002.9 2244.34 5
2 1 7 42781.7 1307.92 16
2 1 7 51220.4 2541.85 27
-2 1 -7 47188 2111.91 3
2 1 7 46891 1359.85 26
2 1 7 47038.1 1432.29 25
-2 1 -8 1100.1 350.112 3
2 1 8 1765.79 242.342 26
2 1 8 1372.68 204.956 16
2 1 8 1658.29 259.948 21
2 1 8 1758.67 260.749 9
2 1 8 1726.71 258.928 25
-2 1 -8 1957.76 263.154 19
2 1 8 1748.31 243.603 22
2 1 8 1515.19 339.273 31
-2 1 -8 1336.73 379.113 5
2 1 9 21731.5 882.792 22
2 1 9 23252.1 945.038 9
2 1 9 22563.9 965.62 25
2 1 9 22743.8 926.386 21
2 1 9 21954.1 867.717 26
2 1 10 18610.2 729.623 26
2 1 10 20573.1 804.407 21
2 1 10 21370.7 834.588 9
2 1 10 20983.2 860.044 25
2 1 11 2007.37 219.207 25
2 1 11 1668.27 184.742 21
-2 2 12 63.3033 83.7058 26
-2 2 12 120.729 65.4283 21
-2 2 11 3411.43 283.493 16
-2 2 11 4369.59 357.743 21
-2 2 11 4797.53 361.153 15
-2 2 11 4282.72 347.537 26
-2 2 10 8050.31 546.13 21
-2 2 10 9574.74 573.97 15
-2 2 10 8331.27 515.847 16
-2 2 10 8764.61 555.949 26
-2 2 9 28853.9 1117.63 21
-2 2 9 28299.8 1048.18 16
-2 2 9 29448.6 1095.99 15
-2 2 9 29747.9 1100.61 26
-2 2 8 31136.4 1095.38 26
-2 2 8 30116.8 997.397 20
-2 2 8 30833.3 1526.88 31
-2 2 8 29796.1 1066.81 16
-2 2 8 28800.4 1058.51 18
-2 2 8 30831.9 1126.91 21
-2 2 8 32224.8 1115.7 15
-2 2 7 405.084 150.742 31
-2 2 7 121.655 107.449 2
-2 2 7 116.032 82.4831 21
-2 2 7 119.171 74.6257 16
-2 2 7 195.656 108.074 15
2 2 -7 383.93 154.722 5
-2 2 7 109.971 70.8181 26
-2 2 6 75626.6 2428.82 2
-2 2 6 79999.8 2267.97 31
2 2 -6 80249 2340.03 4
2 2 -5 98349.6 2629.23 4
2 2 -5 108820 2630 29
-2 2 5 104954 2470.29 31
-2 2 5 94670.5 2583.55 2
-2 2 4 5154.73 444.634 2
2 2 -4 4954.63 438.681 29
2 2 -4 5066.8 283.674 28
-2 2 4 5267.6 405.696 31
2 2 -3 111260 1970.01 28
-2 2 3 111875 2239.72 31
2 2 -3 108679 2391.84 29
2 2 -3 104354 1842.84 30
2 2 -2 27349.7 707.789 28
2 2 -2 26647.8 901.169 29
-2 2 1 28099.6 802.028 2
2 2 -1 25321.5 837.088 29
2 2 -1 27011.2 726.496 28
2 2 0 37697.9 965.445 28
-2 2 0 39838.8 1053.65 4
2 2 0 40204.9 1036.43 29
2 2 1 49982.4 1224.81 28
2 2 1 49115.3 1151.75 29
-2 2 -1 48986.7 1264.94 4
-2 2 -2 6284.34 416.847 4
2 2 2 6138.78 364.572 31
2 2 2 6327 320.706 29
2 2 2 7140.3 425.743 28
2 2 3 89820.1 2528.16 27
2 2 3 88584.1 2048.05 32
-2 2 -3 86487.9 2059.44 4
2 2 3 92653.2 2127.23 28
2 2 3 91414.5 2020.05 31
2 2 4 38346.6 1261.33 31
2 2 4 36151.5 1243.28 32
2 2 4 35990.3 1613.9 27
-2 2 -4 36030.6 1217.18 4
2 2 5 27372.1 1161.1 32
2 2 5 27443.4 1163.37 31
2 2 5 28916.8 1589.67 27
-2 2 -5 26676.1 1064.62 4
-2 2 -5 26465.5 1355.77 3
2 2 6 40525.8 1607.93 31
2 2 6 45731.5 2228.3 27
-2 2 -6 42593.3 1912.91 3
-2 2 -7 45596.9 2210.66 5
2 2 7 43499.7 1337.2 22
2 2 7 47416.4 1415.66 9
2 2 7 42008.9 1765.47 31
2 2 7 46002.5 1410.54 25
-2 2 -7 44595.7 2085.85 3
2 2 7 45059.4 1439.47 21
2 2 7 43685.4 1274.58 26
2 2 7 40771.2 1325 16
2 2 8 20101.8 875.021 16
2 2 8 20852.3 887.633 22
-2 2 -8 18870.6 1374.21 3
2 2 8 22620.6 867.602 26
2 2 8 25625.4 1017.03 25
-2 2 -8 20173.9 1533.86 5
2 2 8 23976.3 968.946 9
2 2 8 16488.9 1128.66 31
2 2 8 22736.2 995.504 21
2 2 9 17303.9 758.272 16
2 2 9 17592.8 787.821 22
2 2 9 18366.2 856.671 21
2 2 9 19216.4 847.479 9
2 2 9 18785.9 760.578 26
2 2 9 19244 866.731 25
2 2 10 5331.66 399.787 9
2 2 10 5365.07 407.855 21
2 2 10 4070.82 303.628 16
2 2 10 5221.88 408.929 25
2 2 11 1114.39 153.774 21
2 2 11 1052.04 159.744 25
-2 3 12 185.755 71.2616 21
-2 3 12 175.712 58.6525 16
-2 3 12 157.65 59.5501 26
-2 3 11 14120.1 622.762 26
-2 3 11 12280.7 572.99 16
-2 3 11 14072.2 666.103 21
-2 3 11 13876.6 626.703 15
-2 3 10 1788.05 254.295 26
-2 3 10 1430.16 235.189 21
-2 3 10 1733.27 241.813 16
-2 3 10 1762.65 247.148 15
-2 3 9 11382.9 648.265 16
-2 3 9 11628.4 658.69 15
-2 3 9 10790.2 673.965 21
-2 3 9 11757.3 652.11 26
-2 3 9 9762.03 547.012 12
-2 3 8 4175.19 348.702 20
-2 3 8 4607.18 564.773 31
-2 3 8 5372.16 424.904 15
-2 3 8 5011.83 429.3 16
-2 3 8 5363.14 424.769 26
-2 3 8 4528.71 376.212 12
-2 3 8 4852.18 435.954 21
-2 3 7 5774.56 441.965 21
-2 3 7 5086.81 404.388 16
-2 3 7 5552.56 653.165 2
-2 3 7 6063.29 431.759 15
-2 3 7 4858.68 529.415 31
-2 3 7 4769.09 384.086 12
-2 3 7 5876.04 421.436 26
-2 3 6 23455.4 1091.79 31
-2 3 6 21584.7 1190.09 2
2 3 -6 21722.4 1210.08 4
-2 3 5 11184.2 744.841 2
2 3 -5 10823.2 724.728 29
-2 3 5 11948.3 681.988 31
2 3 -5 10949.4 793.432 4
-2 3 4 153464 3000 31
-2 3 4 152953 3171.65 2
2 3 -4 153171 3252.56 29
2 3 -3 29115.8 693.654 28
2 3 -3 31340.6 1097.72 29
-2 3 3 30942.6 944.843 31
-2 3 3 31050 1028.8 2
2 3 -2 147895 2590.26 28
-2 3 2 155346 2865.98 2
2 3 -2 155734 3076.53 29
2 3 -1 26091.8 725.509 28
-2 3 1 26615.9 774.362 2
2 3 -1 26669.5 916.296 29
-2 3 1 28184 857.521 4
-2 3 0 94120.4 1989.63 4
2 3 0 89043.1 1834.16 28
2 3 0 92751.8 1991.3 29
-2 3 0 91411.1 1889.9 29
-2 3 -1 41604.9 1207.01 4
2 3 1 38702.5 1078.17 29
2 3 1 37903.5 1054.84 28
-2 3 -2 196413 3324.66 29
2 3 2 184803 3918.49 27
-2 3 -2 206767 3812.4 4
2 3 2 206616 3693.35 28
2 3 2 191000 3377.41 31
2 3 2 197258 3508.05 29
2 3 3 10246.6 609.23 28
2 3 3 10618.4 758.221 27
-2 3 -3 9539.09 609.777 4
2 3 3 9205.03 587.226 32
2 3 3 8694.81 393.684 29
2 3 3 9829.45 507.152 31
2 3 4 22962.2 912.89 31
2 3 4 24266.7 1293.65 27
-2 3 -4 23951.7 1046.98 4
2 3 4 22781.8 1016.01 32
2 3 5 17435.3 877.409 31
2 3 5 16343.3 1198.26 27
2 3 5 15549.6 907.123 32
-2 3 -5 15416.8 875.422 4
2 3 6 13170.4 647.399 9
2 3 6 12237.4 814.968 31
2 3 6 13416.1 648.736 22
2 3 6 15227.8 1252.17 27
2 3 6 13616 927.574 32
-2 3 -6 13701.6 1071.47 3
2 3 6 13437.3 684.096 25
2 3 7 13285.3 686.909 22
2 3 7 14529.6 794.808 21
2 3 7 11331.1 849.221 31
2 3 7 14503.1 740.941 25
2 3 7 14742.5 1340.03 27
-2 3 -7 14735.9 1192.85 3
2 3 7 14725.1 730.397 9
2 3 8 41888.9 1349.16 22
2 3 8 43599.2 1474.44 21
2 3 8 44689.3 1415.56 25
2 3 8 45706.9 1424.32 9
2 3 8 41234 1384.29 16
2 3 9 9735.33 569.178 22
2 3 9 10510.2 650.987 21
2 3 9 11284.4 642.163 9
2 3 9 10205.1 591.365 16
-2 3 -9 10023.9 592.122 19
2 3 9 10406.8 622.723 25
2 3 10 2017.42 262.049 21
2 3 10 1645.72 204.971 16
2 3 10 2151.07 253.419 9
2 3 10 2075.8 250.139 25
2 3 11 14846.3 581.817 21
2 3 11 13790.9 543.197 25
-2 4 12 8247.23 355.479 16
-2 4 12 9927.18 439.007 21
-2 4 11 7312.19 419.327 26
-2 4 11 6806.9 421.906 16
-2 4 11 7157.56 466.58 21
-2 4 10 12019.1 690.557 21
-2 4 10 10703.6 544.814 12
-2 4 10 13912.6 667.073 26
-2 4 10 13770.9 680.578 15
-2 4 10 12478.5 666.144 16
-2 4 9 8091.62 533.502 15
-2 4 9 7127.28 548.696 21
-2 4 9 7401.25 533.176 16
-2 4 9 7778.08 515.779 26
-2 4 9 6332.13 461.46 12
-2 4 8 3473.28 349.912 15
-2 4 8 3778.54 356.094 26
-2 4 8 3234.86 370.578 21
-2 4 8 2839.54 317.693 12
-2 4 8 3452.03 477.615 31
-2 4 8 3292.12 364.714 16
-2 4 7 21225.9 886.705 12
-2 4 7 22944.1 945.394 21
-2 4 7 24238.5 892.918 26
-2 4 7 22711.5 845.342 20
-2 4 7 25166.1 920.249 15
-2 4 7 21415.1 1131.12 31
-2 4 7 25294.3 974.527 16
2 4 -6 23368.4 1311.15 4
-2 4 6 23178.4 1075.43 31
2 4 -6 23556 1202.21 29
-2 4 6 24398.2 1236.61 2
-2 4 5 37506.7 1425.63 2
2 4 -5 38002.4 1634.59 4
-2 4 5 38491.4 1303.5 31
2 4 -5 41556.6 1541.79 29
2 4 -4 8255.56 669.558 4
-2 4 4 7932.62 499.038 31
2 4 -4 7935.99 601.833 29
-2 4 4 8504.04 564.496 2
2 4 -3 209692 3335.87 28
-2 4 3 213859 3905.34 2
-2 4 2 60907.2 1457.87 32
-2 4 2 60412.7 1428.02 2
-2 4 2 64294.3 1486.03 4
2 4 -2 60151.9 1670.34 29
2 4 -2 62610 1260.13 28
-2 4 1 17356.4 739.309 29
-2 4 1 17111.7 587.114 2
2 4 -1 16921.7 579.98 28
-2 4 1 17070.6 562.165 32
2 4 -1 16180.5 759.318 29
-2 4 1 17636.8 713.811 4
-2 4 0 27908.8 764.583 2
-2 4 0 28445.1 939.681 29
-2 4 0 28830.7 991.417 4
2 4 0 28524.4 853.013 28
2 4 1 79428.8 1856 29
-2 4 -1 73978.1 1714.34 29
2 4 1 80849.3 1791.42 28
2 4 1 73045.4 1375.96 31
-2 4 -1 77727.2 1948.56 4
-2 4 -2 7045.89 538.311 4
2 4 2 7531.6 480.52 29
2 4 2 7561.95 494.362 28
-2 4 -2 6737.65 400.863 29
2 4 2 6872.49 330.413 31
2 4 3 179586 3655.42 32
2 4 3 163648 3740.43 27
2 4 3 174556 3102.46 31
2 4 3 165111 3156.4 29
-2 4 -3 156883 2985.87 29
-2 4 -3 188641 3765.39 4
2 4 4 7269.25 469.767 31
2 4 4 6720.01 577.732 32
2 4 4 8242.04 731.277 27
-2 4 -4 7372.4 611.462 4
2 4 5 12902.8 871.739 32
-2 4 -5 11793.1 821.38 4
2 4 5 11933.6 701.239 31
2 4 5 13049 1019.84 27
2 4 6 197.748 90.0896 25
-2 4 -6 106.527 119.084 3
2 4 6 63.1679 67.075 22
2 4 6 -37.1391 64.7461 31
2 4 6 -253.246 169.508 27
2 4 6 448.257 171.787 32
2 4 6 156.707 85.7878 9
2 4 7 52742.9 1705.96 21
-2 4 -7 51619.9 2369.96 3
2 4 7 53628.6 1562.7 22
2 4 7 54814.4 2565.38 27
2 4 7 57128 1590.69 9
2 4 7 52633.5 1574.97 25
2 4 8 3953.73 409.541 16
2 4 8 4711.15 417.155 22
2 4 8 4625.47 419.908 25
2 4 8 5144.36 489.245 21
2 4 8 5078.14 440.766 9
2 4 9 3255.77 342.118 9
2 4 9 2957.18 350.401 21
2 4 9 3164.29 335.395 25
2 4 9 2576.48 308.066 16
2 4 10 7474.65 447.696 16
2 4 10 6171.12 391.9 12
2 4 10 7634.26 498.181 21
2 4 10 7242.11 455.859 25
2 4 11 2467.62 225.949 21
2 4 11 1350.47 134.001 16
-2 5 12 360.291 85.1804 21
-2 5 12 434.698 74.1034 16
-2 5 11 5479.54 390.339 21
-2 5 11 5500.06 380.437 16
-2 5 11 5412.25 338.062 26
-2 5 10 3858.71 333.035 26
-2 5 10 3468.44 315.409 12
-2 5 10 3652.98 361.28 21
-2 5 10 3375 344.538 16
-2 5 9 13862.8 768.917 21
-2 5 9 15638.9 749.745 15
-2 5 9 15379.1 725.761 26
-2 5 9 13776.8 756.816 16
-2 5 8 12293.8 654.775 15
-2 5 8 11733.9 678.356 12
-2 5 8 12713.4 657.565 26
-2 5 8 12414.7 724.726 16
-2 5 8 11473.1 695.741 21
-2 5 7 3832.31 341.754 26
-2 5 7 3600.77 363.771 21
-2 5 7 3115.97 343.12 12
-2 5 7 3655.53 322.727 20
-2 5 7 3591.9 345.848 15
-2 5 7 3229.35 423.183 31
-2 5 7 4017.75 387.083 16
2 5 -6 10772.6 924.131 4
-2 5 6 11408 837.118 2
-2 5 6 11147.8 619.073 16
-2 5 6 12785.2 620.813 15
-2 5 6 10538.6 708.712 31
2 5 -6 11377.4 845.446 29
2 5 -5 61235.1 2230.97 4
-2 5 5 61612 1745.35 31
-2 5 5 59413.4 1871.61 2
2 5 -5 63800.4 2082.76 29
2 5 -4 105942 2940.06 4
-2 5 4 104986 2471.01 2
2 5 -4 108315 2764.98 29
2 5 -3 78910.1 2149.6 29
-2 5 3 73665.2 1779.06 2
2 5 -3 76808.3 2299.42 4
-2 5 3 78519.2 1960.22 32
2 5 -2 66383.1 1911.39 29
-2 5 2 68496.3 1659.68 32
-2 5 2 71531.7 1897.51 29
-2 5 2 63298.6 1485 2
2 5 -2 66551.8 1368.57 28
-2 5 2 69804.4 1661.98 4
2 5 -1 20666.5 923.363 29
-2 5 1 18666 606.514 2
-2 5 1 18490.5 643.437 32
-2 5 1 20612.3 886.371 29
2 5 -1 18592.7 653.229 28
-2 5 1 20300.4 844.831 4
2 5 0 3508.38 294.258 28
-2 5 0 3842.41 368.961 29
-2 5 0 3222.5 193.371 32
2 5 0 4433.24 406.979 29
-2 5 0 4350.81 261.908 2
-2 5 0 3692.29 380.334 4
-2 5 -1 91330.7 2382.94 4
-2 5 -1 95969.2 2224.52 29
2 5 1 100107 2310.18 29
2 5 1 96002.4 2151.78 28
-2 5 -2 2821.4 373.06 4
-2 5 -2 2944.94 298.566 29
2 5 2 3172.7 352.026 27
2 5 2 2692.85 321.038 29
2 5 3 15173.8 895.89 32
-2 5 -3 16027.9 932.562 4
-2 5 -3 12009.9 607.065 29
2 5 3 12510.3 794.122 27
2 5 3 12855.1 702.689 29
2 5 4 19135.1 1098.32 27
-2 5 -4 18316 1076.55 4
2 5 4 19634.4 1090.98 32
2 5 5 67110.7 2287.21 32
2 5 5 66612.7 2398.12 27
2 5 6 45234.4 1356.87 9
2 5 6 45194 1407.35 25
2 5 6 44474.2 1360.45 22
2 5 6 48223.8 2005.12 32
2 5 6 48673.2 2182.95 27
2 5 7 41082.9 1331.77 9
2 5 7 40717.7 1326.75 22
2 5 7 39456.7 1448.62 21
2 5 7 39873.4 1325.62 25
-2 5 -7 38474.2 2055.71 3
2 5 8 10278.2 624.768 22
2 5 8 10670 644.527 9
2 5 8 9552.67 660.021 16
2 5 8 10172.1 670.645 21
2 5 8 9026.33 584.714 25
2 5 9 1382.93 239.724 21
2 5 9 1355.92 226.207 16
2 5 9 1460.92 225.083 25
2 5 10 36901.9 1090.03 12
-2 5 -10 35147.8 1043.45 19
2 5 11 6953.83 360.992 21
2 5 11 4720.81 259.792 16
-2 6 11 34505.2 971.522 21
-2 6 11 34911.1 997.41 16
-2 6 10 22106.6 882.759 21
-2 6 10 20068.9 873.034 16
-2 6 10 21598.8 791.529 26
-2 6 9 216.405 106.702 21
-2 6 9 148.566 91.1814 12
-2 6 9 21.7423 79.6602 16
-2 6 9 137.837 79.504 26
-2 6 8 10727.3 681.682 16
-2 6 8 11527.5 613.969 26
-2 6 8 11029.7 660.561 21
-2 6 8 10633.9 659.451 12
-2 6 8 12120.1 653.004 15
-2 6 7 3484.45 325.92 26
-2 6 7 2919.97 337.755 12
2 6 -7 2197.74 452.585 4
-2 6 7 3408.93 339.623 15
-2 6 7 2788.86 314.066 21
-2 6 7 3376.86 372.184 16
-2 6 6 17452.7 817.765 12
2 6 -6 16854.4 1078.24 29
2 6 -6 15397.8 1159.93 4
-2 6 6 18048.2 747.576 26
-2 6 6 16357.5 744.318 21
-2 6 6 16644.8 794.317 16
-2 6 6 18968.1 793.546 15
-2 6 5 3462.64 400.967 2
2 6 -5 4781.96 539.409 29
2 6 -5 5332.97 639.174 4
-2 6 4 38209 1492.23 32
2 6 -4 38900.6 1706.37 4
-2 6 4 37965.1 1282.44 2
2 6 -4 42908.4 1639.22 29
2 6 -3 65612.7 2196.42 4
-2 6 3 68867.6 1877.75 32
2 6 -3 66642.2 2042.38 29
-2 6 3 62034.4 1560.07 4
-2 6 2 24118.3 766.95 2
-2 6 2 25195.5 958 32
-2 6 2 28343.5 1197.4 29
2 6 -2 28013 1212.39 29
2 6 -2 28520.5 1304.68 4
-2 6 2 25854.1 991.392 4
-2 6 1 228245 4397.76 29
-2 6 1 204365 3765.03 32
-2 6 1 217846 4244.98 4
2 6 -1 230155 4452.34 29
2 6 -1 204499 4423.64 4
2 6 0 8242.71 612.168 29
-2 6 0 7129.15 555.299 29
2 6 0 6966.1 568.904 4
-2 6 0 7839.08 606.282 4
-2 6 -1 25186.7 1168.98 4
-2 6 -1 24066.8 1025.71 29
2 6 1 24138 1014.06 4
2 6 1 25245.2 1056.35 29
2 6 2 134264 3033.13 29
2 6 2 134015 2813.69 4
-2 6 -2 136953 2944.52 29
-2 6 -3 47140.9 1468.87 29
-2 6 -3 52398 1935.36 4
2 6 3 46654.6 1593.42 29
2 6 3 51438 1887.89 32
-2 6 -4 2651.54 443.101 4
2 6 4 3634.18 502.918 32
2 6 4 2844.25 400.015 27
2 6 5 23307.7 910.014 22
-2 6 -5 21604.4 1323.67 4
2 6 5 23669.3 916.503 9
2 6 5 23180.7 1369.18 32
2 6 5 26826.8 1428.99 27
2 6 5 25600.1 982.468 25
2 6 6 70482.8 1846.53 22
2 6 6 72576.5 2677.07 32
2 6 6 64680.6 2513.69 27
2 6 6 74231.7 1861.54 9
-2 6 -6 65749.7 1843.83 24
-2 6 -6 66448.7 2541.38 4
2 6 6 69981.8 1880.97 25
2 6 7 22678.5 1495.03 32
2 6 7 29926.3 1219.16 16
2 6 7 27724.3 1087.55 22
2 6 7 26671.6 1058.61 25
2 6 7 27885.3 1148.32 21
2 6 7 28354.5 1086.19 9
-2 6 -7 21018.8 1527.13 3
2 6 8 14236.9 778.795 21
2 6 8 12150.7 667.535 25
2 6 8 13064.5 765.398 16
2 6 9 669.986 161.49 21
2 6 9 881.842 195.922 16
2 6 10 1213.88 173.245 12
2 6 10 1583.39 211.164 21
2 6 10 1118.66 184.748 16
-2 6 -10 949.136 143.066 19
2 6 11 4055.7 249.322 21
-2 7 11 3504.65 253.096 21
-2 7 11 3926.97 290.591 16
-2 7 10 10265.1 546.202 12
-2 7 10 11691.3 578.317 21
-2 7 10 11731.6 613.405 16
-2 7 9 3014.74 317.843 21
-2 7 9 2647.98 328.774 16
-2 7 9 3116.03 296.495 26
-2 7 9 2749.96 319.299 12
-2 7 8 9496.39 581.848 21
-2 7 8 9989.04 559.597 26
-2 7 8 9518.45 637.787 16
-2 7 8 9696.41 632.344 12
-2 7 7 24041 1034.51 16
-2 7 7 23939.9 944.121 21
-2 7 7 26368.5 1059.35 12
-2 7 7 25534.5 944.162 26
2 7 -6 10258.5 862.775 29
-2 7 6 12040.9 613.669 26
2 7 -6 10561 974.201 4
-2 7 6 10247.3 567.143 21
-2 7 6 11403.6 650.62 12
-2 7 6 10420.8 625.46 16
-2 7 6 10026.8 595.223 20
2 7 -5 14896.5 1139.3 4
-2 7 5 15153.7 735.632 12
2 7 -5 14977.1 1035.6 29
2 7 -4 4561.76 590.173 4
2 7 -4 5155.92 574.478 29
-2 7 4 5096.03 549.542 32
2 7 -3 78303.5 2416.22 29
2 7 -3 80600 2614.11 4
-2 7 3 79316.5 2231.17 32
-2 7 3 78370.8 2435.63 29
-2 7 2 24905 1230.43 29
2 7 -2 24185 1281.09 4
-2 7 2 22825.1 972.897 32
2 7 -2 25912.1 1233.32 29
-2 7 2 21151.3 977.695 4
-2 7 1 3188.31 433.705 29
2 7 -1 3086.82 427.723 4
-2 7 1 2666.14 374.109 4
-2 7 1 3305.86 312.071 32
2 7 -1 3622.23 435.885 29
2 7 0 43048.6 1594.96 4
2 7 0 41845 1567.41 29
-2 7 0 45249 1656.01 29
-2 7 0 41580 1626.37 4
-2 7 -1 5441.6 584.56 4
2 7 1 6209.74 557.275 29
2 7 1 6235.23 549.44 4
-2 7 -1 6974.15 596.47 29
2 7 2 102253 2475.1 4
-2 7 -2 108573 2733.38 29
-2 7 -2 106968 3068.12 4
-2 7 -3 42604.8 1876.31 4
-2 7 -3 41980.5 1510.24 29
2 7 3 38800.5 1562.15 29
2 7 4 2588.77 451.135 32
-2 7 -4 2573.59 473.323 4
-2 7 -5 5970.76 517.842 24
2 7 5 6522.18 480.15 22
2 7 5 5668.47 711.493 32
-2 7 -5 5435.12 707.757 4
2 7 6 111176 2548.39 25
2 7 6 113628 2573.92 21
-2 7 -6 101703 3447.44 4
2 7 6 113481 3652.2 32
-2 7 -6 102098 2573.52 24
2 7 7 4230.6 437.857 16
2 7 7 4303.47 416.087 21
2 7 8 12809.5 740.47 16
2 7 8 12303 696.304 21
2 7 9 11322.8 604.682 21
2 7 9 11112.2 631.381 16
2 7 10 1381.99 177.15 21
2 7 10 1228.29 161.612 12
2 7 10 1433.79 186.217 16
-2 7 -10 1017.69 137.982 19
-2 8 11 5645.27 277.668 12
-2 8 11 6385.34 289.058 21
-2 8 10 3164.45 280.717 12
-2 8 10 2996.25 286.386 16
-2 8 10 2870.1 250.479 21
-2 8 9 11120.6 574.441 21
-2 8 9 12410.9 671.906 16
-2 8 9 11607.1 636.138 12
-2 8 8 7047.36 527.781 16
-2 8 8 6833.09 518.316 12
-2 8 8 6796.03 462.606 21
-2 8 7 1181.41 186.068 21
-2 8 7 1353.78 233.406 12
-2 8 7 1260.49 227.747 8
-2 8 7 1092.78 214.132 16
-2 8 6 34871.5 1208.94 12
-2 8 6 30733.8 1146.4 20
2 8 -6 31442.3 1813.02 4
-2 8 6 34576.1 1186.06 16
2 8 -5 6243.83 685.756 29
-2 8 5 8055.89 521.298 12
-2 8 5 6517.19 517.107 20
2 8 -5 6262.74 764.059 4
-2 8 5 6511.62 465.307 16
2 8 -4 28708.7 1606.86 4
-2 8 4 27036.4 1391.09 32
2 8 -4 26360.9 1408.71 29
-2 8 3 16084.8 1098.57 29
2 8 -3 16142.2 1144.31 4
-2 8 3 15049.2 925.186 32
2 8 -3 14187.3 987.221 29
-2 8 2 8594.76 778.758 29
2 8 -2 7281.26 677.631 29
-2 8 2 7935.12 595.677 32
2 8 -2 8282.31 780.129 4
-2 8 2 7587.37 614.261 4
2 8 -1 60520.6 2139.38 4
-2 8 1 56581.7 1995.42 4
2 8 -1 62965.9 2114.61 29
-2 8 1 58221.7 2138.81 29
2 8 0 11714.8 842.585 29
2 8 0 12319.5 857.943 4
-2 8 0 10246.8 819.711 4
-2 8 0 11765.8 877.604 29
2 8 1 8358.48 665.738 4
-2 8 -1 7890.05 697.147 29
-2 8 -1 7997.05 768.411 4
2 8 1 8123.73 688.405 29
-2 8 -2 14626.6 1077.57 4
2 8 2 13641.6 959.342 32
-2 8 -2 13535.7 908.511 29
2 8 2 13164.7 905.34 29
-2 8 -3 12340.4 1023.94 4
-2 8 -3 10423.4 787.429 29
2 8 3 10833.4 842.992 29
2 8 4 28836.5 1639.75 32
-2 8 -4 27506.4 1124.03 11
-2 8 -4 27326.5 1624.29 4
-2 8 -5 10651.5 1018.55 4
2 8 5 11049.9 1064.3 32
-2 8 -5 11243.4 686.086 11
-2 8 -5 10703.6 719.548 24
-2 8 -6 87804.4 2360.22 24
2 8 6 97441.4 2260.47 21
-2 8 -6 82753.4 3175.61 4
2 8 6 97143.9 3445.96 32
-2 8 -7 5243.48 448.619 24
2 8 7 5199.31 436.474 21
2 8 7 5963.73 504.521 16
2 8 8 410.115 127.822 21
2 8 8 505.646 148.613 16
2 8 9 15705.2 715.408 16
2 8 9 15811.9 662.042 21
2 8 9 16210.4 690.569 12
2 8 10 3480.17 249.2 12
-2 8 -10 3084.87 227.722 19
2 8 10 4253.2 288.041 16
2 8 10 3976.1 258.582 21
-2 9 11 3960.24 216.843 16
-2 9 10 1526.31 153.726 21
-2 9 10 1461.04 180.769 12
-2 9 10 1667.49 192.897 16
-2 9 9 9820.7 551.724 12
-2 9 9 10676.1 570.669 16
-2 9 8 1265.33 214.563 12
-2 9 8 1094.06 201.569 16
-2 9 8 890.256 156.84 21
-2 9 7 3687.17 374.478 12
-2 9 7 3229.2 338.603 16
-2 9 7 2966.46 341.047 8
2 9 -6 492.569 268.507 4
-2 9 6 810.606 189.41 20
-2 9 6 1096.3 213.588 12
-2 9 6 916.647 180.483 16
-2 9 5 2171.37 262.902 16
-2 9 5 2142.74 271.998 12
2 9 -5 1749.15 414.941 4
-2 9 5 1573.72 261.482 20
2 9 -5 2779.74 465.651 29
2 9 -4 6010.78 755.838 4
-2 9 4 4139.95 541.287 32
-2 9 4 6230.17 442.72 12
2 9 -4 5975.91 686.504 29
2 9 -3 24634.5 1496.66 4
-2 9 3 26298.2 1539.63 29
-2 9 3 24390.6 1256.07 32
2 9 -3 24591.1 1385.66 29
2 9 -2 38760.6 1751.14 29
2 9 -2 42962.7 1940.91 4
-2 9 2 38950.1 1861.07 29
2 9 -1 7468.94 746.373 4
-2 9 1 7693.42 777.334 29
2 9 -1 7143.1 717.772 29
-2 9 1 7689.58 721.246 4
2 9 0 2556.75 426.574 29
-2 9 0 2453.5 422.048 4
2 9 0 2619.62 418.72 4
-2 9 0 2248.3 395.469 29
-2 9 -1 44381.4 1883.09 29
2 9 1 48706.2 1809.98 4
2 9 1 46817.5 1884.43 29
-2 9 -1 49244.2 2076.58 4
-2 9 -2 24953.3 1484.69 4
2 9 2 23425.2 1324.46 32
-2 9 -2 22741.9 1001.51 11
-2 9 -2 21703.7 1249.7 29
2 9 2 23184.7 1298.66 29
-2 9 -3 1682.67 396.794 4
2 9 3 1728.84 376.763 32
-2 9 -3 1725.97 275.647 11
2 9 3 1589.81 354.317 29
-2 9 -4 11515.4 734.549 11
-2 9 -4 10966.8 1044.87 4
2 9 4 12932.5 1129.32 32
-2 9 -5 14688 870.52 24
2 9 5 17168.8 764.908 21
-2 9 -5 15118 1277.75 4
-2 9 -5 15553.1 843.625 11
2 9 5 16895.8 1356.75 32
2 9 6 10924.9 663.594 16
2 9 6 10334.6 591.002 21
-2 9 -6 8902.65 653.389 24
-2 9 -7 1842.75 268.665 24
2 9 7 2262.39 298.676 16
2 9 7 2076.36 259.036 21
2 9 8 4888.44 364.858 21
2 9 8 5360.98 421.296 16
2 9 9 6732.98 397.476 12
2 9 9 6450.76 364.826 21
2 9 9 7119.69 422.541 16
2 9 10 337.592 76.6695 12
2 9 10 219.819 56.8814 16
-2 10 10 7003.41 345.385 12
-2 10 10 6925.74 339.846 16
-2 10 9 2774.01 266.567 12
-2 10 9 2277.15 235.697 16
-2 10 8 1131.76 196.787 12
-2 10 8 1054.19 181.146 16
-2 10 8 962.081 175.838 8
-2 10 7 2909.57 320.612 12
-2 10 7 3220.76 345.527 8
-2 10 7 3339.25 325.516 16
-2 10 6 10899.4 626.942 12
-2 10 6 10195.8 573.79 16
-2 10 6 9135.96 603.449 20
-2 10 6 10767.2 670.133 8
2 10 -5 1448.34 373.489 29
-2 10 5 2276.61 279.352 12
2 10 -5 1283.61 364.405 4
-2 10 5 1669.61 294.465 20
2 10 -4 994.065 325.386 4
-2 10 4 553.843 138.63 12
2 10 -4 529.931 230.231 29
2 10 -3 7012.67 837.661 4
-2 10 3 6385.22 432.001 12
2 10 -3 5642.57 680.268 29
2 10 -2 13681 1104.76 4
-2 10 2 10598.1 1016.79 29
2 10 -2 10497 922.653 29
-2 10 2 13128.3 703.848 8
-2 10 2 11439 679.168 11
-2 10 1 8810.34 808.37 4
2 10 -1 9411.19 872.649 4
-2 10 1 8552.68 553.429 8
-2 10 1 8172 578.097 11
2 10 -1 9074.12 860.984 29
-2 10 1 7308.48 827.801 29
2 10 0 880.282 272.565 29
-2 10 0 1119.45 225.673 11
-2 10 0 1237.2 209.789 8
-2 10 0 1130.58 313.189 29
-2 10 0 1070.34 295.78 4
-2 10 -1 4183.4 585.989 4
-2 10 -1 3124.75 374.721 11
-2 10 -1 3408.9 522.497 29
2 10 1 3606.41 537.076 29
-2 10 -1 3051.39 315.983 8
-2 10 -2 13328.1 777.817 11
2 10 2 13412.6 1039.79 32
-2 10 -2 12161.3 984.033 29
2 10 2 12599.8 997.068 29
-2 10 -2 12126.2 1073.23 4
-2 10 -3 10481.6 1041.95 4
-2 10 -3 11254.2 720.246 11
2 10 3 10976.6 991.384 32
2 10 3 9723.66 884.805 29
-2 10 -4 6590.06 847.55 4
-2 10 -4 6136.17 531.446 11
2 10 4 6658.53 790.843 32
-2 10 -5 5457.8 534.995 24
-2 10 -5 5871.8 511.893 11
-2 10 -6 7139.84 577.956 24
2 10 6 7959.91 483.247 21
2 10 6 7395.51 523.16 16
2 10 7 15364.2 659.967 21
2 10 7 16462.8 760.586 16
-2 10 -7 14014 732.28 24
2 10 8 497.217 107.398 21
2 10 8 490.385 126.982 12
2 10 8 579.359 135.412 16
2 10 9 4111.07 282.462 16
2 10 9 3388.84 217.922 21
2 10 9 3809.59 270.936 12
-2 11 10 6127.85 272.131 12
-2 11 9 6771.93 371.608 12
-2 11 9 5768.57 324.308 16
-2 11 8 12233.3 576.824 8
-2 11 8 12727.5 567.497 16
-2 11 7 19765.8 767.337 16
-2 11 7 21672.7 860.415 12
-2 11 7 19485.9 845.775 8
-2 11 6 863.349 192.958 8
-2 11 6 1117.56 197.965 12
-2 11 6 928.297 166.478 16
-2 11 5 14173.9 816.508 20
-2 11 5 16836.2 759.956 12
2 11 -5 14446.8 782.337 11
-2 11 5 16163.5 833.967 8
-2 11 4 4242.43 367.071 12
2 11 -4 4393.54 694.088 4
2 11 -4 3769.79 585.074 29
-2 11 4 4196.9 419.023 8
2 11 -3 4570.29 682.508 4
2 11 -3 5372.41 702.37 29
-2 11 3 5492.15 401.058 12
-2 11 3 6284.26 499.721 8
2 11 -2 6114.81 779.268 4
-2 11 2 5675.9 755.324 29
-2 11 2 6143.35 506.173 11
2 11 -2 6528.25 772.817 29
-2 11 2 6413.29 496.949 8
-2 11 1 1881.62 452.049 29
-2 11 1 2734.96 347.022 11
2 11 -1 2052.97 426.36 4
2 11 -1 2409.9 494.577 29
-2 11 1 3167.88 336.078 8
-2 11 0 3958.6 593.994 4
2 11 0 3210.25 552.886 29
2 11 0 3366.79 506.884 4
-2 11 0 4228.6 382.569 8
-2 11 0 4323.05 447.386 11
-2 11 0 4867.59 664.666 29
-2 11 -1 2411.17 488.716 29
-2 11 -1 2442.17 514.803 4
-2 11 -1 1950.64 309.393 11
2 11 1 2564.17 462.455 32
2 11 1 2639.5 461.662 29
-2 11 -1 2492.28 288.125 8
-2 11 -2 1413.24 405.904 4
2 11 2 1697.23 411.593 29
-2 11 -2 1901.85 308.099 11
-2 11 -2 1613.61 323.613 29
2 11 2 2215.63 409.628 32
-2 11 -3 312.457 189.154 4
-2 11 -3 314.129 137.736 11
2 11 3 720.225 256.295 32
-2 11 -4 1604.91 281.166 11
-2 11 -5 13859 834.386 24
2 11 5 14931.1 732.461 16
-2 11 -5 14111.6 790.249 11
2 11 6 27398.9 991.682 16
-2 11 -6 25869.7 1082.07 24
-2 11 -7 4418.47 377.81 24
2 11 7 4880.27 372.536 16
2 11 7 5563.96 398.782 12
2 11 8 9375.12 460.61 16
2 11 8 9429.55 469.294 12
2 11 9 5351.84 272.388 16
2 11 9 5362.39 277.579 12
-2 12 9 7291.22 337.86 12
-2 12 8 4344.43 310.005 12
-2 12 8 3889.82 280.677 8
-2 12 8 3805.88 251.329 16
-2 12 7 3421.72 302.98 12
-2 12 7 2943 296.33 8
-2 12 6 4696.19 406.451 8
2 12 -6 4811.55 403.592 11
-2 12 6 5228.27 394.721 12
-2 12 5 5397.34 408.038 12
2 12 -5 5906.87 483.348 11
-2 12 5 4839.94 454.13 20
-2 12 5 6111.59 482.01 8
-2 12 4 5209.67 397.181 12
-2 12 4 4856.98 438.738 8
-2 12 3 8017.75 479.147 12
-2 12 3 7441.25 552.917 8
-2 12 2 740.371 183.998 8
-2 12 2 423.413 255.004 29
2 12 -2 505.814 231.067 4
-2 12 2 816.146 182.384 11
2 12 -1 54732.8 2392 4
-2 12 1 60190.2 1691.76 8
-2 12 1 60552.2 1813.04 11
-2 12 1 58855.5 2558.66 29
2 12 -1 59819.4 2521.31 29
-2 12 0 1735.17 434.866 4
2 12 0 1608.53 358.283 32
-2 12 0 2113.49 312.803 11
-2 12 0 1458.64 368.774 29
2 12 0 918.818 309.61 29
-2 12 0 1818.98 254.778 8
-2 12 -1 20603.8 1416.05 29
2 12 1 21054.2 1359.74 32
2 12 1 21823 1464.27 29
-2 12 -1 24586.4 1101.64 11
-2 12 -1 22803.8 907.871 8
-2 12 -1 21496.7 1454.69 4
-2 12 -2 1760.57 290.549 11
-2 12 -3 6619.38 556.434 11
-2 12 -4 7870.86 619.407 24
2 12 4 7453.72 473.205 12
-2 12 -4 8447.72 616.367 11
-2 12 -5 1947.59 310.019 24
2 12 5 2027.21 239.556 12
-2 12 -5 1681.15 264.366 11
2 12 5 2149.15 247.688 16
-2 12 -6 12460.6 681.755 24
2 12 6 12304.7 592.23 12
2 12 6 11444.9 562.637 16
2 12 7 7713.4 414.676 16
2 12 7 7835.95 427.76 12
-2 12 -7 7441.75 447.532 24
2 12 8 909.171 117.672 16
2 12 8 1181.85 141.221 12
2 12 8 878.783 116.94 8
-2 13 8 732.647 113.109 12
-2 13 8 529.248 88.3697 8
2 13 -7 3635.22 302.346 24
-2 13 7 4135.34 294.46 12
-2 13 7 4328.57 321.511 8
-2 13 6 5528.44 369.549 12
2 13 -6 5373.22 402.766 11
-2 13 6 5822.53 421.019 8
-2 13 5 7623.75 518.131 8
-2 13 5 7436.9 445.846 12
-2 13 5 6461.73 455.032 20
2 13 -5 7542.75 533.403 11
-2 13 4 10022.6 521.812 12
2 13 -4 9021.7 628.58 11
-2 13 4 9756.72 602.349 8
-2 13 3 49850.3 1527.36 8
-2 13 2 9278.14 595.804 8
-2 13 2 8689.86 593.47 11
-2 13 1 19939.4 880.964 8
-2 13 1 20306.4 954.749 11
-2 13 0 14419.9 810.25 11
-2 13 0 13290.1 687.271 8
-2 13 -1 18792.7 955.881 11
-2 13 -2 23126.3 1081.73 11
-2 13 -3 19404 950.565 11
-2 13 -4 1890.83 299.821 24
-2 13 -4 1718.92 265.309 11
2 13 5 27139.1 873.765 12
-2 13 -5 27718.7 1027.15 11
-2 13 -6 1533.99 220.6 24
2 13 6 1479.12 170.517 12
-2 13 -6 1449.09 184.349 11
2 13 6 1601.51 172.323 16
2 13 7 3235.8 225.48 12
-2 13 -7 2793.83 234.509 24
2 13 7 2743.35 192.627 16
-2 14 7 135.012 65.5748 8
-2 14 7 202.886 60.6311 12
2 14 -6 26422.4 880.183 11
-2 14 6 28770.9 813.463 12
-2 14 5 8928.65 517.322 8
2 14 -5 7627.18 511.228 11
-2 14 5 7623.05 400.116 12
2 14 -4 9362.76 606.057 11
-2 14 4 8675.38 539.428 8
2 14 -3 9243.46 639.22 11
-2 14 3 8519.23 549.428 8
-2 14 2 7120.21 501.195 8
-2 14 2 6199.68 466.586 11
2 14 -2 6609.52 541.115 11
-2 14 1 5201.5 430.06 24
-2 14 1 6788.71 479.079 8
-2 14 1 6473.97 496.656 11
-2 14 0 576.525 140.711 8
-2 14 0 703.068 184.001 11
-2 14 -1 10598 676.011 11
-2 14 -2 2186.31 298.755 24
-2 14 -2 1812.99 277.453 11
2 14 2 2376.29 282.791 11
-2 14 -3 19920.2 932.894 24
-2 14 -3 21296.8 933.058 11
-2 14 -4 3710.67 373.161 24
-2 14 -4 3609.88 346.602 11
-2 14 -5 271.894 91.9601 11
-2 14 -5 336.555 118.23 24
2 14 6 6441.32 292.741 12
-2 14 -6 8202.82 430.093 24
2 14 7 3799.01 221.627 8
2 15 -6 7093.66 398.234 24
-2 15 6 8197.7 394.554 8
-2 15 5 71.7957 63.4459 8
2 15 -5 119.766 67.3031 11
2 15 -4 4758.25 397.321 11
-2 15 4 4856.48 361.629 8
2 15 -3 5773.44 456.326 11
-2 15 3 4881.27 380.224 8
-2 15 2 15659.9 695.726 8
2 15 -2 15768.4 797.361 11
-2 15 1 1428.48 220.451 11
2 15 -1 1467.07 247.323 11
-2 15 1 1676.03 218.212 8
-2 15 0 16560.9 756.292 24
-2 15 0 17811.7 813.895 11
2 15 0 18365.6 825.71 11
-2 15 0 18215.9 725.118 8
-2 15 -1 10.9429 58.6027 24
2 15 1 73.1327 67.8769 8
-2 15 -1 219.268 108.494 11
2 15 1 306.995 107.565 11
-2 15 -2 5607.8 445.261 24
-2 15 -2 6641.27 480.52 11
2 15 2 5973.98 402.532 11
-2 15 -3 1076.26 193.34 11
-2 15 -3 1154.49 188.779 24
-2 15 -4 332.792 117.033 24
-2 15 -4 224.061 84.6537 11
2 15 5 25739 777.959 8
-2 15 -5 25069.5 768.881 11
2 15 6 3992.96 231.845 8
-2 16 5 123.206 54.0602 8
2 16 -5 180.485 75.1685 24
2 16 -5 131.003 50.828 11
2 16 -4 1913.41 246.287 11
-2 16 4 2294.34 213.446 8
2 16 -3 3120.9 305.514 11
-2 16 3 2710.46 243.138 8
2 16 -2 8723.12 526.388 11
-2 16 2 7222.34 413.845 8
-2 16 1 3455.14 275.908 8
-2 16 1 3131.88 278.644 11
2 16 -1 3491.36 324.784 11
-2 16 0 2323.32 229.569 24
-2 16 0 2467.19 261.248 11
2 16 0 2479.85 262.441 11
-2 16 -1 1050.48 163.512 24
-2 16 -1 1304.99 194.564 11
2 16 1 1076.04 156.559 11
-2 16 -2 4169.49 325.229 24
-2 16 -2 4263.24 334.627 11
2 16 2 3088.85 241.721 11
2 16 2 3463.3 264.542 8
2 16 3 123.828 51.7423 8
-2 16 -3 104.394 72.9955 24
-2 16 -3 232.882 80.272 11
2 16 4 497.923 93.567 8
-2 16 -4 520.73 104.747 24
-2 16 -4 520.366 99.3138 11
-2 17 3 545.982 87.6237 8
2 17 -3 768.718 126.309 11
-2 17 2 2542.8 190.362 8
2 17 -2 3126.28 260.785 11
-2 17 1 3612.69 232.823 11
2 17 -1 5128.08 325.323 11
2 17 0 8683.74 408.67 11
-2 17 0 8622.72 402.397 11
-2 17 -1 131.259 57.568 24
-2 17 -1 226.976 77.6396 11
2 17 1 210.318 60.2736 11
-2 17 -2 9209.65 393.242 24
-2 17 -2 10844.3 452.948 11
-2 17 -3 1106.13 130.822 11
-3 -17 3 10344.8 372.635 7
-3 -17 2 1606.35 148.783 7
-3 -17 1 9254.97 373.483 7
3 -17 -1 8112.06 305.143 13
-3 -17 0 1182.31 125.793 7
3 -17 1 3314.58 210.887 15
3 -16 -4 4924.64 251.439 13
-3 -16 4 4990.88 292.037 7
3 -16 -3 3582.7 231.799 13
-3 -16 3 3514.52 264.038 7
3 -16 -2 1196.28 142.617 13
-3 -16 2 1157.8 165.121 7
3 -16 -1 11045.7 450.479 13
-3 -16 1 10280.4 491.63 7
3 -16 0 8482.33 392.951 13
-3 -16 0 8750.68 442.1 7
-3 -16 -1 4940.27 311.842 7
3 -16 1 4705.44 280 13
3 -16 2 96.9743 53.4396 13
-3 -16 -2 33.8322 37.5043 7
3 -16 3 6620.14 289.693 13
3 -16 3 7570.1 351.605 15
3 -16 4 624.268 89.2664 15
3 -15 -6 3640.74 209.551 13
-3 -15 6 3091.62 190.903 25
3 -15 -5 4160.01 256.961 13
-3 -15 5 4189.92 257.798 25
-3 -15 5 3958.02 278.689 7
-3 -15 4 2025.3 220.017 7
3 -15 -4 1822.21 187.649 13
-3 -15 4 1805.81 183.758 25
3 -15 -3 21290.4 701.554 13
-3 -15 3 21924.1 800.355 7
-3 -15 2 1265.3 163.743 25
3 -15 -2 1308.65 174.989 13
-3 -15 2 1427.83 207.745 7
3 -15 -1 1288.68 172.875 13
-3 -15 1 1243.61 160.512 25
3 -15 0 5931.48 370.797 13
3 -15 1 3341.22 271.118 13
3 -15 2 8396.7 432.85 13
3 -15 3 2455.91 218.593 13
3 -15 4 9319.07 398.461 13
3 -15 4 9747.76 441.553 15
3 -15 5 448.672 72.6755 13
3 -15 5 549.039 92.6318 15
-3 -14 7 13154.3 469.106 25
3 -14 -7 15018.9 479.217 13
-3 -14 6 4642.26 302.111 25
3 -14 -6 4680.53 287.978 13
-3 -14 6 3887.65 282.494 7
-3 -14 5 1228.76 186.385 7
3 -14 -5 1619.82 188.006 13
-3 -14 5 1333.59 178.874 25
-3 -14 4 8337.17 504.696 7
3 -14 -4 8239.8 446.463 13
-3 -14 4 7838.13 451.761 25
3 -14 -3 6499.82 409.73 13
-3 -14 3 6942.29 479.613 7
-3 -14 3 6928.41 433.97 25
3 -14 -2 2903.42 277.586 13
-3 -14 2 2791.48 276.933 25
-3 -14 1 83.8857 63.9059 25
3 -14 -1 89.4494 95.2209 13
3 -14 0 6114.43 408.369 13
3 -14 1 4628.8 351.65 13
3 -14 1 4256.94 383.774 7
3 -14 2 1214.64 182.657 13
3 -14 3 8793.09 473.576 13
3 -14 4 2453.93 239.809 13
3 -14 4 2306.79 254.817 15
3 -14 5 2159.08 199.007 13
3 -14 5 2292.61 219.387 15
3 -14 6 4841.71 251.823 13
3 -14 6 4762.75 265.385 15
-3 -13 8 2246.99 187.075 25
3 -13 -8 2444.44 184.893 13
3 -13 -7 5168.02 315.774 13
-3 -13 7 4291.2 304.639 25
-3 -13 6 5227.73 372.153 25
3 -13 -6 5868.72 370.604 13
-3 -13 5 852.708 173.383 7
-3 -13 5 958.679 176.208 25
3 -13 -5 1115.09 178.44 13
-3 -13 4 1469.71 219.795 25
3 -13 -4 1555.57 212.126 13
-3 -13 4 1270.51 210.644 7
-3 -13 3 782.534 160.717 25
3 -13 -3 732.39 155.072 13
3 -13 -2 6946.84 453.023 13
-3 -13 2 6945.8 469.764 25
3 -13 -1 11398.1 587.588 13
3 -13 0 592.284 147.26 13
3 -13 0 680.815 159.846 7
-3 -13 0 347.009 111.759 19
3 -13 1 3236.57 359.266 7
-3 -13 -1 3262.35 307.658 19
3 -13 1 4166.06 357.003 13
3 -13 2 592.386 160.031 7
3 -13 2 521.304 145.566 13
-3 -13 -2 421.074 113.148 19
3 -13 3 1384.07 208.11 13
3 -13 3 1158 232.179 7
3 -13 4 922.676 171.822 13
3 -13 4 771.515 136.726 26
3 -13 5 392.835 110.224 13
3 -13 5 193.989 86.462 26
3 -13 5 375.62 126.381 15
3 -13 6 998.303 141.062 13
3 -13 6 801.288 113.051 26
3 -13 6 1089.84 152.98 15
3 -13 7 1120.57 123.74 15
3 -13 7 1143.67 122.341 13
-3 -12 9 4600.58 259.9 25
3 -12 -9 5354.86 266.142 13
-3 -12 8 797.01 138.642 25
3 -12 -8 844.834 137.544 13
-3 -12 8 518.93 94.3861 15
-3 -12 8 651.229 107.469 10
-3 -12 7 7063.37 441.467 25
3 -12 -7 7454 432.076 13
-3 -12 7 6483.75 378.29 10
-3 -12 6 7940.33 494.873 7
3 -12 -6 8611.34 505.275 13
-3 -12 6 6925.62 425.048 15
-3 -12 6 8341.15 462.644 10
-3 -12 6 8873.61 528.029 25
-3 -12 5 8356.39 529.486 25
-3 -12 5 8249.32 536.973 7
3 -12 -5 8842.61 529.88 13
-3 -12 5 8192.24 475.826 10
-3 -12 4 57724.9 1601.69 25
-3 -12 4 56384 1650.01 7
-3 -12 4 53823.9 1446.59 10
-3 -12 3 18123.7 740.059 10
3 -12 -3 20403.5 822.235 13
-3 -12 3 19266.8 834.771 25
3 -12 -2 2026.03 257.211 13
-3 -12 1 46709.3 1420.62 19
3 -12 -1 53217.2 1431.94 13
3 -12 0 20940.8 825.869 13
3 -12 0 18074.5 869.5 7
-3 -12 0 18948.4 825.788 19
3 -12 1 6205.33 443.448 13
3 -12 1 5723.07 497.711 7
-3 -12 -1 6212.77 440.529 19
3 -12 2 4070.84 366.721 13
-3 -12 -2 3724.53 326.41 19
3 -12 2 3647 401.908 7
3 -12 3 12749.8 769.874 7
3 -12 3 13836.2 684.798 13
3 -12 4 1792.54 238.34 13
3 -12 5 2128.23 251.471 13
3 -12 5 2105.75 265.44 15
3 -12 5 1787.03 224.247 26
3 -12 6 4129.97 320.61 13
3 -12 6 3602.02 313.781 15
3 -12 6 3860.54 298.295 26
3 -12 7 3383.74 241.042 26
3 -12 7 3384.55 256.198 15
3 -12 7 4068.95 278.15 13
-3 -11 9 3729.46 274.458 25
-3 -11 9 3651.4 244.483 10
-3 -11 8 12285.5 545.884 10
-3 -11 8 13492.1 616.59 25
-3 -11 7 7604.95 501.331 25
-3 -11 7 6416.81 423.913 15
-3 -11 7 8154.38 473.448 10
-3 -11 6 10675.1 619.672 25
-3 -11 6 9738.39 575.161 7
-3 -11 6 8635.91 523.908 15
-3 -11 6 10100 557.284 10
-3 -11 5 1399.33 233.483 25
-3 -11 5 1628.59 251.34 7
-3 -11 5 1629.36 221.798 15
-3 -11 5 1340.1 214.985 10
-3 -11 4 5479.25 441.665 25
-3 -11 4 4339.11 364.164 10
3 -11 -3 13301.6 665.331 13
3 -11 -3 12778.5 1010.85 28
3 -11 -3 13578.9 1036.85 30
-3 -11 3 12759.3 1133.82 1
-3 -11 3 13037 632.1 10
3 -11 -2 13730.9 659.077 13
3 -11 -2 10844.2 884.95 28
-3 -11 2 10942.2 633.117 19
-3 -11 2 12922.2 619.462 10
3 -11 -2 13095.4 999.661 30
-3 -11 2 12295.3 1093.26 1
3 -11 -1 10395.8 563.067 13
-3 -11 1 12162.7 1056.86 1
-3 -11 1 9728.97 584.298 19
-3 -11 1 9684.24 534.063 10
-3 -11 1 9982.6 619.88 14
3 -11 -1 10811.9 868.869 30
3 -11 0 9441.05 619.71 7
3 -11 0 10349 563.934 13
3 -11 0 10786.9 845.53 30
-3 -11 0 10700.2 596.267 19
-3 -11 0 12228.2 1044.46 1
-3 -11 0 9458.35 805.3 5
-3 -11 0 10639.8 629.84 14
3 -11 1 14050.7 797.649 7
3 -11 1 15817 716.056 13
-3 -11 -1 14924.3 709.125 19
-3 -11 -1 16227.9 1218.39 1
-3 -11 -1 14886.1 1036.23 3
-3 -11 -1 15129 1036.84 5
3 -11 1 12519.2 947.897 30
-3 -11 -1 13915.1 721.477 14
3 -11 2 16687.8 886.771 7
3 -11 2 18706.4 803.056 13
-3 -11 -2 16789 1133.88 3
-3 -11 -2 17500.6 747.114 19
-3 -11 -2 16566 1097.81 5
3 -11 2 14348.5 1032.1 30
-3 -11 -2 16921.6 781.064 14
3 -11 3 9173 564.168 13
3 -11 3 8779.34 645.762 7
-3 -11 -3 8706.9 498.674 19
3 -11 4 29039 1234.67 7
3 -11 4 32559 1132.41 13
3 -11 5 9060.99 552.18 13
3 -11 5 9177.42 597.128 15
3 -11 6 12474.1 625.041 13
3 -11 6 13825.5 679.896 15
3 -11 6 12820.2 621.569 26
3 -11 7 16487.3 678.133 15
3 -11 7 17930 680.591 26
3 -11 8 2454.19 204.632 13
3 -11 8 1924.76 180.82 9
3 -11 8 2263.34 191.001 26
3 -11 8 1913.47 174.319 15
-3 -10 10 3261.3 207.146 15
-3 -10 10 4361.56 267.005 25
-3 -10 9 34111.8 1013.45 25
-3 -10 9 32114.7 942.734 10
-3 -10 8 3476.28 336.072 25
-3 -10 8 2757.93 286.825 15
-3 -10 8 3546.7 320.131 10
-3 -10 7 3777.86 370.892 25
-3 -10 7 3372.41 338.496 15
-3 -10 7 3483.42 333.359 10
-3 -10 6 10743.2 645.405 25
-3 -10 6 10492 609.661 7
-3 -10 6 10135.4 605.461 15
-3 -10 6 10851.5 609.279 10
-3 -10 5 17174.1 773.421 10
-3 -10 5 18448.9 842.955 25
-3 -10 5 17506.7 817.038 7
-3 -10 4 23188.3 947.705 25
-3 -10 4 21445.8 865.765 10
3 -10 -4 22065.4 1364.64 30
-3 -10 3 2164.67 281.551 19
-3 -10 3 2833.11 288.565 10
-3 -10 3 2560 296.83 14
-3 -10 3 2799.79 315.134 17
3 -10 -3 3172.1 490.019 30
-3 -10 3 3329.31 549.179 1
-3 -10 2 45142.1 2071.82 1
-3 -10 2 41199.3 1271.32 19
3 -10 -2 46824.5 1881.36 30
-3 -10 2 41823.8 1325.86 17
-3 -10 2 42792.7 1341.38 14
-3 -10 2 41398 1222.03 10
3 -10 -2 42130 1797 28
3 -10 -2 42061.8 1254.34 13
3 -10 -1 10484.4 557.211 13
-3 -10 1 9575.93 770.408 5
-3 -10 1 9635.32 555.93 19
-3 -10 1 10380.3 940.164 1
-3 -10 1 9778.32 585.411 17
3 -10 -1 10743.4 854.5 30
3 -10 -1 9349.52 748.554 28
-3 -10 1 10855.7 617.947 14
3 -10 0 24236.5 1005.74 7
3 -10 0 25209.1 906.728 13
-3 -10 0 26501 1310.86 3
-3 -10 0 27402.6 1530.64 1
-3 -10 0 24078.5 921.106 19
-3 -10 0 26192.6 1305.16 5
-3 -10 0 24192.2 935.075 17
3 -10 0 25147.6 1307.05 30
-3 -10 0 25811.7 995.707 14
3 -10 1 3110.31 365.348 7
3 -10 1 3423.97 320.657 13
-3 -10 -1 2732.92 486.867 1
3 -10 1 2966.79 428.78 30
-3 -10 -1 3525.84 487.925 3
-3 -10 -1 3197.25 309.11 19
-3 -10 -1 2916.41 440.927 5
-3 -10 -1 2841.18 290.679 17
-3 -10 -1 3436 345.524 14
3 -10 2 2888.8 362.817 7
3 -10 2 3714.24 349.781 13
-3 -10 -2 3628.18 514.32 3
-3 -10 -2 3561.82 327.67 19
-3 -10 -2 3283.98 332.775 14
-3 -10 -2 3740.24 590.933 1
-3 -10 -2 3770.72 503.538 5
3 -10 2 3757.14 495.908 30
3 -10 3 50812.1 1453.54 13
-3 -10 -3 46455.6 2082.12 1
-3 -10 -3 45677.5 1304.73 19
-3 -10 -3 52049.2 2073.06 3
3 -10 3 44485.1 1897.25 30
-3 -10 -3 50148.9 1996.3 5
3 -10 4 8431.89 552.644 13
3 -10 4 7371.74 599.7 7
3 -10 5 6851.17 500.612 13
3 -10 5 7226.84 552.111 15
3 -10 6 3308.42 338.711 13
3 -10 6 2349.22 296.977 15
3 -10 6 3112.34 321.332 26
3 -10 7 3477.49 324.484 13
3 -10 7 3259.92 309.051 26
3 -10 7 3364.58 318.606 15
3 -10 8 5895.29 363.021 26
3 -10 8 5629.77 348.873 15
3 -10 8 6647.04 390.766 13
3 -10 9 1705.37 150.287 26
3 -10 9 1699.34 155.837 13
-3 -9 10 2803.83 246.555 25
-3 -9 10 2937.17 236.122 15
-3 -9 10 3106.01 253.031 10
-3 -9 9 982.705 185.174 25
-3 -9 9 641.868 139.028 15
-3 -9 9 954.403 175.984 10
-3 -9 8 7617.21 504.078 10
-3 -9 8 7841.32 533.661 25
-3 -9 8 6944.58 489.656 15
-3 -9 7 8021.31 564.227 25
-3 -9 7 7098.18 520.414 15
-3 -9 7 7685.03 523.478 10
-3 -9 6 10075.2 602.233 7
-3 -9 6 9567.23 611.92 15
-3 -9 6 11206 634.076 10
-3 -9 6 11195.3 667.799 25
-3 -9 5 32927.7 1170.88 25
-3 -9 5 29160.5 1099.6 7
-3 -9 5 27902.6 1066.22 15
-3 -9 5 30316.2 1086.26 10
3 -9 -5 33084 1671.93 30
3 -9 -4 813.655 253.651 30
-3 -9 4 842.528 179.073 25
-3 -9 4 960.715 180.649 17
-3 -9 4 661.95 151.486 10
3 -9 -3 11323.3 797.682 5
3 -9 -3 15163.1 1031.61 30
-3 -9 3 11981.5 605.517 10
-3 -9 3 12423.8 650.316 14
-3 -9 3 11579.4 623.9 19
-3 -9 3 13081.3 669.986 17
-3 -9 3 13923 1128.46 1
-3 -9 2 10844.1 954.539 1
3 -9 -2 9575.99 528.78 13
-3 -9 2 9668.76 545.565 19
-3 -9 2 10126.8 576.473 17
3 -9 -2 9554.98 790.853 30
-3 -9 2 9749.47 533.561 10
-3 -9 2 9873.88 572.376 14
-3 -9 1 36865.4 1454.01 5
-3 -9 1 35473 1442.28 3
-3 -9 1 33608.8 1089.19 19
3 -9 -1 34510.4 1475.86 28
-3 -9 1 38490.4 1772.72 1
-3 -9 1 34479.6 1131.25 17
3 -9 -1 34375.4 1063.18 13
3 -9 -1 38882.9 1615.98 30
-3 -9 1 35025.5 1162.4 14
3 -9 0 54964.2 1461.16 13
-3 -9 0 62628.2 2005.35 5
-3 -9 0 65093.8 2063.28 3
-3 -9 0 59124.4 1524.21 19
-3 -9 0 60558.5 2266.73 1
3 -9 0 68834.3 2215.1 30
-3 -9 0 59991.2 1610.83 14
3 -9 1 7745.68 470.887 13
3 -9 1 7288.12 529.435 7
3 -9 1 8027.62 706.28 30
-3 -9 -1 7950.57 695.035 3
-3 -9 -1 7349.35 462.737 19
-3 -9 -1 8324.36 691.687 5
-3 -9 -1 7651.96 501.518 14
-3 -9 -1 7994.12 765.897 1
3 -9 2 18622.7 913.671 7
3 -9 2 20176.4 816.598 13
-3 -9 -2 18736.5 779.135 19
-3 -9 -2 19765.9 1145.5 3
-3 -9 -2 19070.6 1222.12 1
-3 -9 -2 19911 1131.49 5
3 -9 2 18988.9 1131.21 30
-3 -9 -2 19541.7 820.725 14
3 -9 3 2537.7 333.529 7
3 -9 3 2509.78 293.363 13
-3 -9 -3 1912.33 376.037 5
-3 -9 -3 2492 266.918 19
-3 -9 -3 2301.34 423.257 3
3 -9 3 1988.18 381.807 30
3 -9 4 11008.2 734.955 7
3 -9 4 12114.9 673.521 13
-3 -9 -4 11541.6 935.888 3
-3 -9 -4 11460.6 912.817 5
3 -9 5 5758.32 476.063 13
3 -9 5 6077.64 542.455 15
3 -9 6 5403.17 457.363 13
3 -9 6 6061.57 474.031 26
3 -9 6 5996.21 485.371 15
3 -9 7 9374.35 575.098 13
3 -9 7 8760.68 554.397 15
3 -9 7 9279.82 563.546 26
3 -9 7 8915.7 507.196 25
3 -9 8 5597.14 384.114 15
3 -9 8 7605.65 454.63 26
3 -9 8 6037.18 372.815 25
3 -9 8 8126.89 478.877 13
3 -9 9 6751.12 334.987 9
3 -9 9 6409.66 346.738 26
3 -9 9 6130.78 343.067 13
-3 -8 11 1479.9 149.407 25
-3 -8 11 1632.17 149.731 15
-3 -8 10 14377.5 630.848 25
-3 -8 10 13741.8 594.497 15
-3 -8 10 14489.8 618.107 10
-3 -8 9 17605.5 813.382 25
-3 -8 9 17886.3 793.937 15
-3 -8 8 1765.33 272.36 25
-3 -8 8 2196.24 292.227 10
-3 -8 8 1972.86 282.688 15
-3 -8 7 8919.64 603.732 25
-3 -8 7 8386.28 580.247 15
-3 -8 7 9257.32 592.75 10
-3 -8 7 8853.93 550.397 18
-3 -8 6 3664.02 384.038 25
-3 -8 6 4114.69 382.562 10
-3 -8 6 3373.23 328.365 18
3 -8 -6 2952.52 504.8 30
-3 -8 6 3159.04 368.428 15
3 -8 -5 5117.35 614.669 30
-3 -8 5 4584.18 414.593 6
-3 -8 5 4228.33 383.848 15
-3 -8 5 4282.04 379.951 10
-3 -8 5 4266.08 399.305 25
-3 -8 4 4548.36 371.822 14
-3 -8 4 3856.4 356.648 19
-3 -8 4 4877.27 391.543 17
3 -8 -4 4687.3 582.602 30
-3 -8 4 4297.84 382.326 6
-3 -8 4 5336.9 403.2 10
-3 -8 4 5241.18 680.312 1
-3 -8 3 13658.5 1076.31 1
3 -8 -3 11092.8 737.623 5
3 -8 -2 20143.5 1132.33 30
-3 -8 2 20655.6 1274.36 1
-3 -8 1 3118.97 393.03 3
-3 -8 1 3454.94 403.155 5
-3 -8 1 4217.93 543.755 1
3 -8 -1 3721.57 458.64 30
3 -8 -1 2997.07 408.616 28
-3 -8 0 157.812 103.536 3
-3 -8 0 -349.626 181.882 1
3 -8 0 373.714 141.211 30
-3 -8 0 -164.17 92.112 5
3 -8 0 321.063 126.884 28
3 -8 1 4209.42 485.844 30
-3 -8 -1 4985.33 514.476 3
-3 -8 -1 4337.39 474.042 5
-3 -8 -1 3638.22 512.752 1
3 -8 2 222.196 90.5716 13
3 -8 2 -80.2373 102.368 30
-3 -8 -2 419.589 153.083 5
-3 -8 -2 51.5003 134.348 1
3 -8 2 197.63 134.542 31
-3 -8 -2 194.174 151.032 3
3 -8 3 8317.15 522.471 13
3 -8 3 7634.11 571.683 7
-3 -8 -3 6795.99 602.149 30
3 -8 3 8678.66 669.957 31
-3 -8 -3 8145.37 477.796 19
-3 -8 -3 7706.15 713.765 3
-3 -8 -3 8689.42 741.001 5
3 -8 3 9199.34 783.161 30
3 -8 4 13937.3 811.443 7
3 -8 4 11549.9 835.388 31
-3 -8 -4 15574.1 1060.12 3
-3 -8 -4 13472.9 626.971 19
-3 -8 -4 15552.7 1038.26 5
3 -8 4 15460.4 758.856 13
-3 -8 -4 11261 855.56 30
3 -8 5 7865.59 589.983 15
3 -8 5 8176.25 568.542 13
-3 -8 -5 9037.02 806.395 5
-3 -8 -5 8022.37 786.027 3
3 -8 5 7098.15 689.496 31
-3 -8 -5 5881.14 642.642 30
3 -8 6 5365.9 435.886 25
3 -8 6 5214.98 462.244 13
3 -8 6 5241.52 456.854 15
3 -8 7 2178.71 268.969 25
3 -8 7 2259.86 297.297 13
3 -8 7 2047.96 288.916 26
3 -8 7 1542.02 249.011 15
3 -8 8 13269.7 678.386 13
3 -8 8 11160.2 586.788 15
3 -8 8 12569.1 646.375 26
3 -8 8 12019.6 594.858 25
3 -8 9 13476 590.4 13
3 -8 9 13212.5 563.357 9
3 -8 9 13699.1 585.611 26
3 -8 9 12563.6 522.349 25
3 -8 10 1388.69 132.716 26
-3 -7 11 4809.11 303.699 25
-3 -7 11 4628.39 292.222 15
-3 -7 10 1023.19 141.794 26
-3 -7 10 986.779 177.573 10
-3 -7 10 978.491 177.252 15
-3 -7 10 795.566 166.616 25
-3 -7 9 16771.4 815.246 25
-3 -7 9 14362.3 627.561 26
-3 -7 9 17450.4 809.959 10
-3 -7 9 16838 808.174 15
-3 -7 8 1107.22 212.262 18
-3 -7 8 1243.14 248.323 25
-3 -7 8 1177.83 233.495 15
-3 -7 8 1168.1 224.287 10
-3 -7 7 4530.07 443.547 6
-3 -7 7 5232.81 470.761 20
3 -7 -7 4792.18 636.6 30
-3 -7 7 4524.94 397.027 18
-3 -7 7 5029.72 441.481 10
-3 -7 7 4593.1 443.823 15
-3 -7 7 4753.18 449.09 25
-3 -7 6 7349.4 558.472 6
-3 -7 6 8492.55 562.777 20
-3 -7 6 8777.49 569.173 10
-3 -7 6 8290.48 523.693 18
-3 -7 6 6377.16 513.582 15
-3 -7 6 8684.37 582.425 25
3 -7 -6 8604.33 822.075 30
3 -7 -5 7499.03 737.318 30
-3 -7 5 7799.04 531.965 6
-3 -7 5 6796.62 493.542 15
-3 -7 5 7720.18 530.017 20
-3 -7 5 7544.36 473.035 18
-3 -7 5 6991.62 463.054 17
-3 -7 5 8110.53 529.353 10
-3 -7 5 8009.63 535.384 25
3 -7 -4 2096.65 359.239 30
-3 -7 3 883.43 293.439 1
3 -7 -3 1250.22 270.315 30
3 -7 -3 909.12 192.036 5
3 -7 -2 7086.6 532.643 5
3 -7 -2 7834.39 646.945 30
-3 -7 2 6096.34 664.562 1
-3 -7 1 12078.2 710.577 3
-3 -7 1 11740.4 690.28 5
3 -7 -1 11124.1 738.399 28
3 -7 -1 12566.6 810.812 30
-3 -7 0 361.148 134.888 5
-3 -7 0 452.14 148.771 3
3 -7 0 494.947 165.594 30
-3 -7 0 561.313 218.63 1
3 -7 0 868.073 187.418 28
-3 -7 -1 174.054 63.556 5
3 -7 1 138.576 130.579 30
-3 -7 -1 97.4355 90.6351 3
3 -7 1 433.201 123.917 28
-3 -7 -2 17205.5 934.137 5
3 -7 2 15934.9 974.428 30
-3 -7 -2 16418.4 818.722 30
3 -7 2 17547.3 899.103 31
-3 -7 -2 18612.8 999.893 3
3 -7 3 20603.1 1169.93 30
-3 -7 -3 19490.3 1088.72 3
-3 -7 -3 20981.4 1096.1 5
3 -7 3 18861.4 1007.49 31
3 -7 4 32280.4 1234.38 7
3 -7 4 33971.7 1155.78 13
-3 -7 -4 30084.2 990.099 19
-3 -7 -4 36821.9 1570.27 5
3 -7 4 32849.6 1443.73 31
-3 -7 -4 35669.2 1569.48 3
3 -7 5 4005.65 380.498 25
-3 -7 -5 4858.32 594.577 5
3 -7 5 4428.49 530.814 31
3 -7 5 4651.21 417.942 13
-3 -7 -5 4869.55 605.67 3
3 -7 5 4130.81 423.356 15
3 -7 6 8502.41 568.035 25
3 -7 6 8770.64 604.117 13
3 -7 6 8760.01 595.744 15
3 -7 7 10324.3 621.37 25
3 -7 7 10868.8 683.011 13
3 -7 7 8989.74 591.652 15
3 -7 7 10973.1 689.432 26
3 -7 8 6731.41 501.492 13
3 -7 8 6684.99 464.199 15
3 -7 8 6385.31 490.838 26
3 -7 8 6990.03 485.376 25
3 -7 9 2610.33 272.359 9
3 -7 9 2672.44 279.37 13
3 -7 9 3134.98 295.672 26
3 -7 9 2430.7 249.934 25
3 -7 10 744.313 109.315 25
3 -7 10 570.061 91.4719 9
3 -7 10 779.282 118.289 26
-3 -6 11 1821.32 200.396 25
-3 -6 11 2105 219.903 15
-3 -6 11 1921.03 173.782 26
-3 -6 10 6916.2 476.974 25
-3 -6 10 7234.34 494.575 10
-3 -6 10 7819.96 510.651 15
-3 -6 10 6315.6 396.245 26
-3 -6 9 6796.14 516.521 10
-3 -6 9 6878.28 524.581 15
-3 -6 9 6412.95 511.123 25
-3 -6 9 6500.16 442.827 26
-3 -6 8 10118.9 652.617 25
-3 -6 8 10073.2 650.768 6
-3 -6 8 11049.2 675.454 10
-3 -6 8 10245.2 640.546 20
-3 -6 8 9625.29 616.32 18
-3 -6 8 10337.1 663.817 15
-3 -6 8 8936.71 540.822 26
-3 -6 7 1891.75 288.62 25
-3 -6 7 2194.03 304.202 6
-3 -6 7 2252.88 304.093 20
3 -6 -7 2228.11 398.799 30
-3 -6 7 2547.81 318.341 10
-3 -6 7 2033.62 293.673 15
-3 -6 7 1407.86 308.405 31
-3 -6 7 2096.68 278.161 18
-3 -6 6 9129.75 587.719 15
-3 -6 6 10390.9 622.331 6
-3 -6 6 9549.93 607.29 25
-3 -6 6 8606.69 714.465 2
-3 -6 6 10340.5 605.98 20
-3 -6 6 10452.2 616.922 10
3 -6 -6 10351.2 873.699 30
-3 -6 6 9471.7 564.766 18
-3 -6 6 8574.62 669.286 31
-3 -6 5 5942.52 536.793 2
-3 -6 5 5188.9 464.533 31
3 -6 -5 6199.08 644.373 30
-3 -6 5 5652.63 428.418 6
-3 -6 4 8531.61 523.046 31
3 -6 -4 9455.84 743.25 30
-3 -6 4 8809.79 595.304 2
3 -6 -3 458.997 126.114 5
3 -6 -3 262.807 131.223 30
-3 -6 3 137.983 76.59 2
-3 -6 3 51.0636 116.347 1
-3 -6 2 1125.61 308.297 1
3 -6 -2 691.905 180.393 30
3 -6 -2 1144.67 182.256 5
-3 -6 2 712.526 148.895 2
-3 -6 1 23177.9 804.22 2
-3 -6 1 24010.8 957.783 3
-3 -6 1 24767.2 1222.85 1
-3 -6 1 23522.5 926.346 5
3 -6 -1 24229.4 1093.94 30
3 -6 -1 21765 1010.31 28
-3 -6 0 30022.8 927.811 2
-3 -6 0 28483.7 1278.05 1
-3 -6 0 30664.2 1099.09 5
3 -6 0 30465.9 1241.62 30
-3 -6 0 29877.6 1120.35 3
3 -6 0 27136.2 1102.94 28
-3 -6 -1 3008.21 279.378 2
3 -6 1 2961.63 367.969 30
-3 -6 -1 2940.92 350.418 3
-3 -6 -1 2935.29 334.363 5
-3 -6 -1 2807.82 377.252 1
3 -6 1 2691.81 310.654 28
3 -6 2 53727.8 1485.05 28
-3 -6 -2 60683 1808.26 3
3 -6 2 58891.6 1902.47 30
-3 -6 -2 55803.7 1701.21 5
3 -6 3 18394.2 971.612 31
-3 -6 -3 19704.2 1013.68 5
-3 -6 -3 20637.7 1059.97 3
3 -6 3 19483.8 1119.43 30
3 -6 4 12550.7 653.296 13
-3 -6 -4 13887.6 909.777 5
-3 -6 -4 13464.6 899.979 3
3 -6 4 13166.2 870.187 31
3 -6 5 10803.6 616.009 25
3 -6 5 10528.1 625.583 13
-3 -6 -5 11254.2 875.779 3
3 -6 5 10267.7 828.237 31
-3 -6 -5 11246.4 883.131 5
3 -6 5 10606.2 646.787 15
3 -6 6 4551.88 417.261 25
3 -6 6 5359.18 460.269 13
3 -6 6 4503.39 575.999 31
-3 -6 -6 5320.31 634.333 3
-3 -6 -6 4857.63 617.333 5
3 -6 6 4442.08 414.473 15
3 -6 7 20428.5 916.853 25
3 -6 7 19279.8 921.299 13
3 -6 7 17921.1 849.553 15
3 -6 7 19673.7 947.812 26
3 -6 8 1651.41 233.867 15
3 -6 8 1813.27 278.593 26
3 -6 8 1736.67 251.133 25
3 -6 8 1568.88 268.266 13
3 -6 9 5032.14 392.167 25
3 -6 9 5828.91 434.095 13
3 -6 9 5308.35 414.309 9
3 -6 9 5714.76 430.04 26
3 -6 10 9420.72 421.295 9
3 -6 10 9595.4 453.694 26
3 -6 10 9021.61 442.21 25
-3 -5 12 4367.88 251.021 15
-3 -5 11 3525.6 294.651 25
-3 -5 11 3034.68 251.51 26
-3 -5 11 3464.02 303.644 15
-3 -5 10 245.928 115.372 15
-3 -5 10 88.0673 70.1124 25
-3 -5 10 -2.11465 112.574 10
-3 -5 10 236.956 107.095 26
-3 -5 9 659.601 184.938 15
-3 -5 9 961.76 211.267 20
-3 -5 9 677.078 182.027 25
-3 -5 9 924.615 203.487 10
-3 -5 9 944.061 183.188 26
-3 -5 8 5014.23 443.129 25
-3 -5 8 4287.48 408.708 6
-3 -5 8 4954.07 456.51 15
-3 -5 8 4472.3 417.481 20
-3 -5 8 4576.83 397.62 26
-3 -5 8 4408.5 424.542 18
-3 -5 8 4287.28 429.622 10
-3 -5 7 4338.06 412.497 25
3 -5 -7 5890.31 682.149 30
-3 -5 7 4731.08 392.007 26
-3 -5 7 4676.87 419.115 6
-3 -5 7 3082.43 488.957 2
-3 -5 7 5419.62 437.226 20
-3 -5 7 4258.23 410.615 15
-3 -5 7 4694.14 417.973 18
-3 -5 7 5113.7 452.813 10
-3 -5 7 4295.27 528.752 31
-3 -5 6 22693.3 937.397 25
-3 -5 6 22231.4 928.635 10
-3 -5 6 22221.2 1183.13 2
-3 -5 6 23945.4 937.34 6
-3 -5 6 24771.4 911.461 20
-3 -5 6 22363.4 1113.31 31
-3 -5 6 21950.4 912.44 15
-3 -5 6 22537.8 901.424 18
3 -5 -6 21702.8 1247.12 30
-3 -5 5 49359.6 1712.58 2
-3 -5 5 50240.8 1611.63 31
3 -5 -5 52882.7 1898.96 30
-3 -5 4 9385.57 623.247 2
-3 -5 4 9555.76 569.993 31
-3 -5 3 28641 1333.53 1
-3 -5 3 25737 990.187 2
3 -5 -3 28185.9 944.908 5
3 -5 -3 30311.1 1229.41 30
-3 -5 2 75258.1 2213.4 1
-3 -5 2 68851.3 1693.38 3
3 -5 -2 70955.5 1672.61 5
-3 -5 2 68285.2 1683.8 2
3 -5 -2 74375.6 2013.77 30
-3 -5 1 13390.2 647.033 3
-3 -5 1 13123.5 821.238 1
-3 -5 1 12762.8 612.65 5
-3 -5 1 13774.3 603.182 2
3 -5 -1 14679.2 790.035 30
3 -5 -1 13665.2 734.942 28
-3 -5 0 25312.1 1101.74 1
3 -5 0 21772.8 933.411 28
3 -5 0 22115.6 989.591 30
-3 -5 0 21987.7 885.102 3
-3 -5 0 22813.5 859.32 5
-3 -5 0 22776.8 789.313 2
-3 -5 -1 79754.9 2142.11 1
-3 -5 -1 74730.6 1917.63 3
-3 -5 -1 76144.6 1875.01 5
3 -5 1 76161.3 2064.95 30
3 -5 2 33971 1319.47 27
-3 -5 -2 35480.7 1239.47 5
-3 -5 -2 34504.6 1260.29 3
3 -5 2 35196.7 1135.6 28
3 -5 2 37056 1397.36 30
3 -5 3 106331 2717.24 31
-3 -5 -3 120033 2830.02 3
-3 -5 -3 112209 2724.45 5
3 -5 3 114290 2950.08 30
3 -5 3 102658 2823.57 27
-3 -5 -4 31123.1 1355.42 5
3 -5 4 27970.7 1307.92 31
-3 -5 -4 29101.4 1315.34 3
3 -5 4 26950 1363.65 27
3 -5 5 32073.5 1103.02 25
3 -5 5 31803.5 1103.42 13
3 -5 5 30322 1568.47 27
-3 -5 -5 32324.4 1484.84 3
-3 -5 -5 34440.6 1540.78 5
3 -5 5 28960.7 1075.43 15
3 -5 5 32558.8 1510.9 31
3 -5 6 24332 997.62 25
3 -5 6 23088 971.029 13
-3 -5 -6 25804.7 1414.25 5
3 -5 6 21521.1 917.168 15
-3 -5 -6 24583.8 1372.96 3
3 -5 6 22305 1316.62 31
3 -5 6 19899.2 1374.99 27
3 -5 7 57010.7 1696.45 25
3 -5 7 58817.4 1727.01 13
3 -5 7 54929.3 1581.08 15
3 -5 7 57270.6 1783.69 26
3 -5 8 6575.94 463.202 15
3 -5 8 6232.54 501.13 25
3 -5 8 7017.84 552.782 26
3 -5 8 7833.56 562.177 13
3 -5 9 13091.9 684.696 13
3 -5 9 13486.9 685.79 25
3 -5 9 11472.6 572.007 22
3 -5 9 12719.6 672.794 9
3 -5 9 13380.3 694.003 26
3 -5 10 6564.19 380.27 9
3 -5 10 6377.97 392.174 26
3 -5 10 6788.86 409.856 25
-3 -4 12 2870.79 200.246 26
-3 -4 12 3583.25 249.214 15
-3 -4 11 12214.7 564.295 25
-3 -4 11 12306.4 566.395 26
-3 -4 10 1768.31 249.058 25
-3 -4 10 1777.59 257.422 15
-3 -4 10 2160.92 269.642 20
-3 -4 10 1866.29 274.881 10
-3 -4 10 1656.26 203.444 21
-3 -4 10 1562.24 228.495 26
-3 -4 9 20457.8 927.142 25
-3 -4 9 22614.2 988.91 15
-3 -4 9 20705.6 906.727 6
-3 -4 9 23149 955.061 20
-3 -4 9 22331.7 828.535 21
-3 -4 9 22123.3 985.993 18
-3 -4 9 20640.1 970.184 10
-3 -4 9 21505.4 929.683 26
-3 -4 8 3844.61 386.334 25
-3 -4 8 3755.7 374.172 6
3 -4 -8 3652.43 537.993 30
-3 -4 8 3945.82 334.798 21
-3 -4 8 4641.44 415.814 20
-3 -4 8 4116.71 407.102 18
-3 -4 8 3641.39 512.888 31
-3 -4 8 4276.23 417.679 15
-3 -4 8 4347.15 428.299 10
-3 -4 8 4233.53 395.903 26
-3 -4 7 50173 1491.5 26
-3 -4 7 53864.8 1578.01 25
-3 -4 7 55422.8 1608.44 15
-3 -4 7 58070.9 1550.72 20
-3 -4 7 56418.8 2037.72 31
3 -4 -7 53137.3 2111.44 30
-3 -4 7 59103.5 1647.41 18
-3 -4 7 56334.3 1649.93 10
-3 -4 7 54262.5 1415.62 21
-3 -4 7 58033.5 1589.89 6
-3 -4 7 53170.9 2102.37 2
-3 -4 6 8677.74 744.837 2
-3 -4 6 8757.07 499.619 20
-3 -4 6 9261.38 708.687 31
3 -4 -6 9789.94 792.774 30
-3 -4 5 29037.9 1276.53 2
-3 -4 5 27855.9 1158.02 31
3 -4 -5 28520 1299.42 30
-3 -4 4 71545.2 1853.78 31
-3 -4 4 68936.3 1951.39 2
-3 -4 3 3095.04 290.954 31
3 -4 -3 2973.76 251.171 5
-3 -4 3 3124.76 326.782 2
-3 -4 3 2494.05 354.977 1
3 -4 -3 2902.95 341.622 30
-3 -4 2 100965 2468.29 1
3 -4 -2 93969.3 1907.36 5
-3 -4 2 95758.4 2102.06 2
-3 -4 2 92592.2 1967.13 3
3 -4 -2 99844.6 2327.96 30
-3 -4 1 28849 920.701 2
-3 -4 1 27776.7 869.224 5
3 -4 -1 26866.5 1019.41 28
-3 -4 1 30518.3 1164.89 1
3 -4 -1 28367.6 1069.65 30
-3 -4 1 27813.4 909.708 3
-3 -4 0 28500.4 909.389 2
-3 -4 0 32245.8 1171.8 1
-3 -4 0 29567.6 971.686 3
-3 -4 0 30708.9 940.946 5
3 -4 0 29375.1 1099.17 30
3 -4 0 29244.9 1044.35 28
3 -4 1 162233 3277.37 30
3 -4 1 155997 3090.61 28
-3 -4 -1 153381 3018.75 5
-3 -4 -1 155701 3083.14 3
-3 -4 -1 152921 3279.72 1
3 -4 2 93218.5 2139.4 28
-3 -4 -2 94432.8 2276.32 3
-3 -4 -2 92101.7 2202.12 5
3 -4 2 101057 2459.49 30
3 -4 2 101767 2527.44 27
3 -4 3 5756.67 522.237 31
3 -4 3 6099.44 424.398 28
-3 -4 -3 5676.93 489.953 5
-3 -4 -3 5356.43 494.777 3
3 -4 3 4226.07 491.688 27
-3 -4 -4 32675 1380.47 5
-3 -4 -4 35183 1410.65 3
3 -4 4 33313.9 1419.68 31
3 -4 5 9416.78 542.301 13
3 -4 5 9232.58 780.744 31
-3 -4 -5 9586.5 772.215 3
-3 -4 -5 10798 835.608 5
3 -4 5 9070.24 858.059 27
3 -4 6 5239.09 445.049 25
-3 -4 -6 5233.37 625.518 3
3 -4 6 4083.01 603.749 27
3 -4 6 4758.26 411.564 13
3 -4 6 4307.03 582.066 31
-3 -4 -6 4817.57 600.787 5
3 -4 7 9027.45 600.742 25
3 -4 7 8709.73 581.508 13
3 -4 7 5106.94 725.172 27
3 -4 7 6768.43 747.191 31
-3 -4 -7 8152.08 814.644 3
-3 -4 -7 9462.5 903.187 5
3 -4 7 7280.25 570.848 26
3 -4 8 9356.06 630.465 9
3 -4 8 8967.04 629.227 26
3 -4 8 9692.81 629.915 13
3 -4 8 9440.77 624.572 25
3 -4 9 1546.75 221.057 22
3 -4 9 1946.81 262.662 13
3 -4 9 1951.54 269.771 9
3 -4 9 1713.72 258.97 26
3 -4 9 2100.85 275.962 25
3 -4 10 5066.51 364.321 26
3 -4 10 5416.28 366.468 9
3 -4 10 5634.64 393.318 25
3 -4 11 3564.45 237.496 25
-3 -3 12 4465.38 294.657 15
-3 -3 12 3910 262.87 26
-3 -3 11 709.042 130.897 25
-3 -3 11 396.705 98.3637 21
-3 -3 11 683.962 156.981 15
-3 -3 11 680.677 149.607 26
-3 -3 10 48706 1418.04 25
-3 -3 10 49300.8 1490.57 26
-3 -3 10 48432.2 1323.29 21
-3 -3 10 52388.8 1542.01 15
-3 -3 10 50200.3 1521.9 10
-3 -3 10 53874.2 1478.8 20
-3 -3 9 1242.42 211.097 6
-3 -3 9 1652.9 257.75 20
-3 -3 9 1454.25 244.695 26
-3 -3 9 1461.53 257.662 18
-3 -3 9 1477.12 254.659 10
-3 -3 9 1283.52 239.646 15
-3 -3 9 1395.42 234.245 25
-3 -3 9 1263.06 203.831 21
-3 -3 8 1930.79 403.162 31
-3 -3 8 1969.59 284.522 10
-3 -3 8 2003.85 271.585 6
-3 -3 8 2273.01 312.7 18
-3 -3 8 2168.19 293.008 15
-3 -3 8 1991.81 262.412 25
-3 -3 8 1878.28 256.329 20
-3 -3 8 1823.22 276.385 26
-3 -3 8 2056.37 249.769 21
-3 -3 7 6016.68 433.566 6
-3 -3 7 5622.77 651.418 2
-3 -3 7 5500.23 390.788 21
-3 -3 7 5854.84 422.348 20
-3 -3 7 5923.51 449.943 15
-3 -3 7 6438.77 488.241 18
-3 -3 7 5487.65 428.426 25
-3 -3 7 5798.66 459.919 10
3 -3 -7 6799.1 689.039 30
-3 -3 7 5224.94 600.955 31
-3 -3 7 5766.2 436.452 26
3 -3 -6 1793.94 326.538 30
-3 -3 6 1769.12 333.478 31
-3 -3 6 1578.13 322.784 2
-3 -3 5 4716.22 466.239 31
3 -3 -5 4964.85 496.539 30
-3 -3 5 5055.9 506.242 2
-3 -3 4 22676.3 947.717 31
-3 -3 4 23273.6 1034.18 2
3 -3 -3 41407.4 977.493 5
-3 -3 3 41763.4 1225.16 31
3 -3 -3 42007.7 1340.36 30
-3 -3 3 41548.3 1306.38 2
3 -3 -2 4837.54 402.16 28
-3 -3 2 3846.63 263.059 3
-3 -3 2 4051.81 341.615 2
3 -3 -2 4829.06 391.865 30
-3 -3 2 5143.22 433.974 1
-3 -3 1 266559 4604.06 2
-3 -3 1 265437 4450.22 3
-3 -3 1 265760 4390.11 5
3 -3 -1 278571 4789.09 30
3 -3 -1 264379 4759.84 28
-3 -3 1 278189 4842.03 1
3 -3 0 46330.4 1350.45 30
-3 -3 0 49002.8 1244.89 3
-3 -3 0 51628.2 1415.29 1
-3 -3 0 48073.5 1166.49 5
3 -3 0 47942.1 1341.54 28
3 -3 1 167902 3177.94 28
-3 -3 -1 166265 3080.32 5
-3 -3 -1 162065 3133.18 3
3 -3 1 172390 3302.64 30
-3 -3 -1 158979 3206.45 1
3 -3 2 185482 3504.13 28
-3 -3 -2 182836 3541.24 5
-3 -3 -2 179306 3615.17 3
3 -3 3 33931.7 1131.48 28
3 -3 3 34055.9 1333.08 31
-3 -3 -3 33112.8 1240.48 5
-3 -3 -3 34625.9 1291.33 3
3 -3 4 178223 4332.91 27
-3 -3 -4 184213 3981.3 5
-3 -3 -4 189219 4031.4 3
3 -3 4 191162 4139.12 31
3 -3 4 172550 3518.23 28
3 -3 5 643.084 250.403 27
3 -3 5 430.285 170.73 31
-3 -3 -5 754.806 218.266 5
-3 -3 -5 667.985 221.388 3
3 -3 6 15077.4 760.348 25
3 -3 6 14478.4 714.395 13
3 -3 6 13482.8 1032.66 31
-3 -3 -6 13324.1 629.639 19
-3 -3 -6 14480.5 1047.62 5
-3 -3 -6 14622.2 1034.17 3
3 -3 6 13064.8 1115.54 27
3 -3 6 16635.6 805.756 26
3 -3 7 11554.1 665.422 13
3 -3 7 9431.82 943.583 31
-3 -3 -7 11876.4 987.496 3
-3 -3 -7 12254.4 1020.97 5
3 -3 7 10201.9 1045.97 27
3 -3 7 11320.8 690.038 26
3 -3 7 11681.1 693.583 25
3 -3 8 3914.37 402.285 26
3 -3 8 3751.55 367.213 22
3 -3 8 3963.04 394.014 13
3 -3 8 4035.71 412.881 9
3 -3 8 4448.9 428.448 25
3 -3 9 20601.2 893.24 9
3 -3 9 19405.2 813.665 22
3 -3 9 20774.5 898.317 26
3 -3 9 20882.7 885.313 13
3 -3 9 20507.2 905.557 25
3 -3 10 1214.6 185.289 9
3 -3 10 1215.92 183.43 26
3 -3 10 1315.32 201.337 25
3 -3 11 497.397 106.638 25
3 -3 11 530.824 84.3904 26
-3 -2 12 4948.4 316.073 26
-3 -2 12 5474.29 335.006 15
-3 -2 11 4573.57 322.103 21
-3 -2 11 4843.57 381.918 15
-3 -2 11 4027.32 350.312 26
-3 -2 10 6484.15 447.363 25
-3 -2 10 7585.57 473.78 21
-3 -2 10 7584.1 498.387 20
-3 -2 10 7618.32 535.155 15
-3 -2 10 7788.84 533.933 10
-3 -2 10 7383.98 529.797 26
-3 -2 9 1467.82 217.939 25
-3 -2 9 1649.95 235.571 6
-3 -2 9 2133.84 275.06 20
-3 -2 9 1631.97 258.167 15
-3 -2 9 1914.51 297.031 18
-3 -2 9 1715.33 263.843 10
-3 -2 9 1746.48 272.534 26
-3 -2 9 1870.96 247.226 21
-3 -2 8 9678.91 572.777 25
-3 -2 8 9840.97 524.671 16
-3 -2 8 10410.9 629.371 10
-3 -2 8 10079.9 610.783 15
-3 -2 8 9947.28 581.226 6
-3 -2 8 10432.5 589.963 20
-3 -2 8 8515.11 841.437 31
-3 -2 8 8588.94 901.198 2
-3 -2 8 11192.7 688.658 18
-3 -2 8 9428.99 616.485 26
-3 -2 8 10512.3 581.833 21
-3 -2 7 46429.8 1385.07 25
-3 -2 7 51762.8 1476.58 15
-3 -2 7 54370.9 1513.39 26
-3 -2 7 52767 1429.82 6
-3 -2 7 52871 1410.51 21
-3 -2 7 52963.2 1418.08 20
-3 -2 7 59652.8 2277.09 2
-3 -2 7 52142.9 1495.57 10
-3 -2 7 55480.3 1590.29 18
-3 -2 7 54254.2 2041.39 31
3 -2 -7 53860.3 1996.79 30
-3 -2 6 14695 921.988 31
-3 -2 6 15081.4 1006.96 2
3 -2 -6 14374 889.182 30
-3 -2 5 103040 2637.22 31
-3 -2 5 105993 2797.41 2
-3 -2 4 63038.2 1758.77 31
3 -2 -4 68326.4 1814.65 30
-3 -2 4 65803.6 1894.81 2
-3 -2 3 24361 890.004 31
3 -2 -3 22182.6 550.902 5
-3 -2 3 24396.6 960.797 2
3 -2 -3 23548.1 884.083 30
-3 -2 2 57085.7 1150.93 3
-3 -2 2 62110.9 1551.67 2
3 -2 -2 57944.1 1478.25 30
3 -2 -2 59392 1549.03 28
-3 -2 1 4870.73 348.884 2
-3 -2 1 4262.64 337.445 1
-3 -2 1 4840.93 240.773 5
-3 -2 1 4868.52 273.575 3
3 -2 -1 5094.18 349.813 30
3 -2 -1 5179.87 373.489 28
3 -2 0 9138.55 483.551 30
-3 -2 0 9115.88 434.584 3
-3 -2 0 9019.94 467.553 1
-3 -2 0 9127.31 392.188 5
3 -2 0 10326.7 523.348 28
3 -2 1 40684.5 1145.21 28
-3 -2 -1 41018.6 1087.02 5
3 -2 1 41424.8 1200.57 30
-3 -2 -1 40658.7 1150.64 3
3 -2 2 54704.9 1439.15 28
3 -2 2 54481.1 1545.04 30
-3 -2 -2 54832.2 1563.35 5
-3 -2 -2 52477.7 1531.57 3
3 -2 3 13209.4 890.645 27
-3 -2 -3 11797.6 720.195 3
-3 -2 -3 12238.1 712.219 5
3 -2 3 11708.5 628.09 28
3 -2 4 5932.96 578.006 31
-3 -2 -4 7113.56 611.292 3
3 -2 4 5760.18 640.853 27
3 -2 4 6771.03 503.302 28
-3 -2 -4 6504.69 583.561 5
3 -2 5 4296.07 625.745 27
3 -2 5 4302.15 536.657 31
-3 -2 -5 4586.62 532.809 5
-3 -2 -5 4907.02 560.046 3
3 -2 6 46621.4 1406.03 25
3 -2 6 43310.5 1307.19 13
3 -2 6 42826.9 1344.25 26
-3 -2 -6 40851.1 1238.47 19
-3 -2 -6 44310 1910.18 5
-3 -2 -6 43600.8 1881.17 3
3 -2 6 44521 2164.5 27
3 -2 6 38089.1 1812.45 31
3 -2 7 8393.31 569.446 26
-3 -2 -7 8222.86 840.893 3
-3 -2 -7 8692.74 524.904 19
3 -2 7 7547.57 846.862 31
-3 -2 -7 9085.1 872.941 5
3 -2 7 9427.21 621.115 9
3 -2 7 9987.76 1068.64 27
3 -2 7 9452.25 589.818 13
3 -2 7 10010.5 637.918 25
3 -2 8 26306.2 1026 22
3 -2 8 30506.3 1173.47 9
3 -2 8 26870.9 1074.21 26
3 -2 8 28874.4 1100.88 13
3 -2 8 29173.1 1144.13 25
3 -2 9 1351.17 221.145 26
3 -2 9 1287.27 224.541 25
3 -2 9 1300.14 208.401 22
3 -2 9 1299.12 223.502 9
3 -2 10 7075.95 441.873 9
3 -2 10 6062.28 393.893 26
3 -2 10 7000.68 465.56 25
3 -2 11 3075.07 219.164 9
3 -2 11 3599.22 269.223 25
-3 -1 12 4131.4 254.381 21
-3 -1 12 5103.41 325.399 15
-3 -1 12 4822.22 319.456 26
-3 -1 11 6856.21 412.293 20
-3 -1 11 7055.52 478.22 26
-3 -1 11 7569.07 476.755 15
-3 -1 11 6685.26 412.189 21
-3 -1 10 29612 1036.13 21
-3 -1 10 32151.2 1072.38 20
-3 -1 10 29363.7 939.95 16
-3 -1 10 30051.8 1105.16 15
-3 -1 10 31041.2 1155.55 26
-3 -1 9 15840.2 745.285 21
-3 -1 9 15614 743.538 6
-3 -1 9 15897.1 743.532 20
-3 -1 9 16145.5 797.17 15
-3 -1 9 16144 857.342 18
-3 -1 9 14987.7 768.325 10
-3 -1 9 14756.8 676.108 16
-3 -1 9 15618.6 802.55 26
-3 -1 8 40148.9 1235.71 6
-3 -1 8 38463.4 1226.08 21
-3 -1 8 39221.6 1215.9 20
-3 -1 8 38469.8 1983.85 2
-3 -1 8 38911.3 1371.64 18
-3 -1 8 37993.4 1261.86 10
-3 -1 8 37607.1 1159.56 16
-3 -1 8 40772.6 1326.42 26
-3 -1 8 37415.9 1810.08 31
-3 -1 8 40543.9 1298.74 15
-3 -1 7 12398.5 997.754 2
-3 -1 7 11621 577.205 6
-3 -1 7 10900 576.783 21
-3 -1 7 11733.9 584.76 20
-3 -1 7 11038.6 592.213 10
-3 -1 7 11637.9 662.995 18
-3 -1 7 10749.7 866.196 31
-3 -1 7 10991.6 550.32 16
-3 -1 7 11515.7 612.491 15
-3 -1 7 10922.8 602.353 26
-3 -1 6 4848.8 564.853 2
-3 -1 6 4587.72 511.361 31
3 -1 -6 3658.53 403.919 28
3 -1 -6 4145.8 441.501 30
3 -1 -5 58407.7 1683.14 30
-3 -1 5 54075.4 1871.98 2
-3 -1 5 56732.9 1785.47 31
-3 -1 4 29025.6 1096.43 31
-3 -1 4 29893.1 1201.67 2
3 -1 -4 29765.4 1026.35 30
3 -1 -4 29354.2 1068.96 28
-3 -1 3 26196 946.804 31
-3 -1 3 28018.2 1049.99 2
3 -1 -3 26191.9 868.53 30
3 -1 -3 26926.1 960.095 28
3 -1 -2 19567.3 767.127 28
3 -1 -2 20923.5 709.794 30
3 -1 -1 3790.74 266.899 30
-3 -1 1 3716.26 142.305 5
-3 -1 1 3396.56 201.458 3
-3 -1 1 4360.1 332.218 2
3 -1 -1 3722.16 301.397 28
-3 -1 0 44581 1091.57 1
-3 -1 0 47177.9 1003.18 5
-3 -1 0 46059.4 1121.96 3
3 -1 0 47016.6 1172.24 30
3 -1 0 46379 1231.55 28
3 -1 1 10185.9 516.695 28
-3 -1 -1 8996.31 381.178 1
-3 -1 -1 9901.85 467.842 5
-3 -1 -1 10638.6 543.538 3
3 -1 1 10275.9 520.131 30
3 -1 2 2746.37 179.732 32
3 -1 2 3251.72 308.051 28
-3 -1 -2 2950.16 298.798 5
-3 -1 -2 3446.19 347.512 3
3 -1 3 68905.5 1789.02 28
-3 -1 -3 72109.3 1949.18 5
-3 -1 -3 73701.5 2006.58 3
3 -1 4 77314.5 2387.72 31
-3 -1 -4 84001.2 2381.28 3
-3 -1 -4 75458.4 2265.18 5
3 -1 4 78318.2 2079.03 28
3 -1 5 27255.7 1582.02 27
3 -1 5 23528.2 1281.48 31
-3 -1 -5 27369.8 1367.82 5
-3 -1 -5 26955.6 1354.08 3
3 -1 6 1476.93 217.414 13
-3 -1 -6 1282.54 336.211 3
-3 -1 -6 1519.11 212.903 19
3 -1 6 1255.73 332.489 31
-3 -1 -6 1508.95 334.253 5
3 -1 6 1853.48 501.654 27
3 -1 6 1785.67 241.929 26
3 -1 6 1645.01 242.089 25
3 -1 7 1154.68 225.505 25
-3 -1 -7 1599.75 380.897 3
3 -1 7 1183.76 221.971 9
3 -1 7 886.691 176.115 21
3 -1 7 1182.44 205.53 26
-3 -1 -7 721.534 160.236 19
3 -1 7 873.829 320.764 31
-3 -1 -7 989.204 299.618 5
3 -1 7 935.128 335.699 27
3 -1 7 1188.55 210.347 13
3 -1 8 11555.7 657.307 22
3 -1 8 12534.6 639.805 21
3 -1 8 14180.4 766.982 9
-3 -1 -8 12602.7 646.589 19
3 -1 8 12116.9 671.489 26
3 -1 8 12924.4 697.068 13
3 -1 8 13063.6 744.352 25
3 -1 9 1774.05 237.925 26
3 -1 9 1488.11 202.099 21
3 -1 9 2062.24 279.407 9
3 -1 9 2237.28 293.677 25
3 -1 9 1589.62 227.317 22
3 -1 10 1163.63 181.488 9
3 -1 10 953.878 155.69 22
3 -1 10 1116.53 198.089 25
3 -1 10 1056.07 158.736 26
3 -1 11 1786.77 174.949 9
3 -1 11 1849.01 197.038 25
-3 0 12 1568.16 181.247 15
-3 0 12 1361.95 155.565 21
-3 0 12 1669.97 190.66 26
-3 0 11 3574.63 310.573 21
-3 0 11 4416.08 369.341 26
-3 0 11 4284.95 351.32 15
-3 0 11 3353.56 261.328 16
-3 0 10 6662.16 472.006 21
-3 0 10 6605.1 449.401 20
-3 0 10 6063.36 413.508 16
-3 0 10 6560.01 481.387 15
-3 0 10 6214.35 483.596 26
-3 0 9 161.448 88.7502 16
-3 0 9 184.912 104.017 21
-3 0 9 240.751 133.843 15
-3 0 9 122.485 81.6642 20
-3 0 9 317.153 139.036 18
-3 0 9 397.395 139.559 10
-3 0 9 271.791 124.659 26
-3 0 8 6272.06 462.55 21
-3 0 8 5513.35 743.645 2
-3 0 8 5631.06 418.99 20
-3 0 8 6236.66 469.022 15
-3 0 8 5697.71 484.81 18
-3 0 8 6507.59 485.275 26
-3 0 8 6220.77 437.217 16
-3 0 8 5789.08 439.83 10
-3 0 8 4414.93 590.215 31
-3 0 8 5702.44 414.022 6
-3 0 7 3339.71 514.442 2
-3 0 7 3337.57 322.446 15
-3 0 7 3102.57 296.016 20
-3 0 7 3008.89 303.159 21
-3 0 7 3242.81 349.906 18
-3 0 7 2877.68 439.332 31
3 0 -7 3540.78 510.67 29
-3 0 7 3208.8 298.202 16
-3 0 7 3477.5 329.823 26
-3 0 6 -30.8021 77.7057 2
3 0 -6 225.473 93.1499 28
3 0 -5 350.237 122.294 28
-3 0 5 314.813 157.487 31
-3 0 5 18.2022 101.429 2
3 0 -5 124.655 78.8597 30
3 0 -4 36430.3 1057.16 30
-3 0 4 36778.7 1365.3 2
-3 0 4 35265 1223.32 31
3 0 -4 35455.9 1145.78 28
-3 0 3 2546.1 274.887 31
-3 0 3 2583.33 317.73 2
3 0 -3 2588.06 217.397 30
3 0 -3 3126.75 286.539 28
-3 0 2 2829.41 292.009 2
3 0 -2 3110.94 212.99 30
3 0 -1 9532.31 394.647 30
3 0 -1 10482.5 498.953 28
-3 0 1 10036.5 348.182 3
-3 0 0 8766.99 416.723 3
3 0 0 8577.02 404.705 30
-3 0 0 8225.9 332.673 5
3 0 1 9331.4 499.499 28
-3 0 -1 8932.14 496.672 3
3 0 2 3538.09 255.006 32
3 0 2 3262.04 197.13 29
3 0 2 3886.32 334.914 28
-3 0 -2 3800.51 362.576 3
3 0 3 2263.27 309.996 31
3 0 3 2204.77 283.155 28
3 0 3 2217.12 224.343 32
-3 0 -3 2040.72 303.457 3
-3 0 -4 32389.5 1373.17 3
3 0 4 31681.1 1332.5 31
3 0 4 28066.7 1151.38 28
3 0 4 27234 946.28 32
-3 0 -4 28945.7 1289.26 5
-3 0 -5 3870.22 527.396 3
3 0 5 4592.21 656.1 27
3 0 5 4019.14 502.19 31
-3 0 -5 3448.58 478.689 5
3 0 6 448.984 116.002 13
3 0 6 485.903 136.986 25
-3 0 -6 326.764 158.55 3
3 0 6 481.893 156.272 9
3 0 6 595.116 135.262 26
3 0 6 743.159 307.207 27
-3 0 -6 538.199 135.989 19
3 0 6 474.261 183.322 31
-3 0 -6 -91.5129 138.468 5
3 0 7 17954.2 1515.44 27
3 0 7 17715.2 816.115 22
3 0 7 18105.5 824.317 21
-3 0 -7 17994.4 819.663 19
3 0 7 17335.7 1212.42 31
-3 0 -7 17932.3 1335.85 5
-3 0 -7 17686.6 1288.62 3
3 0 7 19355.2 891.817 9
3 0 7 18365.7 804.077 26
3 0 7 18022.4 827.795 13
3 0 7 19509.6 898.963 25
3 0 8 88.2877 111.889 25
3 0 8 37.7648 76.5286 22
3 0 8 72.6192 76.851 21
-3 0 -8 75.8093 76.2515 19
3 0 8 -19.4181 85.9866 9
3 0 8 4.88852 64.7694 26
3 0 9 767.113 181.314 25
3 0 9 568.509 143.604 22
3 0 9 805.146 166.583 21
3 0 9 538.862 157.559 9
3 0 9 812.582 162.748 26
3 0 10 715.476 158.354 25
3 0 10 603.367 128.84 22
3 0 10 797.284 140.748 21
3 0 10 745.612 149.401 9
3 0 10 448.375 105.99 26
3 0 11 3810.3 260.615 9
3 0 11 3769.03 277.24 25
-3 1 12 4115.68 276.846 21
-3 1 12 3868.93 279.56 15
-3 1 12 3984.77 288.686 26
-3 1 11 7939.8 475.256 15
-3 1 11 7654.76 484.115 26
-3 1 11 6499.7 385.363 16
-3 1 11 7631.54 465.753 21
-3 1 10 31176.5 1124.37 26
-3 1 10 30728.3 1104.63 21
-3 1 10 32803.4 1048.52 20
-3 1 10 29635 1092.32 15
-3 1 10 29748.7 1017.82 16
-3 1 9 15950 727.125 20
-3 1 9 14297.3 776.533 18
-3 1 9 15256.6 776.134 26
-3 1 9 14362 708.497 16
-3 1 9 14889.3 756.754 21
-3 1 9 16364.8 789.016 15
-3 1 8 39482 1211.61 20
-3 1 8 41809.8 1315.31 26
-3 1 8 39799.9 2040.33 2
-3 1 8 41704.5 1307.27 15
-3 1 8 39785.3 1351.15 18
-3 1 8 35729 1180.81 10
-3 1 8 35994.7 1740.13 31
-3 1 8 37126.9 1209.04 16
-3 1 8 42014 1323.26 21
-3 1 7 12245.8 628.85 26
-3 1 7 12689.3 1030.54 2
-3 1 7 11914 624.933 21
-3 1 7 11637.2 587.191 20
-3 1 7 11748 614.388 15
-3 1 7 12321.7 676.179 18
3 1 -7 13021.5 965.16 29
-3 1 7 11308.1 860.841 31
-3 1 7 11591.3 591.431 16
-3 1 6 4064.58 521.782 2
-3 1 6 3895.53 464.727 31
3 1 -6 4139.64 520.236 29
-3 1 5 62691 1854.83 31
3 1 -5 59924.5 1576.15 28
-3 1 4 30756.3 1134.15 31
-3 1 4 32278.8 1274.44 2
3 1 -4 31501 855.205 30
3 1 -4 30573.2 993.725 28
-3 1 3 25744.2 1020 2
3 1 -3 26175.5 638.636 30
3 1 -2 19713.8 508.435 30
-3 1 2 21826.7 856.399 2
3 1 -2 20440 716.179 28
-3 1 1 4864.09 365.233 2
3 1 -1 4491.81 234.252 30
3 1 -1 4937.04 331.816 28
-3 1 1 4565.77 237.938 3
3 1 0 48124.8 1247.04 28
-3 1 -1 11268.5 578.911 4
3 1 1 11004.1 545.061 28
-3 1 -2 4270.92 387.304 3
3 1 2 4455.57 367.389 28
3 1 2 4067.18 250.252 29
-3 1 -2 4635.08 376.729 4
3 1 3 72418.6 1877.31 28
-3 1 -3 68047.8 1807.89 4
3 1 3 73589 1957.52 31
3 1 3 68698.8 1705.36 32
-3 1 -3 66330.2 1966.52 3
3 1 4 81566.2 2263.55 31
-3 1 -4 83599.7 2084.11 4
3 1 4 80474.5 2205.59 28
3 1 4 76780.3 1983.97 32
-3 1 -4 83529.7 2450.01 3
3 1 4 85677 2871.13 27
3 1 5 27480.2 1130.02 32
-3 1 -5 30101.2 1505.14 3
3 1 5 26913.3 1282.33 31
3 1 5 31224.6 1760.14 27
-3 1 -6 2460.35 453.56 3
3 1 6 2016.03 255.802 22
3 1 6 1738.06 339.239 31
-3 1 -6 1904.63 408.878 5
3 1 6 1883.83 255.071 9
3 1 6 1415.79 418.765 27
3 1 6 1789.91 234.055 13
3 1 6 2052.47 271.442 25
3 1 7 779.14 182.039 25
3 1 7 830.138 188.746 22
3 1 7 425.089 142.383 21
3 1 7 730.525 184.747 9
-3 1 -7 158.854 128.865 5
-3 1 -7 385.3 127.44 19
3 1 7 735.386 223.238 31
-3 1 -7 162.983 153.049 3
3 1 7 263.763 273.442 27
3 1 7 601.479 144.869 26
3 1 8 12803.4 692.322 22
3 1 8 13878.5 736.841 21
3 1 8 11315 600.962 16
3 1 8 12817 638.53 26
3 1 8 14037.2 747.926 9
-3 1 -8 14134.6 731.263 19
3 1 8 13879.3 756.877 25
3 1 9 2352.73 276.272 22
3 1 9 1780.09 251.239 21
-3 1 -9 1967.18 241.201 19
3 1 9 2053.75 282.129 25
3 1 9 2483.17 292.546 9
3 1 9 1966.56 227.048 26
3 1 10 1076.59 167.68 22
3 1 10 1090.48 164.034 21
3 1 10 1213.13 198.524 25
3 1 10 1211.23 186.325 9
3 1 11 1266.56 126.258 21
3 1 11 1698.08 185.558 25
-3 2 12 4925.37 307.016 26
-3 2 12 4671.31 300.243 21
-3 2 11 3791.58 335.869 21
-3 2 11 3517.49 309.325 15
-3 2 11 2927.89 264.814 16
-3 2 11 3529.15 313.63 26
-3 2 10 7587.85 469.143 20
-3 2 10 7990.36 542.404 21
-3 2 10 7973.66 526.106 15
-3 2 10 7601.4 491.987 16
-3 2 10 8011.04 534.866 26
-3 2 9 1170.95 216.841 15
-3 2 9 796.118 186.848 21
-3 2 9 1076.1 188.616 20
-3 2 9 1087.43 203.359 18
-3 2 9 1098.18 201.687 16
-3 2 9 1421.53 233.497 26
-3 2 8 10414.1 605.957 15
-3 2 8 9828.25 584.733 16
-3 2 8 9599.56 549.68 20
-3 2 8 8750.18 931.448 2
-3 2 8 10381.5 603.333 26
-3 2 8 9138.59 581.512 18
-3 2 8 9218.44 822.229 31
-3 2 8 8915.58 586.004 21
-3 2 7 50686 1935.19 31
-3 2 7 55914.6 2271.46 2
-3 2 7 54555.5 1518.09 21
-3 2 7 54047.2 1443.89 20
-3 2 7 55007 1492.56 15
-3 2 7 51307.5 1493.93 18
-3 2 7 56137.5 1505.41 26
-3 2 7 53141.1 1468.48 16
3 2 -7 57227.2 2156.53 29
3 2 -6 15255.4 1020.93 29
-3 2 6 14891.8 1019.14 2
-3 2 6 14870.9 901.228 31
3 2 -6 14374.3 976.609 4
3 2 -5 117571 3042.66 29
-3 2 5 112065 2715.5 31
-3 2 4 70418.7 1852.66 31
-3 2 4 67742.9 1985.91 2
3 2 -4 69338.8 1588.72 28
-3 2 3 26424.2 1031.34 2
3 2 -3 23779.3 778.036 28
-3 2 2 66330.8 1659.34 2
3 2 -2 57466.5 1383.44 28
3 2 -1 5111.8 386.075 29
-3 2 1 6020.28 409.449 2
3 2 -1 5695.36 358.655 28
3 2 0 8125.61 454.116 28
3 2 0 7829.36 465.465 29
-3 2 0 8416.09 506.731 4
3 2 1 41998.6 1214.4 28
3 2 1 39751.3 1122.94 29
-3 2 -1 41466.5 1265.26 4
3 2 2 56619 1554.53 28
3 2 2 54139.2 1314.77 29
-3 2 -2 57864 1596.65 4
3 2 3 10668.1 650.37 28
3 2 3 10443.1 617.076 32
3 2 3 10641.4 629.749 31
-3 2 -3 11455.7 667.39 4
3 2 3 10283 849.313 27
-3 2 -4 7306.28 656.056 3
-3 2 -4 6154.57 507.21 4
3 2 4 6155.02 500.86 32
3 2 4 6483.15 525.597 31
3 2 4 6231.56 545.922 28
3 2 4 5799.45 698.94 27
3 2 5 4886.92 503.376 31
3 2 5 4497.32 468.13 32
-3 2 -5 4849.1 468.634 4
3 2 5 3793.99 644.823 27
-3 2 -5 5641.34 645.491 3
3 2 6 39078.2 1662.2 31
3 2 6 40565.6 1289.03 22
3 2 6 45322.5 1365.22 9
3 2 6 46624.7 2391.98 27
-3 2 -6 43460.2 2055.52 3
3 2 6 44579.5 1380.65 25
3 2 7 8343.31 553.993 22
-3 2 -7 8156.59 936.007 5
3 2 7 8799.01 579.91 9
3 2 7 7968.46 580.173 21
3 2 7 7023.44 770.619 31
-3 2 -7 8893.62 940.63 3
3 2 7 8197.84 575.308 25
3 2 7 8573.22 1057.55 27
3 2 8 28062.9 1067.93 22
3 2 8 27842.1 1117.15 21
3 2 8 27050 1017.56 16
-3 2 -8 27579.5 1076.5 19
3 2 8 29690.7 1112.33 9
3 2 8 27980.5 1104.23 25
3 2 9 1469.42 226.659 22
3 2 9 1169.89 209.302 21
-3 2 -9 1594.65 225.343 19
3 2 9 1282 194.211 16
3 2 9 1480.73 228.301 9
3 2 9 1411.6 228.339 25
3 2 10 6771.21 430.229 9
3 2 10 6663.21 417.481 21
3 2 10 6778.65 449.901 25
3 2 11 2940.78 203.868 21
-3 3 12 4192.14 281.548 21
-3 3 12 3409.58 219.082 16
-3 3 12 4251.48 268.848 26
-3 3 11 603.514 150.181 21
-3 3 11 546.895 124.28 16
-3 3 11 592.298 138.999 15
-3 3 11 439.843 117.282 26
-3 3 10 54754.4 1540.59 15
-3 3 10 52890.6 1570.02 21
-3 3 10 52867.3 1396.05 20
-3 3 10 56080.1 1541.65 26
-3 3 10 53574.1 1501.67 16
-3 3 9 1345.69 237.082 21
-3 3 9 1459.13 210.377 20
-3 3 9 1399.57 227.984 26
-3 3 9 1420.88 235.032 16
-3 3 9 1350.95 227.968 15
-3 3 8 1155.79 295.773 31
-3 3 8 1383.62 244.135 21
-3 3 8 1281.98 196.08 12
-3 3 8 1541.71 227.348 20
-3 3 8 1849.29 262.102 16
-3 3 8 1911.5 258.257 26
-3 3 8 1985.7 267.899 15
-3 3 7 6539.46 727.209 2
-3 3 7 5686.51 408.065 12
-3 3 7 5965.07 426.099 20
-3 3 7 6458.73 448.883 15
-3 3 7 5523.35 592.898 31
-3 3 7 6470.17 457.66 16
3 3 -7 5631.78 648.76 29
-3 3 7 6418.2 449.455 26
-3 3 7 7073.49 495.121 21
-3 3 6 1392.73 282.147 31
-3 3 6 1515.77 313.726 2
3 3 -6 1713.52 350.518 29
3 3 -6 1480.03 318.271 4
3 3 -5 3060.24 433.32 4
-3 3 5 3117.35 367.95 31
3 3 -5 3753.42 482.182 29
-3 3 5 3089.23 398.766 2
3 3 -4 23506.2 739.156 28
-3 3 4 24675.9 1085.78 2
3 3 -4 25642.2 1179.61 29
3 3 -3 43928.6 1502.62 29
3 3 -3 41523.5 1078.95 28
3 3 -2 3908.98 285.634 28
-3 3 2 4776.5 391.608 2
3 3 -2 4465.1 406.571 29
-3 3 1 279394 4802.86 2
3 3 -1 266136 4917.67 29
3 3 -1 269962 4640.8 28
-3 3 0 51845.8 1464.67 4
3 3 0 50831 1433.88 29
3 3 0 50056.8 1340.16 28
3 3 1 173539 3310.54 29
3 3 1 174554 3362.92 28
-3 3 -1 171925 3474.42 4
3 3 2 201234 3868.29 28
3 3 2 192790 3586.52 29
-3 3 -2 193839 3913.02 4
3 3 3 35358.6 1161.65 31
3 3 3 33518.9 1260.05 32
3 3 3 34226.3 1288.18 28
3 3 3 39276 1714.03 27
-3 3 -3 38442.3 1382.03 4
3 3 4 174289 3622.78 31
-3 3 -4 178522 3870.05 4
3 3 4 173054 3794.97 32
-3 3 -5 1353.43 343.849 3
-3 3 -5 700.946 200.767 4
3 3 5 1047.8 241.167 32
3 3 5 718.595 182.342 31
3 3 5 1160.01 330.461 27
-3 3 -6 15432.2 1205.52 3
3 3 6 13134.7 923.962 32
3 3 6 14321.2 708.627 22
3 3 6 14479.8 710.349 9
3 3 6 13135.1 884.334 31
3 3 6 14430.7 1270.75 27
3 3 6 15191.1 764.03 25
3 3 7 12474.8 688.396 22
3 3 7 12149.6 748.417 21
-3 3 -7 11504.1 1093.68 5
3 3 7 13367.4 708.744 9
3 3 7 12546.6 1253.16 27
-3 3 -7 12320.3 1135.45 3
3 3 7 12374.2 712.921 25
3 3 8 4055.42 387.568 22
3 3 8 5208.52 472.826 21
3 3 8 4323.89 404.826 16
3 3 8 4340.98 405.01 9
3 3 8 4165.47 418.083 25
3 3 9 20209.9 831.506 22
3 3 9 20672.7 899.117 21
-3 3 -9 19834.4 839.787 19
3 3 9 17432.6 760.773 16
3 3 9 20410.1 861.579 9
3 3 9 19478.3 859.696 25
3 3 10 1255.83 193.236 25
3 3 10 1041.07 168.81 21
3 3 10 1400.2 196.494 9
3 3 10 944.428 137.111 16
3 3 11 349.032 74.5434 21
-3 4 12 3710.7 258.9 21
-3 4 12 3303.3 217.825 16
-3 4 11 13392.1 604.177 16
-3 4 11 13713.6 646.323 21
-3 4 11 14832.3 622.407 26
-3 4 10 1875.16 273.993 21
-3 4 10 2183.1 263.288 26
-3 4 10 2209.39 274.846 16
-3 4 10 2124.23 271.602 15
-3 4 9 21633.8 985.821 21
-3 4 9 22970.9 885.333 20
-3 4 9 25673.7 988.467 15
-3 4 9 21694.6 874.896 12
-3 4 9 23727 956.325 26
-3 4 9 23040.2 981 16
-3 4 8 4638.09 435.554 21
-3 4 8 4618.29 398.401 12
-3 4 8 4494.09 376.365 20
-3 4 8 4862.73 403.758 26
-3 4 8 4348.72 418.839 16
-3 4 8 5173.21 424.43 15
-3 4 7 61001.4 1597.93 15
-3 4 7 57206.3 1623.98 21
-3 4 7 53827.4 2176.65 2
-3 4 7 55827.5 1547.93 12
-3 4 7 54864.1 1527.91 20
-3 4 7 56435.2 1986.97 31
-3 4 7 58409.5 1622.55 16
-3 4 7 60278 1580.93 26
-3 4 6 9588.66 778.755 2
3 4 -6 7933.94 787.815 4
-3 4 6 9212.52 688.966 31
3 4 -6 9760.22 854.881 29
-3 4 5 27990.5 1256.24 2
3 4 -5 27062.5 1423.11 4
3 4 -5 29743.9 1431.59 29
3 4 -4 77668.6 2303.33 29
-3 4 4 72644.7 2043.14 2
3 4 -3 3309.35 251.131 28
-3 4 3 3222.49 338.662 2
3 4 -3 3236.58 393.196 29
-3 4 2 103578 2240.91 2
3 4 -2 92964.7 2407.86 29
3 4 -2 95200.1 1991.1 28
-3 4 2 108072 2326.14 4
3 4 -1 28309.5 918.49 28
-3 4 1 29396.4 971.671 2
3 4 -1 29782.1 1138.64 29
-3 4 1 31756.7 1110.44 4
-3 4 0 28516.6 954.893 2
3 4 0 30817.1 1140.54 29
3 4 0 29844.3 999.275 28
-3 4 0 29666 1122.95 4
3 4 1 166272 3278.79 28
-3 4 -1 166991 3459.58 4
3 4 2 94663.6 1999.06 31
3 4 2 92012.4 2206.48 29
3 4 2 101858 2419.59 28
-3 4 -2 102446 2545.49 4
3 4 3 5188.36 508.907 32
3 4 3 5735.98 408.687 31
3 4 3 6127.58 540.678 28
-3 4 -3 5908.14 546.758 4
3 4 4 31258.5 1367.42 32
3 4 4 30994.1 1132.36 31
3 4 4 30715.8 1603.16 27
-3 4 -4 31290.5 1385.76 4
-3 4 -5 8770.79 839.533 3
3 4 5 7811.14 492.859 22
3 4 5 7139 674.559 32
3 4 5 8289.26 498.505 9
3 4 5 7936.9 872.313 27
-3 4 -5 8237.26 724.458 4
3 4 5 9418.57 577.295 25
-3 4 -6 3488.85 347.162 24
3 4 6 4164.4 386.516 22
-3 4 -6 4318.15 652.747 3
3 4 6 3819.31 360.082 9
3 4 6 3628.17 503.59 32
3 4 6 3690.46 626.655 27
3 4 6 4349.92 415.527 25
3 4 7 10110.8 620.375 22
3 4 7 9720.76 681.999 21
3 4 7 10535.4 647.458 25
3 4 7 9839.35 610.206 9
-3 4 -7 8348.87 937.526 3
3 4 8 9464.62 600.047 9
3 4 8 8393.43 561.32 22
3 4 8 8986.95 633.126 21
3 4 8 8229.85 574.131 25
3 4 8 8271.13 588.032 16
3 4 9 1415.25 217.052 22
3 4 9 1464.39 224.558 9
3 4 9 1578.65 249.153 21
-3 4 -9 1608.08 232.72 19
3 4 9 1386.3 217.017 16
3 4 9 1525.05 237.771 25
3 4 10 5523.9 336.547 16
3 4 10 4884.36 310.369 12
-3 4 -10 5447.9 329.022 19
3 4 11 3966.13 236.043 21
-3 5 12 3836.72 238.255 21
-3 5 12 3502.19 218.351 16
-3 5 11 3809.22 310.438 16
-3 5 11 4158.27 301.148 26
-3 5 11 3498.01 302.827 21
-3 5 10 335.144 125.86 21
-3 5 10 97.3227 73.7911 12
-3 5 10 198.173 106.379 16
-3 5 10 245.608 100.494 26
-3 5 9 968.949 208.372 21
-3 5 9 698.734 160.068 12
-3 5 9 825.975 168.719 20
-3 5 9 789.753 186.522 16
-3 5 9 1115.12 209.329 15
-3 5 9 888.094 178.178 26
-3 5 8 5309.29 429.859 15
-3 5 8 4641.91 433.256 21
-3 5 8 4559.47 409.474 12
-3 5 8 4561.68 388.137 20
-3 5 8 4889.62 453.112 16
-3 5 8 5425.32 429.746 26
3 5 -7 4628.32 629.522 4
-3 5 7 5649.94 451.7 21
-3 5 7 5177.93 432.855 12
-3 5 7 5480.39 631.744 2
-3 5 7 5325.53 422.151 20
-3 5 7 5600.28 434.843 15
-3 5 7 6497.56 495.126 16
-3 5 7 6524.01 458.91 26
-3 5 6 23265.8 930.23 16
-3 5 6 23524.6 1235.81 2
-3 5 6 21347.4 873.344 21
-3 5 6 22457.8 909.96 12
-3 5 6 22911.5 906.628 20
3 5 -6 21899.1 1387.12 4
-3 5 6 25207.3 933.196 15
-3 5 6 25644.4 913.328 26
3 5 -6 25255.1 1438.57 29
3 5 -5 49711.9 2067.89 4
-3 5 5 48976.6 1719.6 2
3 5 -5 51759.3 2005.16 29
3 5 -4 11743.2 844.872 29
3 5 -4 10446.7 867.34 4
-3 5 4 10295.3 666.288 2
3 5 -3 29487.1 1294.06 29
-3 5 3 27065.3 1028.83 2
3 5 -2 72945.8 2125.09 29
3 5 -2 71809.5 1647.63 28
-3 5 2 71648.7 1764.3 2
-3 5 1 11241.4 571.203 2
3 5 -1 11538.7 572.078 28
-3 5 1 12249.9 707.397 4
3 5 -1 12156.2 754.844 29
3 5 0 21694.6 862.767 28
-3 5 0 19817.2 754.77 2
3 5 0 21192.9 998.445 29
-3 5 0 22150.7 1015.68 4
3 5 1 81438.1 2133.56 29
3 5 1 83844.1 2096.28 28
-3 5 -1 79975.6 2268.34 4
3 5 2 34952.4 1247.46 29
3 5 2 38428.1 1374.71 28
-3 5 -2 38070.9 1494.77 4
3 5 3 107605 2895.22 32
-3 5 -3 113699 2980.44 4
3 5 4 28123.6 1392.2 32
3 5 4 24957 1420.68 27
-3 5 -4 29399.7 1439.18 4
-3 5 -5 31227.7 1144.87 24
3 5 5 32901.9 1107.36 22
3 5 5 32496.5 1098.12 9
3 5 5 31906.2 1574.37 32
3 5 5 31097.3 1706.03 27
-3 5 -5 31117.7 1542.96 4
3 5 5 34095.7 1204.24 25
-3 5 -6 19986.1 1446.25 3
3 5 6 21407 1338.25 32
3 5 6 23083.5 940.819 9
3 5 6 23779 969.028 22
3 5 6 24623 1026.81 25
-3 5 -6 20997.8 932.776 24
3 5 6 23716 1569.64 27
3 5 7 62869.7 1775.08 22
3 5 7 62700.9 1883.88 21
3 5 7 63231.5 1807.2 25
3 5 7 60845 1731.5 9
3 5 8 8735.65 613.85 16
3 5 8 7352.23 529.735 22
3 5 8 8306.21 603.519 21
3 5 8 8426.62 560.692 9
3 5 8 7774.84 548.103 25
3 5 9 13830.5 711.259 21
-3 5 -9 12642.2 657.837 19
3 5 9 12056.5 638.638 25
3 5 9 12184.3 651.836 16
-3 5 -10 6301.78 350.887 19
3 5 10 6718.66 378.96 16
3 5 10 5956.72 345.063 12
-3 6 11 1862.45 205.234 21
-3 6 11 2099.22 225.296 16
-3 6 10 7700.67 494.476 21
-3 6 10 8158.51 471.964 26
-3 6 10 7073.96 495.833 16
-3 6 9 6604.73 496.046 21
-3 6 9 6594.69 484.135 12
-3 6 9 7514.11 468.314 20
-3 6 9 7101.53 538.331 16
-3 6 9 7551.49 496.142 26
-3 6 8 12001.1 693.534 12
-3 6 8 11340.2 628.479 20
-3 6 8 11993.6 649.752 26
-3 6 8 11484.4 700.625 16
-3 6 8 11094.9 658.87 21
-3 6 7 1901.52 276.056 16
-3 6 7 2594.12 302.317 21
-3 6 7 1682.19 263.526 12
3 6 -7 1837.14 428.765 4
-3 6 7 2071.92 269.015 20
-3 6 7 2619.96 300.135 26
-3 6 7 2395.25 297.088 15
-3 6 6 10275 610.011 16
-3 6 6 12803.5 639.899 26
3 6 -6 9547.27 946.237 4
-3 6 6 10168.1 575.757 21
-3 6 6 10490.5 625.151 12
-3 6 6 10632 620.68 20
3 6 -6 9586.48 899.457 29
-3 6 5 5655.73 532.398 2
3 6 -5 4384.6 626.736 4
3 6 -5 6089.4 688.528 29
3 6 -4 8822.36 837.667 4
3 6 -4 8600.94 770.402 29
-3 6 4 7476.51 552.908 2
3 6 -3 413.588 198.828 29
-3 6 3 348.394 122.021 2
-3 6 2 996.818 219.052 4
-3 6 2 695.043 141.974 2
3 6 -2 809.622 229.468 29
3 6 -2 1079.18 163.015 28
3 6 -1 24439.6 901.999 28
-3 6 1 20966.7 772.597 2
3 6 -1 24749.1 1181.02 29
-3 6 1 22921.1 1065.71 4
-3 6 0 28514.6 923.25 2
-3 6 0 33298.7 1298.51 29
3 6 0 30163.1 1297.26 29
3 6 0 33372.9 1157.13 28
-3 6 0 31825.7 1336.08 4
-3 6 -1 3258.67 293.234 2
3 6 1 4032.15 414.215 28
3 6 1 3359.2 408.011 29
-3 6 -1 3624.84 395.9 29
-3 6 -1 3851.02 461.879 4
3 6 2 58359.5 1810.71 29
-3 6 -2 67229.5 2200.43 4
3 6 3 20440.5 1213.82 32
-3 6 -3 20918.1 1232.54 4
3 6 3 18595.1 1083.78 27
-3 6 -4 11723.9 677.482 24
3 6 4 11795.9 626.793 22
3 6 4 12067.1 680.131 25
3 6 4 12291.2 633.545 9
-3 6 -4 11192.8 933.314 4
3 6 4 11007.9 932.607 32
3 6 4 10994.6 889.07 27
3 6 5 10842.3 617.406 22
3 6 5 11721.7 687.955 25
3 6 5 10741.7 955.543 32
-3 6 -5 10103.8 909.165 4
3 6 5 11118.5 620.561 9
3 6 5 9149.15 886.468 27
-3 6 -5 9924.58 635.906 24
-3 6 -6 5448.23 467.397 24
3 6 6 5308.29 441.712 9
3 6 6 5214.86 444.291 22
-3 6 -6 3849.22 645.054 3
3 6 6 4552.38 665.252 32
3 6 6 5611.06 482.231 25
-3 6 -7 17059.2 827.022 24
3 6 7 19793.5 952.691 21
3 6 7 19807.7 918.366 25
3 6 7 19265.6 877.966 9
3 6 7 20157.7 910.63 22
3 6 8 1904.56 273.161 21
3 6 8 1804.01 285.613 16
3 6 9 5476.7 420.713 21
-3 6 -9 5346.04 416.586 19
3 6 9 5307.47 417.226 16
3 6 10 7482.43 378.913 12
-3 6 -10 7575.75 369.937 19
-3 7 11 5653.76 336.519 16
-3 7 11 5236.11 296.736 21
-3 7 10 1032.27 164.82 21
-3 7 10 895.728 160.816 12
-3 7 10 1108.6 186.086 16
-3 7 9 17293.7 765.388 21
-3 7 9 16823.5 789.447 12
-3 7 9 16693 816.801 16
-3 7 8 1317.78 225.726 21
-3 7 8 1435.99 254.508 12
-3 7 8 1392.12 222.392 20
-3 7 8 1434.49 226.712 26
-3 7 8 1364.3 241.599 16
-3 7 7 5071.56 416.334 26
-3 7 7 4594.4 386.74 21
-3 7 7 5134.18 448.552 12
3 7 -7 4914.28 712.483 4
-3 7 7 4097.09 389.641 20
-3 7 7 4418.86 421.457 16
3 7 -6 8305.71 916.005 4
-3 7 6 8061.1 495.784 21
-3 7 6 9160.77 584.452 12
-3 7 6 8440.26 573.191 20
-3 7 6 8144.96 551.706 16
3 7 -6 8248.71 874.573 29
-3 7 6 10029.7 586.057 26
-3 7 6 7954.6 539.72 8
3 7 -5 7999.86 878.799 4
-3 7 5 7722.37 517.058 12
-3 7 5 7582.41 559.708 20
-3 7 5 7848.72 503.458 16
3 7 -5 7771.84 797.56 29
-3 7 5 7310.06 518.381 8
3 7 -4 1215.69 326.704 4
3 7 -4 1449.99 330.75 29
3 7 -3 1680.1 394.848 4
3 7 -3 991.002 272.174 29
3 7 -2 7444.1 763.188 4
3 7 -2 6904.14 668.15 29
-3 7 2 6879.78 589.363 4
3 7 -1 11156.9 886.08 4
3 7 -1 13048.3 900.926 29
-3 7 1 11389.2 809.292 4
-3 7 0 840.086 238.961 4
3 7 0 395.556 185.398 4
3 7 0 308.728 136.915 29
-3 7 0 727.449 211.178 29
-3 7 -1 -33.1991 119.93 4
3 7 1 268.268 125.401 4
-3 7 -1 82.7055 72.3306 29
3 7 1 65.9291 61.514 29
-3 7 -2 15821.2 906.811 29
3 7 2 15845.6 947.784 29
-3 7 -2 17667.6 1164.47 4
3 7 3 21308.7 1319.3 32
-3 7 -3 19872.8 1294.31 4
-3 7 -4 31786.6 1263.35 24
3 7 4 36773.7 1212.14 22
3 7 4 34580.7 1800.22 32
-3 7 -4 35318.5 1242.39 11
-3 7 -4 33578.3 1761.17 4
-3 7 -5 5373.42 483.82 24
3 7 5 4643.96 413.983 22
-3 7 -5 4797.92 431.842 11
3 7 5 3856.39 617.554 32
-3 7 -5 4256.54 614.169 4
-3 7 -6 10351.2 676.321 24
3 7 6 9679.53 622.861 22
3 7 7 10859.3 665.18 21
-3 7 -7 9952.16 623.208 24
3 7 8 6518.93 509.539 16
3 7 8 6299.01 474.044 21
3 7 9 3028.19 287.289 21
3 7 9 2858.29 293.725 16
3 7 10 936.874 129.729 21
3 7 10 921.969 121.653 12
-3 7 -10 727.755 106.251 19
3 7 10 1211.76 145.452 16
-3 8 11 1739.3 167.897 16
-3 8 10 12043.3 511.311 21
-3 8 10 12961 570.061 12
-3 8 9 18297.4 732.017 21
-3 8 9 20376.5 847.543 12
-3 8 9 20257.9 855.043 16
-3 8 8 2455.24 267.49 21
-3 8 8 2362.3 304.685 12
-3 8 8 2166.85 267.548 20
-3 8 8 2290.12 294.966 16
-3 8 7 8220.19 560.9 8
-3 8 7 8543.93 509.075 21
-3 8 7 9343.46 612.585 12
-3 8 7 9180.87 594.578 20
-3 8 7 9300.34 596.011 16
-3 8 6 3603.93 366.603 12
3 8 -6 2160.79 526.961 4
-3 8 6 3568.18 389.858 20
-3 8 6 3095.81 328.86 16
3 8 -6 3022.22 535.399 29
-3 8 6 2467.55 319.507 8
3 8 -5 4384.3 675.715 4
-3 8 5 4798.64 410.127 12
-3 8 5 4205.39 436.269 20
-3 8 5 3795.32 345.066 16
3 8 -5 5196.63 675.018 29
-3 8 5 4100.69 394.345 8
3 8 -4 4423.84 670.262 4
3 8 -4 4005.54 573.529 29
-3 8 4 4587.64 383.517 12
-3 8 4 3888.91 381.375 8
3 8 -3 12263.9 1063.87 4
3 8 -3 12065.9 960.432 29
-3 8 2 18967.1 1077.2 4
3 8 -2 22090.8 1399.09 4
3 8 -2 18876.9 1187.58 29
3 8 -1 3734.87 496.823 29
3 8 -1 2577.35 446.397 4
-3 8 1 2884.59 458.655 29
-3 8 1 3212.54 459.422 4
-3 8 0 -8.88242 144.41 4
3 8 0 -12.658 135.007 4
3 8 0 -186.426 123.704 29
-3 8 0 -68.1919 124.271 29
-3 8 -1 3299.19 462.947 29
3 8 1 3000 437.64 29
3 8 1 3346.93 461.669 4
-3 8 -1 3399.08 518.396 4
-3 8 -2 552.203 218.145 4
-3 8 -2 401.974 153.496 29
-3 8 -2 207.422 106.092 11
3 8 2 238.128 124.346 29
-3 8 -3 8592.49 884.266 4
-3 8 -3 7380.49 591.257 24
3 8 3 10073.7 927.943 32
-3 8 -3 10039.3 634.568 11
-3 8 -4 12261.6 775.258 24
3 8 4 12981 1129.47 32
-3 8 -4 14167.1 796.621 11
-3 8 -4 12977.2 1127.26 4
-3 8 -5 7732.62 605.147 24
-3 8 -5 7242.54 555.49 11
3 8 5 6304.99 799.51 32
-3 8 -5 6981.71 855.874 4
3 8 6 5976.25 466.906 21
-3 8 -6 5388.94 496.95 24
-3 8 -7 1994.88 269.374 24
3 8 7 2234.88 281.98 21
3 8 7 2716.06 332.564 16
3 8 8 11662.7 645.973 16
3 8 8 12749.5 628.098 21
3 8 9 13507.3 564.106 21
3 8 9 14426.3 591.678 12
3 8 9 13858.7 603.876 16
3 8 10 1279.27 124.339 21
3 8 10 1409.73 136.398 16
-3 9 10 3028.05 247.523 12
-3 9 10 3081.92 247.427 16
-3 9 9 1145.01 187.971 12
-3 9 9 926.728 166.736 16
-3 9 8 8051.27 529.6 12
-3 9 8 6723.75 451.274 20
-3 9 8 7831.33 507.342 16
-3 9 7 8249.23 558.694 12
-3 9 7 7142.2 524.17 20
-3 9 7 7056.25 498.335 16
-3 9 7 6881.11 513.656 8
-3 9 6 10590.3 633.084 12
-3 9 6 10456.2 684.585 20
-3 9 6 9512.24 570.155 16
-3 9 6 10108.2 648.583 8
3 9 -5 32246.5 1925.8 4
-3 9 5 32536 1137.1 12
-3 9 5 30300.7 1297.89 20
-3 9 5 29881.9 1034.61 16
3 9 -5 28660.5 1721 29
-3 9 5 29229.9 1168.76 8
-3 9 4 1008.91 211.96 8
3 9 -4 1147.11 351.347 4
-3 9 4 655.58 156.416 12
3 9 -4 710.085 290.949 29
-3 9 3 13069.2 642.034 12
3 9 -3 13273.6 1060.51 29
-3 9 3 12549 710.092 8
3 9 -2 11066.2 1015.51 4
-3 9 2 9607.51 593.543 8
3 9 -2 8940.54 831.156 29
-3 9 1 35828.6 1696.18 4
3 9 -1 38861.9 1845.01 4
-3 9 1 34438.4 1197.92 8
-3 9 1 36140.1 1783.08 29
3 9 -1 37022.9 1738.01 29
3 9 0 60965.5 2270.44 4
-3 9 0 59333.6 1746.44 11
-3 9 0 58031.4 2274.82 29
-3 9 0 57495.5 2291.63 4
-3 9 0 53487.3 1569.96 8
-3 9 -1 7886.36 584.414 11
-3 9 -1 7685.95 752.711 29
3 9 1 8414.81 777.266 29
-3 9 -1 7377.74 503.317 8
-3 9 -1 8494.62 866.729 4
-3 9 -2 19833.7 952.392 11
-3 9 -2 15421.3 1072.7 29
3 9 2 20287.9 1285.17 32
-3 9 -2 19114.7 1358.62 4
3 9 2 16805.3 1124.68 29
-3 9 -3 2380.11 507.1 4
-3 9 -3 1954.52 304.302 11
3 9 3 2468.52 496.45 32
-3 9 -3 1647.73 321.534 24
-3 9 -4 10906.7 755.323 24
-3 9 -4 11729.7 737.985 11
3 9 4 11470.3 1082.56 32
-3 9 -4 9703.53 1035.23 4
-3 9 -5 6467.36 568.508 24
-3 9 -5 6825.29 549.396 11
3 9 6 5083.28 409.521 21
-3 9 -6 4608.38 461.396 24
3 9 7 10076.6 561.734 21
3 9 7 10400.1 612.317 16
-3 9 -7 8487.34 562.116 24
3 9 8 6558.98 402.293 21
3 9 8 7744.08 480.568 16
3 9 9 5371.14 319.232 12
3 9 9 5156.9 290.527 21
-3 9 -9 5148.29 336.429 19
3 9 9 5480.13 327.805 16
-3 10 10 4494.61 261.971 12
-3 10 10 4107.49 242.136 16
-3 10 9 35504.8 1016.77 12
-3 10 9 31305.8 932.741 16
-3 10 8 3681.89 335.876 12
-3 10 8 3646.28 312.05 16
-3 10 8 2770.13 276.525 8
-3 10 7 3444.95 347.479 12
-3 10 7 2811.91 320.538 20
-3 10 7 3235.19 306.734 16
-3 10 7 2771.95 319.671 8
-3 10 6 10417.8 610.819 12
-3 10 6 9596.05 658.913 20
-3 10 6 9409.97 539.8 16
-3 10 6 9242.02 622.35 8
-3 10 5 17844.5 810.023 12
-3 10 5 17434.9 972.224 20
-3 10 5 18341.5 904.522 8
3 10 -4 23963.3 1691.12 4
-3 10 4 22317 905.044 12
3 10 -4 22512.5 1487.31 29
-3 10 4 22934.4 1011.88 8
-3 10 3 2880.27 295.77 12
3 10 -3 3051.72 587.057 4
3 10 -3 2732.5 497.632 29
-3 10 3 2837.06 339.163 8
3 10 -2 51789.6 2335.9 4
-3 10 2 43991.5 1249.41 12
-3 10 2 39645.5 1418.58 11
-3 10 2 47298.8 1474.25 8
3 10 -2 48694.9 2121.11 29
-3 10 1 10925.8 652.109 8
3 10 -1 10198.5 949.13 4
-3 10 1 9852.8 667.024 11
3 10 -1 9723.3 910.579 29
-3 10 1 9332.15 888.594 4
3 10 0 24676.2 1435.17 4
-3 10 0 23872.2 1092.09 11
-3 10 0 23417.8 1477.82 29
3 10 0 25495.3 1483.86 29
-3 10 0 25784.7 1536.25 4
-3 10 0 24703.7 1002.84 8
-3 10 -1 3697.68 422.531 11
-3 10 -1 2811.49 488.04 29
3 10 1 3281.44 493.503 29
-3 10 -1 3181.79 335.879 8
-3 10 -1 3563.72 590.483 4
3 10 2 3905.6 564.665 32
-3 10 -2 3307.03 571.946 4
-3 10 -2 3402 418.066 11
3 10 2 3270 506.972 29
-3 10 -3 42159.9 1629.05 24
3 10 3 49018.1 2237.87 32
-3 10 -3 46933.8 1604.45 11
-3 10 -3 43221 2237.19 4
-3 10 -4 6718.51 615.393 24
-3 10 -4 8262.38 625.836 11
-3 10 -5 4674.35 483.139 24
3 10 5 4495.82 369.624 21
-3 10 -5 4050.46 426.337 11
-3 10 -6 3715.57 402.318 24
3 10 6 4248.57 348.71 21
-3 10 -6 2654.2 303.433 11
3 10 6 3275.88 348.858 16
-3 10 -7 3125.05 322.893 24
3 10 7 4033.92 352.804 16
3 10 7 3526.07 294.174 21
3 10 8 4813.41 299.369 21
3 10 8 5501.84 360.97 16
3 10 9 1948.02 168.409 12
-3 10 -9 1780.39 173.48 19
3 10 9 2082.12 174.236 16
-3 11 9 3700.8 265.782 12
-3 11 9 3306.43 221.62 16
-3 11 8 11861.1 508.119 16
-3 11 8 10039.1 507.332 8
-3 11 7 8643.53 512.605 12
-3 11 7 7098.87 460.332 20
-3 11 7 7302.4 422.995 16
-3 11 7 7794.92 505.15 8
-3 11 6 10324.7 586.937 12
-3 11 6 9288.58 615.506 20
-3 11 6 9766.87 613.537 8
-3 11 5 1916.22 256.237 12
-3 11 5 1638.79 294.258 20
-3 11 5 1602.15 271.548 8
-3 11 4 4063.09 358.451 12
-3 11 4 3914.65 416.841 8
3 11 -3 11841.3 1162.68 4
-3 11 3 12159.2 613.096 12
-3 11 3 11888.6 711.319 8
3 11 -3 11446.5 1046.54 29
3 11 -2 11861.2 1123.13 4
-3 11 2 13350.7 746.526 8
-3 11 2 12005.6 735.239 11
3 11 -2 12859.8 1100.55 29
3 11 -1 9370.25 914.993 4
-3 11 1 10264.7 636.563 8
-3 11 1 8815.22 604.633 24
-3 11 1 10548.4 697.489 11
3 11 -1 9228.93 928.498 29
-3 11 0 10007.6 703.937 11
3 11 0 9057.18 899.744 29
-3 11 0 8995.41 899.475 4
-3 11 0 11007.4 644.196 8
3 11 1 14625.2 1129.03 32
-3 11 -1 14278.7 847.452 11
3 11 1 13306.4 1072.55 29
-3 11 -1 13752.9 720.29 8
-3 11 -1 13771.7 1157.98 4
-3 11 -2 16830.3 954.298 24
-3 11 -2 16701 928.696 11
3 11 2 14029.6 1155.15 32
3 11 2 14313.2 1112.43 29
-3 11 -2 15533.9 1288.7 4
-3 11 -3 8280.92 657.217 24
-3 11 -3 8302.24 639.781 11
-3 11 -4 30740.5 1301.62 24
-3 11 -4 32836.2 1284.03 11
-3 11 -5 8745.96 634.887 24
-3 11 -5 7360.18 559.678 11
3 11 5 8600.49 544.118 16
-3 11 -6 12860.4 715.33 24
-3 11 -6 11694 619.346 11
3 11 7 19376.8 723.199 12
3 11 7 18061.8 708.351 16
3 11 8 2192.49 198.968 12
3 11 8 2391.39 203.662 16
-3 12 9 5029.28 264.219 12
-3 12 8 752.538 118.269 8
-3 12 8 884.442 137.5 12
-3 12 7 8025.44 453.932 12
-3 12 7 7148.85 450.429 8
-3 12 6 8839.13 502.21 12
-3 12 6 8017.93 511.094 20
3 12 -6 7035.03 486.395 11
-3 12 6 8429.35 543.794 8
-3 12 5 8978.07 518.806 12
-3 12 5 9080.66 624.919 20
3 12 -5 9586.89 622.591 11
-3 12 5 9209.85 591.557 8
-3 12 4 56013.1 1503.72 12
-3 12 4 62178.7 1767.81 8
-3 12 3 19674.8 774.769 12
-3 12 3 19893.7 920.029 8
-3 12 2 1829.92 286.995 11
-3 12 2 1863.99 277.006 8
-3 12 1 50965.6 1659.2 11
-3 12 1 55113.9 1600.56 8
-3 12 0 20235.3 1001.72 11
-3 12 0 17609.9 921.695 24
-3 12 0 18715.1 861.436 8
-3 12 -1 4122.41 453.983 24
-3 12 -1 5420.34 508.662 11
-3 12 -1 4760.39 410.07 8
-3 12 -2 3152.59 395.841 24
-3 12 -2 4138.02 442.632 11
-3 12 -3 11334.4 768.76 24
-3 12 -3 12274.5 764.718 11
-3 12 -4 1622.54 285.46 24
-3 12 -4 1673.22 276.111 11
3 12 4 1811.47 229.759 16
-3 12 -5 2365.21 311.251 24
-3 12 -5 2722.71 317.417 11
3 12 5 2411.94 261.716 16
-3 12 -6 3998.35 356.006 24
3 12 6 3457.07 284.913 12
-3 12 -6 3104.94 282.364 11
3 12 6 3585.12 297.593 16
-3 12 -7 2742.48 241.009 24
3 12 7 3304.38 246.515 12
3 12 7 3159.05 240.774 16
3 12 8 2795.39 180.643 12
-3 13 8 2055.88 170.229 12
-3 13 7 4305.2 292.434 12
-3 13 7 4702.89 320.725 8
-3 13 6 4756.48 328.151 12
-3 13 6 4076.67 311.265 20
3 13 -6 4361.56 352.329 11
-3 13 6 4701.69 371.657 8
-3 13 5 535.346 147.852 8
-3 13 5 733.546 140.051 12
-3 13 5 670.489 162.39 20
3 13 -5 754.213 183.158 11
-3 13 4 1479.39 189.418 12
-3 13 4 1581.53 243.799 8
-3 13 3 783.039 179.248 8
-3 13 2 6369.52 497.457 11
-3 13 2 6583.72 497.652 8
-3 13 1 9667.97 610.786 24
-3 13 1 11842.7 709.058 11
-3 13 1 11421.4 653.513 8
-3 13 0 778.644 158.128 8
-3 13 0 453.422 145.629 24
-3 13 0 581.122 170.396 11
-3 13 -1 3884.24 415.64 24
-3 13 -1 4228.78 439.216 11
-3 13 -1 4004.26 351.604 8
-3 13 -2 507.001 165.033 24
-3 13 -2 331.023 138.883 11
-3 13 -3 1242.7 234.242 24
-3 13 -3 1330.01 240.908 11
-3 13 -4 998.15 204.329 24
-3 13 -4 1016.75 198.652 11
-3 13 -5 407.561 142.517 24
3 13 5 341.482 88.2031 12
-3 13 -5 430.399 125.671 11
3 13 5 396.268 90.9958 16
-3 13 -6 858.33 149.046 24
3 13 6 891.745 122.276 12
3 13 6 677.915 107.009 16
3 13 7 1048.41 109.142 12
-3 14 7 13240.4 437.47 12
-3 14 7 13153 477.498 8
-3 14 6 4339.6 265.586 12
-3 14 6 5207.12 343.961 8
-3 14 5 1127.36 166.413 20
3 14 -5 1364.97 207.037 11
-3 14 5 1135.64 146.617 12
-3 14 5 1205.05 192.819 8
3 14 -4 10414.9 636.649 11
-3 14 4 9475.98 544.093 8
3 14 -3 7843.29 577.725 11
-3 14 3 6503.26 473.815 8
-3 14 2 2266.73 274.497 11
-3 14 2 2787.9 307.046 8
-3 14 1 185.309 77.9995 8
-3 14 1 159.683 83.6729 11
-3 14 0 5660.01 472.809 11
-3 14 0 5903.22 420.49 8
-3 14 0 5857.68 454.039 24
-3 14 -1 3988.22 392.024 24
-3 14 -1 4747.75 436.534 11
-3 14 -2 1096.89 214.535 24
-3 14 -2 1291.4 235.704 11
-3 14 -3 8563.78 554.777 24
-3 14 -3 9161.06 570.883 11
-3 14 -4 2518.08 286.441 24
-3 14 -4 2285.52 260.713 11
-3 14 -5 2337.83 243.72 24
-3 14 -5 2092.4 213.671 11
-3 14 -6 5108.82 294.581 24
-3 15 6 3020.68 220.768 8
3 15 -5 3852.27 305.056 11
-3 15 5 3975.32 288.964 8
3 15 -4 2289.14 268.916 11
-3 15 4 2509.43 250.229 8
3 15 -3 24618.8 960.903 11
-3 15 3 21086.5 794.808 8
-3 15 2 913.86 152.702 11
3 15 -2 937.025 200.434 11
-3 15 2 1154.37 184.703 8
-3 15 1 1811.56 220.394 8
-3 15 1 1470.05 210.341 11
3 15 -1 1639.23 247.302 11
-3 15 0 4348.43 342.422 24
-3 15 0 4977.36 398.248 11
3 15 0 5545.21 418.016 11
-3 15 0 5428.85 364.562 8
-3 15 -1 3081.95 299.38 24
-3 15 -1 3980.47 358.487 11
3 15 1 3059.58 294.79 11
-3 15 -2 10304.7 554.952 24
-3 15 -2 9564.39 554.742 11
3 15 2 8766.5 463.493 11
-3 15 -3 2446.67 263.754 24
-3 15 -3 2657.14 268.851 11
-3 15 -4 10310.4 496.043 24
-3 15 -4 9118.79 454.738 11
-3 15 -5 454.703 94.8723 24
3 15 5 260.784 70.3514 8
-3 16 5 4881.33 260.477 8
3 16 -4 4979.8 330.617 11
-3 16 4 4431.68 278.321 8
-3 16 3 3460.17 259.648 8
3 16 -3 4327.79 335.22 11
-3 16 2 973.175 144.873 8
3 16 -2 1253.47 190.416 11
-3 16 1 9357.31 456.363 11
3 16 -1 11077.7 549.41 11
-3 16 0 8422.55 449.985 11
3 16 0 8618.88 462.18 11
-3 16 -1 5653.83 368.776 11
3 16 1 5218.64 326.733 11
-3 16 -1 4596.9 309.387 24
3 16 2 116.344 46.3453 8
-3 16 -2 73.2238 61.1499 24
-3 16 -2 111.77 67.349 11
-3 16 -3 7013.96 365.786 24
-3 16 -3 7362.18 377.197 11
3 16 3 6095.53 301.249 8
-3 16 -4 794.283 106.795 24
3 17 -2 1643.98 172.205 11
-3 17 1 3731.78 252.553 20
3 17 -1 8757.12 385.421 11
-3 17 0 709.09 98.5074 11
3 17 0 631.259 98.7844 11
-3 17 -1 3827.22 238.497 11
4 -16 -4 1799.03 140.501 13
-4 -16 3 299.866 68.6306 7
4 -16 -3 278.303 68.3755 13
4 -16 -2 5941.16 300.077 13
-4 -16 2 6173.34 333.207 7
4 -16 -1 1187.74 136.03 13
-4 -16 1 1495.69 163.414 7
4 -16 0 6403.44 313.727 13
-4 -16 0 5521.59 316.806 7
4 -16 1 4245.82 245.74 13
-4 -16 -1 4115.89 253.273 7
4 -16 2 3717.55 213.551 13
4 -16 2 4055.82 242.512 15
4 -15 -6 14055.1 419.005 13
-4 -15 5 8358.9 351.362 25
-4 -15 5 7240.14 338.325 7
-4 -15 4 2950.71 222.182 25
-4 -15 4 3139.31 246.425 7
4 -15 -4 3127.39 230.27 13
4 -15 -3 9007.9 419.503 13
-4 -15 3 8391.36 440.573 7
4 -15 -2 6618.65 372.112 13
-4 -15 2 5735.08 336.036 25
-4 -15 2 6846.05 414.337 7
-4 -15 1 6581.35 357.802 25
4 -15 -1 7766.44 405.778 13
-4 -15 0 2374.76 208.083 25
4 -15 0 2352.52 222.452 13
-4 -15 -1 3638.17 240.671 25
4 -15 1 4543.48 304.107 13
4 -15 2 -31.2527 59.2145 13
4 -15 3 1052.42 133.104 13
4 -15 3 948.372 136.165 15
4 -15 4 4207.16 228.802 13
4 -15 4 3593.35 217.065 15
-4 -14 7 2459.12 174.491 25
4 -14 -7 2554.99 171.539 13
-4 -14 6 1133.52 142.134 25
4 -14 -6 1208.47 139.878 13
-4 -14 5 10992.9 495.941 25
4 -14 -5 12191.1 498.095 13
-4 -14 5 10683.2 490.252 7
-4 -14 4 1056.65 164.152 25
4 -14 -4 1219.5 168.429 13
-4 -14 4 901.603 158.557 7
-4 -14 3 20398.4 760.209 25
4 -14 -3 20971.5 749.195 13
-4 -14 3 19856.7 803.474 7
-4 -14 2 9389.12 501.148 25
4 -14 -2 10176.6 513.487 13
4 -14 -1 904.1 163.383 13
4 -14 0 17299.5 696.745 13
4 -14 1 321.131 103.455 13
4 -14 2 3595.26 298.405 13
4 -14 3 11550.4 516.025 13
4 -14 4 9578.18 427.263 13
4 -14 4 8649.38 418.452 15
4 -14 5 8015.54 343.779 13
4 -14 5 6485.27 311.208 15
4 -13 -8 11785.8 393.313 13
-4 -13 8 11407.7 408.202 25
-4 -13 7 3697.22 265.835 25
4 -13 -7 3902.27 255.512 13
-4 -13 6 2013.98 222.072 25
4 -13 -6 2169.27 215.474 13
-4 -13 6 1914.18 186.755 10
-4 -13 6 1856.84 196.74 7
-4 -13 5 308.784 97.1402 7
-4 -13 5 223.064 100.293 25
-4 -13 5 243.527 72.2015 10
4 -13 -5 296.915 107.594 13
-4 -13 4 11421.6 589.528 25
-4 -13 4 11814 612.815 7
4 -13 -4 11317.7 561.889 13
-4 -13 4 10330 504.213 10
-4 -13 3 5949.52 422.229 25
4 -13 -3 5327.42 387.46 13
-4 -13 3 5162.86 355.078 10
4 -13 -2 3423.34 317.163 13
-4 -13 2 3750.82 299.566 10
4 -13 -1 7570.02 469.681 13
4 -13 0 3104.45 303.934 13
-4 -13 0 2950.26 300.133 19
4 -13 1 15359.6 688.899 13
-4 -13 -1 13733.2 637.797 19
4 -13 2 4925.79 379.926 13
-4 -13 -2 4217.62 319.858 19
4 -13 3 15989.5 678.972 13
-4 -13 -3 12865.4 535.835 19
4 -13 4 7919.55 446.228 13
4 -13 4 7310.22 402.158 26
4 -13 4 6962.83 433.797 15
4 -13 5 928.428 138.581 13
4 -13 5 785.217 129.608 15
4 -13 5 596.291 101.959 26
4 -13 6 9515.23 375.284 15
4 -13 6 9505.4 358.414 26
-4 -12 9 3816.26 211.243 25
-4 -12 8 911.93 137.603 25
4 -12 -8 894.841 127.932 13
-4 -12 8 624.554 104.059 10
-4 -12 7 10453.5 520.418 25
4 -12 -7 10527.1 489.933 13
-4 -12 7 9108.43 446.573 10
4 -12 -6 1293.68 186.901 13
-4 -12 6 834.805 154.947 7
-4 -12 6 1060.89 161.592 10
-4 -12 6 1115.39 188.381 25
-4 -12 5 17388.7 763.255 7
4 -12 -5 18685.5 762.111 13
-4 -12 5 18001 791.106 25
-4 -12 5 18362.4 735.25 10
-4 -12 4 56.7407 68.2705 25
4 -12 -4 126.625 92.3687 13
-4 -12 4 306.42 114.968 10
-4 -12 3 15058.7 733.044 25
4 -12 -3 14359.4 675.93 13
-4 -12 3 13589.8 640.985 10
4 -12 -2 10142.6 560.848 13
-4 -12 2 8953.86 554.962 19
-4 -12 2 9279.49 518.775 10
4 -12 -1 2587.21 282.812 13
-4 -12 1 2760.83 299.528 19
-4 -12 1 2453.87 300.147 14
-4 -12 1 2954.63 282.92 10
4 -12 0 39525.1 1211.63 13
-4 -12 0 39370.6 1223.22 19
-4 -12 0 36931.3 1254.01 14
-4 -12 0 36730.4 1134.43 10
4 -12 1 2247.48 279.556 13
-4 -12 -1 2041.28 261.981 14
-4 -12 -1 2318.75 267.438 19
4 -12 2 1114.12 200.428 13
-4 -12 -2 868.953 159.288 19
4 -12 3 5298.76 410.818 13
-4 -12 -3 4677.55 336.63 19
4 -12 4 3993.54 345.15 13
4 -12 4 3783.84 357.931 15
4 -12 5 5220.41 370.084 13
4 -12 5 4359.74 339.747 15
4 -12 5 4670.99 340.272 26
4 -12 6 507.857 112.524 13
4 -12 6 493.915 101.162 15
4 -12 6 617.555 118.435 26
4 -12 7 2552.31 179.858 26
4 -12 7 3183.42 213.419 13
-4 -11 9 12457.6 486.137 25
4 -11 -9 13287.3 472.877 13
-4 -11 9 12096.1 453.387 10
-4 -11 8 11082.5 537.337 25
4 -11 -8 11870.7 524.816 13
-4 -11 8 11231 507.246 10
-4 -11 7 4394.85 368.979 25
4 -11 -7 5121.68 379.177 13
-4 -11 7 4595.97 347.932 10
-4 -11 6 9953.67 580.002 25
-4 -11 6 8556.44 501.819 7
4 -11 -6 10617.4 574.52 13
-4 -11 6 9334.57 534.728 10
-4 -11 5 7533.38 519.006 25
4 -11 -5 8064.34 514.085 13
-4 -11 5 6767.11 468.892 10
-4 -11 5 7067.97 491.5 7
-4 -11 4 9902.36 605.074 25
4 -11 -4 9935.63 576.343 13
-4 -11 4 9266.64 548.408 10
-4 -11 3 6636.45 491.839 19
4 -11 -3 8089.99 508.794 13
-4 -11 3 7841.33 490.286 10
4 -11 -2 733.569 158.466 13
-4 -11 2 996.695 189.379 19
-4 -11 2 656.978 160.224 17
-4 -11 2 804.801 167.504 10
-4 -11 2 606.51 166.741 14
4 -11 -1 1590.3 227.339 13
-4 -11 1 1771.72 250.587 19
-4 -11 1 1548.94 239.291 17
-4 -11 1 1736.93 236.437 10
-4 -11 1 1688.69 254.357 14
4 -11 0 7288.98 481.16 13
-4 -11 0 7497.04 498.557 19
-4 -11 0 7290.14 498.393 17
-4 -11 0 7395.62 519.1 14
-4 -11 -1 399.137 121.94 19
4 -11 1 301.124 123.987 13
-4 -11 -1 318.943 140.269 14
4 -11 2 701.742 158.206 13
-4 -11 -2 600.651 139.144 19
-4 -11 -2 691.467 155.781 14
4 -11 3 4898.38 416.936 13
-4 -11 -3 4573.2 360.54 19
-4 -11 -3 5197.92 393.555 14
4 -11 4 964.105 184.587 13
-4 -11 -4 1087.98 169.545 19
4 -11 5 857.198 174.01 13
4 -11 5 935.084 181.875 15
4 -11 6 710.288 151.326 13
4 -11 6 665.951 133.459 15
4 -11 6 725.128 148.35 26
4 -11 7 1326.75 166.772 13
4 -11 7 960.645 126.699 15
4 -11 7 1336.62 164.832 26
4 -11 8 1273.15 128.442 13
-4 -10 10 148.61 50.5229 25
4 -10 -10 162.986 54.941 13
-4 -10 9 6188.48 374.531 25
-4 -10 9 6014.13 356.476 10
-4 -10 8 13162 633.795 25
-4 -10 8 13998.4 622.13 10
-4 -10 7 5773.55 447.944 25
-4 -10 7 5813.3 425.776 10
-4 -10 6 5117.96 435.125 25
-4 -10 6 5209.42 418.248 10
-4 -10 5 1478.61 236.954 25
-4 -10 5 1448.98 223.367 7
-4 -10 5 1403.86 220.698 10
-4 -10 4 1071.03 203.061 25
4 -10 -4 944.263 187.646 13
-4 -10 4 1217.97 211.379 17
-4 -10 4 1052.25 185.443 10
4 -10 -3 24627.4 1459.78 28
4 -10 -3 24634.4 939.418 13
4 -10 -3 26480.6 1498.31 30
-4 -10 3 24088.2 1577.54 1
-4 -10 3 24012.1 956.579 19
-4 -10 3 25689.9 1011.02 17
-4 -10 3 24115.3 928.162 10
-4 -10 3 24629.3 980.962 14
4 -10 -2 16920.9 741.405 13
4 -10 -2 14791.9 1075.86 28
-4 -10 2 16780.6 785.282 19
-4 -10 2 16923.7 1288.38 1
-4 -10 2 16402 797.445 17
4 -10 -2 17884.8 1186.96 30
-4 -10 2 16850.6 761.114 10
-4 -10 2 16857.7 804.185 14
-4 -10 1 5227.13 719.79 1
4 -10 -1 5936.29 426.681 13
-4 -10 1 5814.74 434.741 19
-4 -10 1 5560.48 441.867 17
4 -10 -1 5086.48 621.955 30
-4 -10 1 5574.88 452.504 14
4 -10 0 3448.5 328.157 13
-4 -10 0 3239.31 453.341 3
4 -10 0 3054.82 482.686 30
-4 -10 0 3452.4 343.544 19
-4 -10 0 2656.03 429.348 5
-4 -10 0 3640.45 346.775 17
-4 -10 0 2439.63 507.252 1
-4 -10 0 3826.11 373.054 14
4 -10 1 5274.74 482.246 7
4 -10 1 5064.06 408.675 13
-4 -10 -1 5207.38 582.447 3
-4 -10 -1 4293.11 607.604 1
-4 -10 -1 5243.47 416.123 19
-4 -10 -1 4089.58 527.63 5
-4 -10 -1 5122.43 430.267 14
-4 -10 -1 5398.02 413.514 17
4 -10 1 5335.76 620.375 30
4 -10 2 11199.1 628.578 13
-4 -10 -2 10448.4 948.248 1
-4 -10 -2 9890.45 857.325 3
-4 -10 -2 11312.3 608.952 19
-4 -10 -2 10166.2 837.444 5
4 -10 2 11263.1 934.65 30
-4 -10 -2 11529.6 639.379 14
4 -10 3 9233.02 579.296 13
-4 -10 -3 9016.69 533.524 19
-4 -10 -3 9006.65 540.392 14
4 -10 4 492.934 147.952 13
-4 -10 -4 572.725 135.906 19
4 -10 5 996.337 197.274 13
4 -10 5 1099.34 197.544 15
4 -10 6 2273.34 275.669 13
4 -10 6 2042.04 247.312 15
4 -10 6 2143.88 261.332 26
4 -10 7 618.772 133.533 13
4 -10 7 342.49 94.1707 15
4 -10 7 658.095 136.591 26
4 -10 8 1962.61 187.312 9
4 -10 8 2050.55 187.136 26
4 -10 8 1882.13 182.292 13
-4 -9 10 6520.29 342.042 25
-4 -9 10 6600.22 343.657 10
-4 -9 9 15557.1 670.235 25
-4 -9 9 16199.1 668.339 10
-4 -9 8 30123.2 1063.52 25
-4 -9 8 29847.8 1030.73 10
-4 -9 7 866.461 189.459 25
-4 -9 7 848.437 160.913 18
-4 -9 7 642.321 148.085 15
-4 -9 7 725.001 166.77 10
-4 -9 6 23434.4 991.317 25
-4 -9 6 22636.2 936.457 10
-4 -9 5 3168.42 350.507 25
4 -9 -5 3077.09 504.163 30
-4 -9 5 2695.56 310.649 17
4 -9 -5 1842.47 418.296 28
-4 -9 5 3270.7 335.025 10
4 -9 -4 659.284 245.289 28
-4 -9 4 995.412 183.756 19
-4 -9 4 1103.25 198.76 17
4 -9 -4 933.28 254 30
-4 -9 4 1218.3 201.084 10
-4 -9 4 1000.42 184.493 14
4 -9 -3 36499.2 1175.09 13
-4 -9 3 33944.3 1884.49 1
-4 -9 3 35308.7 1177.26 19
-4 -9 3 37442.4 1239.18 17
-4 -9 3 37428.8 1194.5 10
4 -9 -3 38558.7 1777.99 30
4 -9 -3 36566.7 1779.99 28
-4 -9 3 37273.4 1225.96 14
4 -9 -2 8235.5 772.981 28
-4 -9 2 7683.76 848.763 1
-4 -9 2 7807.01 498.601 19
4 -9 -2 8606.17 793.936 30
-4 -9 2 8524.98 546.816 17
4 -9 -2 8453.58 505.337 13
-4 -9 2 7852.84 523.074 14
-4 -9 1 1893.53 408.288 1
4 -9 -1 1672.5 337.205 30
-4 -9 1 1693.1 237.995 17
4 -9 -1 1629.18 322.386 28
-4 -9 1 1070.94 249.124 3
-4 -9 1 1650.78 232.655 19
4 -9 -1 1641.33 228.902 13
-4 -9 1 1872.93 320.884 5
-4 -9 1 1586.5 241.838 14
-4 -9 0 382.693 157.661 3
4 -9 0 1073.19 182.813 13
4 -9 0 943.49 297.514 30
-4 -9 0 920.394 174.071 19
-4 -9 0 591.836 229.744 1
-4 -9 0 726.941 146.111 17
-4 -9 0 891.953 218.331 5
-4 -9 0 754.247 174.897 14
4 -9 1 4000.33 401.998 7
4 -9 1 4915.72 394.418 13
-4 -9 -1 3917.44 573.512 1
-4 -9 -1 3959.11 509.831 3
-4 -9 -1 4038.58 356.399 19
-4 -9 -1 4087.25 502.481 5
-4 -9 -1 4261.52 369.149 17
4 -9 1 4654.2 582.188 30
-4 -9 -1 4771.12 404.657 14
4 -9 2 5529.32 436.512 13
-4 -9 -2 4048.6 594.94 1
-4 -9 -2 5079.67 400.471 19
-4 -9 -2 5809.53 646.348 3
4 -9 2 3566.04 545.663 30
-4 -9 -2 5325.92 590.849 5
-4 -9 -2 5144.32 421.544 14
4 -9 3 8750.14 572.073 13
-4 -9 -3 7645.61 809.075 1
-4 -9 -3 8910.46 530.114 19
-4 -9 -3 8279.24 792.073 3
-4 -9 -3 7210.85 722.351 5
4 -9 3 7457.37 767.671 30
-4 -9 -3 9508.63 558.43 14
4 -9 4 92.8813 84.0799 13
-4 -9 -4 146.549 95.526 19
4 -9 5 16135.7 790.679 13
-4 -9 -5 14287.6 648.066 19
4 -9 5 14686.5 771.107 15
4 -9 6 7354.72 520.487 13
4 -9 6 7323.29 491.485 15
4 -9 6 8026.09 532.363 26
4 -9 7 2883.76 298.366 13
4 -9 7 2137.3 233.038 15
4 -9 7 2679.61 286.707 26
4 -9 8 5431.96 361.227 9
4 -9 8 4314.5 309.864 26
4 -9 8 4760.8 333.206 13
4 -9 9 1670.49 143.873 26
-4 -8 10 1634.05 191.306 25
-4 -8 10 1504.01 167.092 15
-4 -8 10 1675.5 202.289 10
-4 -8 9 683.972 159.011 25
-4 -8 9 475.881 121.137 15
-4 -8 9 619.713 173.744 10
-4 -8 8 4477.91 411.702 25
-4 -8 8 3868.53 350.24 15
-4 -8 8 4224.96 358.314 18
-4 -8 8 4091.04 380.021 10
-4 -8 7 20766.5 933.428 25
-4 -8 7 19403.6 829.896 18
-4 -8 7 20603.9 910.77 10
-4 -8 6 3470.98 374.957 25
-4 -8 6 3465.79 378.601 6
-4 -8 6 3883.48 350.537 18
-4 -8 6 4220.74 394.062 10
-4 -8 5 16503 810.744 6
-4 -8 5 15499 722.69 14
-4 -8 5 17676.7 810.634 10
-4 -8 5 16468.5 721.886 18
-4 -8 5 18145.8 848.711 25
-4 -8 5 17345.4 789.733 17
4 -8 -5 17546.8 1211.49 30
4 -8 -5 17237.7 1260.33 28
-4 -8 4 174.508 66.1337 6
-4 -8 4 558.448 137.955 19
4 -8 -4 797.627 261.298 28
-4 -8 4 571.682 145.18 17
4 -8 -4 246.451 154.528 30
-4 -8 4 506.852 138.196 10
-4 -8 4 332.592 116.914 14
-4 -8 3 1352.97 204.949 6
-4 -8 3 1311.47 210.487 17
-4 -8 3 1266.4 203.411 19
-4 -8 3 1436.11 221.617 10
4 -8 -3 1005.47 263.816 30
4 -8 -3 1200.35 299.678 28
-4 -8 3 1140.66 339.825 1
-4 -8 3 1053.61 196.601 14
4 -8 -2 10014.7 544.139 13
-4 -8 2 9952.63 931.227 1
-4 -8 2 10307.7 586.471 17
-4 -8 2 9694.96 549.136 19
4 -8 -2 11610.7 885.8 30
4 -8 -2 9824.68 824.806 28
-4 -8 2 10194.3 586.782 14
4 -8 -1 -0.80868 54.4187 13
-4 -8 1 235.836 97.7159 14
-4 -8 1 10.6039 97.8549 3
-4 -8 1 -12.8759 48.3063 19
-4 -8 1 363.881 108.273 17
4 -8 -1 5.98459 99.1195 30
-4 -8 1 505.614 158.248 5
-4 -8 1 286.207 152.609 1
4 -8 -1 559.801 185.372 28
-4 -8 0 51890 1458.45 17
4 -8 0 52985.3 1414.51 13
4 -8 0 56425.5 2060.9 30
-4 -8 0 56070.7 1885.21 3
-4 -8 0 53913.5 1457.12 19
-4 -8 0 58689.9 2231 1
-4 -8 0 55562.8 1830.98 5
4 -8 0 54436.7 1883.03 28
-4 -8 0 54352.8 1526.99 14
4 -8 1 13762 752.878 7
4 -8 1 15415.1 698.049 13
-4 -8 -1 15032.8 690.165 17
-4 -8 -1 18089.3 1156.83 1
-4 -8 -1 15815.6 700.048 19
-4 -8 -1 16536.5 1001.82 3
-4 -8 -1 17511.7 982.227 5
4 -8 1 16720.3 1079.47 30
-4 -8 -1 16295.4 760.193 14
4 -8 2 10363 591.438 13
-4 -8 -2 11689.3 928.001 1
-4 -8 -2 11035.9 587.932 19
-4 -8 -2 11577.4 866.852 3
-4 -8 -2 10490.8 796.437 5
4 -8 2 8965.73 716.6 31
4 -8 2 10807.3 910.669 30
-4 -8 -2 11449 625.657 14
-4 -8 -3 12901.9 983.267 1
4 -8 3 13957.5 718.843 13
-4 -8 -3 13037 644.485 19
-4 -8 -3 14169.1 1007.69 3
4 -8 3 11759.6 989.965 30
-4 -8 -3 13944.9 963.471 5
4 -8 3 11919.8 863.66 31
-4 -8 -3 13582.4 683.259 14
4 -8 4 20720.9 918.006 13
-4 -8 -4 20531.2 825.687 19
-4 -8 -4 21025.7 1282.18 3
-4 -8 -4 21570.2 1256.03 5
4 -8 5 22922.1 991.729 13
-4 -8 -5 23457.6 878.233 19
4 -8 5 24875.7 1011.32 15
4 -8 6 1381.64 238.613 13
4 -8 6 1172.55 198.283 15
4 -8 7 6408.41 476.952 13
4 -8 7 6413.36 470.732 26
4 -8 8 3307.16 297.591 26
4 -8 8 3374.07 314.851 9
4 -8 8 3263.22 305.576 13
4 -8 9 6606.46 336.137 9
4 -8 9 6316.01 334.214 26
4 -8 9 6185.29 332.193 13
-4 -7 11 11152.9 420.624 25
-4 -7 11 12872.1 435.194 15
-4 -7 10 6214.75 405.612 25
-4 -7 10 6211.52 382.145 15
-4 -7 10 6805.41 429.834 10
-4 -7 9 6573.66 478.38 25
-4 -7 9 6283.16 444.416 15
-4 -7 9 6903.08 486.119 10
-4 -7 8 7886.13 564.378 25
-4 -7 8 8070.11 558.637 10
-4 -7 8 7004.5 508.641 15
-4 -7 8 9130 590.135 20
-4 -7 8 7639.31 517.102 18
-4 -7 7 6785.81 524.412 6
-4 -7 7 6901.77 540.234 20
-4 -7 7 6567.62 492.496 15
-4 -7 7 6836.11 489.499 18
-4 -7 7 7037.36 535.897 25
-4 -7 7 6956.04 525.41 10
-4 -7 6 7947.03 555.429 25
-4 -7 6 7578.43 545.621 6
4 -7 -6 7182.39 812.361 28
-4 -7 6 7141.15 527.64 20
-4 -7 6 7484.13 497.443 18
-4 -7 6 6608.21 461.176 17
-4 -7 6 7716.15 539.318 10
4 -7 -6 6902.62 761.054 30
-4 -7 5 6367.66 492.103 25
-4 -7 5 6825.7 492.112 6
-4 -7 5 6777.91 480.217 20
-4 -7 5 6669.39 451.554 18
-4 -7 5 6408.96 457.978 17
-4 -7 5 7429.63 505.084 10
4 -7 -5 5754.85 656.761 30
-4 -7 5 5541.17 406.195 14
-4 -7 4 74634.1 1868.74 6
-4 -7 4 72494.5 1802 19
-4 -7 4 77670.4 1886.51 17
-4 -7 4 85026.1 1935.51 10
4 -7 -4 84850.4 2637.72 30
-4 -7 4 71357.4 1819.16 20
4 -7 -4 77178.8 2665.88 28
-4 -7 4 74958.4 1825.75 14
-4 -7 3 61793.6 2447.83 1
-4 -7 3 59623.8 1585.98 17
4 -7 -3 61115.7 2151.07 30
-4 -7 3 61746.9 1600.84 10
4 -7 -3 59914.7 2216.56 28
-4 -7 2 20030 1280.75 1
4 -7 -2 20976.7 1177 28
4 -7 -2 22226.8 1185.76 30
-4 -7 1 11039.3 712.944 3
-4 -7 1 10351.2 648.853 5
4 -7 -1 11742.8 843.541 30
4 -7 -1 9912.02 752.297 28
-4 -7 1 10832.5 889.467 1
-4 -7 0 16997 928.802 3
-4 -7 0 16951.4 1096.3 1
-4 -7 0 17847.6 902.344 5
4 -7 0 16414.5 943.703 28
4 -7 0 18402.1 1075.03 30
-4 -7 -1 14879.2 903.753 3
-4 -7 -1 16351.3 1042.64 1
-4 -7 -1 15024.4 865.355 5
4 -7 1 14075.7 826.473 28
4 -7 1 15545.6 1013.99 30
-4 -7 -2 7507.56 476.4 24
4 -7 2 7727.06 490.209 13
-4 -7 -2 7024.67 669.989 1
-4 -7 -2 7477.19 460.573 19
-4 -7 -2 7903.4 683.593 3
-4 -7 -2 7877.43 649.095 5
4 -7 2 8705.41 783.267 30
4 -7 3 2978.58 321.321 13
-4 -7 -3 2646.32 280.144 24
-4 -7 -3 2874.38 431.621 1
-4 -7 -3 2789.84 280.786 19
-4 -7 -3 2786.45 426.969 3
4 -7 3 2655.24 402.799 31
-4 -7 -3 2742.3 420.823 5
4 -7 3 2827.29 466.723 30
-4 -7 -3 2574.98 288.966 14
4 -7 4 20512.3 905.489 13
-4 -7 -4 21143.3 827.297 19
-4 -7 -4 20025.1 1227.63 3
-4 -7 -4 21823.4 1231.1 5
4 -7 4 19124.3 1154.93 31
4 -7 5 7823.74 556.34 13
-4 -7 -5 8193.16 496.382 19
-4 -7 -5 8204.89 798.849 3
-4 -7 -5 6493.87 708.215 5
4 -7 5 6181.31 656.867 31
4 -7 5 7423.61 530.124 15
4 -7 6 16141.9 817.477 13
4 -7 6 15689.3 758.949 15
4 -7 7 12308.3 685.912 13
4 -7 7 11732.9 676.563 26
4 -7 7 11748.6 615.638 25
4 -7 8 6431.28 467.774 9
4 -7 8 6686.74 459.698 26
4 -7 8 5263.03 371.659 25
4 -7 8 6940.94 464.537 13
4 -7 9 10211 473.644 26
4 -7 9 11422.3 502.469 9
4 -7 9 8006.94 358.507 22
4 -7 9 10669 483.717 13
4 -7 9 8920.35 399.981 25
-4 -6 11 1212.34 145.349 25
-4 -6 11 1422.82 160.048 15
-4 -6 10 1035.65 181.073 25
-4 -6 10 1182.42 191.645 15
-4 -6 10 1103.2 192.129 10
-4 -6 9 22483.8 954.371 25
-4 -6 9 23308 951.228 20
-4 -6 9 22271.3 917.99 15
-4 -6 9 23526.6 934.51 18
-4 -6 9 23622 981.321 10
-4 -6 8 21841.7 977.408 25
-4 -6 8 22306.4 991.071 10
-4 -6 8 22095.3 962.77 6
-4 -6 8 21918.1 951.133 15
-4 -6 8 22523.6 965.706 20
-4 -6 8 22827.6 957.105 18
-4 -6 7 10288 661.036 25
-4 -6 7 10453.1 653.515 6
-4 -6 7 10869 646.126 20
-4 -6 7 9527.43 610.449 15
-4 -6 7 11103.6 641.126 18
-4 -6 7 11093.5 667.679 10
4 -6 -7 10427.9 908.291 30
4 -6 -7 11467.2 1042.13 28
-4 -6 6 734.525 182.773 25
-4 -6 6 1235.4 215.366 6
-4 -6 6 807.861 171.089 20
-4 -6 6 745.291 166.076 15
-4 -6 6 845.111 174.392 18
-4 -6 6 860.125 168.844 17
4 -6 -6 992.81 218.221 30
-4 -6 6 1238.49 215.425 10
-4 -6 5 22992 941.581 25
-4 -6 5 23442.5 928.928 6
-4 -6 5 23992.8 905.984 20
-4 -6 5 21945.2 873.051 18
-4 -6 5 22457.8 879.894 17
-4 -6 5 24171.2 942.755 10
4 -6 -5 23413 1310.68 30
-4 -6 5 22291.7 1129.45 2
-4 -6 4 31764 1271.8 2
4 -6 -4 32273 1561.92 28
-4 -6 3 58727.6 2238.31 1
-4 -6 3 56307.9 1704.42 2
4 -6 -3 59929.8 2028.84 30
4 -6 -3 60193.2 2112.86 28
-4 -6 2 68963.4 1818.44 3
-4 -6 2 66898.7 2376.37 1
-4 -6 2 68736.9 1835.58 2
4 -6 -2 73035.3 2201.21 30
4 -6 -2 65910.2 2166.23 28
-4 -6 1 51823.7 1495.39 2
-4 -6 1 51332.7 1556.96 3
-4 -6 1 51342.9 1477.96 5
4 -6 -1 55383.2 1851.65 30
-4 -6 0 167811 3335.39 2
-4 -6 0 162044 3511.13 3
-4 -6 0 166446 3946.97 1
-4 -6 0 164187 3413.97 5
4 -6 0 172680 3881.87 30
4 -6 0 160561 3649.05 28
-4 -6 -1 25191.3 1001.16 2
4 -6 1 24614.7 1105.36 28
-4 -6 -1 25460.8 1264.76 1
-4 -6 -1 24858.1 1121.14 3
-4 -6 -1 27263.5 1112.84 5
4 -6 1 26557.7 1289.75 30
4 -6 2 83695 2210.33 28
-4 -6 -2 88167.7 2452.18 3
-4 -6 -2 85014 2326.4 5
4 -6 2 89207.9 2658.85 30
4 -6 3 36405.4 1178.77 13
4 -6 3 39413 1598.01 31
-4 -6 -3 35915.8 1096 19
-4 -6 -3 40336.2 1621.46 3
-4 -6 -3 37467.6 1513.2 5
4 -6 3 37008 1722.78 30
-4 -6 -3 32864.4 1482.28 1
-4 -6 -4 332.784 150.776 3
4 -6 4 172.611 100.969 13
-4 -6 -4 -9.63012 118.381 5
-4 -6 -4 53.3406 74.8502 19
4 -6 4 -49.213 107.298 31
4 -6 5 34488.5 1235.44 13
-4 -6 -5 33630.1 1088.41 19
-4 -6 -5 35976.9 1702.37 3
-4 -6 -5 35389.2 1652.68 5
4 -6 5 32014.5 1600.36 31
4 -6 6 16659.8 833.306 13
-4 -6 -6 15816.9 703.823 19
4 -6 6 16755.2 797.48 25
4 -6 7 3360.52 375.094 13
4 -6 7 3078.2 368.538 26
4 -6 7 3077.12 328.84 25
4 -6 8 906.667 171.336 25
4 -6 8 1098.48 201.469 13
4 -6 8 806.823 196.957 9
4 -6 8 1016.04 192.93 26
4 -6 9 3128.96 246.761 22
4 -6 9 3758 308.458 9
4 -6 9 3610.79 301.035 26
4 -6 9 3742.9 305.774 13
4 -6 9 3626.86 283.089 25
4 -6 10 1326.59 129.639 26
-4 -5 11 6148.72 340.723 25
-4 -5 11 6320.15 320.377 26
-4 -5 10 3338.39 316.13 25
-4 -5 10 4048.07 374.63 10
-4 -5 10 3711.97 342.255 15
-4 -5 10 3382.16 287.912 26
-4 -5 9 2640.51 316.097 25
-4 -5 9 2510.05 307.677 6
-4 -5 9 3157.52 329.942 20
-4 -5 9 2914.62 335.649 18
-4 -5 9 2903.13 340.458 10
-4 -5 9 2783.48 327.963 15
-4 -5 9 2596.01 274.798 26
-4 -5 8 10028 633.634 25
-4 -5 8 9819.21 623.536 6
-4 -5 8 9004.97 510.728 21
-4 -5 8 9855.45 608.785 20
-4 -5 8 8782.16 596.082 18
-4 -5 8 9074.28 623.076 10
-4 -5 8 9539.76 610.722 15
-4 -5 8 8922.88 528.311 26
-4 -5 7 2149.76 304.557 25
-4 -5 7 2217.48 257.977 21
-4 -5 7 2601.14 305.119 20
-4 -5 7 2368.56 302.825 15
-4 -5 7 1633.73 329.222 31
-4 -5 7 2308.4 300.161 18
-4 -5 7 2720.25 333.852 10
-4 -5 7 2065.95 421.566 2
4 -5 -7 2367.49 420.467 30
-4 -5 7 2724.14 328.393 6
4 -5 -7 2380.71 467.321 28
-4 -5 6 1926.32 272.982 25
-4 -5 6 1631.51 302.569 31
-4 -5 6 2499.31 291.72 6
-4 -5 6 2090.79 273.313 15
-4 -5 6 2551.03 265.956 21
-4 -5 6 2605.38 285.517 20
-4 -5 6 2360.28 283.711 18
-4 -5 6 2709.57 314.269 10
-4 -5 6 2104.24 377.199 2
4 -5 -6 2475.15 431.669 30
4 -5 -6 2911.33 474.104 28
-4 -5 5 836.976 159.034 20
-4 -5 5 846.467 167.481 6
-4 -5 5 941.61 226.213 2
4 -5 -5 817.539 240.391 28
4 -5 -5 690.814 204.775 30
-4 -5 5 592.205 147.93 10
4 -5 -4 56967.1 1995.16 30
-4 -5 4 58112.9 1848.3 2
-4 -5 3 1235.54 232.581 2
-4 -5 3 640.216 199.698 1
4 -5 -3 1036.2 225.663 30
4 -5 -3 1046.22 244.75 28
-4 -5 2 31678.8 1049.99 3
-4 -5 2 30640.3 1143.12 2
4 -5 -2 33522 1349.29 30
-4 -5 2 31418.1 1433.72 1
4 -5 -2 31678.6 1349.76 28
-4 -5 1 39115.9 1565.72 1
-4 -5 1 37840.5 1229.35 3
4 -5 -1 39369.5 1456.2 28
-4 -5 1 37763.3 1154.35 5
4 -5 -1 40883 1494.45 30
-4 -5 1 38016.4 1260.7 2
4 -5 0 3319.37 409.874 30
-4 -5 0 3636.9 356.128 2
-4 -5 0 3637.2 370.512 3
-4 -5 0 3555.43 423.417 1
4 -5 0 3514.09 405.164 28
-4 -5 0 3335.41 325.919 5
-4 -5 -1 10963 756.676 1
-4 -5 -1 10295.3 655.239 3
-4 -5 -1 10201.6 620.654 5
4 -5 1 11084.3 771.363 30
4 -5 1 10188.4 671.903 28
-4 -5 -2 11248 780.804 1
-4 -5 -2 13237.4 761.108 5
4 -5 2 11684.4 711.421 28
-4 -5 -2 12844.4 788.503 3
4 -5 2 12849.2 875.993 30
-4 -5 -3 1233.27 264.405 3
4 -5 3 1180.51 265.39 31
4 -5 3 685.529 209.347 27
-4 -5 -3 856.502 222.339 5
-4 -5 -4 2963.01 441.261 3
4 -5 4 2376.45 391.858 31
-4 -5 -4 3110.97 291.132 19
4 -5 4 2882.48 304.981 13
-4 -5 -4 2510.19 403.022 5
4 -5 5 13574.4 707.93 13
-4 -5 -5 12955.3 974.56 3
4 -5 5 12810.1 988.95 31
-4 -5 -5 12722.6 620.724 19
-4 -5 -5 13656.2 982.258 5
4 -5 5 11077.8 1017.24 27
4 -5 5 12719 685.739 25
4 -5 6 23471.6 998.044 13
-4 -5 -6 24149.3 891.414 19
4 -5 6 24338.3 1002.23 25
4 -5 7 7187.86 535.857 13
4 -5 7 6375.02 528.807 26
4 -5 7 7438.42 532.755 25
4 -5 8 20414.3 915.387 9
4 -5 8 18931.5 879.448 26
4 -5 8 19576.6 848.894 25
4 -5 8 19964.2 875.496 13
4 -5 9 10590.9 543.39 25
4 -5 9 10279.4 500.927 22
4 -5 9 10616.9 552.734 26
4 -5 9 11263.7 566.388 13
4 -5 10 1253.74 142.551 9
4 -5 10 1143.21 131.98 26
4 -5 10 1269.28 145.046 25
-4 -4 12 1189.54 124.274 15
-4 -4 11 5716.24 342.438 26
-4 -4 11 5417.52 371.244 15
-4 -4 10 982.577 170.941 25
-4 -4 10 1044 164.261 21
-4 -4 10 1343.06 215.2 20
-4 -4 10 1683.11 240.705 15
-4 -4 10 1173.51 216.285 10
-4 -4 10 1104.65 186.318 26
-4 -4 9 3112.66 332.463 25
-4 -4 9 3375.74 357.727 6
-4 -4 9 3227.59 356.54 15
-4 -4 9 3603.63 320.162 21
-4 -4 9 3337.94 356.011 20
-4 -4 9 2966.92 345.284 18
-4 -4 9 2822.59 340.737 10
-4 -4 9 3178.44 321.434 26
-4 -4 8 15360.8 777.514 25
-4 -4 8 17505 748.041 21
-4 -4 8 17780.7 811.653 20
-4 -4 8 17125.1 845.433 18
-4 -4 8 16857.9 849.228 10
-4 -4 8 17952.1 840.68 6
-4 -4 8 16520 814.354 15
-4 -4 8 14620 733.598 26
-4 -4 7 3940.82 386.709 25
-4 -4 7 4379.87 404.553 6
-4 -4 7 4787.01 371.258 21
-4 -4 7 4660.88 391.027 20
-4 -4 7 4296.02 529.436 31
-4 -4 7 4872.24 429.659 18
-4 -4 7 4305 418.324 10
4 -4 -7 4090.15 550.392 30
-4 -4 7 3432.17 519.353 2
-4 -4 7 4590.88 409.459 15
4 -4 -7 3855.39 564.056 28
-4 -4 7 3553.89 345.448 26
-4 -4 6 5469.16 598.857 2
-4 -4 6 4881.34 410.722 25
-4 -4 6 4895.38 397.37 6
-4 -4 6 5044.04 369.235 21
-4 -4 6 4611.04 377.835 20
-4 -4 6 4373.03 366.991 15
-4 -4 6 4589.24 399.155 18
-4 -4 6 4734.24 511.465 31
-4 -4 6 4700.43 414.623 10
4 -4 -6 4800.91 565.303 30
4 -4 -6 5096.32 608.326 28
-4 -4 5 8754 648.223 31
4 -4 -5 8434.53 707.822 30
-4 -4 5 7587.13 660.204 2
4 -4 -5 7653.42 704.531 28
-4 -4 4 28014.2 1220.21 2
4 -4 -4 29287 1283.59 30
4 -4 -4 30501 1375.3 28
4 -4 -3 126918 2964.15 30
4 -4 -3 128446 3101.61 28
-4 -4 2 36505.6 1419.17 1
-4 -4 2 36584.9 1248.1 2
4 -4 -2 40755.7 1399.74 30
4 -4 -2 37398.1 1407.09 28
-4 -4 1 18347.6 940.775 1
-4 -4 1 17438.7 801.709 2
-4 -4 1 17219.6 725.87 3
-4 -4 1 16474.8 655.085 5
4 -4 -1 17799.5 893.455 30
4 -4 -1 16680.6 873.011 28
4 -4 0 26859.6 1103.24 28
-4 -4 0 26354 983.224 3
-4 -4 0 26341.9 902.917 5
-4 -4 0 26020.6 995.898 2
-4 -4 0 27837.9 1153.96 1
4 -4 0 28396.7 1163.02 30
-4 -4 -1 14110.4 734.124 3
-4 -4 -1 14864.1 813.833 1
-4 -4 -1 14409.2 697.15 5
4 -4 1 15639.5 870.952 30
4 -4 1 15014.6 795.212 28
-4 -4 -2 25134.7 1085.2 3
4 -4 2 26487.5 1226.42 30
-4 -4 -2 25281.1 1038.79 5
4 -4 2 23578 1036.7 28
-4 -4 -2 24900.1 1081.63 1
4 -4 3 41410.6 1457.62 28
-4 -4 -3 44832 1566.51 5
4 -4 3 41422.9 1813.79 27
4 -4 4 35875.1 1131.29 13
-4 -4 -4 34822.6 1081.46 19
-4 -4 -4 39572.6 1622.71 3
-4 -4 -4 40359.6 1592.55 5
4 -4 4 39068.5 1690.5 31
4 -4 4 35101.2 1761.58 27
4 -4 5 18560.1 815.033 13
-4 -4 -5 17460.6 742.024 19
-4 -4 -5 19171.9 1172.77 3
-4 -4 -5 20190.9 1196.04 5
4 -4 5 16943.3 1160.22 31
4 -4 5 16939.4 1272.43 27
4 -4 5 18759.5 834.111 25
4 -4 6 400.45 133.049 25
-4 -4 -6 389.098 178.294 3
4 -4 6 273.122 122.805 13
-4 -4 -6 403.508 111.968 19
4 -4 6 -33.6191 109.232 31
-4 -4 -6 65.2299 87.9374 5
4 -4 6 499.197 222.028 27
4 -4 7 2699.77 324.847 13
-4 -4 -7 2736.87 278.917 19
4 -4 7 2412.09 327.68 26
4 -4 7 3171.08 357.927 25
4 -4 8 2777.35 315.14 22
4 -4 8 3104.27 356.499 9
4 -4 8 3001.97 341.098 26
4 -4 8 3226.76 341.321 13
4 -4 8 3534.65 359.99 25
4 -4 9 2773.3 269.814 22
4 -4 9 3032.64 304.471 9
4 -4 9 2242.75 256.893 26
4 -4 9 2475.62 273.931 25
4 -4 10 4802.97 311.704 25
4 -4 10 4660.14 285.737 26
-4 -3 12 12331.2 435.72 26
-4 -3 12 14570.2 503.726 15
-4 -3 11 853.054 127.961 21
-4 -3 11 1110.39 165.707 26
-4 -3 11 787.955 152.367 15
-4 -3 10 8979.39 526.466 6
-4 -3 10 9288.87 503.761 21
-4 -3 10 9982.89 570.315 20
-4 -3 10 9694.04 584.904 15
-4 -3 10 9003.25 566.172 10
-4 -3 10 8494.2 529.258 26
-4 -3 9 5390.94 423.353 25
-4 -3 9 6731.28 499.124 6
-4 -3 9 5981.57 427.23 21
-4 -3 9 6488.18 481.85 20
-4 -3 9 5385.83 468.335 18
-4 -3 9 4874.82 440.054 10
-4 -3 9 4492.58 421.324 15
-4 -3 9 5772.14 457.018 26
-4 -3 8 5359.63 426.2 25
-4 -3 8 5897.18 678.081 31
-4 -3 8 5904.24 468.275 6
-4 -3 8 6194.79 440.753 21
-4 -3 8 6659.25 483.916 20
-4 -3 8 6112.1 503.954 18
-4 -3 8 5375.65 468.533 10
-4 -3 8 5228.76 376.58 16
-4 -3 8 5287.96 450.26 15
-4 -3 8 5463.49 445.334 26
-4 -3 7 2399.05 284.815 25
-4 -3 7 2406.1 285.108 6
-4 -3 7 2788.97 291.104 21
-4 -3 7 2514.04 288.755 20
-4 -3 7 2382.44 292.637 15
-4 -3 7 1805.17 388.076 31
-4 -3 7 2733.37 327.342 18
-4 -3 7 2287.91 302.582 10
-4 -3 7 2583 256.36 16
-4 -3 7 2295.97 423.69 2
4 -3 -7 1950.11 371.306 28
-4 -3 7 2489.76 295.961 26
-4 -3 6 2128.68 242.307 21
-4 -3 6 2326.68 260.033 6
-4 -3 6 2321.61 262.237 20
-4 -3 6 2853.29 313.078 18
-4 -3 6 2611.07 386.602 31
-4 -3 6 2379.72 288.354 10
-4 -3 6 2196.39 400.996 2
4 -3 -6 2534.4 378.783 30
4 -3 -6 2632.04 412.736 28
-4 -3 5 9740.73 753.717 2
-4 -3 5 8839 659.426 31
4 -3 -5 9868.06 724.248 30
4 -3 -5 10690 788.819 28
-4 -3 4 269.246 125.205 2
4 -3 -4 440.124 152.301 30
4 -3 -4 435.288 141.188 28
-4 -3 3 13381 767.071 2
4 -3 -3 15207.6 794.173 30
4 -3 -3 15481.7 870.01 28
-4 -3 2 91284.5 2206.02 2
4 -3 -2 90683.6 2185.05 30
4 -3 -2 92109.4 2314.89 28
-4 -3 1 11839.2 650.173 2
4 -3 -1 11951.2 698.692 28
-4 -3 1 11439.8 462.974 5
-4 -3 1 12278.9 559.446 3
4 -3 -1 11331.7 649.673 30
-4 -3 1 11408 665.678 1
-4 -3 0 32129.1 1111.32 2
-4 -3 0 30129.2 907.155 5
-4 -3 0 30212.1 1004.12 3
4 -3 0 32842.6 1173.51 30
4 -3 0 31238.6 1151.05 28
-4 -3 0 30534.7 1105.44 1
-4 -3 -1 7511.79 504.29 1
-4 -3 -1 8999.23 507.63 5
-4 -3 -1 8569.45 543.136 3
4 -3 1 8882.47 613.352 30
4 -3 1 8830.15 584.387 28
-4 -3 -2 37494.4 1266.3 5
4 -3 2 39085.4 1459.08 30
-4 -3 -2 37614.1 1341.65 3
4 -3 2 37776.7 1326.57 28
4 -3 3 5046.19 459.813 28
-4 -3 -3 4910.22 479.078 5
-4 -3 -3 5715.49 535.617 3
4 -3 4 3032.38 467.642 31
-4 -3 -4 3397.52 443.01 5
-4 -3 -4 2716.34 409.911 3
4 -3 4 2463.5 460.151 27
4 -3 5 35147.5 1141.92 13
-4 -3 -5 34288.6 1100.9 19
4 -3 5 33022.6 1648.88 31
-4 -3 -5 39100.1 1676.79 5
-4 -3 -5 35203.4 1630.52 3
4 -3 5 34682 1880.28 27
4 -3 5 35817.1 1205.23 25
4 -3 6 2625.09 307.164 13
4 -3 6 3366.9 533.057 31
4 -3 6 2711.32 499.776 27
-4 -3 -6 2773.74 471.666 5
-4 -3 -6 3049.66 483.602 3
-4 -3 -6 2657.21 287.067 19
4 -3 6 2856.67 341.422 26
4 -3 6 3059.87 352.122 25
-4 -3 -7 2637.45 283.8 19
4 -3 7 2243.48 300.049 26
4 -3 7 2136.61 313.584 9
4 -3 7 3041.24 353.041 25
4 -3 7 2375.42 304.574 13
4 -3 8 17077.2 799.818 22
4 -3 8 18256.6 821.402 13
4 -3 8 19249 896.336 9
4 -3 8 16565.7 802.498 26
4 -3 8 18512.9 867.825 25
4 -3 9 6485.76 429.074 22
4 -3 9 7217.68 477.426 9
4 -3 9 5774.93 406.465 26
4 -3 9 6565.76 461.56 25
4 -3 10 4851.38 278.884 22
4 -3 10 5623.27 312.129 26
4 -3 10 6002.78 369.78 25
-4 -2 12 328.868 87.9145 15
-4 -2 12 345.047 84.0133 26
-4 -2 11 879.999 159.939 20
-4 -2 11 1173.99 167.978 21
-4 -2 11 1329.98 200.483 15
-4 -2 11 1321.65 194.914 26
-4 -2 10 5785.04 421.84 6
-4 -2 10 6574.61 435.549 21
-4 -2 10 6879.95 469.461 20
-4 -2 10 6360.77 490.736 18
-4 -2 10 5958.97 444.268 10
-4 -2 10 6151.15 463.636 15
-4 -2 10 6266.84 471.228 26
-4 -2 9 5379.02 437.925 6
-4 -2 9 5156.14 412.109 21
-4 -2 9 5917.64 453.378 20
-4 -2 9 5479.04 454.767 15
-4 -2 9 5605.56 497.459 18
-4 -2 9 5431.58 452.489 10
-4 -2 9 5332.62 382.227 16
-4 -2 9 5458.26 457.907 26
-4 -2 8 19497.8 1280.93 31
-4 -2 8 21404.3 932.413 10
-4 -2 8 23019.9 942.049 6
-4 -2 8 23565.4 918.557 21
-4 -2 8 23153.2 1491.61 2
-4 -2 8 24137.2 945.652 20
-4 -2 8 22812.7 953.383 15
-4 -2 8 25164.4 1063.17 18
-4 -2 8 24357.6 881.181 16
-4 -2 8 22646.5 959.774 26
-4 -2 7 16301.8 1177.85 2
-4 -2 7 16346.5 744.113 15
4 -2 -7 15145.3 1005.74 28
-4 -2 7 17166.6 745.14 21
-4 -2 7 16001.2 723.687 20
-4 -2 7 17027.4 823.178 18
-4 -2 7 14954.6 737.775 10
-4 -2 7 15995.2 1073.97 31
-4 -2 7 15280.2 669.903 16
-4 -2 7 16053.3 735.948 6
-4 -2 7 14886.9 737.935 26
-4 -2 6 6404.9 621.572 31
-4 -2 6 7100.81 444.354 6
-4 -2 6 6849.84 432.589 20
-4 -2 6 6744.46 482.714 18
4 -2 -6 6624.09 621.856 28
-4 -2 6 6125.49 666.275 2
-4 -2 5 117025 3105.52 2
-4 -2 5 115491 2912.02 31
4 -2 -5 121307 2855.68 30
4 -2 -5 119120 2980.19 28
4 -2 -4 78363.3 1994.4 30
4 -2 -4 75183.1 2125.45 28
4 -2 -3 25256.8 1076.35 28
-4 -2 3 23888.1 1050.66 2
4 -2 -3 23958.7 948.301 30
-4 -2 2 50808.8 1560.25 2
4 -2 -2 52649.8 1451.37 30
4 -2 -2 53214.5 1595.36 28
-4 -2 1 1163.65 183.473 1
-4 -2 1 1536.75 243.064 2
4 -2 -1 1736.22 252.541 28
-4 -2 1 1403.67 165.592 3
4 -2 -1 1506.73 212.646 30
-4 -2 0 27655 782.894 5
4 -2 0 26965.9 994.19 30
-4 -2 0 26246.1 910.465 1
-4 -2 0 26305.4 890.953 3
4 -2 0 28985.7 1058.63 28
-4 -2 -1 67.3652 76.219 3
4 -2 1 167.28 105.094 28
4 -2 1 231.713 100.248 30
-4 -2 -1 228.47 81.3178 5
-4 -2 -1 167.143 84.7641 1
-4 -2 -2 87303.4 2105.47 5
-4 -2 -2 86314.1 2229.61 3
4 -2 2 85627.5 2188.27 28
-4 -2 -3 43323.6 1521.74 5
-4 -2 -3 45939 1631.18 3
4 -2 3 45946.4 1542.72 28
4 -2 3 44067.3 1916.22 27
4 -2 4 6372.21 645.407 31
-4 -2 -4 6552.67 604.103 5
-4 -2 -4 5919.91 603.784 3
4 -2 4 5994.16 551.378 28
4 -2 4 6259.72 728.038 27
4 -2 5 21949.1 852.972 13
4 -2 5 19794.4 1268.22 31
-4 -2 -5 22563.4 868.239 19
-4 -2 -5 24561.9 1320.33 5
-4 -2 -5 23410.6 1315.47 3
4 -2 5 20050.5 1429.2 27
4 -2 5 22283.8 910.782 25
4 -2 6 6918.75 486.449 13
4 -2 6 6750.67 493.035 26
-4 -2 -6 6581.51 461.824 19
4 -2 6 5269.78 683.609 31
-4 -2 -6 7125.42 731.245 5
-4 -2 -6 6472.74 728.19 3
4 -2 6 6749.33 879.636 27
4 -2 6 6890.17 515.874 25
-4 -2 -7 12346.7 642.697 19
4 -2 7 11571.8 701.241 9
4 -2 7 10022.2 628.466 26
4 -2 7 11850.6 705.941 25
4 -2 7 11249.9 646.114 13
4 -2 8 10978.9 631.202 22
-4 -2 -8 11564.5 583.886 19
4 -2 8 11354.3 672.76 9
4 -2 8 10730 616.905 26
4 -2 8 11242.9 627.595 13
4 -2 8 11415.6 676.097 25
4 -2 9 2678.4 280.389 22
4 -2 9 2908.87 304.401 9
4 -2 9 2674.89 271.649 26
4 -2 9 3017.53 314.039 25
4 -2 10 799.035 141.215 25
4 -2 10 590.227 115 22
4 -2 10 944.958 153.662 9
4 -2 10 748.71 108.904 26
-4 -1 12 2667.65 195.121 21
-4 -1 12 2620.46 221.248 26
-4 -1 11 12090.6 559.223 20
-4 -1 11 12082.2 591.01 15
-4 -1 11 11829.7 546.458 21
-4 -1 11 11315.9 584.555 26
-4 -1 10 1692.36 229.393 6
-4 -1 10 1977.46 248.962 21
-4 -1 10 2148.82 284.952 26
-4 -1 10 2050.16 256.585 20
-4 -1 10 2422.24 311.187 18
-4 -1 10 2483.83 282.011 10
-4 -1 10 1896.07 219.938 16
-4 -1 10 1946.77 262.673 15
-4 -1 9 29294 1095.49 15
-4 -1 9 30230.5 1073.6 6
-4 -1 9 30069.6 1076.88 20
-4 -1 9 29044.3 1161.4 18
-4 -1 9 28928.3 1122.68 26
-4 -1 9 27038.8 1032.56 10
-4 -1 9 29260.1 1061.19 21
-4 -1 9 29320.6 1001.39 16
-4 -1 8 35273.1 1881.17 2
-4 -1 8 33435.7 1136.58 6
-4 -1 8 35149.9 1169.09 21
-4 -1 8 35807.7 1176.23 20
-4 -1 8 32600.5 1160.19 15
-4 -1 8 36203.2 1300.39 18
-4 -1 8 32255.5 1131.81 10
-4 -1 8 29687.8 1624.79 31
-4 -1 8 34252.1 1103 16
-4 -1 8 33502.7 1208.93 26
-4 -1 7 29921.5 1634.6 2
-4 -1 7 27037.9 1440.56 31
-4 -1 7 28082.3 1006.26 10
-4 -1 7 30067.2 1038.05 21
-4 -1 7 30609.1 1025.11 6
-4 -1 7 30533.2 1026.66 20
-4 -1 7 29528.1 1130.22 18
-4 -1 7 29075.1 983.831 16
-4 -1 7 27114.8 993.644 15
-4 -1 7 29087.6 1056.28 26
-4 -1 6 54938.2 1988.61 31
4 -1 -6 54965 1850.31 28
-4 -1 6 57228.9 2161.27 2
-4 -1 5 62186.6 1995.44 31
-4 -1 5 61933.8 2140.45 2
-4 -1 4 7442.67 621.028 2
4 -1 -4 6791.54 472.281 30
4 -1 -4 8554.95 600.386 28
4 -1 -3 22156.6 953.263 28
-4 -1 3 20231.5 978.267 2
4 -1 -3 20693.5 788.402 30
-4 -1 2 66113.6 1837.91 2
4 -1 -2 65504.6 1751.98 28
4 -1 -2 61001.8 1507.55 30
-4 -1 1 116915 2164.25 3
-4 -1 1 119693 2652.14 2
4 -1 -1 117349 2377.1 30
4 -1 -1 118822 2580.38 28
4 -1 0 12104.2 594.971 30
-4 -1 0 11556.7 435.375 5
4 -1 0 12683.7 658.179 28
-4 -1 -1 40105.6 1263.8 3
-4 -1 -1 39323.2 1136.93 5
4 -1 1 41364.5 1310.1 30
4 -1 1 42315.6 1334.33 28
4 -1 2 23022.9 986.978 28
-4 -1 -2 22761.2 939.293 5
-4 -1 -2 23160.3 1023.18 3
-4 -1 -3 19252.7 1017.87 3
-4 -1 -3 18503.2 943.684 5
4 -1 3 17629.8 903.81 28
4 -1 4 27961 1421.7 31
-4 -1 -4 29267.3 1339.18 5
4 -1 4 29429.5 1303.11 28
-4 -1 -4 32147.3 1461.2 3
4 -1 4 32159.3 1756.73 27
4 -1 5 8413.23 498.521 13
-4 -1 -5 9101.29 820.017 3
-4 -1 -5 9451.95 551.026 19
4 -1 5 7621.51 766.926 31
-4 -1 -5 9445.2 809.488 5
4 -1 5 7951.38 690.077 28
4 -1 5 8625.45 952.254 27
4 -1 5 9345.46 566.131 25
4 -1 6 11614.7 1010.21 31
-4 -1 -6 12982.4 673.745 19
-4 -1 -6 12991.7 1041.4 5
-4 -1 -6 15265.5 1137.56 3
4 -1 6 13954.4 757.861 9
4 -1 6 13815.5 1283.3 27
4 -1 6 14111.3 701.033 26
4 -1 6 14489.3 768.22 25
4 -1 6 13432.6 676.608 13
4 -1 7 3375.61 358.723 22
4 -1 7 3486.46 336.14 21
4 -1 7 4208.61 417.48 9
-4 -1 -7 3737.34 362.584 19
4 -1 7 3678.48 353.224 26
4 -1 7 3603.37 354.083 13
4 -1 7 3991.43 408.754 25
4 -1 8 12630.5 680.305 22
4 -1 8 11324.4 589.783 21
-4 -1 -8 13870 663.896 19
4 -1 8 13087.6 719.017 9
4 -1 8 12343 635.281 26
4 -1 8 13041.6 728.625 25
4 -1 9 4333.87 360.092 22
4 -1 9 3606.35 277.386 21
4 -1 9 4519.81 382.059 9
4 -1 9 4273.82 383.592 25
4 -1 9 3672.08 298.141 26
4 -1 10 9327.96 437.736 22
4 -1 10 9966.75 510.909 25
-4 0 12 22243.5 660.451 21
-4 0 12 23522.3 724.137 15
-4 0 12 22383.3 716.701 26
-4 0 11 5093.86 377.394 15
-4 0 11 4762.22 342.066 20
-4 0 11 4371.7 293.246 16
-4 0 11 4968.38 356.78 21
-4 0 11 4963.47 382.828 26
-4 0 10 300.468 122.185 21
-4 0 10 423.204 145.836 26
-4 0 10 406.192 116.599 20
-4 0 10 811.593 193.466 18
-4 0 10 422.575 118.843 16
-4 0 10 493.635 136.411 15
-4 0 9 25570.2 969.285 6
-4 0 9 27601 1035.46 21
-4 0 9 28105.5 1027.85 20
-4 0 9 25524 1084.73 18
-4 0 9 25788.7 960.265 10
-4 0 9 25910.7 960.087 16
-4 0 9 26701.2 1030.16 15
-4 0 9 27102.5 1070.95 26
-4 0 8 4570.84 668.203 2
-4 0 8 5124.16 426.838 21
-4 0 8 4745.39 390.87 6
-4 0 8 5339.54 422.958 20
-4 0 8 4781.23 450.508 18
-4 0 8 4767.48 392.406 10
-4 0 8 4024.17 612.719 31
-4 0 8 4911.98 399.178 16
-4 0 8 4743.23 407.619 15
-4 0 8 5149.9 436.785 26
-4 0 7 4266.12 629.629 2
-4 0 7 3651.48 335.204 10
-4 0 7 4416.92 377.889 21
-4 0 7 3814.61 333.832 6
-4 0 7 4333.09 364.472 20
-4 0 7 4129.86 396.426 18
-4 0 7 3527.94 501.693 31
-4 0 7 3978.96 345.21 16
-4 0 7 4013.35 353.732 15
-4 0 7 3558.65 344.507 26
4 0 -6 7405.06 593.949 28
-4 0 6 7079.7 660.994 31
-4 0 6 8073.87 776.782 2
-4 0 5 48885.6 1725.86 31
-4 0 5 48709 1862.1 2
4 0 -5 49521.6 1594.53 28
-4 0 4 28370.2 1278.25 2
4 0 -4 31062.3 1161.86 28
-4 0 3 296944 5637.61 2
4 0 -3 301156 4929.26 30
4 0 -3 300509 5355.39 28
4 0 -2 12152 635.911 28
-4 0 2 11655.4 705.052 2
4 0 -2 9994.51 451.979 30
4 0 -1 119466 2577.04 28
-4 0 1 125989 2740.97 2
4 0 -1 118211 2311.41 30
-4 0 1 120198 2182.24 3
-4 0 0 104706 2196.29 3
4 0 0 111059 2404.97 28
4 0 0 104763 2207.64 30
-4 0 0 104491 1918.51 5
-4 0 -1 -98.606 70.6287 3
4 0 1 72.9095 85.539 28
-4 0 -1 169.333 62.7771 5
-4 0 -2 118696 2644.49 5
4 0 2 124710 2744.71 28
-4 0 -2 119068 2789.71 3
-4 0 -3 88602.2 2389.13 5
4 0 3 93255.2 2393.7 28
-4 0 -3 96705.1 2574.01 3
-4 0 -4 540.923 184.768 3
4 0 4 1429.58 383.463 27
4 0 4 1032.26 261.126 28
4 0 4 446.359 172.654 31
-4 0 -4 41.0415 98.1732 5
4 0 5 4661.01 554.23 28
-4 0 -5 5056.04 403.068 19
4 0 5 4373.61 571.21 31
-4 0 -5 4406.48 562.22 5
-4 0 -5 4874.68 609.495 3
4 0 5 4554.02 757.219 27
4 0 5 4595.6 399.912 9
4 0 5 4489 397.013 25
-4 0 -6 2241.99 459.081 3
-4 0 -6 1714.12 369.509 5
-4 0 -6 2073.55 271.151 19
4 0 6 2397.68 433.233 31
4 0 6 2084.77 288.925 9
4 0 6 2911.61 614.897 27
4 0 6 2012.88 248.64 13
4 0 6 2649.59 321.78 25
4 0 7 22748.1 955.989 22
4 0 7 21595.2 910.109 21
-4 0 -7 21677.9 918.712 19
4 0 7 22414.1 972.171 9
4 0 7 21274.1 857.473 26
4 0 7 20511.4 877.409 13
4 0 7 22758.6 1001.99 25
4 0 8 7432.23 517.972 22
4 0 8 6628.69 468.044 21
-4 0 -8 7614.2 504.36 19
4 0 8 7708.25 536.593 9
4 0 8 8084.13 571.835 25
4 0 9 2961.02 298.147 22
4 0 9 2628.32 257.536 21
-4 0 -9 2967.42 268.622 19
4 0 9 3597.84 337.975 9
4 0 9 2923.93 317.253 25
4 0 10 10323.5 478.923 22
4 0 10 11213.1 549.737 25
-4 1 12 3461.39 241.441 21
-4 1 12 3353.17 255.576 26
-4 1 11 13078 607.814 21
-4 1 11 13157.8 613.563 15
-4 1 11 12857.3 569.703 20
-4 1 11 12314.8 531.618 16
-4 1 11 14301.3 653.29 26
-4 1 10 2495.99 291.503 21
-4 1 10 2933.92 296.347 20
-4 1 10 2451.78 268.345 16
-4 1 10 2954.35 317.334 15
-4 1 10 3334.11 345.433 26
-4 1 9 30785.9 1051.28 6
-4 1 9 29927.8 1117.9 21
-4 1 9 31069.6 1084.29 20
-4 1 9 30821.8 1116.95 15
-4 1 9 29725.1 1159.09 18
-4 1 9 30045.4 1066.05 16
-4 1 9 30387.5 1134.96 26
-4 1 8 31779.4 1661.66 31
-4 1 8 33561.9 1894.81 2
-4 1 8 36137.6 1232.37 21
-4 1 8 35285.4 1137.26 6
-4 1 8 35542.8 1176.26 20
-4 1 8 33744.7 1258.77 18
-4 1 8 34837.2 1186.76 15
-4 1 8 34629.7 1161.35 16
-4 1 8 34546.4 1208.01 26
-4 1 7 29438.1 1056.05 26
-4 1 7 33032.3 1750.62 2
-4 1 7 27214.7 1436.5 31
-4 1 7 29390 1070.1 21
-4 1 7 30466 1019.36 6
-4 1 7 30248.4 1037.54 20
-4 1 7 29577.3 1124.16 18
-4 1 7 29662.5 1033.15 16
4 1 -7 31622.4 1687.22 29
-4 1 7 28784.3 1023.74 15
-4 1 6 56114.4 1982.97 31
4 1 -6 55688.1 2205.17 29
-4 1 6 53909.6 2155.86 2
-4 1 5 64262.7 2214.49 2
4 1 -5 67666.5 1843.3 28
-4 1 4 9831.31 735.186 2
4 1 -4 9853.47 593.64 28
-4 1 3 22011.7 1051.72 2
4 1 -3 21335.8 866.3 28
-4 1 2 64649.3 1835.65 2
4 1 -2 61821.7 1597.9 28
-4 1 1 125054 2759.06 2
4 1 -1 123904 2569.47 28
-4 1 1 119787 2197.49 3
-4 1 0 11343.7 452.661 5
4 1 0 13004.8 675.996 28
-4 1 0 11909.8 582.016 3
-4 1 -1 36652.6 1243.21 3
4 1 1 35201.7 1134.57 29
4 1 2 21283.6 831.633 32
4 1 2 23438.8 1002.79 28
-4 1 -2 21253.9 1001.22 3
4 1 3 16349.6 742.935 32
4 1 3 17447.8 952.856 31
4 1 3 18132.6 934.396 28
-4 1 -3 16775.4 967.551 3
4 1 4 28026.4 1330.28 31
-4 1 -4 29366.9 1370.5 5
4 1 4 28132.1 1305.96 28
4 1 4 29898.7 1762.47 27
-4 1 -4 30026.2 1459.5 3
-4 1 -5 9199.93 527.299 24
4 1 5 9337.43 793.264 31
-4 1 -5 8651.73 811.214 5
4 1 5 10544.1 599.944 9
4 1 5 10985.7 1121.55 27
-4 1 -5 9869.59 890.072 3
4 1 5 10497.1 615.717 25
4 1 6 14636.4 735.499 22
-4 1 -6 12291.1 1083.18 3
-4 1 -6 13030.6 710.818 19
4 1 6 11747.9 947.649 31
-4 1 -6 12942.3 1086.89 5
4 1 6 14063.4 734.942 9
4 1 6 15876.3 1456.3 27
4 1 6 12810.4 635.672 13
4 1 6 13979.9 759.258 25
4 1 7 3652.19 376.45 22
4 1 7 3234.79 353.791 21
-4 1 -7 3404.63 357.857 19
4 1 7 3329.14 359.846 9
4 1 7 2934.49 353.502 25
4 1 8 13914.4 720.702 22
4 1 8 13487.7 702.255 21
-4 1 -8 13355.4 699.079 19
4 1 8 14867.3 749.557 9
4 1 8 14812.2 783.24 25
4 1 9 4790.49 378.289 22
4 1 9 4509.38 351.897 21
-4 1 -9 4282.97 331.557 19
4 1 9 5141.16 400.612 9
4 1 9 4909.01 414.062 25
4 1 10 8947.57 438.799 22
4 1 10 8393.33 393.811 21
4 1 10 10876.1 505.63 9
4 1 10 10356.7 516.21 25
-4 2 12 560.349 102.613 21
-4 2 12 575.252 111.253 26
-4 2 11 1319.24 176.867 20
-4 2 11 1433 208.356 21
-4 2 11 1355.77 178.853 16
-4 2 11 1479.64 202.56 15
-4 2 11 1625.26 215.511 26
-4 2 10 5752.7 453.705 21
-4 2 10 6172.84 421.486 20
-4 2 10 5922.59 426.416 16
-4 2 10 5903.52 439.756 15
-4 2 10 6452.67 470.926 26
-4 2 9 5415.83 404.472 6
-4 2 9 5519.69 463.495 21
-4 2 9 5931.92 444.081 20
-4 2 9 5637.59 448.009 18
-4 2 9 5972.1 452.751 16
-4 2 9 6344.93 477.307 15
-4 2 9 6174.91 475.754 26
-4 2 8 25973.3 989.505 15
-4 2 8 24033 1010.68 21
-4 2 8 23720.9 1583.28 2
-4 2 8 23332.9 896.551 6
-4 2 8 23725.8 946.341 20
-4 2 8 23943.5 996.171 18
-4 2 8 23843.7 974.014 16
-4 2 8 24088.1 974.882 26
-4 2 7 17774.5 1272.03 2
-4 2 7 17302.6 804.879 21
-4 2 7 16400.7 688.207 12
-4 2 7 17226.8 741.101 6
-4 2 7 17519.5 770.738 20
-4 2 7 17560.6 827.645 18
-4 2 7 17618.6 786.909 16
4 2 -7 18142.8 1276.37 29
-4 2 7 16908.9 756.723 15
-4 2 7 18717.6 805.622 26
-4 2 6 7162.94 461.914 26
-4 2 6 6877.09 469.417 21
-4 2 6 6727.45 450.22 20
-4 2 6 7329.06 464.992 16
4 2 -6 8351.1 814.489 29
-4 2 6 7400.36 755.938 2
-4 2 5 115666 3184.25 2
4 2 -5 124325 3382.25 29
-4 2 4 71144.1 2199.93 2
4 2 -4 76130.4 1855.95 28
4 2 -4 71156.9 2315.04 29
-4 2 3 21327.2 1030.64 2
4 2 -3 21103.8 838.394 28
-4 2 2 55560 1696 2
4 2 -2 50357.5 1668.21 29
4 2 -2 54829.8 1468.66 28
-4 2 1 1406.16 247.028 2
4 2 -1 1271.38 237.693 29
4 2 -1 1318.71 211.395 28
-4 2 1 1317.25 158.389 3
-4 2 0 23675.2 884.277 3
4 2 0 23812.3 971.093 29
-4 2 -1 249.615 115.479 3
-4 2 -1 439.032 149.759 4
4 2 1 297.158 125.219 28
4 2 1 191.855 100.327 29
4 2 2 90785.3 2314.25 28
-4 2 -2 99395.8 2450.27 4
4 2 3 42969.6 1514.99 31
4 2 3 41557.6 1415.92 32
4 2 3 46226.5 1614.87 28
-4 2 -3 48170 1646.61 4
4 2 3 46242.9 2121.69 27
-4 2 -3 44406 1679.08 3
4 2 4 5975.72 518.611 32
4 2 4 6238.08 579.116 31
4 2 4 6450.83 617.12 28
-4 2 -4 7911.39 648.682 4
4 2 4 7988.37 911.183 27
-4 2 -4 7673.5 732.174 3
-4 2 -5 19771.2 837.656 24
4 2 5 21054.9 861.451 22
-4 2 -5 20175.4 1277.36 5
4 2 5 18625.5 1088.42 31
4 2 5 20866.5 856.52 9
4 2 5 20373.9 1570.35 27
-4 2 -5 19687.6 1301.45 3
4 2 5 22478.9 939.226 25
4 2 6 7500.98 523.912 22
4 2 6 7402.24 543.893 25
4 2 6 5792.6 632.275 31
-4 2 -6 5393.3 691.866 5
4 2 6 7087.43 506.547 9
-4 2 -6 6459.34 792.199 3
4 2 6 6645.73 964.803 27
4 2 7 12311.2 695.016 22
-4 2 -7 11539.8 686.364 19
4 2 7 12346.4 689.226 9
4 2 7 12361.7 732.144 25
4 2 8 11238.7 643.392 22
4 2 8 10559.3 643.116 21
-4 2 -8 11518.5 655.526 19
4 2 8 9351.57 552.747 16
4 2 8 12195.9 667.359 9
4 2 8 11162.1 674.695 25
4 2 9 3730.86 336.58 22
4 2 9 3691 333.92 21
-4 2 -9 3893.48 324.985 19
4 2 9 4204.24 357.892 9
4 2 9 3993.7 367.207 25
4 2 10 970.514 139.345 21
4 2 10 1348.12 175.231 9
4 2 10 1216.76 175.401 25
-4 3 12 14355.3 517.575 21
-4 3 12 12219.6 422.939 16
-4 3 11 982.562 175.176 21
-4 3 11 810.685 132.745 20
-4 3 11 1068.69 161.893 16
-4 3 11 1134.51 180.011 26
-4 3 10 9365.48 588.014 21
-4 3 10 9970.68 536.112 20
-4 3 10 9695.1 561.713 16
-4 3 10 10099.6 576.61 15
-4 3 10 10188.8 583.447 26
-4 3 9 5453.85 467.821 21
-4 3 9 6086.93 448.596 20
-4 3 9 6117.06 468.763 16
-4 3 9 6030.6 465.93 15
-4 3 9 6099.82 467.488 26
-4 3 8 5955.32 485.665 21
-4 3 8 5884.08 418.798 12
-4 3 8 6325.43 791.148 2
-4 3 8 5893.99 421.648 6
-4 3 8 6726.37 481.044 20
-4 3 8 6698.47 483.896 15
-4 3 8 6671.27 493.357 16
-4 3 8 6527.64 480.411 26
-4 3 7 2741.17 319.129 21
-4 3 7 2452.38 270.719 12
-4 3 7 2799.42 285.601 6
-4 3 7 2935.54 316.187 20
-4 3 7 2457.72 291.812 18
-4 3 7 2905.16 317.724 16
-4 3 7 3010.5 470.376 2
-4 3 7 2812.61 304.387 15
4 3 -7 3033.39 546.699 29
-4 3 7 2745.16 306.425 26
4 3 -6 2251.95 439.841 29
-4 3 6 2642.16 274.736 15
-4 3 6 2421.56 282.393 21
4 3 -6 2338.49 439.028 4
-4 3 6 2149.34 251.387 6
-4 3 6 2718.88 291.815 20
-4 3 6 2663.89 285.217 16
-4 3 6 2054.06 390.589 2
-4 3 6 2552.91 270.433 26
4 3 -5 11424.3 931.61 29
-4 3 5 10536.4 813.012 2
-4 3 4 391.967 145.503 2
4 3 -4 138.289 120.087 29
4 3 -4 388.95 118.702 28
4 3 -3 14224 880.643 29
-4 3 3 13206.9 790.856 2
4 3 -3 12439.9 622.746 28
-4 3 2 94337.2 2347.32 2
4 3 -2 89523.6 2397.15 29
4 3 -2 87570.5 2056.75 28
-4 3 1 12542.9 709.97 2
4 3 -1 11589.8 712.191 29
4 3 -1 12465.6 643.636 28
-4 3 0 33529.8 1215.67 2
4 3 0 33907.5 1178.17 28
4 3 0 32902.8 1219.41 29
-4 3 0 34983.2 1304.61 4
4 3 1 8424.26 565.927 29
4 3 1 9566.37 630.327 28
-4 3 -1 10156.3 691.479 4
4 3 2 40817.3 1466.27 28
-4 3 -2 41888.2 1540.83 4
-4 3 -3 4741.16 535.649 3
4 3 3 5818.66 531.165 32
4 3 3 5790.37 501.797 31
4 3 3 6025.91 562.57 28
4 3 3 5507.24 702.728 27
-4 3 -3 5405.87 552.42 4
4 3 4 2941.46 399.584 32
4 3 4 2534.4 338.657 31
4 3 4 3379.99 453.674 28
-4 3 -4 3294.33 439.989 4
4 3 4 3471.1 574.044 27
-4 3 -4 3351.58 504.024 3
-4 3 -5 32383.6 1144.92 24
4 3 5 34199.8 1149.59 22
-4 3 -5 34325.5 1530.09 4
4 3 5 30576.5 1039.29 33
4 3 5 30886.9 1378.4 31
4 3 5 35872.2 1154.39 9
4 3 5 34841.8 2052.44 27
-4 3 -5 35093.5 1793.65 3
4 3 5 36436.2 1247.39 25
-4 3 -6 2989.22 324.798 24
-4 3 -6 1980.13 447.413 3
4 3 6 2467.51 306.515 22
4 3 6 2944.17 323.36 9
-4 3 -6 2780.8 515.636 5
4 3 6 3523.27 686.917 27
4 3 6 2755.95 339.977 25
4 3 7 2810.83 334.086 22
4 3 7 2733.7 319.377 9
4 3 7 2692.94 344.267 25
4 3 8 16878.4 801.087 22
4 3 8 17308.1 854.118 21
-4 3 -8 17712.8 836.474 19
4 3 8 15655.4 750.794 16
4 3 8 18348.8 823.156 9
4 3 8 16256.5 815.748 25
4 3 9 7986.89 484.801 22
4 3 9 7403.76 483.071 21
4 3 9 7188.58 486.568 25
-4 3 -9 7439 459.574 19
4 3 9 6476.99 397.03 16
4 3 9 8362.76 497.626 9
4 3 10 6679.76 363.046 21
-4 4 12 1124.61 132.415 21
-4 4 12 1055.31 116.169 16
-4 4 11 5816.81 374.025 26
-4 4 11 4581.26 352.292 21
-4 4 11 5567.3 366.215 16
-4 4 10 1787.39 250.782 21
-4 4 10 1618.35 212.668 20
-4 4 10 1952.58 247.131 26
-4 4 10 1559.81 220.603 16
-4 4 9 2884.9 341.54 21
-4 4 9 3135.99 304.735 12
-4 4 9 3587.86 357.503 26
-4 4 9 3209.81 322.308 20
-4 4 9 3261.61 349.632 16
-4 4 9 3658.12 362.44 15
-4 4 8 15829 816.704 21
-4 4 8 15325.5 733.239 12
-4 4 8 16573 730.616 6
-4 4 8 17896.2 813.237 26
-4 4 8 17237.4 793.634 20
-4 4 8 16978.7 837.874 16
-4 4 8 17805.9 808.354 15
-4 4 7 3974.91 596.006 2
-4 4 7 4392.58 410.695 21
-4 4 7 4705.07 393.648 12
-4 4 7 5052.1 394.989 6
-4 4 7 4857.72 410.345 20
-4 4 7 5662.22 434.181 15
4 4 -7 5303.16 697.652 29
-4 4 7 5701.82 438.644 26
-4 4 7 4645.26 413.847 16
-4 4 6 5351.2 628.011 2
4 4 -6 5987.87 741.867 4
-4 4 6 4692.7 397.136 21
-4 4 6 5354.13 409.41 12
-4 4 6 5207.63 401.559 6
-4 4 6 5556.4 427.029 20
-4 4 6 5620.8 433.581 16
-4 4 6 5373.56 409.271 15
4 4 -6 6638.23 755.49 29
-4 4 6 6241.57 437.827 26
4 4 -5 9345.54 853.991 29
-4 4 5 8513.16 723.334 2
-4 4 4 29543.6 1289.42 2
4 4 -4 31016.8 1489.76 29
-4 4 3 120516 3036.99 2
4 4 -3 127757 3349.76 29
-4 4 2 40559.4 1384.6 2
4 4 -2 38097.5 1489.35 29
4 4 -2 40964.4 1225.79 28
4 4 -1 17518.2 798.483 28
-4 4 1 18271.9 850.401 2
4 4 -1 16376.2 897.624 29
-4 4 1 18109.3 928.112 4
-4 4 0 27310.3 1061.88 2
4 4 0 27410.1 1073.04 28
4 4 0 25920.9 1137.44 29
-4 4 0 27102 1182.46 4
4 4 1 16806.8 864.573 28
4 4 1 14509.1 799.546 29
-4 4 -1 16325.5 923.102 4
4 4 2 25815.3 960.709 31
4 4 2 27415.7 1206.8 28
-4 4 -2 26243.2 1249.37 4
4 4 3 43144 1667.41 32
4 4 3 42039.4 1977.2 27
-4 4 -3 45508.8 1776.26 4
-4 4 -4 42018.9 1866.32 3
4 4 4 38857.5 1201.66 22
4 4 4 37366.3 1598.63 32
-4 4 -4 40876.9 1291.83 24
-4 4 -4 41128.8 1740.35 4
4 4 4 40973.8 1328.93 25
-4 4 -5 16637 1106.34 4
-4 4 -5 17819.9 837.394 24
4 4 5 18599.1 820.016 22
4 4 5 16570.9 749.026 33
4 4 5 14985.5 1019.82 32
4 4 5 18389.6 804.627 9
4 4 5 16553.6 1346.66 27
-4 4 -5 18630.1 1333.26 3
4 4 5 19679.4 909.998 25
4 4 6 255.607 121.43 25
-4 4 -6 84.068 81.4457 24
4 4 6 272.825 118.995 22
4 4 6 82.4473 70.7631 9
4 4 7 3268.97 359.695 22
4 4 7 3265.51 346.733 9
4 4 7 3516.93 387.066 25
4 4 8 2677.35 312.361 22
4 4 8 2681.58 331.918 21
-4 4 -8 2994.42 342.344 19
4 4 8 2315.34 293.759 16
4 4 8 2594.44 299.679 9
4 4 8 2707.64 328.279 25
4 4 9 1882.73 234.326 22
4 4 9 2247.51 265.163 21
-4 4 -9 2235.98 255.27 19
4 4 9 2020.31 228.629 16
4 4 9 2636.94 279.502 9
4 4 10 5361.26 320.369 21
-4 4 -10 3701.71 227.064 19
-4 5 11 8436.93 449.605 21
-4 5 11 7842.67 431.501 16
-4 5 10 3255.84 274.433 12
-4 5 10 3133.09 322.878 21
-4 5 10 3528.54 297.637 20
-4 5 10 3449.68 333.55 16
-4 5 10 4008.59 343.648 26
-4 5 9 3166.08 345.782 21
-4 5 9 2922.61 301.584 12
-4 5 9 3135.1 315.118 20
-4 5 9 3400.42 365.282 16
-4 5 9 3623.18 356.323 26
-4 5 8 8906.96 596.713 21
-4 5 8 9144.28 576.952 12
-4 5 8 10025.4 600.337 20
-4 5 8 9128.48 614.689 16
-4 5 8 10587.2 615.042 15
-4 5 8 10547.9 615.597 26
-4 5 7 2618.1 309.961 21
-4 5 7 2554.34 301.408 12
4 5 -7 1527 387.647 4
-4 5 7 2668.85 290.242 6
-4 5 7 2806.64 321.094 20
-4 5 7 2653.32 321.91 16
-4 5 7 2028.21 399.27 2
-4 5 7 2833.97 315.77 15
4 5 -7 2315.79 484.8 29
-4 5 7 2983.96 325.677 26
-4 5 6 2045.96 264.58 21
-4 5 6 1710.11 245.006 12
4 5 -6 1669.13 433.037 4
-4 5 6 2026.34 262.211 6
-4 5 6 2161.03 282.219 20
-4 5 6 2006.68 267.286 16
-4 5 6 1859.69 253.142 15
4 5 -6 1876.48 421.199 29
-4 5 6 1995.52 261.955 26
4 5 -5 929.907 305.202 4
-4 5 5 620.403 145.649 12
-4 5 5 761.086 173.585 20
4 5 -5 1266.84 357.857 29
-4 5 5 623.194 192.523 2
-4 5 5 762.409 156.601 26
4 5 -4 65604.7 2290.68 29
-4 5 4 53505.4 1816.02 2
-4 5 3 1362.45 255.301 2
4 5 -3 931.766 246.6 29
-4 5 2 31156.8 1175.25 2
4 5 -2 32575.3 1423.85 29
4 5 -2 32648.2 1109.3 28
-4 5 1 37748.5 1278.4 2
4 5 -1 36574.9 1495.6 29
4 5 -1 37815.7 1256.92 28
-4 5 1 40104.4 1514.66 4
-4 5 0 3647.35 369.583 2
4 5 0 3985.08 452.735 29
4 5 0 3488.98 375.234 28
-4 5 0 3600.52 440.99 4
4 5 1 9647.71 670.807 28
-4 5 -1 10438.1 778.114 4
4 5 1 9016.07 661.051 29
4 5 2 12629.3 835.356 28
4 5 2 10508.3 686.318 29
-4 5 -2 12685 894.096 4
4 5 3 1766.32 345.713 28
4 5 3 1613.08 320.681 32
4 5 3 1592.11 371.596 27
-4 5 -3 2705.78 438.349 4
4 5 4 3132.14 319.308 22
-4 5 -4 2536.95 425.195 4
-4 5 -4 2848.67 310.052 11
4 5 4 3079 315.711 33
-4 5 -4 3200.38 344.67 24
4 5 4 3534.19 489.702 32
4 5 4 3221.24 315.736 9
4 5 4 2260.27 444.436 27
4 5 4 2931.58 347.12 25
-4 5 -5 12297.2 1117.35 3
-4 5 -5 14590.2 781.446 24
4 5 5 14335.3 724.723 22
4 5 5 13298.5 681.2 33
4 5 5 11927.1 966.107 32
4 5 5 14995.7 727.091 9
4 5 5 11963.7 1120.97 27
-4 5 -5 12337.4 998.436 4
4 5 5 14000.6 784.025 25
-4 5 -6 25685.9 1060.75 24
4 5 6 25865 1037.27 22
4 5 6 25700.5 1015.53 9
4 5 6 25883.6 1122.05 25
-4 5 -7 6467.41 485.212 24
4 5 7 7628.92 546.389 22
4 5 7 7862.55 596.481 21
4 5 7 7645.91 532.205 9
4 5 7 7281.25 558.387 25
4 5 8 19546.3 855.248 22
4 5 8 19994.5 915.871 21
-4 5 -8 21056.5 933.309 19
4 5 8 18828.8 872.942 16
4 5 8 20766.9 867.914 9
4 5 9 12168.4 607.857 21
-4 5 -9 11726.6 581.326 19
4 5 9 10548.4 538.423 16
4 5 10 1546.49 166.194 21
-4 6 11 1437.82 166.11 21
-4 6 11 1773.7 195.905 16
-4 6 10 1105.2 161.384 12
-4 6 10 1149.34 168.927 20
-4 6 10 1110.56 191.393 16
-4 6 10 1319.05 197.241 21
-4 6 9 25624.7 978.16 21
-4 6 9 23762.1 931.582 12
-4 6 9 24103.2 921.138 20
-4 6 9 23289.9 980.101 16
-4 6 8 21296.1 910.363 21
-4 6 8 21517 941.481 12
-4 6 8 21594 917.51 20
-4 6 8 21488.1 971.14 16
-4 6 8 24696.2 965.608 26
-4 6 7 13198.8 695.549 26
-4 6 7 11758.1 651.325 21
-4 6 7 12090 685.878 12
-4 6 7 11703.8 631.501 6
-4 6 7 11693.7 676.621 20
-4 6 7 11616.1 684.927 16
4 6 -7 11213.2 1057.83 29
-4 6 6 1102.22 194.542 21
4 6 -6 1218.82 372.237 4
-4 6 6 847.403 186.811 12
-4 6 6 1099.07 217.316 20
-4 6 6 810.871 176.898 6
-4 6 6 1185.52 205.706 16
4 6 -6 1332.76 387.121 29
-4 6 6 1163.72 203.9 26
4 6 -5 22266.2 1537.27 4
-4 6 5 21611.3 893.342 12
-4 6 5 21147.4 954.003 20
-4 6 5 22165.6 930.078 6
-4 6 5 19328 837.062 16
4 6 -5 23282.6 1467.06 29
-4 6 5 19784.2 839.777 8
4 6 -4 32108.8 1825.99 4
4 6 -4 30746.6 1590.56 29
-4 6 4 29144.2 1261.9 2
-4 6 3 57549.4 1746.36 2
4 6 -3 57798.9 2160.38 29
-4 6 2 70260.4 1912.39 2
-4 6 2 73615.6 2217.35 4
4 6 -2 69322.5 1842.14 28
-4 6 1 52621.4 1552.05 2
4 6 -1 55852.9 1989.2 29
4 6 -1 53756.1 1617.86 28
-4 6 1 56930.1 1943.43 4
-4 6 0 165103 3406.1 2
4 6 0 179881 4018.89 29
4 6 0 165934 3626.18 28
-4 6 0 182994 4112.42 4
-4 6 -1 23789.6 984.798 2
4 6 1 25155 1204.2 29
4 6 1 23547.7 1134.72 28
4 6 2 83584.2 2337.32 29
4 6 2 91652.2 2542.98 28
-4 6 -2 87364.7 2721.41 4
-4 6 -3 39865.3 1356.15 24
4 6 3 40178.6 1248.38 22
-4 6 -3 37896.5 1795.37 4
-4 6 -3 38808.2 1295.33 11
4 6 3 38420.8 1211.11 33
4 6 3 38039.5 1779.8 32
4 6 4 456.131 141.623 33
-4 6 -4 236.172 102.316 24
4 6 4 421.056 127.004 22
-4 6 -4 225.915 169.643 4
-4 6 -4 133.308 97.3991 11
4 6 4 548.599 236.565 32
4 6 4 392.79 136.31 9
-4 6 -5 33413.6 1934.6 3
-4 6 -5 35194.8 1298.21 24
4 6 5 35669.9 1229.71 22
-4 6 -5 33729.7 1204.75 11
4 6 5 31456 1722.77 32
4 6 5 36420.7 1228.36 9
-4 6 -5 31395.2 1714.25 4
-4 6 -6 17066 868.038 24
4 6 6 17045.6 835.485 22
4 6 6 17462.9 824.816 9
-4 6 -7 2380.8 291.004 24
4 6 7 1928.95 273.937 22
4 6 7 2318.63 313.413 21
4 6 7 2300.12 287.506 9
4 6 8 997.55 200.659 21
4 6 8 720.62 174.214 16
4 6 9 3013.64 277.787 21
-4 6 -9 3307.29 294.265 19
4 6 9 2559.24 257.018 16
4 6 10 1040.59 122.564 21
-4 7 11 14404.7 479.457 21
-4 7 11 16258.4 564.754 16
-4 7 10 7006.75 399.467 21
-4 7 10 6603.99 398.093 12
-4 7 10 7594.32 458.263 16
-4 7 9 7002.11 451.283 21
-4 7 9 6498.85 457.719 12
-4 7 9 7039.23 455.666 20
-4 7 9 7722.49 520.923 16
-4 7 8 8013.49 504.529 21
-4 7 8 7777.19 549.461 12
-4 7 8 7784.59 534.921 20
-4 7 8 7713.54 547.374 16
-4 7 7 7233.12 482.848 21
-4 7 7 6615.73 513.716 12
-4 7 7 6714.44 516.48 20
-4 7 7 6847.3 517.081 16
4 7 -6 6145.75 857.992 4
-4 7 6 7648.04 541.747 12
-4 7 6 7568.91 569.762 20
-4 7 6 7414.29 529.463 6
-4 7 6 7164.96 512.178 16
4 7 -6 7132.27 845.338 29
-4 7 6 5743.46 455.861 8
4 7 -5 7383.19 929.993 4
-4 7 5 5933.73 461.364 12
-4 7 5 5559.6 425.722 16
-4 7 5 6404.3 536.722 20
-4 7 5 6100.15 487.383 6
4 7 -5 5744.73 756.396 29
-4 7 5 5143.6 436.719 8
-4 7 4 78440.6 1922.75 12
4 7 -4 75363.7 2761.73 29
-4 7 4 74962.1 1946.92 8
4 7 -3 68689 2788.13 4
4 7 -3 58800.4 2291.63 29
4 7 -2 22875.5 1311.42 29
-4 7 2 21139 1176.36 4
4 7 -1 12002.6 921.643 29
4 7 -1 12047.9 725.546 28
-4 7 1 11770 891.622 4
4 7 0 17814.6 1105.17 29
4 7 0 15663.6 883.845 28
-4 7 0 18194.4 1151.59 4
4 7 1 14436.1 956.671 29
-4 7 -1 14336.3 1057.06 4
-4 7 -2 6793.79 542.005 24
-4 7 -2 7760.04 549.518 11
4 7 2 8152.59 508.823 33
-4 7 -2 8348.43 829.39 4
-4 7 -3 1819.67 294.748 24
4 7 3 2183.94 286.262 33
4 7 3 2131.28 284.907 22
-4 7 -3 2239.21 454.731 4
-4 7 -3 2723.36 331.253 11
4 7 3 1839.58 406.834 32
-4 7 -4 19905.7 970.763 24
4 7 4 20824.8 914.712 22
-4 7 -4 20322.3 952.093 11
4 7 4 18948.5 1351.36 32
-4 7 -4 19909.2 1379.83 4
-4 7 -5 7924.61 603.078 24
4 7 5 7323.75 534.586 22
-4 7 -5 7727.73 556.003 11
-4 7 -5 5980.05 718.345 4
4 7 5 5439.58 769.862 32
-4 7 -6 17040.4 880.497 24
4 7 6 16390.1 819.21 22
-4 7 -7 11978 675.616 24
4 7 7 12502.8 689.076 21
4 7 8 6826.5 457.632 21
4 7 8 6349.71 459.937 16
4 7 9 10867.2 491.632 21
-4 7 -9 10445.9 509.122 19
4 7 9 10998.2 502.22 16
-4 8 11 792.329 101.462 16
-4 8 10 1470.74 156.12 21
-4 8 10 1615.57 183.718 12
-4 8 10 1801.34 203.86 16
-4 8 9 539.597 115.395 21
-4 8 9 257.36 116.635 12
-4 8 9 485.073 127.626 20
-4 8 9 570.932 134.703 16
-4 8 8 4380.75 401.061 12
-4 8 8 4505.27 399.93 20
-4 8 8 4689.3 402.729 16
-4 8 8 4219.34 334.001 21
-4 8 7 21018.4 934.973 12
-4 8 7 20526.4 946.077 20
-4 8 7 21077.4 908.076 16
-4 8 7 18838.6 841.722 8
-4 8 6 4640.58 421.32 12
-4 8 6 4118.2 430.811 20
-4 8 6 3937.28 399.897 6
-4 8 6 4426.4 390.101 16
-4 8 6 3975.03 387.857 8
4 8 -5 17235.6 1450.15 4
-4 8 5 15921 788.141 12
-4 8 5 16318.6 906.631 20
-4 8 5 14924 830.821 6
-4 8 5 14911.7 712.868 16
4 8 -5 15803.5 1290.49 29
-4 8 5 14479.5 781.699 8
-4 8 4 372.176 122.685 8
4 8 -4 843.968 325.546 4
-4 8 4 665.643 160.693 12
4 8 -4 212.094 166.455 29
-4 8 3 1221.19 227.992 8
-4 8 3 1625.95 225.408 12
4 8 -3 2075.89 477.786 4
4 8 -3 1241.72 345.16 29
4 8 -2 11531.5 1091.29 4
-4 8 2 10500 564.931 12
4 8 -2 10848 941.02 29
-4 8 2 10016.4 862.89 4
-4 8 2 10670.2 631.278 8
-4 8 1 115.215 82.4767 8
-4 8 1 263.459 199.458 4
4 8 -1 -213.075 182.914 4
-4 8 1 202.367 100.883 11
4 8 -1 242.401 155.271 29
-4 8 0 45353.1 1492.62 24
4 8 0 54423.9 2189.48 4
-4 8 0 58328.6 2283.6 4
-4 8 0 52165.1 1588.07 11
4 8 0 51307.5 2047.45 29
-4 8 0 50203.2 1499.11 8
-4 8 -1 13230.4 777.653 24
4 8 1 15304.8 1071.19 4
-4 8 -1 15193.4 813.201 11
4 8 1 13337 966.692 29
-4 8 -1 13860.6 720.782 8
-4 8 -1 16934.8 1223.18 4
-4 8 -2 10379 692.586 24
-4 8 -2 10308.2 671.503 11
-4 8 -2 11468.8 1034.55 4
-4 8 -3 10479.9 721.714 24
-4 8 -3 12156.9 734.274 11
4 8 3 11496.3 1051.1 32
-4 8 -3 11218.7 1052.44 4
-4 8 -4 19723.8 997.942 24
-4 8 -4 20372.7 975.419 11
-4 8 -4 19553.3 1447.01 4
4 8 4 20397.3 1448.18 32
-4 8 -5 24083.8 1120.54 24
-4 8 -5 25150.3 1068.41 11
-4 8 -6 1410.44 254.492 24
4 8 6 1468.86 230.044 21
-4 8 -7 6083.09 463.272 24
4 8 7 6705.53 467.129 21
4 8 7 6627.92 492.212 16
4 8 8 3576.1 300.03 21
4 8 8 3676.39 319.845 16
4 8 9 6268.41 321.73 21
4 8 9 6369.54 329.838 12
-4 8 -9 6141.05 347.819 19
4 8 9 6680.62 347.04 16
-4 9 10 5943.66 325.398 12
-4 9 10 6146.84 325.648 16
-4 9 9 17020.7 695.285 12
-4 9 9 16031.8 603.763 20
-4 9 9 15803.5 649.176 16
-4 9 8 32033.9 1090.11 12
-4 9 8 29755.3 1053.48 20
-4 9 8 31297.3 1034.4 16
-4 9 7 953.35 192.396 8
-4 9 7 1181.56 209.458 12
-4 9 7 941.816 209.382 20
-4 9 7 1044.74 189.885 16
-4 9 6 23367.7 903.952 16
-4 9 6 24444.7 988.785 12
-4 9 6 23903.8 1096.18 20
-4 9 6 21794.2 959.33 6
-4 9 6 21974.2 984.852 8
-4 9 5 3285.66 350.647 12
4 9 -5 3358.27 632.205 4
-4 9 5 3174.46 411.54 20
-4 9 5 2689.17 359.052 6
4 9 -5 2424.23 551.537 29
-4 9 5 3246.42 372.096 8
-4 9 4 1168.03 233.939 8
-4 9 4 1304.02 215.017 12
4 9 -4 1500.02 470.661 4
-4 9 3 37673.6 1210.43 12
4 9 -3 34183.6 1825.48 29
-4 9 3 38100.2 1340.85 8
-4 9 2 6303.78 721.817 4
4 9 -2 8066.73 933.959 4
-4 9 2 8615.52 508.956 12
-4 9 2 7301.45 540.801 11
4 9 -2 7176.16 788.079 29
-4 9 2 7975.58 567.124 8
-4 9 1 1348.03 230.923 8
-4 9 1 914.518 225.903 24
-4 9 1 955.656 311.383 4
4 9 -1 1563.79 394.221 4
-4 9 1 1303.96 189.286 12
-4 9 1 1431.35 249.099 11
4 9 -1 1256.01 337.713 29
-4 9 0 916.047 189.728 8
-4 9 0 533.858 161.115 24
-4 9 0 1061.58 343.531 4
4 9 0 1613.01 387.94 4
-4 9 0 993.87 211.188 11
4 9 0 837.249 261.958 29
-4 9 -1 2522.67 362.746 24
-4 9 -1 3202.61 571.292 4
-4 9 -1 2997.03 374.19 11
4 9 1 3327.34 503.279 29
-4 9 -1 3348.77 356.58 8
-4 9 -2 3955.18 461.935 24
4 9 2 4786.17 649.081 32
-4 9 -2 4059.51 438.193 11
-4 9 -2 5466.04 739.533 4
-4 9 -3 7619.18 619.818 24
4 9 3 9590.43 978.754 32
-4 9 -3 8695.62 643.477 11
-4 9 -3 7659.71 922.964 4
-4 9 -4 77.4782 90.1866 11
-4 9 -4 -16.2645 82.8435 24
-4 9 -5 15013.9 862.011 24
-4 9 -5 15342.2 824.537 11
-4 9 -6 7447.07 565.218 24
4 9 6 7222.97 488.131 21
-4 9 -7 1974.05 253.367 24
4 9 7 2483.7 255.927 21
4 9 7 2322.22 269.83 16
4 9 8 4465.6 295.809 21
-4 9 -8 4603.89 359.34 19
4 9 8 5273.49 349.992 16
4 9 9 1767.59 148.045 12
-4 9 -9 1757.31 159.043 19
4 9 9 1732.07 149.326 16
-4 10 10 249.477 62.063 12
-4 10 9 6555.01 381.505 12
-4 10 9 6383.83 345.329 16
-4 10 8 13410.3 626.235 12
-4 10 8 11829.2 575.53 20
-4 10 8 12234.3 551.142 16
-4 10 7 5503.71 380.481 16
-4 10 7 6199.61 449.076 12
-4 10 7 5805.52 466.562 20
-4 10 7 5268.24 426.184 8
-4 10 6 6246.36 465.866 12
-4 10 6 5331.28 501.759 20
-4 10 6 5698.1 474.941 8
-4 10 5 1420.08 233.579 12
-4 10 5 1283.56 276.967 20
-4 10 5 1071.77 228.061 6
-4 10 5 1570.62 270.935 8
-4 10 4 738.824 190.085 8
-4 10 4 976.282 186.323 12
4 10 -3 26347 1822.82 4
-4 10 3 23979.9 925.2 12
4 10 -3 21962.4 1491.32 29
-4 10 3 26046 1099.26 8
4 10 -2 16096.7 1343.38 4
-4 10 2 16277.7 710.778 12
-4 10 2 14114.7 806.046 11
4 10 -2 14288.2 1149.51 29
-4 10 2 16715.3 850.596 8
-4 10 1 4984.19 462.566 24
4 10 -1 5721.01 758.285 4
-4 10 1 5593.31 510.712 11
4 10 -1 5620.1 700.583 29
-4 10 1 4774.77 666.553 4
-4 10 1 6436.11 512.653 8
-4 10 0 2819.93 383.174 24
-4 10 0 4171.45 632.14 4
-4 10 0 3253.85 396.975 11
-4 10 0 3625.99 381.029 8
-4 10 -1 4958.35 493.79 24
-4 10 -1 5650.18 529.333 11
4 10 1 5214.08 669.522 29
-4 10 -1 5432.23 455.568 8
-4 10 -1 4032.45 646.529 4
-4 10 -2 11163.9 773.863 24
-4 10 -2 11641.3 766.542 11
4 10 2 10148.9 989.045 32
-4 10 -2 10550.1 1067.42 4
-4 10 -3 8842.12 674.531 24
-4 10 -3 8025.12 624.669 11
-4 10 -4 541.701 165.622 24
-4 10 -4 696.35 185.836 11
-4 10 -5 1012.11 226.136 24
4 10 5 712.824 154.569 21
-4 10 -5 1140.03 213.849 11
-4 10 -6 2878.78 338.498 24
4 10 6 2158.94 240.81 21
-4 10 -6 2279.86 258.216 11
4 10 6 2577.55 288.077 16
-4 10 -7 657.641 137.421 24
4 10 7 620.216 116.897 21
4 10 7 884.615 158.817 16
4 10 8 1731.28 151.91 21
4 10 8 2272.89 200.207 12
-4 10 -8 2382.88 223.733 19
4 10 8 2529.98 212.625 16
-4 11 9 12474.9 476.062 12
-4 11 8 10642.6 502.225 12
-4 11 8 10013.5 445.124 20
-4 11 8 9340.59 405.498 16
-4 11 7 4570.83 356.372 12
-4 11 7 4351.43 365.547 20
-4 11 7 4437.91 366.334 8
-4 11 6 10826.4 585.707 12
-4 11 6 10782.4 661.126 20
-4 11 6 10827 638.938 8
-4 11 5 8025.04 509.606 12
-4 11 5 6962.86 589.149 20
-4 11 5 6651.83 514.463 6
-4 11 5 7534.85 556.782 8
-4 11 4 9090.23 541.313 12
-4 11 4 10003.7 656.065 8
-4 11 3 8609.52 513.897 12
-4 11 3 7809.31 584.06 8
-4 11 2 809.469 195.398 8
-4 11 2 801.188 147.045 12
-4 11 2 606.56 164.811 11
-4 11 1 1279.72 244.914 24
-4 11 1 808.376 201.869 11
-4 11 1 1425.83 237.442 8
-4 11 0 5655.46 521.254 24
-4 11 0 6714.74 578.112 11
-4 11 -1 74.6963 106.499 24
-4 11 -1 97.8339 93.513 11
-4 11 -1 39.0967 68.6361 8
-4 11 -2 531.018 203.778 24
-4 11 -2 606.257 183.605 11
-4 11 -3 4710.98 486.106 24
-4 11 -3 4677.22 474.324 11
-4 11 -4 1310.47 255.285 24
-4 11 -4 1295.56 231.444 11
-4 11 -5 950.532 205.869 24
-4 11 -5 940.316 195.713 11
-4 11 -6 512.998 129.4 24
-4 11 -6 507.544 113.048 11
4 11 6 647.79 137.419 16
-4 11 -7 1080.86 148.475 24
4 11 7 1121.72 152.17 12
4 11 7 1343.47 166.808 16
4 11 8 1092.23 112.964 12
-4 11 -8 1233.1 133.759 19
4 11 8 970.437 107.193 16
-4 12 9 3652.33 198.665 12
-4 12 8 610.832 109.084 12
-4 12 7 10105.6 482.411 12
-4 12 7 9012.27 455.36 20
-4 12 7 8523.02 468.158 8
-4 12 6 1083.48 190.048 8
-4 12 6 1422.8 192.761 12
-4 12 6 1141.34 198.073 20
-4 12 5 19773.7 772.166 12
-4 12 5 17928.6 884.249 20
-4 12 5 16759.6 760.294 6
-4 12 5 18466.7 846.371 8
-4 12 4 100.021 90.8255 8
-4 12 4 148.057 80.9875 12
-4 12 4 61.2678 111.975 20
-4 12 3 14867.4 655.134 12
-4 12 3 14667.4 785.311 8
-4 12 2 10346.9 676.974 11
-4 12 2 11247.6 681.035 8
-4 12 1 2571.97 317.467 24
-4 12 1 2501.67 332.158 11
-4 12 1 3080.51 349.498 8
-4 12 0 37454.5 1360.97 24
-4 12 0 40202.4 1455.7 11
-4 12 0 38221.7 1296.55 8
-4 12 -1 2979.56 377.222 24
-4 12 -1 2494.93 349.706 11
-4 12 -2 1055.3 224.699 24
-4 12 -2 1227.19 251.706 11
-4 12 -3 5244.8 481.334 11
-4 12 -3 4733.54 470.81 24
-4 12 -4 3558.08 383.415 24
-4 12 -4 3315.93 359.211 11
-4 12 -5 4325.41 393.458 24
-4 12 -5 3558.92 330.36 11
4 12 5 4042.82 315.26 16
4 12 6 549.571 101.617 12
4 12 6 555.244 110.095 16
-4 12 -6 697.573 140.105 24
4 12 7 2994.85 194.524 12
-4 12 -7 2636.99 211.122 19
4 12 7 2895.14 193.729 16
-4 13 8 11384.6 385.96 12
-4 13 7 2919.59 217.544 12
-4 13 7 2909.75 231.847 8
-4 13 6 2276.64 214.132 12
-4 13 6 2219.29 232.631 20
-4 13 6 2405.65 249.151 8
-4 13 5 155.103 94.5419 8
-4 13 5 189.659 77.491 12
-4 13 5 244.177 107.556 20
4 13 -5 431.487 132.266 11
-4 13 4 9272.36 466.911 12
-4 13 4 9356.82 606.089 20
-4 13 4 7856.36 510.008 6
-4 13 4 9481.48 577.962 8
-4 13 3 4358.49 396.147 8
-4 13 2 3324.93 346.823 11
-4 13 2 3521.7 361.527 8
-4 13 1 6577.91 513.888 11
-4 13 1 6939.32 499.704 8
-4 13 0 2662.94 321.91 24
-4 13 0 2950.08 353.919 11
-4 13 0 2828 308.893 8
-4 13 -1 14590 789.256 24
-4 13 -1 15999.1 841.297 11
-4 13 -2 5068.75 452.067 24
-4 13 -2 5009.79 454.985 11
-4 13 -3 15757.5 791.626 24
-4 13 -3 15996.3 790.635 11
-4 13 -4 7633.01 488.268 11
-4 13 -4 8013.74 525.384 24
-4 13 -5 895.417 164.933 24
-4 13 -5 701.117 133.629 11
4 13 5 779.511 115.215 16
-4 13 -6 12012.7 486.29 24
-4 14 6 1049.28 115.943 12
-4 14 6 1071.63 119.767 20
-4 14 6 1192.73 154.33 8
-4 14 5 11194.7 437.126 12
-4 14 5 10962.8 520.107 20
4 14 -5 11453.3 574.324 11
-4 14 5 12483.4 565.95 8
-4 14 4 710.813 161.953 20
-4 14 4 739.808 139.052 6
4 14 -4 873.997 183.428 11
-4 14 4 1083.7 185.965 8
-4 14 3 21809.9 856.131 8
-4 14 2 8981.01 520.601 11
-4 14 2 11715.2 606.34 8
-4 14 1 640.712 142.035 8
-4 14 1 999.248 191.929 11
-4 14 0 14825.1 685.791 24
-4 14 0 15980.4 767.711 11
-4 14 -1 407.668 124.632 24
-4 14 -1 466.037 141.339 11
-4 14 -2 3795.35 348.521 24
-4 14 -2 3497.89 346.719 11
-4 14 -3 11735.9 602.675 24
-4 14 -3 11657.4 602.437 11
-4 14 -4 8396.85 471.098 24
-4 14 -4 8233.09 446.69 11
-4 14 -5 7256.38 373.865 24
-4 14 -5 6544.27 318.388 11
-4 15 5 5935.09 297.747 20
4 15 -5 7641.4 377.465 11
-4 15 4 3133.12 265.177 20
4 15 -4 3503.8 303.195 11
-4 15 4 3272.1 263.585 8
-4 15 3 7492.59 451.366 20
4 15 -3 8997.31 526.964 11
-4 15 3 8023.04 433.299 8
-4 15 2 4873.04 315.723 11
4 15 -2 6326.74 454.019 11
-4 15 2 5851.87 374.876 8
-4 15 1 6463.5 403.375 11
-4 15 0 1486.25 177.2 24
-4 15 0 2270.99 245.488 11
-4 15 -1 3539.8 292.046 24
-4 15 -1 3924.64 324.661 11
4 15 1 3547.07 289.149 11
-4 15 -2 86.9591 61.7668 24
-4 15 -2 150.134 76.8434 11
4 15 2 134.486 57.8679 11
-4 15 -3 1373.35 173.434 24
-4 15 -3 1357.18 169.953 11
-4 15 -4 3782.37 251.164 24
-4 15 -4 3778.98 240.651 11
-4 16 3 180.134 68.6493 20
4 16 -3 165.163 66.5176 11
-4 16 2 4523.3 302.574 20
4 16 -2 5691.55 357.621 11
-4 16 1 815.362 113.251 11
4 16 -1 1372.23 175.824 11
-4 16 0 5535.87 318.495 11
4 16 0 6147.9 349.188 11
-4 16 -1 4364.58 282.425 11
4 16 1 3302.34 223.386 11
-4 16 -2 3852.64 253.579 11
5 -16 -2 1969.31 148.391 13
-5 -16 2 1809.93 146.051 7
5 -16 -1 351.729 69.9347 13
-5 -16 1 397.811 73.8942 7
5 -16 0 5249.72 245.991 13
-5 -16 0 3472.16 209.06 7
5 -15 -5 6699.69 276.295 13
-5 -15 4 903.571 109.937 25
5 -15 -4 856.729 111.214 13
-5 -15 4 667.835 93.9161 7
-5 -15 3 1877.78 169.188 25
5 -15 -3 1967.83 176.749 13
-5 -15 3 1754.5 174.648 7
-5 -15 2 10853.7 440.054 25
-5 -15 2 12159.6 499.982 7
-5 -15 1 2892.46 213.498 25
5 -15 -1 2910.33 228.907 13
5 -15 0 7828.82 374.896 13
-5 -15 0 7029.86 331.575 25
5 -15 1 9507.3 400.477 13
-5 -15 -1 7551.7 326.519 25
5 -15 2 5243.92 273.937 13
5 -15 2 4311.09 252.018 15
5 -15 3 79.2292 38.1657 13
-5 -14 6 1034.04 119.933 25
5 -14 -6 1103.87 119.019 13
-5 -14 5 5015.05 297.174 25
5 -14 -5 5552.14 296.469 13
-5 -14 4 3100.07 253.767 25
5 -14 -4 3420.85 253.729 13
-5 -14 4 2982.7 245.142 7
-5 -14 4 2990.08 206.639 10
-5 -14 3 7706.48 414.139 25
5 -14 -3 7923.76 412.401 13
-5 -14 3 7640.9 430.774 7
-5 -14 3 6482.99 328.018 10
-5 -14 2 7544.16 422.303 25
5 -14 -2 7901.59 426.915 13
5 -14 -1 5619.42 361.804 13
5 -14 0 203.521 90.2905 13
5 -14 1 6464.86 380.972 13
5 -14 2 630.194 124.155 13
5 -14 3 3127.78 228.89 15
5 -14 3 2750.4 194.909 26
5 -14 4 3270.13 213.628 13
-5 -13 7 288.869 70.4098 25
5 -13 -7 404.466 75.5656 13
-5 -13 7 210.449 52.6199 10
-5 -13 6 981.81 143.215 25
5 -13 -6 1040.37 139.653 13
-5 -13 6 944.794 125.447 10
-5 -13 5 3214.01 275.115 25
5 -13 -5 2904.91 246.713 13
-5 -13 5 2682.59 225.381 10
-5 -13 4 5310.65 372.913 25
5 -13 -4 5268.73 355.206 13
-5 -13 4 4738.26 352 7
-5 -13 4 4599.1 316.304 10
5 -13 -3 11359.5 548.067 13
-5 -13 3 10144 490.382 10
-5 -13 3 11135.2 571.6 25
5 -13 -2 14600.1 632.633 13
-5 -13 2 12923.4 564.349 10
5 -13 -1 13554.6 617.01 13
-5 -13 1 12323.7 590.209 19
-5 -13 1 11783 533.474 10
5 -13 0 1077.24 177.517 13
-5 -13 0 1111.19 156.173 10
-5 -13 0 1136.52 181.37 19
5 -13 1 1397.37 199.878 13
-5 -13 -1 1337.25 181.121 19
-5 -13 -1 1180.17 157.814 10
5 -13 2 6578.42 407.52 13
-5 -13 -2 5650.25 351.974 19
-5 -13 -3 3910.61 258.746 19
5 -13 3 3591.97 296.67 15
5 -13 3 4278.49 318.871 13
5 -13 4 2986.94 241.731 13
5 -13 4 2596.37 211.915 15
5 -13 4 2536.6 213.848 26
5 -13 5 366.918 82.9055 13
5 -13 5 317.189 72.6493 26
-5 -12 8 965.25 122.764 25
5 -12 -8 824.918 101.385 13
-5 -12 8 805.33 101.399 10
-5 -12 7 8761.31 439.817 25
5 -12 -7 9225.97 412.13 13
-5 -12 7 8150.85 396.656 10
-5 -12 6 1005.19 169.443 25
5 -12 -6 988.665 150.605 13
-5 -12 6 1141.67 159.921 10
-5 -12 5 46104.7 1289.74 25
5 -12 -5 45957 1222.41 13
-5 -12 5 45060.2 1213.52 10
5 -12 -4 9058.82 503.713 13
-5 -12 4 9127.69 545.802 25
-5 -12 4 9448.17 511.6 10
5 -12 -3 10455.5 554.698 13
-5 -12 3 9738.92 526.318 10
5 -12 -2 4123.89 347.211 13
-5 -12 2 4063.44 355.631 19
-5 -12 2 4110.63 339.992 10
5 -12 -1 9946.05 552.215 13
-5 -12 1 9690.75 555.611 19
-5 -12 1 9913.75 531.957 10
-5 -12 1 9908.91 587.384 14
5 -12 0 4259.41 362.252 13
-5 -12 0 3762.58 339.382 19
-5 -12 0 3816.61 327.521 10
-5 -12 0 3863.94 360.147 14
5 -12 1 393.24 121.959 13
-5 -12 -1 504.385 137.819 19
-5 -12 -1 247.417 103.416 14
5 -12 2 9199.88 528.32 13
-5 -12 -2 9255.83 499.83 19
-5 -12 -2 8493.89 493.597 14
5 -12 3 1090.73 182.551 13
-5 -12 -3 1082.08 160.98 19
5 -12 4 1134.63 172.435 13
-5 -12 -4 973.149 131.827 19
5 -12 4 969.433 151.352 15
5 -12 5 4651.93 306.28 13
5 -12 5 4169.81 286.992 26
5 -12 6 11525 435.718 13
5 -12 6 10862.3 410.527 26
-5 -11 9 15159.6 470.878 25
-5 -11 9 14309.1 456.191 10
-5 -11 8 2453.67 225.266 25
5 -11 -8 2810.51 218.468 13
-5 -11 8 2590.64 222.137 10
-5 -11 7 13650.2 612.262 25
5 -11 -7 13227.9 561.536 13
-5 -11 7 12962.9 577.499 10
-5 -11 6 11576.7 615.512 25
5 -11 -6 12796.7 588.892 13
-5 -11 6 11403.8 583.534 10
-5 -11 5 11966.4 637.577 25
5 -11 -5 11936.2 592.901 13
-5 -11 5 10980.5 589.579 10
-5 -11 4 8701.51 551.21 25
5 -11 -4 7261.07 474.815 13
-5 -11 4 7135.72 479.1 10
5 -11 -3 3228.03 316.528 13
-5 -11 3 3249.09 326.413 19
-5 -11 3 2736.22 312.94 17
-5 -11 3 3078.9 311.312 10
-5 -11 3 2958.5 325.26 14
5 -11 -2 5159.08 403.11 13
-5 -11 2 4895.7 404.376 19
-5 -11 2 4484.8 398.305 17
-5 -11 2 5100.7 401.842 10
-5 -11 2 5105.1 426.174 14
5 -11 -1 24833 938.808 13
-5 -11 1 24770.2 950.032 19
-5 -11 1 24242.6 955.179 17
-5 -11 1 24932.6 960.387 10
-5 -11 1 25939.3 1013.25 14
5 -11 0 3421.09 337.185 13
-5 -11 0 2833.89 306.671 19
-5 -11 0 3106.43 315.674 17
-5 -11 0 3143.16 336.069 14
5 -11 1 24145.8 940.004 13
-5 -11 -1 23245.3 905.247 19
-5 -11 -1 22583.5 858.925 17
-5 -11 -1 24531.7 956.668 14
5 -11 2 23508.3 930.348 13
-5 -11 -2 23971.4 889.897 19
-5 -11 -2 23418.7 905.574 14
5 -11 3 11755.8 627.06 13
-5 -11 -3 11671.1 574.817 19
-5 -11 -3 10954.9 558.005 14
5 -11 4 6082.1 433.453 13
-5 -11 -4 5641.08 361.185 19
5 -11 4 5749.91 404.407 15
5 -11 5 6526.81 414.321 13
5 -11 5 7209.58 431.215 26
5 -11 6 2433.9 225.122 13
5 -11 6 2445.11 222.334 26
5 -11 7 1954.15 167.907 9
5 -11 7 1634.27 144.005 26
5 -11 7 1795.71 157.336 13
-5 -10 9 8907.68 408.656 25
5 -10 -9 8932.41 374.375 13
-5 -10 9 9366.96 414.968 10
-5 -10 8 17652.7 697.822 25
5 -10 -8 16961.8 633.833 13
-5 -10 8 18154.4 692.144 10
-5 -10 7 1548.72 221.921 25
5 -10 -7 1820.36 224.427 13
-5 -10 7 1863.09 241.296 10
-5 -10 6 7808.94 519.804 25
5 -10 -6 8018.28 489 13
-5 -10 6 7385.52 492.889 10
-5 -10 5 784.231 182.414 25
5 -10 -5 867.323 173.116 13
-5 -10 5 1139.4 200.766 10
5 -10 -4 12888.7 647.107 13
-5 -10 4 10993.4 638.328 17
-5 -10 4 11905 641.887 10
-5 -10 4 10630.4 617.142 14
5 -10 -3 7953.21 505.379 13
-5 -10 3 7776 528.31 19
-5 -10 3 8099.47 552.694 17
-5 -10 3 8746.05 546.337 10
-5 -10 3 8499.05 556.502 14
5 -10 -2 1810.87 243.889 13
-5 -10 2 1885 256.164 19
-5 -10 2 1687.47 255.402 17
-5 -10 2 1965.74 264.453 10
-5 -10 2 1821.91 266.057 14
5 -10 -1 29582 1042.64 13
-5 -10 1 31510.5 1087.85 19
-5 -10 1 30112.3 1104.79 17
-5 -10 1 31132.7 1151.48 14
5 -10 0 189.01 85.0112 13
-5 -10 0 178.398 104.494 19
-5 -10 0 89.4511 81.5688 17
-5 -10 0 281.875 122.685 14
5 -10 1 12581.9 671.745 13
-5 -10 -1 13050.6 673.786 19
-5 -10 -1 12484.5 647.391 17
-5 -10 -1 13208.2 702.216 14
5 -10 2 16530.8 791.067 13
-5 -10 -2 15912.7 742.407 19
-5 -10 -2 16351.1 767.596 14
5 -10 3 3493.74 354.575 13
-5 -10 -3 3250.55 318.646 19
-5 -10 -3 2913.61 299.028 14
5 -10 4 31862.3 1109.18 13
-5 -10 -4 32587 1026.31 19
5 -10 4 29979.8 1060.18 15
5 -10 5 8272.36 512.104 13
-5 -10 -5 7587.78 417.76 19
5 -10 6 6905.66 428.155 13
5 -10 6 7063.53 430.213 26
5 -10 7 15197.5 558.574 26
5 -10 7 14701.2 551.281 13
-5 -9 10 21672.4 627.24 10
-5 -9 9 2880.36 252.907 25
5 -9 -9 2814.29 228.441 13
-5 -9 9 3264.83 271.173 10
-5 -9 8 3759.3 336.798 25
-5 -9 8 4294.22 349.759 10
-5 -9 7 8049.13 529.456 25
-5 -9 7 7180.39 434.51 18
-5 -9 7 8175.39 525.325 10
-5 -9 6 21704.7 920.339 25
-5 -9 6 21056.8 893.199 10
-5 -9 5 10897.3 644.849 25
5 -9 -5 10581.8 601.571 13
-5 -9 5 10364.5 611.501 17
-5 -9 5 9804.03 595.769 10
5 -9 -4 73133.1 1828.26 13
-5 -9 4 72884.2 1892.3 17
-5 -9 4 73851.7 1872.7 10
-5 -9 4 70175.2 1828.64 14
5 -9 -3 80652.2 1972.17 13
-5 -9 3 80495.8 2014.2 19
-5 -9 3 82895.5 2091.97 17
5 -9 -3 84712.9 2883.31 30
-5 -9 3 88605.6 2087.64 10
5 -9 -3 81906.6 2898.87 28
-5 -9 3 83701.9 2079.13 14
5 -9 -2 74683.1 1861.84 13
-5 -9 2 73925 2942.68 1
-5 -9 2 82584.1 1964.05 19
-5 -9 2 79459.3 2007.28 17
5 -9 -2 77548.5 2728 30
5 -9 -2 73868.9 2644.92 28
-5 -9 2 81533.1 2038.59 14
5 -9 -1 14948.2 711.206 13
-5 -9 1 16873.6 793.713 17
-5 -9 1 16858.9 768.061 19
-5 -9 1 14441.8 1184.89 1
5 -9 -1 15403.2 1130.53 30
5 -9 -1 14432 1026.75 28
-5 -9 1 16567.2 799.182 14
5 -9 0 5641.81 434.089 13
-5 -9 0 5161.32 681.211 1
-5 -9 0 5430.21 431.243 17
-5 -9 0 4737.14 553.376 3
-5 -9 0 5903.49 442.662 19
5 -9 0 6410.13 705.527 30
-5 -9 0 5988.71 474.952 14
5 -9 1 25396.5 992.216 13
-5 -9 -1 25844.3 1363.22 3
-5 -9 -1 26414 991.902 19
-5 -9 -1 25150.2 958.891 17
5 -9 1 23983 1465.85 30
-5 -9 -1 22942.2 1441.98 1
-5 -9 -1 26390.8 1026.67 14
5 -9 2 4030.76 380.23 13
-5 -9 -2 3977.7 361.235 19
-5 -9 -2 4203.26 388.854 14
5 -9 3 6514.17 499.399 13
-5 -9 -3 7060.94 477.65 19
-5 -9 -3 7240.3 492.801 14
5 -9 4 10397.8 629.706 13
-5 -9 -4 10796.6 580.698 19
5 -9 4 8952.56 565.285 15
5 -9 5 1118.71 206.967 13
-5 -9 -5 1210.84 186.277 19
5 -9 6 1355.55 215.339 13
5 -9 6 1802.17 238.769 26
5 -9 7 5636.97 367.262 13
5 -9 7 5514.11 364.089 26
5 -9 8 2369.06 193.816 9
5 -9 8 2208.16 182.776 26
5 -9 8 2154.49 180.1 13
-5 -8 10 1229.71 144.276 25
5 -8 -10 1428.3 138.795 13
-5 -8 10 1648.92 178.626 10
-5 -8 9 10417.4 537.421 25
-5 -8 9 12526.9 585.206 10
-5 -8 8 9173.49 557.891 25
-5 -8 8 9646.82 570.163 10
-5 -8 8 9037.14 510.205 18
-5 -8 7 15385.9 775.033 25
-5 -8 7 14694.5 697.194 18
-5 -8 7 15265.9 760.249 10
-5 -8 6 42200.4 1376.44 25
-5 -8 6 38542.4 1320.09 6
-5 -8 6 40692.2 1238.09 18
-5 -8 6 38968.8 1250.08 17
-5 -8 6 43086 1366.38 10
-5 -8 5 10196.2 627.805 25
-5 -8 5 9010.52 579.263 6
-5 -8 5 8863.04 517.632 18
-5 -8 5 8965.05 564.966 17
-5 -8 5 9710.49 598.017 10
-5 -8 5 8195.05 520.966 14
5 -8 -4 29534.7 1065.19 13
-5 -8 4 28910 1086.76 6
-5 -8 4 28673.8 1061.74 19
-5 -8 4 33481 1152.64 10
5 -8 -4 33367.9 1696.47 30
5 -8 -4 30213.1 1698.05 28
-5 -8 4 30872.7 1097.2 14
-5 -8 4 34683.2 1171.82 17
-5 -8 3 9930.65 578.082 6
-5 -8 3 11120 610.697 19
5 -8 -3 10230.2 573.006 13
-5 -8 3 11539.4 648.437 17
5 -8 -3 12134 965.731 30
-5 -8 3 12340 657.129 10
5 -8 -3 11479.1 987.044 28
-5 -8 3 11148.5 634.86 14
-5 -8 2 4692.79 657.07 1
5 -8 -2 4132.29 349.733 13
-5 -8 2 4923.91 419.118 17
-5 -8 2 4568.07 384.402 19
5 -8 -2 4764.65 599.104 30
5 -8 -2 4106.06 566.699 28
-5 -8 2 4804.48 414.331 14
-5 -8 1 3671.17 356.767 17
5 -8 -1 3414.2 319.215 13
-5 -8 1 3746.47 350.879 19
-5 -8 1 4201.01 629.289 1
5 -8 -1 4172.94 560.637 30
5 -8 -1 3368.64 480.502 28
-5 -8 1 3353.44 350.313 14
-5 -8 0 30601.4 1656.45 1
5 -8 0 29251.4 1033.82 13
-5 -8 0 30749.9 1075.79 17
-5 -8 0 31507 1407 3
-5 -8 0 30034.8 1055.74 19
5 -8 0 29692.1 1563.11 30
5 -8 0 28172.2 1393.04 28
-5 -8 0 31131.3 1122.27 14
5 -8 1 6081.68 452.281 13
-5 -8 -1 5618 422.27 17
-5 -8 -1 5776.73 437.379 19
-5 -8 -1 5348.53 592.91 3
5 -8 1 5692.22 671.075 30
-5 -8 -1 4925.68 635.235 1
-5 -8 -1 5698 453.418 14
5 -8 2 3166.97 517.397 30
-5 -8 -2 3957.29 366.201 19
-5 -8 -2 3644.4 506.367 3
5 -8 2 3745.42 368.436 13
5 -8 2 2887.37 429.227 31
-5 -8 -2 3747.67 367.458 14
5 -8 3 1058.28 213.83 13
-5 -8 -3 1164.26 198.043 19
-5 -8 -3 839.778 172.36 14
5 -8 4 13068.6 722.302 13
-5 -8 -4 14104.1 684.437 19
5 -8 5 4320.65 403.392 13
-5 -8 -5 4942.05 379.205 19
5 -8 6 5366.83 432.465 13
-5 -8 -6 5360.11 361.091 19
5 -8 6 5867.49 446.904 26
5 -8 7 11805.2 587.462 13
5 -8 7 10925.9 564.727 26
5 -8 8 4391.37 274.303 22
5 -8 8 5073.72 333.449 9
5 -8 8 4418.96 294.471 26
5 -8 8 4550.09 298.265 13
-5 -7 10 2304.14 212.363 25
-5 -7 10 2570.72 245.786 10
-5 -7 9 2013.35 250.075 25
-5 -7 9 1751.12 195.971 15
-5 -7 9 2409.44 261.304 18
-5 -7 9 2189.59 265.213 10
-5 -7 8 17349.9 814.488 25
-5 -7 8 17357.5 809.298 6
-5 -7 8 18586.5 833.408 20
-5 -7 8 18158.3 834.915 10
-5 -7 8 18123.3 787.051 18
-5 -7 7 14356.1 767.106 25
-5 -7 7 14257.2 763.562 6
-5 -7 7 14813.9 763.038 20
-5 -7 7 14455.5 721.465 18
-5 -7 7 15529.1 787.806 10
-5 -7 6 3087.49 351.135 25
-5 -7 6 2949.09 334.131 6
-5 -7 6 2626.05 309.382 20
-5 -7 6 3159.37 322.891 18
-5 -7 6 2671.17 293.562 17
-5 -7 6 3193.61 353.537 10
-5 -7 5 14965.2 768.617 25
-5 -7 5 13200.4 712.16 6
-5 -7 5 12857.6 684.659 20
-5 -7 5 13626.3 673.228 18
-5 -7 5 14818.7 749.884 10
5 -7 -5 12978.3 1035.53 30
5 -7 -5 13380.7 1112 28
-5 -7 5 12796.5 642.713 14
-5 -7 5 13247.3 690.842 17
-5 -7 4 8930.01 550.684 6
-5 -7 4 10048.6 589.007 17
-5 -7 4 7716.47 502.786 20
-5 -7 4 7419.09 494.014 19
-5 -7 4 8277.11 501.203 18
-5 -7 4 9594.05 578.401 10
5 -7 -4 10254.7 870.591 30
5 -7 -4 10118.4 936.461 28
-5 -7 4 8489.56 532.13 14
5 -7 -3 6200.12 432.285 13
-5 -7 3 6026.16 456.06 23
-5 -7 3 5594.27 417.487 6
-5 -7 3 5805.31 424.474 19
-5 -7 3 6694.77 476.945 17
5 -7 -3 6845.63 704.549 30
-5 -7 3 6593.21 487.859 10
5 -7 -3 6230.09 709.489 28
-5 -7 3 5921.07 446.743 14
5 -7 -2 21257 821.632 13
-5 -7 2 22483.7 903.552 17
-5 -7 2 22914.8 915.115 23
-5 -7 2 20377.2 1369.39 1
-5 -7 2 21984.1 866.634 19
5 -7 -2 24682.8 1329.96 30
5 -7 -2 24606.8 1372.46 28
-5 -7 2 22475 910.592 14
5 -7 -1 1184.04 186.534 13
-5 -7 1 1826.4 247.99 23
-5 -7 1 1269.61 319.289 1
-5 -7 1 1413.36 206.82 19
-5 -7 1 1251.34 205.75 17
5 -7 -1 853.982 242.649 30
5 -7 -1 1723.36 331.973 28
-5 -7 1 1468.3 219.314 14
-5 -7 0 12028.2 637.189 24
-5 -7 0 12145.4 986.919 1
5 -7 0 11812.5 600.652 13
-5 -7 0 11526.5 627.518 23
-5 -7 0 12111.9 613.924 19
-5 -7 0 10416.3 765.383 3
-5 -7 0 12008.7 621.46 17
5 -7 0 9992.83 855.725 30
5 -7 0 10574.1 819.895 28
-5 -7 0 12184.7 651.292 14
-5 -7 -1 31023.7 1080.06 24
5 -7 1 29528.8 1037.92 13
-5 -7 -1 31353.2 1095.76 14
-5 -7 -1 30586.5 1042.34 19
-5 -7 -1 31099.8 1411.96 3
-5 -7 -1 29814.1 1031.56 17
5 -7 1 31635.6 1592.15 30
-5 -7 -1 29101.9 1526.43 1
5 -7 1 30617.8 1371.46 28
5 -7 2 1597.39 241.742 13
-5 -7 -2 1439.78 217.924 24
-5 -7 -2 1645.84 232.182 19
5 -7 2 1948.58 401.934 30
-5 -7 -2 1278.45 279.842 3
-5 -7 -2 1510.54 229.484 14
5 -7 3 3529.05 365.443 13
-5 -7 -3 3904.09 355.882 24
5 -7 3 2698.76 477.672 31
-5 -7 -3 3980.15 356.002 19
-5 -7 -3 3207.24 476.324 3
-5 -7 -3 2915.38 438.537 5
-5 -7 -3 3700.98 352.844 14
5 -7 4 2007.75 287.091 13
-5 -7 -4 2476.46 283.176 24
-5 -7 -4 1991.66 254.885 19
5 -7 5 1281.67 225.913 13
-5 -7 -5 1170.4 196.596 19
5 -7 6 81.3799 100.986 13
-5 -7 -6 109.095 72.1153 19
5 -7 6 136.205 106.693 26
5 -7 7 803.799 171.761 13
5 -7 7 986.148 182.944 26
5 -7 8 1919.52 230.14 9
5 -7 8 1771.01 196.653 22
5 -7 8 1842.54 209.898 26
5 -7 8 1854.87 212.284 13
5 -7 9 2888.38 197.703 9
5 -7 9 2198.71 167.797 26
-5 -6 10 1680.04 192.586 25
-5 -6 10 1920.79 230.435 10
-5 -6 10 1540.43 179.116 15
-5 -6 9 12687.5 647.458 25
-5 -6 9 11755 585.169 15
-5 -6 9 14942.4 712.451 20
-5 -6 9 14340 689.9 18
-5 -6 9 14516.3 713.674 10
-5 -6 8 28476.6 1099.32 25
-5 -6 8 30245.8 1119.75 6
-5 -6 8 32158.1 1129.24 20
-5 -6 8 31674 1116.65 18
-5 -6 8 31428.1 1158.18 10
-5 -6 7 4096.09 407.916 25
-5 -6 7 4520.13 417.395 6
-5 -6 7 4636.49 416.806 20
-5 -6 7 4610.67 412.304 18
-5 -6 7 4512.27 422.891 10
-5 -6 6 2984.78 345.49 25
-5 -6 6 3267.54 350.327 6
-5 -6 6 3100.03 340.057 20
-5 -6 6 3157.97 339.006 18
-5 -6 6 3186.27 319.293 17
-5 -6 6 3350.94 361.614 10
5 -6 -6 2204.95 417.047 30
5 -6 -6 2467.22 484.391 28
-5 -6 5 1674.76 256.3 25
-5 -6 5 1292.31 215.743 6
-5 -6 5 1504.24 223.437 20
-5 -6 5 1199.44 190.736 19
-5 -6 5 1604.21 232.587 18
-5 -6 5 1475.64 225.404 17
5 -6 -5 1975.16 381.912 30
-5 -6 5 1334.01 224.068 10
5 -6 -5 1569.73 371.111 28
-5 -6 4 18654.7 807.475 23
-5 -6 4 19565.1 824.379 17
-5 -6 4 18262.1 778.642 6
-5 -6 4 18159 761.809 20
-5 -6 4 18089.7 758.135 19
-5 -6 4 16997.2 1004.96 2
-5 -6 4 17805.6 768.161 18
-5 -6 4 20345.8 854.716 10
5 -6 -4 20269.1 1207.04 30
5 -6 -4 20862 1314.67 28
-5 -6 4 18315.3 789.837 14
-5 -6 3 3784.19 340.26 23
-5 -6 3 3975.31 352.035 17
-5 -6 3 3413.6 310.077 19
-5 -6 3 3457.85 417.285 2
5 -6 -3 3753.18 501.911 30
5 -6 -3 4662.77 576.821 28
-5 -6 3 3953.98 349.012 14
-5 -6 2 17475.5 755.351 23
-5 -6 2 17204.8 1173.13 1
-5 -6 2 17412.5 929.728 2
-5 -6 2 17573.7 750.333 17
5 -6 -2 17660.3 1072.63 30
5 -6 -2 17452.4 1109.97 28
-5 -6 2 16674.9 745.054 14
-5 -6 1 3351.74 314.124 24
-5 -6 1 3137.39 300.425 23
-5 -6 1 3215 379.696 2
-5 -6 1 3350.96 311.007 17
-5 -6 1 3208.02 487.842 1
5 -6 -1 4274.74 516.207 30
5 -6 -1 3005.29 435.954 28
-5 -6 0 17904.4 768.412 24
-5 -6 0 19796.4 1188.5 1
-5 -6 0 18932 954.376 2
-5 -6 0 18473.7 754.936 19
-5 -6 0 17393.6 948.364 3
5 -6 0 19410.2 1150.05 30
5 -6 0 19202.5 1085.01 28
-5 -6 -1 28273.8 993.78 24
5 -6 1 26916.8 957.444 13
-5 -6 -1 28120.2 987.913 23
-5 -6 -1 29057.4 1220.78 2
-5 -6 -1 29327.9 984.697 19
-5 -6 -1 27672.4 1273.11 3
-5 -6 -1 29074.8 970.517 17
5 -6 1 27941.4 1449.71 30
5 -6 1 27662.1 1309.62 28
-5 -6 -1 26209.2 1367.07 1
5 -6 2 4531.13 380.942 13
-5 -6 -2 4320.34 363.302 24
-5 -6 -2 4227.39 458.675 2
-5 -6 -2 4521.83 367.689 19
-5 -6 -2 3709.36 485.028 3
-5 -6 -2 3869.09 460.498 5
5 -6 2 4284.19 590.842 30
5 -6 3 7700.15 516.053 13
-5 -6 -3 8161.39 512.006 24
-5 -6 -3 7983.44 507.183 19
-5 -6 -3 8409.4 750.434 3
-5 -6 -3 7259.68 665.352 5
5 -6 3 7430.46 727.451 31
5 -6 4 28310.4 1087.51 13
-5 -6 -4 31406.9 1060.36 24
-5 -6 -4 31056.7 1061.46 19
-5 -6 -4 27762.8 1423 5
-5 -6 -4 32896.5 1601.25 3
5 -6 4 27385.7 1500.71 31
5 -6 5 316.917 124.405 13
-5 -6 -5 37.2307 73.7804 19
5 -6 6 400.965 138.088 13
-5 -6 -6 322.342 101.403 19
5 -6 6 360.762 147.348 26
5 -6 7 608.427 150.7 13
-5 -6 -7 672.888 128.465 19
5 -6 7 650.913 156.172 26
5 -6 8 3717.18 312.618 22
5 -6 8 4167.13 354.536 9
5 -6 8 3632.58 310.766 26
5 -6 8 3650.43 313.601 13
5 -6 9 4206.6 237.645 22
5 -6 9 5024.45 298.093 9
5 -6 9 4388.73 261.657 26
-5 -5 11 6325.48 305.181 15
-5 -5 10 7080.43 459.324 10
-5 -5 10 6189.26 389.637 15
-5 -5 9 764.043 168.086 25
-5 -5 9 1144.48 208.284 6
-5 -5 9 1187.59 206.244 20
-5 -5 9 1068.47 184.754 15
-5 -5 9 1130.6 208.279 18
-5 -5 9 1163.95 217.54 10
-5 -5 8 1378.7 225.28 25
-5 -5 8 1426.52 231.85 6
-5 -5 8 1352.32 206.76 21
-5 -5 8 1088.5 209.706 20
-5 -5 8 1530.58 246.318 18
-5 -5 8 1792.92 273.149 10
-5 -5 8 1087.81 203.707 15
-5 -5 7 912.209 198.205 25
-5 -5 7 1270.61 226.196 6
-5 -5 7 1081.24 187.437 21
-5 -5 7 1036.24 201.984 20
-5 -5 7 1098.03 215.251 18
-5 -5 7 1092.32 224.725 10
-5 -5 6 39588.8 1351.35 25
-5 -5 6 41312.2 1269.19 17
-5 -5 6 44209.4 1367.45 6
-5 -5 6 41844 1248.99 21
-5 -5 6 42250.8 1307.78 20
-5 -5 6 44076.8 1380.91 18
-5 -5 6 45929.3 1449.5 10
5 -5 -6 45649.9 1924.38 30
5 -5 -6 45323.5 2064.57 28
-5 -5 6 39954.4 1786.06 2
-5 -5 5 22013.9 938.016 25
-5 -5 5 21689.2 866.218 23
-5 -5 5 22659.1 891.753 17
-5 -5 5 24217.1 915.11 6
-5 -5 5 23386.1 878.014 20
-5 -5 5 22528.6 1234.51 2
-5 -5 5 24269.6 941.728 18
-5 -5 5 23261.8 960.323 10
5 -5 -5 24695.9 1343.48 30
5 -5 -5 23498 1402.68 28
-5 -5 4 128460 2670.3 23
-5 -5 4 132174 2725.5 17
-5 -5 4 128310 2646.02 6
-5 -5 4 129612 2700.89 18
-5 -5 4 130317 3304.22 2
-5 -5 4 137504 2815.98 10
5 -5 -4 136901 3467.92 30
5 -5 -4 135685 3647.91 28
-5 -5 3 14604.6 893.174 2
5 -5 -3 14683.8 949.428 30
5 -5 -3 15176.5 1036.39 28
-5 -5 2 24825.3 1144.07 2
5 -5 -2 23080.6 1188.71 30
5 -5 -2 26603.2 1325.39 28
-5 -5 2 24211.3 1303.1 1
-5 -5 1 7886.73 606.266 2
-5 -5 1 7068.63 515.101 3
5 -5 -1 8479.28 701.806 30
5 -5 -1 8546.44 713.29 28
-5 -5 1 7630.92 698.583 1
5 -5 0 1716.84 316.621 30
-5 -5 0 1778.15 283.813 2
-5 -5 0 1422.73 305.652 1
-5 -5 0 1856.31 284.795 3
5 -5 0 1154.77 253.651 28
-5 -5 -1 32469.9 1303.02 2
-5 -5 -1 28699.1 1254.16 3
5 -5 1 32687.3 1499.29 30
5 -5 1 29898.1 1365.27 28
-5 -5 -2 3607.78 319.567 24
-5 -5 -2 3519.86 313.693 19
5 -5 2 2915.06 475.99 27
-5 -5 -2 3224.14 430.993 3
-5 -5 -2 3888.55 417.26 5
5 -5 2 3784.13 522.821 30
5 -5 2 3320.25 421.079 28
5 -5 3 6329.16 448.325 13
-5 -5 -3 7015.02 454.828 24
-5 -5 -3 6271.2 603.712 5
-5 -5 -3 6761.22 451.289 19
-5 -5 -3 6719.86 651.857 3
5 -5 3 6494.45 680.715 31
5 -5 4 2126.9 272.96 13
-5 -5 -4 2344.94 402.625 3
-5 -5 -4 2465.25 273.726 24
-5 -5 -4 2154.46 257.106 19
5 -5 4 2314.45 428.511 31
-5 -5 -4 1702.69 348.984 5
5 -5 4 2249.36 452.59 27
5 -5 5 2149.86 280.966 13
-5 -5 -5 1900.38 243.401 19
5 -5 6 10573.6 630.093 13
-5 -5 -6 11142.5 587.896 19
5 -5 6 10606.9 618.612 25
-5 -5 -7 17512 708.096 19
5 -5 7 17171.1 837.477 9
5 -5 7 14030.3 743.78 26
5 -5 7 14610 707.257 25
5 -5 7 16943.4 775.43 13
5 -5 8 7898.19 479.47 22
5 -5 8 9073.57 539.315 9
5 -5 8 7118.75 459.013 26
5 -5 8 6426.23 411.361 25
5 -5 8 7917.5 475.473 13
5 -5 9 3192.92 233.227 22
5 -5 9 2913.48 227.849 26
5 -5 9 2831.31 211.769 25
-5 -4 11 3813.26 262.387 15
-5 -4 11 3321.18 215.238 26
-5 -4 10 9705.71 538.465 6
-5 -4 10 9757.38 476.265 21
-5 -4 10 10376.8 563.087 20
-5 -4 10 10549.9 581.364 18
-5 -4 10 9596.94 551.582 10
-5 -4 10 9835.58 524.532 15
-5 -4 10 9717.95 473.597 26
-5 -4 9 3565.97 360.415 6
-5 -4 9 3265.09 304.121 21
-5 -4 9 3402.47 344.45 20
-5 -4 9 3580.73 366.466 18
-5 -4 9 3423.96 359.1 10
-5 -4 9 2961.48 311.759 15
-5 -4 9 3346.05 305.383 26
-5 -4 8 23748.2 947.499 25
-5 -4 8 24960.2 1000.55 6
-5 -4 8 25523.5 938.913 21
-5 -4 8 25836.4 988.758 20
-5 -4 8 24375.4 1019.82 18
-5 -4 8 24124.2 1028.06 10
-5 -4 8 23577.1 957.422 15
-5 -4 8 22161.8 865.143 26
-5 -4 7 1024.02 193.023 25
-5 -4 7 944.076 186.024 21
-5 -4 7 1022.23 192.314 20
-5 -4 7 1041.96 202.795 6
-5 -4 7 1007.4 211.891 18
-5 -4 7 948.704 277.913 2
-5 -4 7 851.256 207.108 10
-5 -4 7 1077.4 174.206 16
5 -4 -7 519.132 222.699 28
-5 -4 7 630.68 169.89 15
-5 -4 6 36630 1235.91 25
-5 -4 6 38638.7 1197.34 21
-5 -4 6 40311.6 1258.17 6
-5 -4 6 38714.8 1223.1 20
-5 -4 6 41247.8 1326.62 18
-5 -4 6 39062.4 1156.11 16
-5 -4 6 38148.1 1308.53 10
5 -4 -6 41238.1 1886.65 28
-5 -4 6 37603.2 1744.69 2
-5 -4 5 3905.02 364.689 25
-5 -4 5 3898.19 330.839 23
-5 -4 5 4600.24 362.278 21
-5 -4 5 4037.94 343.874 6
-5 -4 5 4053.85 336.423 20
-5 -4 5 4060.12 345.722 17
-5 -4 5 4966.59 408.868 18
-5 -4 5 4144.57 328.668 16
-5 -4 5 4186.03 387.664 10
5 -4 -5 4534.4 532.462 30
-5 -4 5 3761.78 494.601 2
5 -4 -5 4560.48 586.661 28
-5 -4 4 970.685 238.787 2
5 -4 -4 1282.86 276.978 30
5 -4 -4 1266.48 315.775 28
-5 -4 3 46554 1675.41 2
5 -4 -3 44180 1629.02 30
5 -4 -3 44499 1771.14 28
-5 -4 2 4354.29 463.124 2
5 -4 -2 3668.15 423.5 30
5 -4 -2 4766.24 533.953 28
-5 -4 1 1935.62 319.964 1
-5 -4 1 2554.85 350.579 2
5 -4 -1 2419.11 336.272 30
5 -4 -1 2439.76 375.581 28
-5 -4 0 67956 1974.7 2
-5 -4 0 63242.7 1808.39 3
-5 -4 0 67602.7 2002.6 1
5 -4 0 68807.6 2099.29 30
5 -4 0 65619.9 2077.5 28
-5 -4 -1 43020.8 1534.4 2
-5 -4 -1 42039.8 1473.21 3
5 -4 1 40562.4 1623.04 30
5 -4 1 41443.6 1577.24 28
-5 -4 -2 69965.7 2149.27 3
-5 -4 -2 74469.7 2053.28 5
5 -4 2 76572.6 2428.33 30
5 -4 2 72137.9 2214.59 28
5 -4 3 5663.88 400.621 13
-5 -4 -3 5914.68 406.241 24
-5 -4 -3 5913.2 418.545 19
-5 -4 -3 5960.72 607.322 3
-5 -4 -3 5276.6 528.229 5
5 -4 3 5778.53 639.161 31
5 -4 3 5289.8 540.542 28
5 -4 3 5668.34 703.031 27
5 -4 4 80050.8 1968.46 13
-5 -4 -4 86919.5 1980.6 24
-5 -4 -4 86994.3 2004.75 19
-5 -4 -4 94473.9 2802.91 3
-5 -4 -4 88151.2 2630.86 5
5 -4 4 81397.7 2784.06 31
5 -4 4 80116.1 3031.93 27
5 -4 5 30442.1 1080.74 13
-5 -4 -5 30541.6 1054.6 19
-5 -4 -5 31320 1589.21 3
-5 -4 -5 29875.3 1492.71 5
5 -4 5 27974.5 1580.84 31
5 -4 5 29451.2 1095.52 25
5 -4 6 -153.683 73.3969 25
5 -4 6 54.5074 86.4514 13
-5 -4 -6 46.8487 59.8554 19
5 -4 6 92.7298 98.2389 26
-5 -4 -7 22007.2 826.504 19
5 -4 7 22547 981.063 9
5 -4 7 19734.3 892.199 26
5 -4 7 21317.2 900.251 25
5 -4 7 21575.6 885.368 13
5 -4 8 7685.83 489.32 22
-5 -4 -8 7967.26 422.38 19
5 -4 8 7142.96 464.205 26
5 -4 8 8210.7 489.021 13
5 -4 8 7532.77 478.926 25
5 -4 9 2254.17 215.719 22
5 -4 9 2453.02 241.14 9
5 -4 9 1589.87 175.796 26
5 -4 9 1730.01 185.945 25
-5 -3 11 13148.8 546.455 15
-5 -3 11 12135.7 496.546 26
-5 -3 10 333.808 99.4801 21
-5 -3 10 516.506 131.666 20
-5 -3 10 324.229 111.624 6
-5 -3 10 433.506 136.002 18
-5 -3 10 326.809 125.367 10
-5 -3 10 433.968 134.079 15
-5 -3 10 337.131 99.8074 26
-5 -3 9 2130.2 282.456 6
-5 -3 9 2316.33 266.875 21
-5 -3 9 2076.57 268.266 20
-5 -3 9 2540.62 321.205 18
-5 -3 9 2484.96 301.256 10
-5 -3 9 2250.79 239.637 16
-5 -3 9 2220.96 279.861 15
-5 -3 9 2412.71 273.915 26
-5 -3 8 30973.2 1167.93 10
-5 -3 8 33771 1182.72 6
-5 -3 8 33067 1116.84 21
-5 -3 8 31356.6 1117.79 20
-5 -3 8 32379.1 1209.07 18
-5 -3 8 31476.8 1038.8 16
-5 -3 8 30523.4 1097.16 15
-5 -3 8 31056.3 1087.35 26
-5 -3 7 91184.1 3048.26 2
-5 -3 7 94686.2 2179.38 21
-5 -3 7 98247.5 2248.8 6
-5 -3 7 94387.5 2180.83 20
-5 -3 7 99148.7 2357.85 18
-5 -3 7 90804.9 2247.39 10
-5 -3 7 94643 2093.25 16
-5 -3 7 85576.4 2092.37 15
5 -3 -7 89290.7 2921.59 28
-5 -3 7 87818.6 2092.35 26
-5 -3 6 6627.72 454.677 21
-5 -3 6 7177.17 478.202 6
-5 -3 6 7130.86 460.393 20
-5 -3 6 7248.16 517.229 18
-5 -3 6 6969.53 444.406 16
-5 -3 6 6277.62 482.342 10
5 -3 -6 7674.13 750.935 28
-5 -3 6 6226.1 695.954 2
-5 -3 5 9821.83 539.243 21
-5 -3 5 9566.34 520.247 6
-5 -3 5 9126.3 496.463 20
-5 -3 5 9762.25 574.371 18
-5 -3 5 9480.95 507.453 16
-5 -3 5 9040.82 553.181 10
5 -3 -5 8446.66 675.943 30
-5 -3 5 8839.8 777.618 2
5 -3 -5 8869.32 779.335 28
-5 -3 4 76398.4 2367.31 2
5 -3 -4 75778 2183.72 30
5 -3 -4 77269.7 2429.85 28
-5 -3 3 1322.6 263.12 2
5 -3 -3 1810.86 281.497 30
5 -3 -3 2059.17 350.705 28
5 -3 -2 142430 3303.63 28
5 -3 -2 146766 3098.52 30
-5 -3 1 1719.6 273.454 2
5 -3 -1 1651.72 284.806 30
5 -3 -1 2256.79 339.669 28
-5 -3 0 121033 2591.85 3
5 -3 0 120767 2854.28 30
5 -3 0 124548 2945.83 28
-5 -3 -1 39886.1 1388.88 3
5 -3 1 41272.3 1556.76 30
5 -3 1 42444 1561.6 28
-5 -3 -2 278.68 138.566 3
-5 -3 -2 353.878 121.295 5
5 -3 2 355.003 136.948 28
-5 -3 -3 14348.1 641.005 24
-5 -3 -3 14576.9 664.164 19
-5 -3 -3 14408.2 863.315 5
-5 -3 -3 15951.2 974.766 3
5 -3 3 13783.8 899.56 28
5 -3 4 8967.35 515.776 13
-5 -3 -4 10707.8 560.31 24
-5 -3 -4 11753.2 905.877 3
-5 -3 -4 9839.96 557.853 19
-5 -3 -4 9336.79 760.267 5
5 -3 4 7960.69 806.73 31
5 -3 4 9471.74 987.486 27
5 -3 5 2158.15 265.8 13
-5 -3 -5 2665.67 281.992 24
-5 -3 -5 2288.11 405.089 3
-5 -3 -5 2836.68 295.325 19
5 -3 5 1127.05 334.246 31
-5 -3 -5 2488.75 410.107 5
5 -3 5 2799.81 571.3 27
5 -3 5 2565.86 308.127 25
5 -3 6 115.242 97.1552 25
5 -3 6 225.523 107.356 13
-5 -3 -6 255.661 102.913 19
5 -3 6 179.578 112.376 26
5 -3 7 633.362 162.107 25
5 -3 7 368.02 126.67 13
-5 -3 -7 327.372 108.24 19
5 -3 7 374.149 133.268 9
5 -3 7 341.919 125.244 26
5 -3 8 4754.29 389.757 22
-5 -3 -8 5191.64 355.199 19
5 -3 8 4052.94 345.519 26
5 -3 8 4724.78 373.409 13
5 -3 8 4805.5 387.146 25
5 -3 9 2681.5 247.763 22
5 -3 9 2818 264.3 9
5 -3 9 2090.54 194.174 26
5 -3 9 2199.13 228.084 25
5 -3 10 4914.18 260.545 9
-5 -2 11 20052.9 675.763 21
-5 -2 11 19429.6 709.95 15
-5 -2 11 19522 697.761 26
-5 -2 10 24218.9 888.982 6
-5 -2 10 24156.3 861.138 21
-5 -2 10 25157.7 917.866 20
-5 -2 10 23429.2 933.954 18
-5 -2 10 21438.1 828.7 10
-5 -2 10 21633.6 748.378 16
-5 -2 10 22085.8 869.144 15
-5 -2 10 23124 875.413 26
-5 -2 9 9221.87 573.365 6
-5 -2 9 8388.21 527.596 21
-5 -2 9 9716.65 581.648 20
-5 -2 9 9740.59 625.835 18
-5 -2 9 7856.73 523.884 10
-5 -2 9 9153.01 509.67 16
-5 -2 9 8489.91 543.102 15
-5 -2 9 8656.02 551.208 26
-5 -2 8 8753.83 562.264 10
-5 -2 8 10300.6 611.218 6
-5 -2 8 9299.91 569.635 21
-5 -2 8 8990.7 560.641 20
-5 -2 8 9600.71 635.666 18
-5 -2 8 8498.96 512.823 16
-5 -2 8 8477.62 545.291 15
-5 -2 8 8560.7 556.945 26
-5 -2 7 20868.7 1388.3 2
-5 -2 7 21649.3 886.452 21
-5 -2 7 21492.3 892.984 6
-5 -2 7 21690.8 869.013 20
-5 -2 7 18605.8 806.947 15
-5 -2 7 22293.3 971.982 18
-5 -2 7 19895 870.658 10
-5 -2 7 20744.9 825.394 16
-5 -2 7 19115 844.826 26
-5 -2 6 5636.1 423.377 21
-5 -2 6 5081.11 393.819 6
-5 -2 6 5658.56 404.873 20
-5 -2 6 5519.25 449.891 18
-5 -2 6 5015.6 413.763 10
-5 -2 6 5440.18 393.665 16
5 -2 -6 5311.41 584.482 28
-5 -2 6 5190.08 638.75 2
-5 -2 6 4672.7 377.233 26
-5 -2 5 13996.3 653.968 21
-5 -2 5 13472.5 618.584 6
-5 -2 5 13197.7 680.455 18
-5 -2 5 13494.8 984.164 2
5 -2 -5 14085.2 939.049 28
-5 -2 4 9554.89 771.631 2
5 -2 -4 9704.61 634.684 30
5 -2 -4 9776.9 752.429 28
-5 -2 3 19289.5 1054.08 2
5 -2 -3 18420.7 867.083 30
5 -2 -3 20225 1052.33 28
-5 -2 2 29592.5 1281.73 2
5 -2 -2 31017.6 1130.98 30
5 -2 -2 30844.5 1289.21 28
-5 -2 1 4170.37 450.747 2
5 -2 -1 4821.01 427.301 30
5 -2 -1 4448.17 463.176 28
-5 -2 0 23189 1071.86 2
5 -2 0 23231 1078.82 28
-5 -2 0 21736.4 873.895 3
5 -2 0 23270.4 1020.57 30
5 -2 1 5178.05 493.604 30
-5 -2 -1 4479.09 420.945 3
5 -2 1 5228.24 504.02 28
-5 -2 -2 49734.2 1535.37 5
-5 -2 -2 48325.1 1673.51 3
5 -2 2 50539.6 1764.4 28
5 -2 3 9004.94 727.009 28
-5 -2 -3 8593.97 502.675 19
-5 -2 -3 9647.53 700.323 5
-5 -2 -3 9302.12 745.546 3
-5 -2 -4 4290.53 349.504 24
-5 -2 -4 4829.15 387.607 19
5 -2 4 4119.37 578.63 31
-5 -2 -4 4371.63 523.599 5
-5 -2 -4 4480.59 553.936 3
5 -2 4 4000.15 490.809 28
5 -2 4 3350.98 615.601 27
5 -2 4 4809.88 399.496 25
5 -2 5 9761.65 554.959 13
-5 -2 -5 9359 537.057 24
-5 -2 -5 9627.06 565.488 19
5 -2 5 8140.1 849.71 31
-5 -2 -5 8865.45 798.384 5
-5 -2 -5 8395.38 822.401 3
5 -2 5 9648.7 1065.42 27
5 -2 5 10416 626.724 25
-5 -2 -6 30353.5 1071.78 19
5 -2 6 31942 1199.82 9
5 -2 6 29169.7 1088.17 26
5 -2 6 33438.7 1219.85 25
5 -2 6 30575.2 1075.27 13
5 -2 7 12387.5 698.409 22
-5 -2 -7 13219.9 657.451 19
5 -2 7 13997.8 759.875 9
5 -2 7 13145 670.885 26
5 -2 7 13709.1 664.015 13
5 -2 7 14880.8 772.152 25
5 -2 8 9769.23 567.444 22
-5 -2 -8 9908.14 508.015 19
5 -2 8 10459.5 594.767 9
5 -2 8 10357.3 595.698 25
5 -2 9 20992.5 750.651 22
5 -2 9 21642.4 773.495 9
5 -2 10 2145.15 180.591 9
-5 -1 11 4364.6 307.721 21
-5 -1 11 4229.64 324.098 26
-5 -1 11 4136.57 314.988 20
-5 -1 11 4379.17 325.538 15
-5 -1 10 10696.7 570.412 6
-5 -1 10 11309.6 584.304 21
-5 -1 10 11680.9 601.155 20
-5 -1 10 10311.8 608.775 18
-5 -1 10 9903.12 516.944 10
-5 -1 10 10947.2 529.518 16
-5 -1 10 10796.3 580.395 15
-5 -1 10 10393 585.568 26
-5 -1 9 5584.51 437.579 6
-5 -1 9 5917.75 447.248 21
-5 -1 9 5894.21 446.457 20
-5 -1 9 6127.46 498.309 18
-5 -1 9 5229.65 400.966 10
-5 -1 9 5472.93 402.333 16
-5 -1 9 5217.7 420.974 15
-5 -1 9 5371.48 445.086 26
-5 -1 8 5119.6 413.827 10
-5 -1 8 6047.9 465.948 21
-5 -1 8 6254.61 465.444 6
-5 -1 8 5729.08 445.862 20
-5 -1 8 6017.05 506.369 18
-5 -1 8 6038.92 433.771 16
-5 -1 8 5525.74 434.988 15
-5 -1 8 5235.88 444.182 26
-5 -1 7 217073 5342.29 2
-5 -1 7 214739 4030.76 21
-5 -1 7 217246 3997.95 6
-5 -1 7 216480 3977.22 20
-5 -1 7 220496 4202.66 18
-5 -1 7 201819 3888.55 10
-5 -1 7 210667 3915.08 16
-5 -1 7 203537 3892.49 15
-5 -1 7 200800 3980.62 26
-5 -1 6 3322 325.643 21
-5 -1 6 3245.14 310.538 6
-5 -1 6 3095.9 305.52 20
-5 -1 6 3002.15 336.116 18
-5 -1 6 2782.25 285.677 10
-5 -1 6 3150.08 303.937 16
5 -1 -6 3204.59 435.235 28
-5 -1 6 2896.5 495.514 2
-5 -1 6 3003.67 304.021 26
-5 -1 5 4110.28 551.413 2
5 -1 -5 4189.64 481.888 28
-5 -1 4 60061.7 2122.52 2
5 -1 -4 65219.1 2023.21 28
-5 -1 3 87228.5 2516.9 2
5 -1 -3 83146.1 1989.39 30
5 -1 -3 86730.5 2342.87 28
-5 -1 2 11200.8 770.379 2
5 -1 -2 10227.4 571.258 30
5 -1 -2 11259.3 716.577 28
-5 -1 1 18587.8 976.172 2
5 -1 -1 18592.9 810.291 30
5 -1 -1 19079.3 941.03 28
-5 -1 0 7749.56 614.055 2
5 -1 0 7623.02 537.303 30
-5 -1 0 7256 470.993 3
5 -1 0 6553.31 553.148 28
-5 -1 -1 958.53 203.367 3
5 -1 1 1400.94 264.274 28
-5 -1 -2 19291.8 889.07 5
-5 -1 -2 18095.9 975.607 3
5 -1 2 19598.5 1036.13 28
-5 -1 -3 5012.91 506.541 5
-5 -1 -3 5281.64 562.915 3
5 -1 3 5539.19 552.723 28
-5 -1 -4 2797.6 449.489 3
-5 -1 -4 2623.93 276.663 24
-5 -1 -4 2618.75 291.105 19
5 -1 4 2398.23 438.077 31
-5 -1 -4 2292.53 366.156 5
5 -1 4 2515.25 401.707 28
5 -1 4 2571.97 525.023 27
5 -1 4 2759.46 304.323 25
-5 -1 -5 13555.9 660.739 24
-5 -1 -5 14568.4 728.528 19
5 -1 5 12509.1 1047.51 31
-5 -1 -5 13196.3 985.013 5
-5 -1 -5 14106.2 1071.15 3
5 -1 5 14021.2 1319.08 27
5 -1 5 14929.4 766.152 9
5 -1 5 15820.8 791.647 25
-5 -1 -6 3460.68 345.5 19
5 -1 6 3074 351.032 9
5 -1 6 3011.47 352.49 25
5 -1 6 3313.34 319.479 13
5 -1 7 8210.46 553.846 22
5 -1 7 7053.7 466.491 21
-5 -1 -7 7511.24 499.093 19
5 -1 7 8360.11 565.743 9
5 -1 7 8451.73 507.74 13
5 -1 7 9154.41 605.241 25
5 -1 8 6076.68 448.219 22
5 -1 8 4929.15 340.94 21
-5 -1 -8 6432.81 421.456 19
5 -1 8 6600.88 465.846 9
5 -1 8 6710.22 490.366 25
5 -1 9 171.763 86.6735 25
5 -1 9 172.312 75.2952 22
-5 -1 -9 81.8882 54.5833 19
5 -1 9 197.372 87.0282 9
5 -1 10 2508.23 198.676 9
-5 0 12 5271.58 265.611 21
-5 0 11 3443.72 285.953 21
-5 0 11 3549.58 289.919 20
-5 0 11 3237.79 242.587 16
-5 0 11 3725.14 300.649 15
-5 0 11 3412.41 297.036 26
-5 0 10 6786.88 439.924 6
-5 0 10 6941.7 467.366 21
-5 0 10 7106.37 461.747 20
-5 0 10 6253.41 464.243 18
-5 0 10 6867.79 453.906 15
-5 0 10 6640.27 421.387 16
-5 0 10 6335.85 461.489 26
-5 0 9 17349.6 778.153 6
-5 0 9 16415.6 779.832 21
-5 0 9 17236 784.058 20
-5 0 9 16626.9 835.157 18
-5 0 9 16846.1 744.927 16
-5 0 9 15948.3 754.811 15
-5 0 9 16961.2 813.691 26
-5 0 8 3355.19 350.256 21
-5 0 8 3162.85 330.512 6
-5 0 8 2974.42 320.59 20
-5 0 8 3099.1 364.817 18
-5 0 8 3286.12 330.562 16
-5 0 8 3156.31 325.608 15
-5 0 8 3168.44 346.945 26
5 0 -7 -98.6913 202.613 29
-5 0 7 -4.18446 86.5656 21
-5 0 7 -149.661 93.4852 20
-5 0 7 0.96974 84.7755 6
-5 0 7 34.9919 103.81 18
-5 0 7 -248.177 186.175 2
-5 0 7 183.285 91.2308 16
-5 0 7 125.012 94.4343 15
-5 0 7 81.9103 100.785 26
-5 0 6 1718.63 242.043 21
-5 0 6 1399.06 206.806 6
-5 0 6 1416.48 205.945 20
-5 0 6 1644.89 242.955 18
-5 0 6 957.173 281.269 2
-5 0 6 1626.29 226.757 16
-5 0 6 1111.31 178.437 15
-5 0 6 1450.72 209.892 26
-5 0 5 3113.03 469.221 2
5 0 -5 1723.9 287.545 28
5 0 -4 702.4 207.321 28
-5 0 4 953.243 249.987 2
-5 0 3 797.358 204.896 2
5 0 -3 783.527 188.834 28
5 0 -2 -171.064 110.908 28
-5 0 2 14.7829 99.3427 2
5 0 -2 100.111 59.2161 30
-5 0 1 5638.17 539.34 2
5 0 -1 5319.7 395.477 30
5 0 -1 4821.46 460.7 28
-5 0 0 1609.74 297.92 2
-5 0 0 1588.46 231.067 3
5 0 0 1279.25 247.996 28
5 0 1 1983.7 272.521 29
-5 0 -1 2352.8 318.373 3
5 0 1 2654.45 360.593 28
-5 0 -2 844.883 228.556 3
-5 0 -2 562.843 180.49 5
5 0 2 834.231 214.972 28
-5 0 -3 253.628 147.199 3
-5 0 -3 184.798 94.5134 5
5 0 3 499.874 153.812 28
5 0 3 452.109 220.021 27
-5 0 -4 1682.38 345.843 3
-5 0 -4 2292.57 265.126 24
5 0 4 1701.76 226.653 33
-5 0 -4 1840.94 253.103 19
5 0 4 1977.06 378.157 31
-5 0 -4 1721.67 325.422 5
5 0 4 2192.11 385.446 28
5 0 4 1906.14 244.505 9
5 0 4 2526.11 540.428 27
5 0 4 2286.05 281.92 25
-5 0 -5 3989.5 355.546 24
-5 0 -5 4196.26 385.607 19
5 0 5 3604.19 533.721 31
-5 0 -5 3905.19 568.33 3
5 0 5 2799.85 492.957 28
-5 0 -5 2501.79 448.868 5
5 0 5 4074.51 387.073 9
5 0 5 3420.85 668.878 27
5 0 5 3981.82 385.203 25
-5 0 -6 4144.26 363.718 24
5 0 6 4372.8 409.53 22
-5 0 -6 4527.4 405.304 19
5 0 6 4748.39 424.611 9
5 0 6 4289.96 427.809 25
5 0 7 400.269 139.836 25
5 0 7 346.669 133.415 22
5 0 7 289.058 110.612 21
-5 0 -7 132.054 92.308 19
5 0 7 311.588 118.022 9
5 0 8 14603.6 705.391 22
5 0 8 12056.7 586.593 21
-5 0 -8 14580.4 664.952 19
5 0 8 14670.9 702.413 9
5 0 8 14117.2 734.235 25
5 0 9 457.298 125.331 25
5 0 9 602.713 132.146 22
5 0 9 380.249 84.1545 21
-5 0 -9 379.331 91.5024 19
5 0 9 617.565 128.944 9
5 0 10 2272.85 191.077 9
-5 1 12 1141.01 129.82 21
-5 1 11 3742.01 299.761 21
-5 1 11 3437.09 277.71 20
-5 1 11 3390.34 256.352 16
-5 1 11 3834.49 301.639 15
-5 1 11 4062.64 326.523 26
-5 1 10 10514.5 546.81 6
-5 1 10 10700.5 596.298 21
-5 1 10 11513 587.738 20
-5 1 10 9724.07 566.924 18
-5 1 10 10112.6 539.013 16
-5 1 10 10249 564.447 15
-5 1 10 11279.1 622.327 26
-5 1 9 5773.74 429.313 6
-5 1 9 5873.15 463.356 21
-5 1 9 5461.98 429.591 20
-5 1 9 5147.12 446.769 18
-5 1 9 5317.82 418.318 16
-5 1 9 5107.93 413.207 15
-5 1 9 5976.94 467.474 26
-5 1 8 5064.61 441.171 21
-5 1 8 5572.51 431.852 6
-5 1 8 5818.71 447.833 20
-5 1 8 5333.78 470.489 18
-5 1 8 5422.03 437.01 16
-5 1 8 5074.44 413.378 15
-5 1 8 5436.73 451.89 26
-5 1 7 228024 5565.98 2
-5 1 7 211457 4092.31 21
-5 1 7 212421 4003.67 6
-5 1 7 223539 4058.66 20
-5 1 7 205477 4171.46 18
-5 1 7 216896 4038.13 16
-5 1 7 199561 3910.2 15
5 1 -7 209957 5414.74 29
-5 1 7 215716 4078.02 26
-5 1 6 2973.84 318.814 21
-5 1 6 2678.76 289.185 6
-5 1 6 3016.56 309.402 20
-5 1 6 2950.87 288.255 15
-5 1 6 2702.96 322.585 18
-5 1 6 3155.31 310.073 16
5 1 -6 2078.47 597.407 29
-5 1 6 3089.78 520.987 2
-5 1 6 2860.4 303.828 26
-5 1 5 4704.98 591.165 2
5 1 -5 3723.2 414.401 28
-5 1 4 61311.5 2199.59 2
5 1 -4 63500.8 1878.54 28
-5 1 3 90829.1 2649.92 2
5 1 -3 88133.3 2289.28 28
-5 1 2 11384 812.53 2
5 1 -2 12401.3 721.746 28
-5 1 1 17573.4 987.074 2
5 1 -1 20275.7 944.234 28
-5 1 0 7296.78 624.073 2
5 1 0 7207.34 577.796 28
5 1 0 7100.9 558.208 29
-5 1 0 7657.68 509.175 3
5 1 1 1672.16 246.853 29
5 1 1 1504.8 280.063 28
-5 1 -1 1414.01 243.494 3
-5 1 -2 20977.3 969.574 5
5 1 2 18528.8 1026.17 28
-5 1 -2 18764.5 1030.18 3
5 1 3 5617.83 591.374 31
-5 1 -3 5621.75 553.049 5
5 1 3 5619.64 582.688 28
-5 1 -3 5685.32 612.277 3
-5 1 -4 2426.81 278.066 24
-5 1 -4 1675.36 359.719 3
5 1 4 2324.29 252.673 33
5 1 4 2100.7 392.116 28
-5 1 -4 2506.63 270.531 11
-5 1 -4 3048.93 321.976 19
5 1 4 1576.01 362.05 31
-5 1 -4 1741.19 340.608 5
5 1 4 2548.72 289.461 9
5 1 4 3256.18 612.287 27
5 1 4 2444.66 304.379 25
-5 1 -5 14915.2 727.478 24
5 1 5 15274.8 758.961 22
-5 1 -5 16078.6 789.693 19
5 1 5 13495.4 1027.25 31
-5 1 -5 13862.2 1069.13 5
-5 1 -5 16440.3 1214.43 3
5 1 5 15715.1 763.256 9
5 1 5 14387.4 1370.86 27
5 1 5 15488.4 800.371 25
-5 1 -6 3297.32 326.362 24
5 1 6 2993.8 339.926 22
-5 1 -6 3714.23 373.558 19
5 1 6 3524.63 363.151 9
5 1 6 3603.46 384.756 25
5 1 7 7061.74 516.169 22
5 1 7 7045.09 510.46 21
-5 1 -7 7114.52 508.151 19
5 1 7 7528.18 522.345 9
5 1 7 7973.42 575.654 25
5 1 8 5563.46 428.268 22
5 1 8 4969.28 387.353 21
-5 1 -8 5553.33 409.869 19
5 1 8 5562.81 421.761 9
5 1 8 5903.55 465.837 25
5 1 9 99.1876 78.9879 22
5 1 9 65.3276 58.2325 25
5 1 9 88.0084 61.0432 21
-5 1 -9 114.346 57.9877 19
5 1 9 80.7546 79.5424 9
-5 2 12 8363.65 357.687 21
-5 2 11 20397.6 757.1 21
-5 2 11 21003.4 717.184 20
-5 2 11 20356.1 697.438 16
-5 2 11 22170.6 790.156 26
-5 2 10 22855.2 913.187 21
-5 2 10 24913.7 885.592 20
-5 2 10 22710.7 860.563 16
-5 2 10 24238.5 890.842 15
-5 2 10 24240.5 934.202 26
-5 2 9 7955.11 550.154 21
-5 2 9 8233.88 511.076 6
-5 2 9 8830.7 543.504 20
-5 2 9 8172.17 543.227 18
-5 2 9 9014.35 555.434 16
-5 2 9 8520.71 538.426 15
-5 2 9 8438.79 557.886 26
-5 2 8 8747.24 589.354 21
-5 2 8 9573.95 567.094 6
-5 2 8 10003.1 596.248 20
-5 2 8 9049.43 606.59 18
-5 2 8 9297.32 582.37 16
-5 2 8 8784.73 550.263 15
-5 2 8 9053.07 583.141 26
-5 2 7 22705.4 1493.42 2
-5 2 7 19367.4 777.358 12
-5 2 7 20821.4 924.908 21
-5 2 7 21019.2 871.783 6
-5 2 7 23392.7 934.476 20
-5 2 7 22065.8 970.819 18
-5 2 7 21138.9 893.955 16
-5 2 7 20078 841.568 15
5 2 -7 22699.1 1531.65 29
-5 2 7 22221 925.165 26
-5 2 6 4958.28 415.128 21
-5 2 6 4861.21 361.492 12
-5 2 6 5494.56 420.015 6
-5 2 6 5526.08 421.402 20
-5 2 6 5110.32 439.14 18
-5 2 6 5098.04 406.889 16
-5 2 6 4702.61 367.105 15
5 2 -6 5340.67 731.649 29
-5 2 6 4933.83 653.535 2
-5 2 6 5101.05 411.679 26
-5 2 5 13072.6 648.986 6
-5 2 5 13067.5 635.469 20
-5 2 5 13171.2 639.977 16
-5 2 5 13563.5 1019.8 2
5 2 -5 14405.7 1110.1 29
5 2 -4 8459.2 604.1 28
-5 2 4 9113.93 776.664 2
5 2 -4 9063.21 825.787 29
-5 2 3 18253.6 1071.52 2
5 2 -3 17672.3 1104.18 29
5 2 -3 18577.7 897.911 28
-5 2 2 30724.1 1366.21 2
5 2 -2 29589.4 1363.35 29
5 2 -2 30822 1199.06 28
-5 2 1 3802.14 454.09 2
5 2 -1 3733.48 442.601 29
5 2 -1 3936.58 406.293 28
-5 2 0 21862.2 1096.53 2
5 2 0 21236.6 1014.78 29
5 2 0 23511 1066.27 28
-5 2 0 20372.8 900.539 3
5 2 1 5132.29 511.209 28
5 2 1 4567.99 429.507 29
-5 2 -1 4545.48 453.381 3
-5 2 -2 48729.3 1602.6 5
-5 2 -2 46157.8 1724.92 3
-5 2 -3 9182.18 548.96 24
5 2 3 8230.12 690.286 31
-5 2 -3 8425.72 703.546 5
5 2 3 9349.39 763.582 28
5 2 3 7240.17 918.946 27
-5 2 -3 9800.44 820.014 3
-5 2 -4 5420.87 418.404 24
5 2 4 4780.95 566.453 28
5 2 4 4859.35 399.416 22
-5 2 -4 4885.77 633.91 3
-5 2 -4 4887.39 393.294 11
-5 2 -4 4702.45 410.718 19
5 2 4 4155.1 354.241 33
5 2 4 5112.62 562.775 31
-5 2 -4 4455.7 548.384 5
5 2 4 4885.75 394.322 9
5 2 4 3437.78 638.969 27
5 2 4 4951.71 435.419 25
-5 2 -5 10132.3 601.893 24
5 2 5 9995.61 605.936 22
5 2 5 8230.81 515.687 33
-5 2 -5 11146.6 657.69 19
5 2 5 8014.16 760.299 31
-5 2 -5 8727.72 826.476 5
5 2 5 9800.13 583.996 9
-5 2 -5 9827.9 958.376 3
5 2 5 10815.9 1212.39 27
5 2 5 9817.06 636.438 25
-5 2 -6 33053.8 1146.52 24
5 2 6 32553.7 1179.76 22
-5 2 -6 33303.2 1233.17 19
5 2 6 34480 1191.25 9
5 2 6 33283.6 1266.54 25
5 2 7 14131 735.76 22
-5 2 -7 13919.1 737.227 19
5 2 7 14079.9 713.584 9
5 2 7 13520.5 763.999 25
5 2 8 10036.9 577.754 22
5 2 8 9621.74 563.745 21
-5 2 -8 11423.1 608.386 19
5 2 8 10879.6 585.91 9
5 2 8 10355 625.581 25
5 2 9 22171.9 773.34 22
-5 2 -9 19853.1 686.224 19
5 2 9 21250.6 754.574 9
-5 3 12 1550.73 144.325 21
-5 3 11 13743.5 601.996 21
-5 3 11 13429.1 540 20
-5 3 11 14324.7 571.734 16
-5 3 10 448.796 136.798 21
-5 3 10 339.808 109.269 20
-5 3 10 270.907 110.677 16
-5 3 10 446.376 131.388 26
-5 3 9 2973.74 336.575 21
-5 3 9 2699.28 286.514 6
-5 3 9 2879.47 306.603 20
-5 3 9 2992.24 324.779 16
-5 3 9 2898.5 311.339 15
-5 3 9 2900.32 324.618 26
-5 3 8 29843.3 1009.25 12
-5 3 8 30599.3 1171.02 21
-5 3 8 31303 1090.18 6
-5 3 8 34168.2 1172.32 20
-5 3 8 33191 1150.43 18
-5 3 8 31324.7 1151.57 16
-5 3 8 32520.2 1117.8 15
-5 3 8 33113 1180.92 26
-5 3 7 99941.7 3305.1 2
-5 3 7 91135.8 2287.19 21
-5 3 7 92953.1 2127.32 12
-5 3 7 94809.4 2212.17 6
-5 3 7 95832.1 2258.29 20
-5 3 7 92888.1 2265.82 18
-5 3 7 98882.9 2309.9 16
-5 3 7 93558 2186.83 15
5 3 -7 97222.2 3414.6 29
-5 3 7 102484 2325.19 26
-5 3 6 8807.86 562.126 21
-5 3 6 8674.79 508.539 12
-5 3 6 8322.38 529.058 6
-5 3 6 8614.81 547.448 20
-5 3 6 8200.49 547.181 18
-5 3 6 8959.7 552.11 16
-5 3 6 8302.73 504.4 15
5 3 -6 8160 889.122 29
-5 3 6 8647.27 546.006 26
-5 3 6 10053.2 919.911 2
-5 3 5 10042.6 567.509 26
-5 3 5 9736.82 565.324 21
-5 3 5 9099.77 514.043 12
-5 3 5 10747 593.75 20
-5 3 5 10149.8 584.838 6
-5 3 5 9926.03 555.966 16
-5 3 5 10333.7 880.638 2
5 3 -5 12039.1 1032.23 29
-5 3 4 78828.4 2479.23 2
5 3 -4 76484.5 2644.08 29
5 3 -4 73723 2033.7 28
-5 3 3 2346.43 361.053 2
5 3 -3 1600.41 346.007 29
5 3 -3 1651.74 255.068 28
-5 3 2 151290 3551.35 2
5 3 -2 145024 3593.68 29
5 3 -2 150865 3257.88 28
-5 3 1 2084.43 325.454 2
5 3 -1 1581.91 303.803 29
5 3 -1 2731.94 340.358 28
-5 3 0 124222 3057.31 2
5 3 0 117639 2944.5 29
5 3 0 127818 2979.37 28
-5 3 0 118180 2749.45 3
5 3 1 40094.8 1458.74 29
5 3 1 41390.2 1575.25 28
-5 3 -1 38415.6 1481.67 3
-5 3 -2 352.279 151.769 3
5 3 2 659.05 226.166 28
5 3 3 13091.3 641.233 33
-5 3 -3 14267.7 709.058 24
5 3 3 14233.6 674.841 22
-5 3 -3 13774.3 678.83 11
5 3 3 11598.6 797.671 32
5 3 3 12540.4 821.722 31
5 3 3 14294 972.593 28
-5 3 -3 15087.1 1051.94 3
5 3 3 14547.3 751.56 25
-5 3 -4 9447.55 588.758 24
5 3 4 10248.5 587.927 22
5 3 4 8950.3 543.314 33
-5 3 -4 9470.34 564.557 11
-5 3 -4 8303.6 792.76 5
5 3 4 9999.29 838.968 28
5 3 4 9926.63 571.196 9
5 3 4 10147.5 1107.34 27
-5 3 -4 8953.96 867.988 3
5 3 4 10434.7 651.342 25
-5 3 -5 2819.49 330.291 24
-5 3 -5 2424.95 473.5 3
5 3 5 2630.51 294.576 33
5 3 5 2919.21 326.551 22
5 3 5 3303.97 335.82 9
-5 3 -5 2059.69 416.492 5
5 3 5 3526.57 684.596 27
5 3 5 3076.55 364.378 25
5 3 6 246.128 126.51 25
-5 3 -6 341.962 119.452 24
5 3 6 272.786 116.56 22
-5 3 -6 218.968 119.304 19
5 3 6 255.864 107.594 9
5 3 7 228.081 130.952 25
5 3 7 286.105 136.83 22
-5 3 -7 283.606 124.386 19
5 3 7 313.285 118.867 9
5 3 8 5480.32 421.793 22
5 3 8 5280.84 424.656 21
-5 3 -8 5398.69 414.82 19
5 3 8 4486.32 353.181 16
5 3 8 6320.75 433.551 9
5 3 8 5491.27 448.79 25
5 3 9 2855.39 261.79 22
5 3 9 2549.94 241.412 21
-5 3 -9 2289.01 219.003 19
5 3 9 2623.87 245.994 9
-5 4 11 4215.35 310.186 21
-5 4 11 3610.66 255.714 20
-5 4 11 4454.31 306.312 16
-5 4 10 11235.6 605.466 21
-5 4 10 10958.6 550.634 20
-5 4 10 12039.4 607.743 16
-5 4 9 3557.32 307.596 12
-5 4 9 3679.48 372.255 21
-5 4 9 3902.23 334.418 6
-5 4 9 3891.62 357.548 20
-5 4 9 3439.39 354.672 16
-5 4 9 3785.54 361.85 26
-5 4 8 25855.9 1057.95 21
-5 4 8 24929.7 939.006 12
-5 4 8 26578.9 983.04 6
-5 4 8 27612.2 1044.92 20
-5 4 8 25816.7 1046.09 16
-5 4 8 28344.8 1067.43 26
-5 4 7 552.203 156.745 21
-5 4 7 592.625 133.196 12
-5 4 7 559.569 146.309 20
-5 4 7 751.067 166.798 6
-5 4 7 701.648 271.872 2
-5 4 7 566.89 158.559 16
-5 4 7 697.997 170.667 15
5 4 -7 757.034 330.637 29
-5 4 7 782.119 185.86 26
-5 4 6 38144.1 1277.81 21
5 4 -6 39225 2132.55 4
-5 4 6 38652.6 1231.99 12
-5 4 6 41686 1306.99 6
-5 4 6 40162.1 1312.69 20
-5 4 6 40505.6 1305.95 16
5 4 -6 45281.8 2184.38 29
-5 4 6 42294.4 1320.27 26
-5 4 6 39370.4 1840.59 2
-5 4 5 5134.54 405.405 21
-5 4 5 5534.33 409.271 12
-5 4 5 5490.79 436.447 20
-5 4 5 4837.26 409.216 6
-5 4 5 5355.37 413.126 16
5 4 -5 5551.61 718.923 29
-5 4 5 5924.36 649.949 2
-5 4 5 5605.93 429.406 26
-5 4 4 1064.44 269.729 2
5 4 -4 1381.41 339.993 29
-5 4 3 42047.2 1647.1 2
5 4 -3 45145.8 1878.22 29
5 4 -3 44797.1 1468.98 28
-5 4 2 3868.06 456.595 2
5 4 -2 4313.05 531.003 29
5 4 -2 4403 418.265 28
-5 4 1 2858.08 374.198 2
5 4 -1 2905.85 411.085 29
5 4 -1 2904.97 357.903 28
-5 4 0 63468.2 2024.45 2
5 4 0 68020.2 2150.53 29
5 4 0 69853.3 2046.44 28
-5 4 -1 41516.1 1582.04 2
5 4 1 39714.5 1525 29
5 4 1 43649.4 1630.58 28
-5 4 -1 43287.9 1767.57 4
-5 4 -2 70421.3 2339.33 3
5 4 2 69736.2 2300.82 28
-5 4 -3 7054.21 511.879 24
5 4 3 6776.91 465.424 22
-5 4 -3 6491.34 470.198 11
5 4 3 5723.05 427.544 33
5 4 3 4903.56 562.744 32
5 4 3 6635.2 661.632 28
-5 4 -3 6583.01 706.33 4
5 4 3 4518.7 710.162 27
-5 4 -3 6326.09 698.07 3
5 4 4 82735.3 2052.43 33
-5 4 -4 89114.4 2219.58 24
5 4 4 89932 2127.16 22
-5 4 -4 84376.9 2109.71 11
5 4 4 88705.5 2075.7 9
-5 4 -4 89776.4 3072.45 3
5 4 4 88091.6 2283.45 25
-5 4 -5 33644.5 1224.29 24
5 4 5 30098.8 1086.06 33
5 4 5 33437.7 1177.07 22
-5 4 -5 31099.2 1111.15 11
-5 4 -5 28235 1640.33 5
5 4 5 34000.3 1156.05 9
5 4 5 27292.4 1883.81 27
-5 4 -5 30937.7 1810.34 3
5 4 5 31155.5 1248.07 25
5 4 6 -57.5745 88.3404 25
-5 4 -6 24.7603 50.8769 24
5 4 6 228.593 121.666 22
-5 4 -6 135.24 105.243 19
5 4 6 149.88 101.319 9
-5 4 -7 19276.9 806.01 24
5 4 7 22914.4 941.427 22
-5 4 -7 22161.7 968.78 19
5 4 7 21614.2 884.001 9
5 4 7 20553.2 953.5 25
5 4 8 8507.54 517.208 22
5 4 8 9009.33 560.649 21
-5 4 -8 9672.52 558.966 19
5 4 8 9081.04 515.355 9
5 4 9 1986.99 213.957 21
-5 4 -9 2100.04 207.166 19
5 4 9 1539.78 154.669 16
-5 5 11 7366.05 377.032 21
-5 5 11 6889 367.615 16
-5 5 10 7738.13 473.884 21
-5 5 10 8275.72 454.912 20
-5 5 10 7638.67 477.113 16
-5 5 9 696.669 164.103 21
-5 5 9 642.697 155.622 12
-5 5 9 638.01 148.496 20
-5 5 9 587.791 168.246 16
-5 5 8 1819.67 266.865 21
-5 5 8 1905.86 253.856 12
-5 5 8 1938.69 249.673 6
-5 5 8 2053.98 268.524 20
-5 5 8 2046.27 297.587 16
-5 5 8 1598.03 244.933 26
-5 5 7 772.011 178.196 21
-5 5 7 651.182 160.586 12
-5 5 7 690.745 162.847 20
-5 5 7 633.436 168.705 6
-5 5 7 972.985 196.956 16
-5 5 7 1022.34 195.446 26
-5 5 6 43567 1921.99 2
5 5 -6 42785.5 2296.9 4
-5 5 6 43998.1 1366.01 21
-5 5 6 44902.6 1389.43 12
-5 5 6 44414.5 1414.19 6
-5 5 6 47746.1 1478.23 20
-5 5 6 44108.3 1403.97 16
5 5 -6 48032.9 2322.49 29
-5 5 5 22017.9 883.287 21
-5 5 5 24393.4 940.83 12
-5 5 5 25777.9 1017.06 20
-5 5 5 24069.9 987.314 6
-5 5 5 22943.7 918.649 16
5 5 -5 24339.7 1548.76 29
-5 5 5 22253.8 1268.46 2
-5 5 5 21165.4 848.567 8
-5 5 4 130431 2723.25 12
-5 5 4 139156 2933.15 20
-5 5 4 144059 2940.9 6
-5 5 4 125111 2673.14 16
-5 5 4 133268 3388.1 2
5 5 -4 140061 3896.94 29
-5 5 4 123488 2682.36 8
-5 5 3 15177.8 929.732 2
5 5 -3 14829 1067.31 29
-5 5 2 24680.1 1154.01 2
5 5 -2 24962.9 1346.05 29
5 5 -2 23993.8 1060.97 28
-5 5 1 8947.43 661.137 2
5 5 -1 7674.92 716.412 29
5 5 -1 8352.74 624.571 28
-5 5 0 1840.54 288.731 2
5 5 0 2052.49 358.733 29
5 5 0 1895.95 316.932 28
-5 5 0 1875.92 373.021 4
-5 5 -1 30530.1 1304.64 2
-5 5 -1 34191.3 1609.83 4
5 5 1 32045 1392.86 29
5 5 1 31653.8 1403.58 28
-5 5 -2 4144.39 393.82 24
5 5 2 3423.25 325.133 33
-5 5 -2 4320.73 393.89 11
5 5 2 3590.4 497.241 28
-5 5 -2 3804.18 536.574 4
5 5 2 3127.93 519.656 27
-5 5 -3 5325.89 671.51 3
-5 5 -3 5587.17 476.777 24
5 5 3 5407.74 426.352 22
5 5 3 4444.32 575.759 32
-5 5 -3 5324.08 449.482 11
5 5 3 5069.59 418.971 33
5 5 3 4937.62 607.36 28
-5 5 -3 5894.81 689.156 4
-5 5 -4 2148.49 299.711 24
-5 5 -4 1606.86 401.364 3
5 5 4 1652.14 358.359 32
5 5 4 2231.1 287.252 22
-5 5 -4 1645.71 372.832 4
-5 5 -4 2192.14 293.615 11
5 5 4 1970.46 271.914 33
5 5 4 2153.02 274.742 9
5 5 4 1420.26 397.503 27
-5 5 -5 2575.76 329.376 24
5 5 5 2326.45 298.756 22
-5 5 -5 2277.43 289.522 11
5 5 5 2140.92 280.164 33
5 5 5 2240.95 288.919 9
-5 5 -6 11034.9 664.072 24
5 5 6 9816.95 617.2 22
5 5 6 9544.74 589.922 9
-5 5 -7 13814.1 673.936 24
5 5 7 15992.4 760.795 22
5 5 7 15380.7 796.745 21
-5 5 -7 14775.1 787.093 19
5 5 7 14538.4 712.996 9
5 5 8 9361.42 547.253 21
-5 5 -8 9270.92 543.609 19
5 5 9 4202.63 294.427 21
-5 5 -9 3632.05 263.228 19
-5 6 11 6418.59 314.157 21
-5 6 11 7280.54 359.11 16
-5 6 10 1784.57 190.958 12
-5 6 10 2439.38 239.786 21
-5 6 10 1974.63 210.631 20
-5 6 10 2307.64 253.342 16
-5 6 9 14106 667.667 21
-5 6 9 12822.4 631.014 12
-5 6 9 14077.1 677.005 20
-5 6 9 14763.6 722.071 16
-5 6 8 31128.2 1099.58 21
-5 6 8 31262.1 1117.6 12
-5 6 8 32575.6 1089.46 6
-5 6 8 32603.6 1158.3 20
-5 6 8 31394.3 1160.85 16
-5 6 7 5105.19 417.991 21
-5 6 7 5109.26 437.176 12
-5 6 7 4650.12 406.185 6
-5 6 7 5021.68 442.591 20
-5 6 7 5041.15 443.754 16
-5 6 6 3121.26 317.682 21
-5 6 6 3467.54 364.834 12
5 6 -6 4190.94 724.823 4
-5 6 6 3395.8 364.677 6
-5 6 6 3217.46 372.846 20
-5 6 6 3176.41 340.863 16
5 6 -6 3585.98 631.499 29
-5 6 5 2187.22 279.376 12
5 6 -5 1289.9 397.767 4
-5 6 5 1823.45 291.039 20
-5 6 5 1980.09 287.558 6
-5 6 5 2398.11 284.576 16
5 6 -5 2310.22 464.744 29
-5 6 5 2066.99 261.418 8
-5 6 4 19775.6 849.669 12
-5 6 4 20929.2 957.275 20
-5 6 4 17833.9 781.485 16
5 6 -4 21039.1 1408.12 29
-5 6 4 19310.1 839.949 8
-5 6 3 3104.42 313.032 12
-5 6 3 2958.26 416.028 2
5 6 -3 2953.11 485.514 29
-5 6 3 2925.36 316.101 8
-5 6 2 16619.8 734.153 12
-5 6 2 18090.9 967.865 2
5 6 -2 17168.4 1155.06 29
5 6 -2 15022.2 849.484 28
-5 6 2 17613.2 789.551 8
-5 6 1 2925.3 364.448 2
5 6 -1 3627.24 508.871 29
5 6 -1 2653.93 361.159 28
-5 6 1 2977.27 313.261 8
-5 6 0 16730.3 914.366 2
-5 6 0 18707.6 843.118 11
5 6 0 16585.9 722.053 33
5 6 0 19113.1 1156.43 29
5 6 0 17375.5 988.289 28
-5 6 0 19765 1236.8 4
-5 6 -1 29886 1110.3 24
-5 6 -1 30246.9 1125.95 11
5 6 1 28846.8 1003.4 33
5 6 1 27155.7 1340.62 29
5 6 1 28134.8 1368.05 28
-5 6 -1 31121.2 1617.99 4
-5 6 -2 4759.28 436.348 24
5 6 2 4654.67 392.445 22
-5 6 -2 4859.58 438.485 11
5 6 2 4542.5 389.213 33
5 6 2 4366.65 551.203 28
-5 6 -2 4619.44 621.118 4
5 6 2 2875.2 511.135 27
-5 6 -3 9316.34 643.989 24
5 6 3 8627.18 557.7 22
-5 6 -3 7975.02 565.745 11
5 6 3 8336.23 552.02 33
5 6 3 6509.26 728.998 32
-5 6 -3 8149.38 866.2 4
-5 6 -4 33155.8 1281.41 24
5 6 4 32226.3 1158.66 33
5 6 4 34212.7 1200.14 22
-5 6 -4 32096.2 1202.22 11
5 6 4 33746.8 1170.8 9
-5 6 -4 31219.4 1774.84 4
-5 6 -5 215.524 132.221 24
5 6 5 31.7502 75.4697 22
-5 6 -5 195.352 99.1901 11
5 6 5 203.629 110.012 9
-5 6 -6 180.845 91.6024 24
5 6 6 360.328 137.83 22
-5 6 -7 969.46 177.482 24
5 6 7 693.173 163.946 22
5 6 7 839.557 182.111 21
-5 6 -7 887.881 207.7 19
5 6 8 3651.01 318.392 21
-5 6 -8 3646.45 334.172 19
5 6 8 3456.21 310.24 16
5 6 9 5169.8 300.127 21
-5 6 -9 5131.49 296.817 19
-5 7 11 4006.63 234.676 16
-5 7 10 2262.04 204.546 12
-5 7 10 2546.12 212.662 21
-5 7 10 2688.55 226.792 20
-5 7 10 2633.68 248.879 16
-5 7 9 1957.53 216.689 21
-5 7 9 2111.78 247.659 12
-5 7 9 2544.18 271.238 20
-5 7 9 2698.76 286.714 16
-5 7 8 19814 785.453 21
-5 7 8 18481.2 833.876 12
-5 7 8 18542.4 779.015 6
-5 7 8 20521.4 882.229 20
-5 7 8 20322.7 871.035 16
-5 7 7 13848.8 659.993 21
-5 7 7 15088.4 774.52 12
-5 7 7 13160.4 710.76 6
-5 7 7 15839.6 808.379 20
-5 7 7 15758.8 781.065 16
-5 7 6 2742.64 328.577 12
-5 7 6 3190.94 371.6 20
-5 7 6 3048.61 357.769 6
-5 7 6 3009.71 329.738 16
-5 7 6 3013.23 329.986 8
5 7 -5 14916.6 1439.06 4
-5 7 5 15587.2 773.003 12
-5 7 5 14089.9 832.023 20
-5 7 5 15572.8 836.191 6
-5 7 5 14252.6 706.964 16
5 7 -5 15268 1295.91 29
-5 7 5 13803.3 738.453 8
5 7 -4 9640.14 1129.44 4
-5 7 4 9109.94 570.04 12
-5 7 4 8644.47 650.676 20
5 7 -4 8840.31 927.938 29
-5 7 4 9271.77 596.597 8
-5 7 3 6114.46 450.684 12
5 7 -3 4873.1 664.758 29
-5 7 3 5861.14 471.31 8
-5 7 2 23103.9 895.147 12
-5 7 2 22196.1 930.195 11
5 7 -2 20488.1 1326.1 29
-5 7 2 22912.5 954.608 8
-5 7 1 1349.14 224.984 8
-5 7 1 722.898 171.429 24
-5 7 1 1346.9 196.322 12
-5 7 1 1162.66 210.785 11
5 7 -1 1410.71 218.227 33
5 7 -1 979.127 285.925 29
5 7 -1 858.401 187.665 28
-5 7 0 10921.6 647.714 24
5 7 0 11554.3 614.217 33
-5 7 0 11169.7 580.019 12
-5 7 0 11973.9 699.021 11
5 7 0 10862.7 921.259 29
5 7 0 10491.5 791.943 28
-5 7 0 13197.9 1067.87 4
-5 7 -1 29984.8 1180.69 24
-5 7 -1 33491.8 1243.32 11
5 7 1 32509 1107.88 33
5 7 1 29270.1 1461.45 29
-5 7 -1 34769 1812.1 4
-5 7 -2 2025.77 310.029 24
-5 7 -2 1969.62 458.278 4
5 7 2 1979.59 398.942 32
-5 7 -2 2104.69 303.614 11
5 7 2 1829.37 257.855 33
-5 7 -3 3540.51 403.215 24
5 7 3 3719.65 372.825 22
-5 7 -3 2987.5 534.182 4
-5 7 -3 4134.04 422.373 11
5 7 3 3274.8 357.309 33
5 7 3 2756.41 536.054 32
-5 7 -4 2688.45 352.217 24
5 7 4 2587.05 321.829 22
-5 7 -4 2370.68 317.738 11
-5 7 -5 1749.76 285.19 24
5 7 5 1536.16 246.731 22
-5 7 -5 1551.7 249.78 11
-5 7 -6 112.79 77.7849 24
-5 7 -7 972.598 176.263 24
5 7 7 1153 201.362 21
-5 7 -7 887.521 191.761 19
5 7 8 2337.27 235.093 21
-5 7 -8 2300.28 252.759 19
5 7 8 2153.14 229.824 16
5 7 9 2895.9 194.804 21
-5 7 -9 2745.34 192.212 19
-5 8 10 1651.14 167.445 12
-5 8 10 1505.88 177.252 16
-5 8 9 10987 548.725 12
-5 8 9 10301.8 527.652 20
-5 8 9 10794.3 534.906 16
-5 8 8 10121.7 584.515 12
-5 8 8 9908.03 590.403 20
-5 8 8 10369.4 568.35 16
-5 8 7 15585.1 773.268 12
-5 8 7 15121.5 747.518 6
-5 8 7 15962.9 819.149 20
-5 8 7 15816.5 737.75 16
-5 8 6 41526.1 1377.29 12
-5 8 6 43981.1 1509.75 20
-5 8 6 40505.5 1404.04 6
-5 8 6 41186 1282.71 16
-5 8 6 40541 1352.04 8
-5 8 5 10068.1 620.138 12
-5 8 5 10031.9 688.481 20
-5 8 5 8571.27 632.258 6
-5 8 5 9116 538.298 16
-5 8 5 9535.23 618.726 8
5 8 -4 35372.7 2224.05 4
-5 8 4 31220.1 1131.96 12
-5 8 4 29439.1 1333.7 20
5 8 -4 30571.5 1810.52 29
-5 8 4 30709.8 1196.74 8
-5 8 3 10022.9 589.948 12
5 8 -3 10654.6 1168.04 4
5 8 -3 9152.52 924.91 29
-5 8 3 9229.16 623.344 8
-5 8 2 4281.19 370.688 12
5 8 -2 5904.55 829.267 4
-5 8 2 4368.05 417.902 11
5 8 -2 4950.12 657.518 29
-5 8 2 4135.59 410.382 8
-5 8 1 3499.45 353.937 24
-5 8 1 3434.2 320.407 12
5 8 -1 2698.86 541.413 4
-5 8 1 3305.96 373.839 11
5 8 -1 3609.66 352.636 33
5 8 -1 2797.24 491.222 29
-5 8 1 3451.58 560.057 4
-5 8 1 3032.74 352.027 8
-5 8 0 28711.2 1152.14 24
5 8 0 29736.9 1074.26 33
-5 8 0 27808.4 966.978 12
5 8 0 28984.4 1688.25 4
-5 8 0 27954.3 1170.13 11
5 8 0 28775.5 1550.71 29
-5 8 0 29894.3 1729.04 4
-5 8 -1 6404.63 544.498 24
-5 8 -1 6252.26 534.766 11
5 8 1 6538.61 478.134 33
-5 8 -1 6373.42 786.133 4
-5 8 -2 4766.97 477.734 24
-5 8 -2 4561.19 459.006 11
5 8 2 3813.95 600.81 32
-5 8 -2 4372.59 680.794 4
-5 8 -3 966.94 230.673 24
-5 8 -3 894.151 206.952 11
-5 8 -4 15440.7 878.52 24
-5 8 -4 15584.6 846.589 11
-5 8 -5 4515.76 453.12 24
-5 8 -5 5389.55 461.526 11
-5 8 -6 5458.7 473.46 24
-5 8 -7 10678.7 550.555 24
5 8 7 11722.3 576.768 21
-5 8 -7 12640.7 654.939 19
5 8 7 12056.6 610.042 16
5 8 8 4750.85 296.237 21
-5 8 -8 4622.3 327.056 19
5 8 8 4657.46 307.132 16
-5 9 10 19990.5 567.993 12
-5 9 10 19564.1 551.879 16
-5 9 9 3419.3 279.095 12
-5 9 9 3129.88 253.463 20
-5 9 9 3125.91 246.835 16
-5 9 8 4388 358.859 12
-5 9 8 3942.14 351.462 20
-5 9 8 4009.33 315.589 16
-5 9 7 7897.68 517.849 12
-5 9 7 6568.37 455.514 6
-5 9 7 7676.2 544.603 20
-5 9 7 7900 468.185 16
-5 9 7 6579.04 456.861 8
-5 9 6 21115.9 910.655 12
-5 9 6 20493.3 995.056 20
-5 9 6 20201.8 936.47 6
-5 9 6 20998.2 813.084 16
-5 9 6 20156.7 910.035 8
-5 9 5 11072.2 643.388 12
-5 9 5 10079.4 721.206 20
-5 9 5 9969.82 699.711 6
-5 9 5 11107 692.068 8
-5 9 4 74776.1 1917.28 12
-5 9 4 71110.1 2248.88 20
-5 9 4 75338.4 2068.69 8
-5 9 3 81280.4 2013.57 12
5 9 -3 79780.9 3037.68 29
-5 9 3 84334.3 2230.59 8
-5 9 2 83251.2 1971.91 12
-5 9 2 76181.9 2115.01 11
5 9 -2 77415.2 2924.44 29
-5 9 2 80500.7 2163.67 8
-5 9 1 14900.1 803.951 24
-5 9 1 16589.8 728.479 12
5 9 -1 17250 1392.96 4
-5 9 1 16845.5 891.568 11
5 9 -1 15092.7 1171.49 29
-5 9 1 13302.4 1167.74 4
-5 9 1 16827.2 857.589 8
-5 9 0 5940.37 525.095 24
5 9 0 5298.99 715.981 4
-5 9 0 6987.93 579.918 11
5 9 0 6359.58 729.121 29
-5 9 0 5345.21 733.057 4
-5 9 -1 25721.7 1148.19 24
-5 9 -1 26672.9 1187.57 11
-5 9 -1 24478.1 1654.8 4
-5 9 -2 3638.48 429.096 24
-5 9 -2 3792.5 435.621 11
-5 9 -3 6649.86 568.913 24
-5 9 -3 6697.93 560.403 11
-5 9 -4 10709.5 719.756 24
-5 9 -4 9816.16 664.65 11
-5 9 -5 460.285 138.102 24
-5 9 -5 683.584 164.265 11
-5 9 -6 1713.56 252.472 24
5 9 6 1718.61 226.15 21
-5 9 -7 4776.46 332.963 24
5 9 7 4973.98 323.481 21
-5 9 -7 6103.38 417.804 19
5 9 7 5442.9 367.01 16
5 9 8 1881.84 154.169 21
-5 9 -8 2129.05 197.326 19
5 9 8 2140.82 183.025 16
-5 10 9 6744.93 314.561 20
-5 10 9 7346.37 323.637 16
-5 10 8 16882.3 679.287 20
-5 10 8 15746.1 573.333 16
-5 10 7 1877.26 237.916 12
-5 10 7 1757.04 252.689 20
-5 10 7 1588.63 186.546 16
-5 10 7 1576.19 218.799 8
-5 10 6 7095.46 479.292 12
-5 10 6 6234.35 471.801 6
-5 10 6 6752.06 546.5 20
-5 10 6 6389.21 487.611 8
-5 10 5 398.518 152.877 8
-5 10 5 591.409 161.96 12
-5 10 5 665.003 196.902 20
-5 10 5 153.267 101.716 6
-5 10 4 13175.4 674.108 12
-5 10 4 10968 794.098 20
-5 10 4 11805.3 748.244 8
-5 10 3 7322.64 486.69 12
-5 10 3 6232.19 526.275 8
-5 10 2 1751.92 232.244 12
-5 10 2 1515.02 263.896 11
-5 10 2 1361.51 256.732 8
-5 10 1 29118.6 1156.85 24
-5 10 1 30448.3 1001.94 12
-5 10 1 29206.8 1228.79 11
-5 10 1 30286.5 1190.37 8
-5 10 0 389.688 158.485 24
-5 10 0 383.768 154.669 11
-5 10 -1 10446 717.372 24
-5 10 -1 12154.7 786.333 11
-5 10 -2 16098.7 903.922 24
-5 10 -2 14775.2 864.374 11
-5 10 -3 3315.85 405.868 24
-5 10 -3 3555.65 409.414 11
-5 10 -4 31992.2 1252.5 24
-5 10 -4 30694.1 1208.19 11
-5 10 -5 7303.55 544.479 24
5 10 5 6932.77 432.158 21
-5 10 -5 6477.67 474.035 11
-5 10 -6 6839.81 466.337 24
5 10 6 5888.89 359.519 21
5 10 6 6837.43 425.008 16
-5 10 -7 13693 526.079 24
5 10 7 14237.8 492.786 21
-5 10 -7 15928.2 615.737 19
5 10 7 16151.9 581.66 16
-5 11 9 16248.1 495.66 12
-5 11 8 3018.88 240.886 12
-5 11 8 2612.58 214.747 20
-5 11 7 14422.9 607.147 12
-5 11 7 13465.9 625.868 20
-5 11 6 12732.2 603.351 12
-5 11 6 10673.8 561.197 6
-5 11 6 11250.6 650.214 20
-5 11 6 10775 609.689 8
-5 11 5 11205.8 586.059 12
-5 11 5 10872 708.051 20
-5 11 5 10135.5 635.363 6
-5 11 5 10007.1 628.265 8
-5 11 4 8437.06 509.068 12
-5 11 4 8118.24 640.552 20
-5 11 4 8737.1 597.072 8
-5 11 3 3155.91 306.086 12
-5 11 3 3418.02 385.872 8
-5 11 2 5186.83 375.28 12
-5 11 2 5057.69 459.408 8
-5 11 1 23433.1 1025.49 24
-5 11 1 24967.7 1114.41 11
-5 11 0 2361.36 326.074 24
-5 11 0 2401.69 345.78 11
-5 11 -1 22354.5 1046.98 24
-5 11 -1 22677.8 1079.36 11
-5 11 -2 22548 1041.31 24
-5 11 -2 21421.2 1030.11 11
-5 11 -3 11695.5 724.647 24
-5 11 -3 10796.7 695.444 11
-5 11 -4 5430.09 468.222 24
-5 11 -4 4972.27 434.725 11
-5 11 -5 6962.54 491.995 24
-5 11 -5 6209.48 427.384 11
-5 11 -6 2202.68 234.405 24
-5 11 -6 2223.02 228.366 19
5 11 6 2390.62 221.96 16
5 11 7 1824.09 147.913 12
-5 11 -7 2068.41 171.24 19
5 11 7 2120.52 165.384 16
-5 12 8 664.527 98.0937 12
-5 12 7 9309.17 426.4 12
-5 12 7 9205.03 438.617 20
-5 12 6 1125.28 164.181 12
-5 12 6 1247.59 195.232 20
-5 12 6 1219.19 185.175 8
-5 12 5 44970.4 1197.2 12
-5 12 5 45122.8 1422.3 20
-5 12 5 42899.2 1317.35 8
-5 12 4 9237.79 492.792 12
-5 12 4 10468.4 683.213 20
-5 12 4 9592.42 617.226 6
-5 12 4 10007.2 614.287 8
-5 12 3 10990.5 534.051 12
-5 12 3 10777.7 649.131 8
-5 12 2 3687.77 376.987 11
-5 12 2 3657.02 378.584 8
-5 12 1 9757.25 646.793 11
-5 12 1 9330.29 602.017 8
-5 12 0 4488.15 419.52 24
-5 12 0 4747.75 453.331 11
-5 12 -1 552.522 163.6 24
-5 12 -1 424.411 161.143 11
-5 12 -2 8078.87 575.201 24
-5 12 -2 8271.83 592.854 11
-5 12 -3 1459.4 237.413 24
-5 12 -3 1475.1 244.844 11
-5 12 -4 1300 221.647 24
-5 12 -4 1221.69 196.654 11
-5 12 -5 4030.53 331.933 24
-5 12 -5 3765.83 286.503 11
5 12 5 3948.81 278.265 16
-5 12 -6 11210.5 448.395 24
5 12 6 10986.1 398.014 16
-5 13 7 377.663 75.2518 12
-5 13 7 235.466 59.2936 20
-5 13 6 859.672 121.365 12
-5 13 6 632.894 121.257 20
-5 13 5 2865.89 232.139 12
-5 13 5 2427.76 225.566 6
-5 13 5 3044.27 292.766 20
5 13 -5 3039.5 295.722 11
-5 13 5 3021.92 284.08 8
-5 13 4 4333.38 293.61 12
-5 13 4 5026.77 422.733 20
-5 13 4 4239.46 358.171 6
-5 13 4 5180.55 396.941 8
-5 13 3 10471 674.651 20
-5 13 3 11011.4 611.446 8
-5 13 2 12095.6 637.297 11
-5 13 2 14374.7 705.092 8
-5 13 1 11688.5 652.04 11
-5 13 0 965.676 169.802 24
-5 13 0 1162.84 213.481 11
-5 13 -1 1368.82 221.242 24
-5 13 -1 1371.76 234.118 11
-5 13 -2 6305.47 459.073 24
-5 13 -2 6611.25 486.716 11
-5 13 -3 3890.88 348.109 24
-5 13 -3 4128.57 354.138 11
-5 13 -4 3457.51 298.307 24
-5 13 -4 3121.15 273.58 11
-5 13 -5 527.258 103.931 24
-5 13 -5 402.118 75.4225 11
-5 14 6 903.226 103.309 20
-5 14 5 5294.15 319.912 20
5 14 -5 3897.31 279.098 11
-5 14 4 3718.01 308.573 20
-5 14 4 2789.69 237.519 6
5 14 -4 3393.22 309.553 11
-5 14 3 8064.04 498.609 20
-5 14 3 6611.38 426.001 6
-5 14 2 6384.64 383.584 11
-5 14 1 4549.67 354.349 11
-5 14 0 81.0375 61.9536 24
-5 14 0 231.98 91.6024 11
-5 14 -1 5253.74 366.144 24
-5 14 -1 5998.72 418.195 11
-5 14 -2 543.886 123.066 24
-5 14 -2 659.54 140.626 11
-5 14 -3 3206.87 271.454 24
-5 14 -3 3689.71 287.127 11
-5 14 -4 3298.91 237.222 24
-5 14 -4 3085.12 217.718 11
-5 15 4 786.398 119.245 20
5 15 -4 1017.31 141.246 11
-5 15 3 1743.86 191.036 20
5 15 -3 2010.49 217.536 11
-5 15 2 9148.77 482.665 20
-5 15 2 8523.41 438.139 6
-5 15 1 2291.7 239.162 20
-5 15 1 2151.46 197.822 11
-5 15 0 8141.19 415.771 11
-5 15 -1 9329.03 438.281 11
5 15 1 7943.27 376.303 11
-5 15 -2 4208.3 251.697 24
-5 15 -2 5085.84 301.424 11
-5 15 -3 140.397 43.6083 11
-5 16 2 762.858 113.435 20
5 16 -2 2226.46 183.569 11
-5 16 1 268.302 71.8959 20
5 16 -1 623.399 98.3505 11
-6 -15 2 730.753 95.6597 25
6 -15 -2 722.856 96.4619 13
6 -15 -1 3852.5 214.681 13
-6 -15 1 1745.42 155.201 7
6 -15 0 4590.65 234.336 13
-6 -14 5 3008.21 193.058 25
-6 -14 4 8040.53 365.009 25
6 -14 -4 8579.73 356.487 13
-6 -14 3 8705.69 390.723 25
6 -14 -3 9348.09 392.921 13
-6 -14 3 6402.56 337.23 7
-6 -14 3 7519.41 315.196 10
-6 -14 2 8088.6 388.028 25
6 -14 -2 8385.41 387.382 13
-6 -14 2 7368.44 320.046 10
-6 -14 1 3007.08 232.779 25
6 -14 -1 3177.17 237.073 13
-6 -14 1 2533.9 180.664 10
6 -14 0 5775.7 320.542 13
6 -14 1 5804.61 309.136 13
6 -14 2 1765.4 158.265 13
-6 -13 6 5224.71 280.13 25
6 -13 -6 4500.03 234.919 13
-6 -13 6 4615.13 237.926 10
-6 -13 5 6142.63 344.365 25
6 -13 -5 6122.82 313.292 13
-6 -13 5 5911.91 305.45 10
-6 -13 4 4785.58 323.99 25
6 -13 -4 4459.56 291.372 13
-6 -13 4 4564.45 288.774 10
-6 -13 3 3206.8 273.152 25
6 -13 -3 3030.92 252.228 13
-6 -13 3 2760.05 230.655 10
-6 -13 2 25580.6 853.964 25
6 -13 -2 24895.9 804.218 13
6 -13 -1 2590.05 243.745 13
-6 -13 1 2178.37 204.486 10
6 -13 0 16470.2 638.206 13
-6 -13 0 16546.1 632.285 19
-6 -13 0 16245.6 581.136 10
6 -13 1 957.713 148.633 13
-6 -13 -1 948.166 142.876 19
-6 -13 -1 800.512 122.264 10
6 -13 2 11322 483.49 13
-6 -13 -2 11517.7 453.217 19
-6 -13 -2 10930.1 410.932 10
6 -13 3 2251.15 193.424 13
-6 -13 -3 1824.9 146.525 19
6 -13 4 548.549 87.4168 13
6 -13 4 408.506 74.3052 26
-6 -12 7 1073.39 129.39 25
6 -12 -7 828.952 100.992 13
-6 -12 7 1078.86 123.81 10
-6 -12 6 7696.04 401.32 25
6 -12 -6 7101.62 347.519 13
-6 -12 6 7256.47 373.005 10
-6 -12 5 5058.15 351.902 25
6 -12 -5 4578.4 303.586 13
-6 -12 5 4992.19 330.726 10
-6 -12 4 13820.8 626.394 25
6 -12 -4 12693 557.949 13
-6 -12 4 12477.9 561.408 10
-6 -12 3 9018.46 520.566 25
6 -12 -3 8850.21 477.906 13
-6 -12 3 9613.68 499.797 10
-6 -12 2 47998.5 1342.9 19
-6 -12 2 52527.5 1346.59 10
-6 -12 2 49021.4 1390.43 14
6 -12 -1 60.9935 67.3154 13
-6 -12 1 43.5108 71.128 19
-6 -12 1 -149.038 80.0497 10
-6 -12 1 104.724 84.3895 14
6 -12 0 991.567 169.741 13
-6 -12 0 808.187 147.946 19
-6 -12 0 838.165 150.724 10
-6 -12 0 652.421 144.864 14
6 -12 1 13752.7 624.411 13
-6 -12 -1 13936.6 602.84 19
-6 -12 -1 11902.7 560.164 10
-6 -12 -1 12785.9 602.356 14
6 -12 2 424.577 113.39 13
-6 -12 -2 331.913 96.832 19
6 -12 3 6602.7 386.974 13
-6 -12 -3 7247.11 368.101 19
6 -12 4 360.271 93.9568 13
-6 -12 -4 210.132 61.1691 19
6 -12 4 468.971 103.835 26
6 -12 5 644.684 96.122 13
6 -12 5 532.914 85.9314 26
-6 -11 8 6921.78 316.48 25
-6 -11 8 7088.59 326.73 10
-6 -11 7 586.438 115.171 25
6 -11 -7 497.253 92.8027 13
-6 -11 7 604.182 118.151 10
-6 -11 6 3914.85 315.288 25
6 -11 -6 3667.88 273.909 13
-6 -11 6 4127.49 318.663 10
-6 -11 5 7234.32 462.771 25
6 -11 -5 7031.79 412.007 13
-6 -11 5 7146.23 445.643 10
-6 -11 4 8489.21 517.137 25
6 -11 -4 7986.11 464.586 13
-6 -11 4 8413.79 499.816 10
6 -11 -3 5856.25 402.258 13
-6 -11 3 5698.42 409.544 19
-6 -11 3 5592.39 425.867 17
-6 -11 3 6166.74 430.091 10
-6 -11 3 5046.14 401.782 14
6 -11 -2 4836.84 376.714 13
-6 -11 2 4490.56 370.292 19
-6 -11 2 4810.19 397.642 17
-6 -11 2 4814.7 383.464 10
-6 -11 2 4473.45 387.562 14
6 -11 -1 126.436 88.4758 13
-6 -11 1 243.175 107.059 19
-6 -11 1 131.028 83.0074 17
-6 -11 1 228.267 107.485 10
-6 -11 1 150.041 83.3954 14
6 -11 0 2467.7 273.623 13
-6 -11 0 1992.8 248.1 19
-6 -11 0 1876.94 234.346 17
-6 -11 0 2110.28 265.037 14
6 -11 1 3062.08 310.129 13
-6 -11 -1 3686.21 328.046 19
-6 -11 -1 3100.35 281.39 17
-6 -11 -1 3186.2 318.851 14
6 -11 2 7.83322 66.2246 13
-6 -11 -2 94.6074 68.7082 19
-6 -11 -2 129.571 71.9352 14
6 -11 3 7064.09 444.287 13
-6 -11 -3 7512.46 422.25 19
-6 -11 -3 6663.32 386.637 14
6 -11 4 3026.37 267.23 13
-6 -11 -4 2936.43 232.643 19
6 -11 5 14506 548.497 13
6 -11 5 14891.3 557.878 26
6 -11 6 5085.69 270.924 9
6 -11 6 5643.33 271.021 26
-6 -10 9 1038.93 119.194 10
-6 -10 8 2247.5 205.071 25
-6 -10 8 2264.62 211.132 10
6 -10 -8 2051.97 170.132 13
-6 -10 7 17356.1 685.778 25
6 -10 -7 16032.9 594.732 13
-6 -10 7 18288.7 704.467 10
-6 -10 6 8968.54 514.251 25
6 -10 -6 8220.62 448.315 13
-6 -10 6 9956.54 537.176 10
-6 -10 5 1326.99 215.183 25
6 -10 -5 1351.2 192.358 13
-6 -10 5 1280.04 204.667 10
-6 -10 4 6049.53 458.175 25
6 -10 -4 6201.93 421.346 13
-6 -10 4 5174.76 425.938 17
-6 -10 4 5840.52 441.55 10
-6 -10 4 4963.83 397.742 14
6 -10 -3 172.441 94.8982 13
-6 -10 3 -25.3076 75.984 19
-6 -10 3 65.1111 85.4788 17
-6 -10 3 118.356 93.1368 10
-6 -10 3 46.4954 79.5448 14
6 -10 -2 10585 578.665 13
-6 -10 2 10421.6 589.358 19
-6 -10 2 11639.9 644.515 17
-6 -10 2 12129 651.544 10
-6 -10 2 11650.4 649.578 14
6 -10 -1 4648.53 383.323 13
-6 -10 1 5208.12 423.255 17
-6 -10 1 5526.09 424.92 19
-6 -10 1 5205.93 438.365 14
6 -10 0 15181.6 721.984 13
-6 -10 0 15106.2 725.744 19
-6 -10 0 15926.2 740.949 17
-6 -10 0 16928.5 796.088 14
6 -10 1 2829.4 305.347 13
-6 -10 -1 2500.49 286.817 19
-6 -10 -1 2309.31 261.274 17
-6 -10 -1 2723.08 311.249 14
6 -10 2 13917 689.325 13
-6 -10 -2 14718.7 691.15 19
-6 -10 -2 14157.9 688.979 14
6 -10 3 17298.2 765.749 13
-6 -10 -3 17641.9 736.08 19
-6 -10 -3 16456 700.228 14
6 -10 4 18284.1 748.056 13
-6 -10 -4 18877 702.283 19
6 -10 5 762.013 145.285 13
-6 -10 -5 706.609 114.566 19
6 -10 5 779.733 144.498 26
6 -10 6 2407.32 201.694 13
6 -10 6 2423.56 208.61 26
-6 -9 9 1638.97 154.643 25
-6 -9 9 2164.08 194.253 10
-6 -9 8 14.7974 53.0289 25
6 -9 -8 59.5259 65.3498 13
-6 -9 8 90.4259 76.4567 10
-6 -9 7 9144.9 517.567 25
6 -9 -7 9105.66 459.547 13
-6 -9 7 8478.44 434.713 18
-6 -9 7 10186.1 554.142 10
-6 -9 6 959.317 176.028 25
6 -9 -6 829.31 154.103 13
-6 -9 6 791.678 170.455 10
-6 -9 5 13966.7 709.839 25
6 -9 -5 13817.9 638.59 13
-6 -9 5 12149.6 651.444 17
-6 -9 5 13848.6 696.305 10
-6 -9 5 11218.6 599.748 14
6 -9 -4 502.378 132.354 13
-6 -9 4 350.359 112.075 19
-6 -9 4 132.564 107.701 17
-6 -9 4 317.722 123.8 10
-6 -9 4 345.346 120.789 14
6 -9 -3 755.757 156.959 13
-6 -9 3 555.622 145.357 19
-6 -9 3 557.447 149.327 17
-6 -9 3 742.509 174.556 10
-6 -9 3 678.454 166.295 14
6 -9 -2 23326.5 896.787 13
-6 -9 2 23760.8 949.13 19
-6 -9 2 24306.5 988.044 17
-6 -9 2 23595.7 1006.34 10
-6 -9 2 24860.2 998.415 14
6 -9 -1 20.8973 67.2983 13
-6 -9 1 114.133 81.5547 19
-6 -9 1 16.1575 81.383 17
-6 -9 1 64.4519 86.5596 14
6 -9 0 13257.9 679.453 13
-6 -9 0 13726.6 697.961 19
-6 -9 0 13401.3 695.965 17
-6 -9 0 14677.2 754.001 14
6 -9 1 747.291 175.236 13
-6 -9 -1 1102.03 199.885 19
-6 -9 -1 1045.77 185.468 17
-6 -9 -1 970.694 191.318 14
6 -9 2 1916.18 257.09 13
-6 -9 -2 2545.23 297.149 19
-6 -9 -2 2007.36 269.406 14
6 -9 3 12121.7 650.923 13
-6 -9 -3 12552.2 644.846 19
-6 -9 -3 13790.1 669.619 14
6 -9 4 4280.93 368.957 13
-6 -9 -4 4989.37 375.016 19
6 -9 5 8352.41 488.177 13
-6 -9 -5 8781.52 453.529 19
6 -9 6 2776.19 246.611 13
6 -9 6 2909.96 255.362 26
6 -9 7 892.591 111.308 22
6 -9 7 1092.36 137.765 9
6 -9 7 732.074 109.917 26
6 -9 7 767.324 103.427 13
-6 -8 10 5125.51 266.559 10
-6 -8 9 11027.2 465.868 25
-6 -8 9 13010.2 542.813 10
-6 -8 8 40632 1167.87 25
6 -8 -8 39235 1047.31 13
-6 -8 8 39958.8 1116.74 18
-6 -8 7 7841.79 500.425 25
6 -8 -7 7626.52 442.835 13
-6 -8 7 7935.96 465.989 18
-6 -8 7 8614.74 532.736 10
-6 -8 6 1854.43 259.035 25
6 -8 -6 1540.2 210.142 13
-6 -8 6 2134.86 277.795 6
-6 -8 6 1924.81 230.476 18
-6 -8 6 1761.71 235.566 17
-6 -8 6 1530.57 237.039 10
-6 -8 5 28271.8 1078.39 25
6 -8 -5 30096.3 1010.66 13
-6 -8 5 26261.7 1026.71 6
-6 -8 5 27875.7 965.288 18
-6 -8 5 28297 1053.49 17
-6 -8 5 27974.5 1062.71 10
-6 -8 5 28689.5 1011.01 14
6 -8 -4 6333.56 440.059 13
-6 -8 4 6095.93 455.791 6
-6 -8 4 6328.66 449.636 19
-6 -8 4 6626.03 495.56 17
-6 -8 4 6901.52 501.387 10
-6 -8 4 6820.34 487.14 14
-6 -8 3 50061.1 1493.19 17
6 -8 -3 44362.8 1321.2 13
-6 -8 3 47499.4 1392.28 19
-6 -8 3 49544.3 1483.54 10
-6 -8 3 48832.6 1469.91 14
6 -8 -2 2456.29 271.162 13
-6 -8 2 2712.53 301.034 19
-6 -8 2 2201.09 292.024 17
6 -8 -2 2475.68 459.241 30
6 -8 -2 2653.25 458.241 28
-6 -8 2 2398.92 300.467 14
6 -8 -1 7064.1 470.383 13
-6 -8 1 8409.93 539.102 19
-6 -8 1 7701.41 530.657 17
6 -8 -1 6656.27 744.613 30
6 -8 -1 7426.45 751.793 28
-6 -8 1 8242.58 561.615 14
6 -8 0 11601.4 627.187 13
-6 -8 0 12699.9 683.352 17
-6 -8 0 12029.3 657.746 19
-6 -8 0 12766.8 706.362 14
6 -8 1 8025.42 530.334 13
-6 -8 -1 8696.69 551.416 19
-6 -8 -1 8502.88 537.646 17
-6 -8 -1 8944.94 584.077 14
6 -8 2 8799.71 560.149 13
-6 -8 -2 8928.48 563.987 19
-6 -8 -2 9571.77 593.676 14
6 -8 3 25660.3 1003.96 13
-6 -8 -3 28803 1039.3 19
-6 -8 -3 29072.3 1051.27 14
6 -8 4 8228.69 530.472 13
-6 -8 -4 8453.16 516.755 19
6 -8 5 12141.3 622.74 13
-6 -8 -5 12589.1 589.613 19
6 -8 6 6579.16 416.014 13
-6 -8 -6 7448.68 390.557 19
6 -8 6 6871.72 432.114 26
6 -8 7 3127.59 262.315 9
6 -8 7 2543.35 224.312 26
6 -8 7 2702.6 224.153 13
-6 -7 10 12532.8 486.327 10
-6 -7 9 3660.85 279.067 25
-6 -7 9 4131.03 312.537 18
-6 -7 9 4077.25 323.778 10
-6 -7 8 1412.93 210.245 25
-6 -7 8 1552.51 226.93 6
-6 -7 8 1667.49 236.536 10
-6 -7 8 1692.3 218.897 18
-6 -7 7 8429.56 544.851 25
6 -7 -7 8534.18 481.543 13
-6 -7 7 7912 542.736 6
-6 -7 7 7883.49 521.354 20
-6 -7 7 8431.4 518.811 18
-6 -7 7 8638.03 562.043 10
-6 -7 6 3476.5 357.027 25
6 -7 -6 2755.18 277.467 13
-6 -7 6 3079.61 337.404 6
-6 -7 6 2546.95 303.374 20
-6 -7 6 3551.96 343.314 18
-6 -7 6 3134.76 325.983 17
-6 -7 6 3008.32 343.222 10
-6 -7 5 17155.3 831.746 25
6 -7 -5 17122 743.182 13
-6 -7 5 18492.3 838.316 17
-6 -7 5 18891.7 848.393 6
-6 -7 5 16110.2 756.116 20
-6 -7 5 18457.5 799.16 18
-6 -7 5 19480.3 872.166 10
-6 -7 5 18748.6 793.85 14
6 -7 -4 15454.3 700.745 13
-6 -7 4 16041.3 764.445 6
-6 -7 4 16231.8 729.765 19
-6 -7 4 16348.7 735.432 18
-6 -7 4 18770.8 846.478 17
-6 -7 4 19306.7 851.752 10
6 -7 -4 16563.4 1178.54 30
6 -7 -4 15450.2 1219.27 28
-6 -7 4 16202.7 773.636 14
-6 -7 3 21672.3 912.158 17
6 -7 -3 17655.4 752.128 13
-6 -7 3 19226 871.425 23
-6 -7 3 20103.2 830.339 19
6 -7 -3 19193.8 1253.72 30
-6 -7 3 21465.8 924.523 10
6 -7 -3 19046 1313.69 28
-6 -7 3 18751 855.114 14
6 -7 -2 9976.98 546.878 13
-6 -7 2 12267.9 677.073 23
-6 -7 2 10662 606.34 19
-6 -7 2 11731.1 654.2 17
6 -7 -2 9826.61 877.479 30
6 -7 -2 9913.83 910.277 28
-6 -7 2 11438.3 655.157 14
6 -7 -1 45221 1325.68 13
-6 -7 1 49897.6 1499.14 23
-6 -7 1 52915.9 1486.3 19
6 -7 -1 47918.9 2045.41 30
6 -7 -1 45424.6 1975.79 28
-6 -7 1 51728.7 1524.92 14
-6 -7 1 49762 1476.05 17
-6 -7 0 53003.3 1517.46 24
6 -7 0 46533.4 1382.05 13
-6 -7 0 48969.1 1483.2 23
-6 -7 0 53883.8 1502.9 19
-6 -7 0 52138.6 1491.53 17
6 -7 0 48780.2 2126.46 30
6 -7 0 46356.6 1936.21 28
-6 -7 0 51845.3 1545.34 14
6 -7 1 31885.7 1109.07 13
-6 -7 -1 32159.5 1160.7 24
-6 -7 -1 33785.5 1152.81 19
-6 -7 -1 33164.5 1129.59 17
6 -7 1 31554.2 1720.59 30
-6 -7 -1 34402.6 1206.31 14
6 -7 2 6972.23 495.144 13
-6 -7 -2 8369.43 549.159 24
-6 -7 -2 7668.72 517.132 19
-6 -7 -2 7839.02 500.993 17
-6 -7 -2 8145.37 548.129 14
6 -7 3 44071.8 1392.55 13
-6 -7 -3 46045.3 1398.15 24
-6 -7 -3 48305 1419.27 19
-6 -7 -3 46960.3 1426.2 14
6 -7 4 5140.45 427.301 13
-6 -7 -4 5391.76 421.299 19
-6 -7 -4 5710.3 427.29 14
6 -7 5 82349.1 2007.03 13
-6 -7 -5 85962.8 1961.07 19
6 -7 6 226.504 88.5258 13
-6 -7 -6 221.116 81.6716 19
6 -7 6 370.01 120.518 26
6 -7 7 5211.7 371.013 9
6 -7 7 4432.29 321.945 26
6 -7 7 4542.07 313.451 13
6 -7 8 1756.07 154.014 22
6 -7 8 1960.27 171.732 9
6 -7 8 1403.2 137.708 26
-6 -6 10 24137.9 769.401 10
-6 -6 9 28106.4 943.221 18
-6 -6 9 25673.8 924.774 10
-6 -6 8 8176.03 519.509 25
-6 -6 8 10234.1 599.821 6
-6 -6 8 10765.9 596.547 20
-6 -6 8 10065.4 579.548 18
-6 -6 8 10061.1 600.493 10
-6 -6 7 572.748 144.285 25
-6 -6 7 410.471 140.55 20
-6 -6 7 613.736 162.244 6
-6 -6 7 603.921 152.377 18
-6 -6 7 658.439 175.368 10
-6 -6 6 34732.5 1231.45 25
-6 -6 6 37774.8 1261.21 6
-6 -6 6 36362.6 1224.62 20
-6 -6 6 36913.6 1238.96 18
-6 -6 6 36578.5 1201.8 17
-6 -6 6 38011.4 1304.76 10
-6 -6 5 14055.6 734.242 25
-6 -6 5 13409.5 703.669 6
-6 -6 5 12429.7 654.733 20
-6 -6 5 13674.2 703.291 18
-6 -6 5 13831.8 715.596 17
-6 -6 5 13303 719.516 10
6 -6 -5 13471.9 1146.02 28
-6 -6 4 57988 1605.03 17
-6 -6 4 54593.5 1549.67 23
-6 -6 4 52081.7 1495.57 6
-6 -6 4 49986.9 1423.13 19
-6 -6 4 53523.8 1512.29 18
6 -6 -4 51425.8 2087.33 30
-6 -6 4 58511.6 1629.73 10
6 -6 -4 57684.5 2377.07 28
-6 -6 4 54118 1538.89 14
-6 -6 3 46638.5 1386.19 23
-6 -6 3 41789 1266.36 6
-6 -6 3 43870.5 1311.69 19
-6 -6 3 43056 1292.08 18
-6 -6 3 49133.5 1420.92 17
6 -6 -3 41662.9 1841.57 30
6 -6 -3 43444.9 1996.62 28
-6 -6 3 44746.4 1369.42 14
-6 -6 2 10372.5 601.077 24
-6 -6 2 11561 637.598 23
-6 -6 2 11061.2 610.328 19
-6 -6 2 10639.6 805.81 2
-6 -6 2 11152.2 577.616 18
-6 -6 2 12319.6 649.933 17
6 -6 -2 10453.7 870.697 30
6 -6 -2 12002.8 969.048 28
-6 -6 2 12396.2 658.751 14
-6 -6 1 103984 2393.65 24
-6 -6 1 111263 2439.38 23
-6 -6 1 108589 2934.29 2
-6 -6 1 104248 2367.37 19
-6 -6 1 109375 2423.5 17
6 -6 -1 107830 3178.43 30
6 -6 -1 111207 3251.34 28
-6 -6 0 5036 411.542 24
-6 -6 0 4740.62 395.749 23
-6 -6 0 3059.02 431.368 2
-6 -6 0 4575.31 386.759 19
-6 -6 0 4524.56 386.322 17
6 -6 0 4294.17 574.974 30
6 -6 0 5153.73 595.786 28
6 -6 1 15811.7 727.298 13
-6 -6 -1 17767.9 804.35 24
-6 -6 -1 19039.3 822.407 23
-6 -6 -1 19332.9 822.019 19
-6 -6 -1 18256.7 788.475 17
6 -6 1 15929.3 1176.18 30
6 -6 1 16594.5 1098.24 28
6 -6 2 9454.41 560.624 13
-6 -6 -2 10579.7 607.678 24
-6 -6 -2 9979.43 588.037 23
-6 -6 -2 11166.2 619.031 19
-6 -6 -2 8573.76 769.561 3
-6 -6 -2 10117.2 566.861 17
-6 -6 -3 28810.6 1046.59 24
-6 -6 -3 29322.4 1049.13 19
6 -6 4 6251.57 467.031 13
-6 -6 -4 6118.42 450.289 24
-6 -6 -4 6744.52 471.998 19
-6 -6 -4 6961.23 480.481 14
-6 -6 -5 1122.4 189.354 24
6 -6 5 952.892 183.338 13
-6 -6 -5 1137.24 187.31 19
6 -6 6 3475.64 319.34 13
-6 -6 -6 3762.45 318.707 19
6 -6 6 3557.42 345.375 26
-6 -6 -7 4314.01 292.552 19
6 -6 7 4476.62 365.869 9
6 -6 7 3403.41 298.684 26
6 -6 7 3983.67 305.474 13
6 -6 8 515.363 99.2985 22
6 -6 8 523.978 103.356 9
6 -6 8 403.454 84.7466 26
-6 -5 10 4220.49 315.321 10
-6 -5 9 465.898 133.606 20
-6 -5 9 588.062 132.818 6
-6 -5 9 451.175 143.626 18
-6 -5 9 479.96 144.232 10
-6 -5 8 19495.6 860.722 6
-6 -5 8 18170.9 809.247 20
-6 -5 8 20181.1 868.75 18
-6 -5 7 269.547 117.011 25
-6 -5 7 248.693 108.05 20
-6 -5 7 228.756 132.511 6
-6 -5 7 299.464 126.23 18
-6 -5 7 244.489 127.052 10
-6 -5 6 2800.02 325.298 25
-6 -5 6 2927.2 308.483 17
-6 -5 6 3462.94 352.315 6
-6 -5 6 3234.65 323.868 20
-6 -5 6 3367.35 356.851 18
-6 -5 6 3142.39 358.35 10
-6 -5 5 11999.6 679.786 25
-6 -5 5 13802.7 684.085 23
-6 -5 5 13543.4 692.371 6
-6 -5 5 13186.5 655.984 20
-6 -5 5 14174.7 726.307 18
-6 -5 5 13163.8 689.855 17
-6 -5 5 12675.6 715.809 10
-6 -5 5 11041.2 913.532 2
6 -5 -5 13333.7 1097.89 28
-6 -5 4 329.134 111.659 23
-6 -5 4 489.769 134.928 6
-6 -5 4 474.359 133.985 18
-6 -5 4 -37.5587 126.947 2
-6 -5 4 583.53 144.726 17
6 -5 -4 512.091 199.458 30
-6 -5 4 521.715 147.736 10
6 -5 -4 893.66 273.397 28
-6 -5 4 344.866 112.669 14
-6 -5 3 1215.35 205.634 23
-6 -5 3 1252.28 182.039 6
-6 -5 3 1169.02 184.86 19
-6 -5 3 1989.04 357.097 2
-6 -5 3 1262.45 212.194 18
-6 -5 3 1080.48 191.811 17
6 -5 -3 1425.43 299.292 30
6 -5 -3 1275.96 314.097 28
-6 -5 3 1341.68 210.427 14
-6 -5 2 6738.85 458.919 24
-6 -5 2 6708.71 458.032 23
-6 -5 2 6484.24 449.211 19
-6 -5 2 5374.19 574.07 2
-6 -5 2 6676.74 452.102 18
-6 -5 2 6599.35 459.069 17
6 -5 -2 5700.18 607.629 30
6 -5 -2 6140.21 677.831 28
-6 -5 1 1456.82 219.566 24
-6 -5 1 1361.1 212.776 23
-6 -5 1 1496.06 213.327 19
-6 -5 1 1778.73 321.168 2
-6 -5 1 1784.24 230.889 18
6 -5 -1 1064.09 264.591 30
6 -5 -1 1246.25 301.551 28
-6 -5 0 925.55 177.29 24
-6 -5 0 1421.92 207.215 23
-6 -5 0 991.1 178.705 19
-6 -5 0 802.714 225.264 2
6 -5 0 934.854 233.949 30
6 -5 0 1383.72 329.233 28
-6 -5 -1 69690.1 1762.75 24
-6 -5 -1 67069.1 1724.13 23
-6 -5 -1 66531.3 2213.02 2
-6 -5 -1 68857 1740.42 19
-6 -5 -1 67323.9 2165.4 3
6 -5 1 70107.3 2485.63 30
6 -5 1 69604.6 2383.81 28
-6 -5 -2 8123.56 523.378 24
-6 -5 -2 8134.48 508.429 23
-6 -5 -2 7531.57 694.35 2
-6 -5 -2 8326.71 521.008 19
-6 -5 -2 7529.08 704.228 3
6 -5 2 7474.86 692.989 28
6 -5 3 1716.94 235.807 13
-6 -5 -3 1907.33 392.821 3
-6 -5 -3 1946.88 253.5 24
-6 -5 -3 1449.46 310.766 2
-6 -5 -3 1926.72 257.518 19
6 -5 3 1606.84 376.376 31
6 -5 4 7704.37 505.663 13
-6 -5 -4 8721.17 536.93 24
-6 -5 -4 7981.89 520.6 19
6 -5 5 12894.5 659.539 13
-6 -5 -5 13606.2 654.873 24
-6 -5 -5 12276.1 636.907 19
6 -5 6 393.868 120.524 13
-6 -5 -6 371.796 103.728 19
6 -5 6 452.594 133.22 26
6 -5 7 10531.3 569.743 22
-6 -5 -7 10557.8 495.241 19
6 -5 7 11129.8 596.703 9
6 -5 7 8747.71 501.186 26
6 -5 7 8926.59 478.997 13
6 -5 8 6402.29 368.537 22
6 -5 8 6156.3 371.212 9
-6 -4 10 8055.81 456.009 6
-6 -4 10 8679.72 477.197 20
-6 -4 10 8261.5 465.798 18
-6 -4 10 6921.5 412.903 10
-6 -4 9 18894.2 818.879 6
-6 -4 9 19675 820.047 20
-6 -4 9 19132.8 828.527 18
-6 -4 9 18262.8 793.185 10
-6 -4 8 852.621 182.379 20
-6 -4 8 762.312 174.542 6
-6 -4 8 841.363 196.071 18
-6 -4 8 620.038 162.027 10
-6 -4 7 70128.5 1862.77 6
-6 -4 7 70756.8 1812.85 20
-6 -4 7 70709.9 1900.78 18
-6 -4 7 65640.2 1865.72 10
-6 -4 6 72289.6 1816.64 23
-6 -4 6 71676.3 1890.63 6
-6 -4 6 74752 1854.7 20
-6 -4 6 76731.7 1988 18
-6 -4 6 71997.4 1817.74 17
-6 -4 6 73985.7 1978.02 10
6 -4 -6 73658.8 2706.95 28
-6 -4 6 74451.2 2649.85 2
-6 -4 5 4575.41 381.127 23
-6 -4 5 5294.67 411.921 6
-6 -4 5 4955.25 388.897 20
-6 -4 5 4957.5 430.711 18
-6 -4 5 5551.7 428.299 17
-6 -4 5 5158.31 451.501 10
-6 -4 5 4718.39 604.797 2
6 -4 -5 6387.21 716.065 28
-6 -4 4 14969.1 693.532 23
-6 -4 4 15172.8 685.907 6
-6 -4 4 14334.3 646.61 20
-6 -4 4 14804.3 737.755 18
-6 -4 4 15851.8 732.709 17
-6 -4 4 15466.2 1057.6 2
-6 -4 4 15766.1 776.88 10
6 -4 -4 15295.3 1105.6 28
-6 -4 4 15432.3 710.653 14
-6 -4 3 10307.8 561.98 24
-6 -4 3 10850.1 579.748 23
-6 -4 3 10214.4 528.417 6
-6 -4 3 10290.6 828.596 2
-6 -4 3 11430.2 613.706 18
-6 -4 3 10345.7 571.938 17
6 -4 -3 10253.3 775.304 30
6 -4 -3 12279.1 948.562 28
-6 -4 2 5406.41 404.284 24
-6 -4 2 5451.05 401.666 23
-6 -4 2 4927.78 558.829 2
-6 -4 2 4849.41 376.826 19
-6 -4 2 5826.34 425.464 18
6 -4 -2 5710.65 574.128 30
6 -4 -2 6528.7 670.46 28
-6 -4 1 13250.3 642.863 24
-6 -4 1 13277.4 637.065 23
-6 -4 1 14274.8 940.663 2
-6 -4 1 13063.3 627.6 19
6 -4 -1 12049.9 862.808 30
6 -4 -1 13497.4 953.707 28
-6 -4 0 25204.5 923.996 24
-6 -4 0 27016.1 945.539 23
-6 -4 0 27266 1320.5 2
-6 -4 0 25540.8 914.844 19
6 -4 0 24157.3 1284.17 30
6 -4 0 28642.5 1409.46 28
-6 -4 -1 8891.71 528.208 24
-6 -4 -1 9006.08 517.719 23
-6 -4 -1 8872.84 754.93 2
-6 -4 -1 8984.45 523.904 19
-6 -4 -1 7684.17 642.724 3
6 -4 1 8000.44 755.835 30
6 -4 1 8981.85 796.232 28
-6 -4 -2 6014.95 435.522 24
-6 -4 -2 6423.2 655.653 2
-6 -4 -2 6592.17 441.045 23
-6 -4 -2 5985.98 432.619 19
-6 -4 -2 6082.16 592.104 3
6 -4 2 6994.6 678.275 28
-6 -4 -3 7845.99 503.809 24
-6 -4 -3 7906.53 504.313 19
-6 -4 -3 6915.58 695.998 3
6 -4 3 5640.85 700.012 31
6 -4 3 4802.79 725.576 27
6 -4 4 3044.62 303.587 13
-6 -4 -4 3382.22 330.31 24
-6 -4 -4 3067.22 316.556 19
6 -4 5 3366.57 322.871 13
-6 -4 -5 3634.62 330.243 24
-6 -4 -5 3617.99 337.438 19
-6 -4 -6 2604.98 279.004 19
6 -4 6 2370.06 305.253 9
6 -4 6 2178.24 276.134 26
6 -4 6 2242.68 258.831 13
6 -4 7 3062.36 313.346 22
-6 -4 -7 2920.37 268.481 19
6 -4 7 3128.15 314.624 9
6 -4 7 2496.07 264.346 26
6 -4 7 2542.46 257.649 13
6 -4 8 443.399 110.492 22
-6 -4 -8 483.812 88.4432 19
6 -4 8 520.717 117.92 9
6 -4 8 282.751 79.4501 26
6 -4 9 3398.56 214.031 9
-6 -3 10 2168.3 244.163 6
-6 -3 10 2742.32 275.206 20
-6 -3 10 2709.03 282.987 18
-6 -3 10 2167.84 225.826 10
-6 -3 10 2075.88 205.065 15
-6 -3 9 10860 608.431 6
-6 -3 9 9791.5 535.865 21
-6 -3 9 11073.7 602.238 20
-6 -3 9 10313.7 608.372 18
-6 -3 9 8957.17 531.933 10
-6 -3 9 8193.21 468.816 15
-6 -3 9 8370.73 466.654 26
-6 -3 8 31275.2 1148.46 10
-6 -3 8 35878.5 1217.29 6
-6 -3 8 34532.9 1151.97 21
-6 -3 8 35444 1177.8 20
-6 -3 8 34953.7 1240.29 18
-6 -3 8 34334.2 1088.65 16
-6 -3 7 9154.93 572.13 21
-6 -3 7 10575 622.144 6
-6 -3 7 9525.98 570.992 20
-6 -3 7 10098.7 645.017 18
-6 -3 7 9479.97 598.821 10
-6 -3 7 10037.9 563.504 16
-6 -3 6 7967 491.676 23
-6 -3 6 8174.36 537.765 21
-6 -3 6 8647.58 537.944 6
-6 -3 6 8511.38 521.397 20
-6 -3 6 8701.27 585.49 18
-6 -3 6 8912.05 535.336 16
-6 -3 6 7988.91 554.825 10
6 -3 -6 9320.08 865.888 28
-6 -3 6 7157.12 797.193 2
-6 -3 5 9979.38 554.79 23
-6 -3 5 11128.5 589.695 6
-6 -3 5 10183 549.844 20
-6 -3 5 10491.8 628.67 18
-6 -3 5 10568.8 589.71 17
-6 -3 5 10474.9 575.956 16
-6 -3 5 9815.81 599.782 10
-6 -3 5 10089 890.486 2
6 -3 -5 10772.2 913.019 28
-6 -3 4 3549.33 317.491 23
-6 -3 4 3246.19 303.701 6
-6 -3 4 3003.66 274.832 20
-6 -3 4 3544.92 349.323 18
-6 -3 4 3441.15 319.196 17
-6 -3 4 3144.05 491.028 2
-6 -3 4 3701.49 366.539 10
6 -3 -4 4245.62 555.165 28
-6 -3 3 1575.73 208.833 23
-6 -3 3 1370.15 304.761 2
-6 -3 3 1752.2 241.559 18
6 -3 -3 1478.14 271.647 30
6 -3 -3 1680.92 345.99 28
-6 -3 2 1726.36 220.272 23
-6 -3 2 1882.45 351.389 2
-6 -3 2 1798.6 248.55 18
6 -3 -2 2022.15 313.234 30
6 -3 -2 2054.68 366.902 28
-6 -3 1 6254.45 417.941 23
-6 -3 1 6581.92 636.741 2
6 -3 -1 5778.1 562.137 30
6 -3 -1 5686.99 599.864 28
-6 -3 0 7206.9 457.166 24
-6 -3 0 6920.63 476.581 12
-6 -3 0 7685.09 459.314 23
6 -3 0 8100.11 710.663 28
-6 -3 0 7446.51 673.321 2
-6 -3 0 6979.81 440.633 19
6 -3 0 7087.7 643.049 30
-6 -3 -1 6918.82 456.383 24
-6 -3 -1 7535.39 461.231 23
-6 -3 -1 8374.55 725.678 2
-6 -3 -1 7306.51 460.071 19
-6 -3 -1 7795.93 617.47 3
6 -3 1 8563.89 754.255 28
-6 -3 -2 19535.2 809.759 24
-6 -3 -2 21625.8 1224.86 2
-6 -3 -2 18939.3 766.061 23
-6 -3 -2 20083.1 819.855 19
-6 -3 -2 18706.7 1069.86 3
6 -3 2 20337.5 1206.58 28
-6 -3 -3 17213.6 759.546 24
-6 -3 -3 18753.5 798.326 19
-6 -3 -3 15833.8 1046.08 3
6 -3 3 16181.2 1171.64 31
6 -3 3 16011.1 1081.14 28
6 -3 3 16262.4 1332.99 27
-6 -3 -4 23499.8 901.657 24
-6 -3 -4 24083.8 930.38 19
-6 -3 -4 21092.7 1276.83 3
6 -3 4 18531.5 1310.05 31
6 -3 4 18755.8 1481.91 27
-6 -3 -5 2521.85 283.88 24
-6 -3 -5 2464.73 286.883 19
-6 -3 -6 19275.6 791.163 19
6 -3 6 19419.9 876.565 9
6 -3 6 17419.2 782.487 26
6 -3 6 18142.1 819.497 25
6 -3 7 428.87 114.663 25
6 -3 7 198.338 98.256 22
-6 -3 -7 338.407 99.7779 19
6 -3 7 418.27 128.53 9
6 -3 7 307.596 95.673 26
6 -3 7 258.589 94.3318 13
6 -3 8 5447.31 372.819 22
-6 -3 -8 5166.45 311.926 19
6 -3 8 5255.78 362.814 9
6 -3 8 4159.32 305.969 25
6 -3 9 6141.56 303.745 22
6 -3 9 6740.92 323.726 9
-6 -2 11 193.814 78.5928 20
-6 -2 10 4040.16 331.343 6
-6 -2 10 3465.93 293.41 21
-6 -2 10 4130.45 337.16 20
-6 -2 10 3303.75 322.942 18
-6 -2 10 3489.67 283.304 15
-6 -2 10 3129 270.062 26
-6 -2 9 12544.1 659.011 6
-6 -2 9 11641.5 607.965 21
-6 -2 9 12266.4 636.516 20
-6 -2 9 11636.3 662.211 18
-6 -2 9 10511.1 558.639 10
-6 -2 9 12112.6 576.885 16
-6 -2 9 10073 548.998 15
-6 -2 9 10332.5 558.792 26
-6 -2 8 2576.08 297.36 21
-6 -2 8 2352.18 289.001 6
-6 -2 8 2314.89 279.447 20
-6 -2 8 2009.65 294.259 18
-6 -2 8 2194.58 271.269 10
-6 -2 8 2478.73 280.947 16
-6 -2 8 2206.44 263.631 26
-6 -2 7 41919.5 1329.32 21
-6 -2 7 42498.7 1316.54 6
-6 -2 7 38463.6 1239.26 20
-6 -2 7 40959.3 1395.01 18
-6 -2 7 36877.9 1241.2 10
-6 -2 7 41553 1266.75 16
-6 -2 7 37388.5 1206.87 26
-6 -2 6 111695 2453.49 21
-6 -2 6 107470 2360.25 6
-6 -2 6 98575.7 2274.63 20
-6 -2 6 108476 2524.38 18
-6 -2 6 107563 2358.26 16
-6 -2 6 96386.5 2320.05 10
-6 -2 6 103679 3341.82 2
6 -2 -6 97337.1 3026.32 28
-6 -2 5 10564.5 559.485 23
-6 -2 5 11396.3 630.824 21
-6 -2 5 10496.1 576.479 6
-6 -2 5 10498.2 562.644 20
-6 -2 5 12049.4 675.544 18
-6 -2 5 10844.8 576.273 17
-6 -2 5 11457.2 609.037 16
-6 -2 5 12108.9 1001.74 2
-6 -2 5 10057.9 588.499 10
6 -2 -5 11740.8 916.034 28
-6 -2 4 17203.5 713.859 23
-6 -2 4 16485.5 704.979 6
-6 -2 4 16329.9 674.504 20
-6 -2 4 17405.8 806.837 18
-6 -2 4 17752 1167.09 2
-6 -2 4 17837.9 759.737 16
-6 -2 4 15734.4 742.1 10
6 -2 -4 17143.3 1091.24 28
-6 -2 3 48928.1 1339.61 23
-6 -2 3 53969.4 2047.36 2
-6 -2 3 52868.3 1477.98 18
6 -2 -3 50655.9 1929.97 28
6 -2 -2 755.58 216.658 28
-6 -2 2 947.579 267.19 2
6 -2 -2 803.304 190.059 30
-6 -2 1 29231.6 1390.62 2
6 -2 -1 24887.8 1147.01 30
6 -2 -1 28222.2 1336.07 28
-6 -2 0 1220.72 291.25 2
-6 -2 0 784.5 147.13 11
6 -2 0 901.521 219.323 30
6 -2 0 991.421 249.898 28
-6 -2 -1 4644.81 363.569 24
-6 -2 -1 4662.49 399.494 12
-6 -2 -1 4463.19 553.531 2
-6 -2 -1 4044.24 344.757 11
-6 -2 -1 4099.88 341.746 19
-6 -2 -1 3945.06 446.104 3
6 -2 1 4214.4 511.21 28
-6 -2 -2 10446.8 570.13 24
-6 -2 -2 9968.57 562.901 11
-6 -2 -2 10513.6 568.019 19
-6 -2 -2 9423.34 744.149 3
6 -2 2 9259.02 796.54 28
-6 -2 -3 18223.4 776.978 24
-6 -2 -3 17161.9 765.131 11
-6 -2 -3 18370.5 796.401 19
6 -2 3 15865.4 1146.47 31
-6 -2 -3 17474.3 1094.63 3
6 -2 3 16504.5 1109.83 28
6 -2 3 16757 1398.18 27
-6 -2 -4 342.464 168.71 3
-6 -2 -4 191.124 86.4031 24
6 -2 4 310.233 101.78 33
-6 -2 -4 196.838 111.146 19
6 -2 4 346.338 181.812 31
6 -2 4 391.797 296.12 27
6 -2 5 1085.8 199.25 25
-6 -2 -5 1036.29 181.411 24
-6 -2 -5 1238.07 211.642 19
6 -2 5 1144.15 215.944 9
6 -2 5 1167.55 198.467 26
-6 -2 -6 11248 597.388 19
6 -2 6 10885.9 646.51 9
6 -2 6 9901.06 617.075 25
6 -2 7 3077.89 321.002 22
-6 -2 -7 3202.13 299.292 19
6 -2 7 3350.65 323.706 9
6 -2 7 2631.63 300.135 25
6 -2 8 2346 248.686 22
-6 -2 -8 2357.16 217.31 19
6 -2 8 2065.59 228.818 9
6 -2 8 1513.29 199.76 25
6 -2 9 6546.84 330.836 22
6 -2 9 6750.25 337.138 9
-6 -1 11 4651.63 307.38 20
-6 -1 10 8039.18 471.598 6
-6 -1 10 8133.04 469.455 21
-6 -1 10 8665.86 490.645 20
-6 -1 10 7852.81 492.79 18
-6 -1 10 7848.64 425.947 16
-6 -1 10 7176.83 426.095 15
-6 -1 10 7506.8 450.117 26
-6 -1 9 9146.91 550.908 6
-6 -1 9 8552.67 533.718 21
-6 -1 9 9307.26 553.862 20
-6 -1 9 8945.42 587.178 18
-6 -1 9 8495.96 500.376 16
-6 -1 9 8080.8 488.658 15
-6 -1 9 8396.05 524.595 26
-6 -1 8 26226.7 1024.56 21
-6 -1 8 28455 1048.42 6
-6 -1 8 29351.9 1039.46 20
-6 -1 8 26746.6 1108.81 18
-6 -1 8 24032.1 937.57 16
-6 -1 8 25173.3 931.121 15
-6 -1 8 26551.9 1008.56 26
-6 -1 7 6220.65 481.036 21
-6 -1 7 6600.2 474.938 6
-6 -1 7 5709.07 440.121 20
-6 -1 7 6930.82 541.853 18
-6 -1 7 6373.28 461.042 16
-6 -1 7 5776.48 447.352 26
-6 -1 6 36400 1224.99 21
-6 -1 6 34929.9 1161.87 6
-6 -1 6 34018.8 1126.72 20
-6 -1 6 35074.5 1267.71 18
-6 -1 6 35537.6 1174.71 16
-6 -1 6 35543.2 1860.33 2
6 -1 -6 30252.2 1490.56 28
-6 -1 6 32049.2 1108.87 26
-6 -1 5 11583.6 576.411 23
-6 -1 5 11650.7 645.491 21
-6 -1 5 11704.5 606.445 6
-6 -1 5 11499.5 588.923 20
-6 -1 5 11857.4 680.82 18
-6 -1 5 11948.4 626.76 16
-6 -1 5 13640.6 1077.18 2
6 -1 -5 11803 887.419 28
-6 -1 4 2042.5 236.681 23
-6 -1 4 2079.3 266.078 21
-6 -1 4 2637.63 269.937 6
-6 -1 4 2091.3 232.842 20
-6 -1 4 2029.68 399.86 2
-6 -1 4 2553.14 307.721 18
-6 -1 4 2738.28 286.265 16
6 -1 -4 1932.05 350.642 28
-6 -1 3 4042.18 531.484 2
-6 -1 3 2747.34 305.314 18
-6 -1 3 3518.85 321.061 16
6 -1 -3 3063.39 437.326 28
-6 -1 2 34021.6 1554.38 2
6 -1 -2 28884.4 1354.47 28
-6 -1 1 4291.24 529.301 2
6 -1 -1 3811.5 417.451 30
6 -1 -1 3675.47 462.759 28
-6 -1 0 1614.47 324.311 2
6 -1 0 2419.59 385.455 28
-6 -1 -1 23567.6 871.762 24
-6 -1 -1 26576.1 1354.19 2
-6 -1 -1 22868.8 923.888 12
-6 -1 -1 23439.9 883.023 11
-6 -1 -1 22988.3 847.095 19
-6 -1 -1 21674.2 1053.84 3
6 -1 1 26203.2 1299.13 28
-6 -1 -2 129885 2714.23 24
-6 -1 -2 127891 2698.1 11
-6 -1 -2 133159 2723.28 19
-6 -1 -2 132197 3284.46 3
6 -1 2 137335 3532.87 28
-6 -1 -3 61760.9 1636.02 24
-6 -1 -3 61537.7 1623.14 11
-6 -1 -3 66704 1688.43 19
6 -1 3 56999.8 2323.18 31
-6 -1 -3 61203.6 2175.08 3
6 -1 3 61855.6 2277.5 28
6 -1 3 56790.6 2746.09 27
6 -1 4 392.925 122.073 25
-6 -1 -4 1375.95 367.366 3
-6 -1 -4 701.505 147.08 24
6 -1 4 648.648 147.05 33
-6 -1 -4 750.246 167.011 19
-6 -1 -4 944.507 177.874 11
6 -1 4 761.994 277.139 31
6 -1 4 861.324 252.205 28
6 -1 4 -225.559 259.702 27
6 -1 4 318.893 131.082 9
-6 -1 -5 17319.3 768.079 24
-6 -1 -5 17807.7 809.93 19
6 -1 5 18048.9 844.522 9
6 -1 5 17090.3 846.377 25
-6 -1 -6 22617.8 849.628 24
6 -1 6 21828.5 926.646 22
-6 -1 -6 22284.8 899.086 19
6 -1 6 22263.7 921.287 9
6 -1 6 21984.1 960.01 25
6 -1 7 10653.1 605.438 22
6 -1 7 10877.9 590.477 9
-6 -1 -7 11659 580.76 19
6 -1 7 9887.35 604.748 25
6 -1 8 4809.33 357.883 22
-6 -1 -8 4385.87 305.97 19
6 -1 8 4662.55 339.012 9
6 -1 9 10549.5 440.128 22
6 -1 9 10326.3 430.809 9
-6 0 11 22468.8 730.467 21
-6 0 11 25326.1 770.762 20
-6 0 10 22188.4 810.794 6
-6 0 10 23077.6 844.151 21
-6 0 10 20499.7 831.88 18
-6 0 10 21804.3 769.789 16
-6 0 10 20730.1 774.35 15
-6 0 10 22232.4 839.816 26
-6 0 9 5061.82 407.497 6
-6 0 9 5235.21 422.982 21
-6 0 9 5992.26 436.667 20
-6 0 9 5130.61 448.377 18
-6 0 9 4639.84 375.062 16
-6 0 9 4871.51 380.557 15
-6 0 9 4950.25 414.385 26
-6 0 8 3915.75 380.655 21
-6 0 8 3520.91 354.903 6
-6 0 8 3801.39 362.007 20
-6 0 8 3340.39 381.359 18
-6 0 8 3663.33 347.522 16
-6 0 8 3525.06 333.504 15
-6 0 8 3168.77 343.283 26
-6 0 7 113111 2606.17 21
-6 0 7 118359 2569.49 6
-6 0 7 107618 2495.9 20
-6 0 7 117798 2738.44 18
-6 0 7 116780 2553.67 16
-6 0 7 110750 2560.08 26
-6 0 6 259645 4726.02 21
-6 0 6 252484 4620.13 6
-6 0 6 243908 4556.25 20
-6 0 6 257505 4836.46 18
-6 0 6 263565 4664.98 16
-6 0 6 256893 6093.19 2
-6 0 6 243747 4614.43 26
-6 0 5 6910.46 439.967 23
-6 0 5 7356.89 431.732 12
-6 0 5 7775.94 526.489 21
-6 0 5 8020.06 504.245 6
-6 0 5 7618.45 482.791 20
-6 0 5 7990.03 559.244 18
-6 0 5 8616.93 522.838 16
-6 0 5 7944.49 836.117 2
6 0 -5 8479.9 721.918 28
-6 0 5 7627.06 498.205 26
-6 0 4 975.851 165.458 23
-6 0 4 1429.8 221.825 21
-6 0 4 2107.99 248.84 6
-6 0 4 1679.32 210.215 20
-6 0 4 1704.63 393.8 2
-6 0 4 1567.52 247.4 18
-6 0 4 1672.78 226.563 16
6 0 -4 1610.32 317.555 28
-6 0 3 5577 637.796 2
6 0 -3 4609.58 516.064 28
-6 0 2 78786.3 2574.48 2
6 0 -2 74378.9 2284.75 28
-6 0 1 32506.4 1537.9 2
6 0 -1 33019.9 1420.77 28
-6 0 0 107178 3049.38 2
6 0 0 105827 2792.73 29
6 0 0 108195 2914.74 28
-6 0 -1 27214 974.219 24
-6 0 -1 29745.4 1474.86 2
-6 0 -1 27499.8 1011.16 12
-6 0 -1 27571.5 979.124 11
-6 0 -1 26698.2 1183.23 3
6 0 1 30228.9 1400.14 28
-6 0 -2 384.366 180.614 3
-6 0 -2 65.4678 55.2292 24
-6 0 -2 107.059 100.45 12
-6 0 -2 124.706 86.7843 19
-6 0 -2 -59.4867 66.1552 11
6 0 2 -194.983 118.212 28
6 0 3 1618.92 249.722 25
6 0 3 1570.01 229.531 33
-6 0 -3 1025.47 284.478 3
-6 0 -3 1728.89 243.957 24
-6 0 -3 1682.06 237.522 11
-6 0 -3 1636.77 240.495 19
6 0 3 1371.68 333.594 31
6 0 3 1258.65 282.363 28
-6 0 -4 14136.1 695.129 24
-6 0 -4 13923.7 678.334 11
6 0 4 11620.1 634.271 33
-6 0 -4 15013.2 742.097 19
6 0 4 11152.9 990.136 31
-6 0 -4 12320.2 995.427 3
6 0 4 13229.5 1026.44 28
6 0 4 13761.5 705.391 9
6 0 4 8967.95 1091.29 27
6 0 4 13482.9 746.773 25
-6 0 -5 3895.61 355.376 24
6 0 5 4013.81 391.603 22
-6 0 -5 4381.38 395.537 19
6 0 5 3528.3 336.94 33
6 0 5 4174.45 380.447 9
6 0 5 4310.25 423.372 25
-6 0 -6 3867.39 333.883 24
6 0 6 3635.85 369.718 22
-6 0 -6 3846.89 361.944 19
6 0 6 4096.58 378.708 9
6 0 6 3750.1 394.933 25
6 0 7 7350.32 495.3 22
6 0 7 6236.64 418.616 21
-6 0 -7 7696.01 478.371 19
6 0 7 7445.67 480.624 9
6 0 7 8024 541.537 25
6 0 8 3888.1 321.177 22
6 0 8 2812.31 228.068 21
-6 0 -8 3934.24 295.615 19
6 0 8 3500.26 296.125 9
6 0 9 745.152 122.42 22
6 0 9 806.547 119.642 9
-6 1 11 4869.35 317.145 21
-6 1 11 4574.5 300.757 20
-6 1 11 4636.93 279.018 16
-6 1 10 8333.11 464.983 6
-6 1 10 8943.12 514.261 21
-6 1 10 9067.85 491.264 20
-6 1 10 7413.02 460.601 18
-6 1 10 8183.38 459.736 16
-6 1 9 9686.32 585.258 21
-6 1 9 9810.39 561.354 6
-6 1 9 9255.17 545.434 20
-6 1 9 9755.18 599.503 18
-6 1 9 8952.2 535.138 16
-6 1 9 9111.58 526.936 15
-6 1 9 9728.32 589.769 26
-6 1 8 26379.4 1050.85 21
-6 1 8 24249.9 968.479 6
-6 1 8 26448.7 1014.05 20
-6 1 8 28635.3 1133.63 18
-6 1 8 26187.5 993.319 16
-6 1 8 25897.7 955.234 15
-6 1 8 24993.1 1018.96 26
-6 1 7 7690.67 546.699 21
-6 1 7 7435.44 515.386 6
-6 1 7 7228.54 502.109 20
-6 1 7 7381.11 565.874 18
-6 1 7 7226.95 508.959 16
-6 1 7 6818.95 461.315 15
-6 1 7 7454.85 531.181 26
-6 1 6 33067.1 1035.73 12
-6 1 6 34170.2 1211.04 21
-6 1 6 34570.8 1166.84 6
-6 1 6 33629.4 1146.45 20
-6 1 6 31873.7 1232.3 18
-6 1 6 35081.4 1182.83 16
6 1 -6 38197 2026.82 29
-6 1 6 36625.4 1942.96 2
-6 1 6 32908.2 1176.94 26
-6 1 5 9861.75 527.793 23
-6 1 5 10319 531.778 12
-6 1 5 10654.1 623.224 21
-6 1 5 10985.4 606.513 6
-6 1 5 10087.8 560.208 20
-6 1 5 10808.4 662.734 18
-6 1 5 10482.7 590.813 16
-6 1 5 10661.6 995.231 2
6 1 -5 11070.2 1043.51 29
6 1 -5 10139.9 762.991 28
-6 1 4 2129.68 236.622 12
-6 1 4 2356.26 282.687 21
-6 1 4 2426.82 271.392 6
-6 1 4 2182.34 248.749 20
-6 1 4 2316.17 435.494 2
-6 1 4 2210.96 285.612 18
-6 1 4 2325.45 269.916 16
6 1 -4 2337.51 474.818 29
6 1 -4 2180.35 350.54 28
-6 1 3 5900.06 684.98 2
6 1 -3 4295.23 476.769 28
-6 1 2 32106.8 1568.74 2
6 1 -2 28997.3 1478.27 29
6 1 -2 29534.4 1316.3 28
-6 1 1 3864.67 528.02 2
6 1 -1 3539.71 475.501 29
6 1 -1 4117.16 471.927 28
-6 1 0 1737.39 357.27 2
6 1 0 1143.66 233.689 29
6 1 0 1909.8 345.256 28
-6 1 -1 24581.9 938.59 24
-6 1 -1 26643.7 1414.52 2
-6 1 -1 24919.7 934.013 12
-6 1 -1 25441.4 942.955 11
-6 1 -1 23448.8 1127.03 3
6 1 1 25579.9 1295.73 28
-6 1 -2 133179 2777.27 24
-6 1 -2 123677 2746.08 12
-6 1 -2 131540 2736.37 11
-6 1 -2 127432 2709.82 19
6 1 2 127797 2676.95 33
-6 1 -2 124523 3301.84 3
6 1 2 139151 3558.38 28
-6 1 -3 63608.6 1689 24
-6 1 -3 61917 1640.3 11
-6 1 -3 64343.8 1710.79 19
6 1 3 55980.9 1577.89 33
6 1 3 55264 2181.36 31
-6 1 -3 60373.8 2248.66 3
6 1 3 63684.9 2307.93 28
6 1 3 61747.4 2938.83 27
6 1 3 57251.9 1716.47 25
6 1 4 761.07 174.576 25
-6 1 -4 -371.023 193.35 3
-6 1 -4 796.676 175.109 24
6 1 4 1052.12 201.627 22
-6 1 -4 804.793 184.119 19
6 1 4 849.985 177.166 33
-6 1 -4 672.714 153.536 11
6 1 4 1421.46 324.9 31
6 1 4 680.668 245.086 28
6 1 4 1025.47 192.634 9
6 1 4 -341.772 232.154 27
-6 1 -5 16533.7 771.735 24
6 1 5 16163.6 751.858 33
6 1 5 17016.7 810.842 22
-6 1 -5 17431.7 832.795 19
6 1 5 17170.9 789.915 9
6 1 5 17014 867.923 25
-6 1 -6 23377.7 884.109 24
6 1 6 22808.6 941.352 22
-6 1 -6 22201.5 932.407 19
6 1 6 22245.1 899.111 9
6 1 6 21636.5 978.696 25
6 1 7 11399.4 590.466 9
6 1 7 11086.7 607.056 22
6 1 7 9352.92 539.803 21
-6 1 -7 11105.9 592.332 19
6 1 7 10310.1 631.826 25
6 1 8 5002.47 364 22
6 1 8 4164.69 299.436 21
-6 1 -8 4512.86 325.107 19
6 1 8 4502.35 329.991 9
6 1 9 10677.2 441.238 22
6 1 9 10944.3 432.353 9
-6 2 11 75.1367 56.2443 21
-6 2 11 101.946 61.122 20
-6 2 11 101.556 57.1925 16
-6 2 10 3574.29 297.301 6
-6 2 10 4253.57 353.607 21
-6 2 10 4258.13 331.931 20
-6 2 10 3192.96 277.161 18
-6 2 10 4027.46 321.145 16
-6 2 9 10906.3 634.245 21
-6 2 9 11642.9 600.289 6
-6 2 9 11691.2 612.933 20
-6 2 9 11369.2 625.827 18
-6 2 9 11306.5 607.398 16
-6 2 9 11662.1 646.067 26
-6 2 8 2060.73 287.097 21
-6 2 8 1958.76 257.7 6
-6 2 8 1766.62 254.299 20
-6 2 8 1566.98 249.208 18
-6 2 8 1751.33 253.508 16
-6 2 8 1352.1 211.946 15
-6 2 8 1916.78 271.833 26
-6 2 7 38981.1 1166.78 12
-6 2 7 39037.8 1354.92 21
-6 2 7 43516.2 1347.76 6
-6 2 7 40434.2 1306.67 20
-6 2 7 41560.1 1420.2 18
-6 2 7 40108.9 1320.81 16
-6 2 7 40732.2 1250.91 15
-6 2 7 44122.6 1398.3 26
-6 2 6 100417 2250.98 12
-6 2 6 104707 2473.76 21
-6 2 6 112906 2470.51 6
-6 2 6 107001 2407.91 20
-6 2 6 100970 2532.49 18
-6 2 6 107381 2440.8 16
6 2 -6 117181 3795.33 29
-6 2 6 111899 3583.06 2
-6 2 6 105543 2479.09 26
-6 2 5 11514.4 581.148 12
-6 2 5 11350.9 646.753 21
-6 2 5 11797.2 641.267 6
-6 2 5 11160.2 612.915 20
-6 2 5 10919.7 673.482 18
-6 2 5 11234.1 621.483 16
-6 2 5 12874.3 1071.88 2
6 2 -5 10737.8 1051.38 29
-6 2 4 16572.5 707.742 12
-6 2 4 16289.7 769.048 21
-6 2 4 17470 783.827 6
-6 2 4 16062.9 718.239 20
-6 2 4 17399.7 838.362 18
-6 2 4 16878.7 1195.76 2
-6 2 4 16985.6 753.816 16
6 2 -4 19343.4 1337.19 29
6 2 -4 17668.4 1018.13 28
-6 2 3 52707.1 1389.67 12
-6 2 3 53647 1490.89 6
-6 2 3 55345.9 2165.43 2
-6 2 3 49460.7 1408.7 16
6 2 -3 54720.1 2208.66 29
6 2 -3 52390.8 1830.5 28
-6 2 2 728.872 265.608 2
6 2 -2 546.124 224.798 29
6 2 -2 158.222 108.599 28
-6 2 1 26891.5 1398.64 2
6 2 -1 23180.1 1248.48 29
6 2 -1 24175.8 1189.77 28
-6 2 0 1141.93 284.356 2
6 2 0 496.211 186.914 29
-6 2 -1 4632.76 392.036 24
-6 2 -1 4781.9 577.684 2
-6 2 -1 4991.21 395.35 12
-6 2 -1 4738.02 392.888 11
6 2 1 4671.83 376.639 33
6 2 1 4195.14 529.229 28
-6 2 -2 9994.56 595.188 24
-6 2 -2 8426.57 545.682 12
6 2 2 9528.04 542.327 22
-6 2 -2 8920.18 558.423 11
-6 2 -2 8784 538.26 19
6 2 2 8599.63 529.633 33
6 2 2 8394.49 760.684 28
-6 2 -2 8300.55 747.264 3
-6 2 -3 16973.2 809.687 24
6 2 3 17451 779.891 22
-6 2 -3 16077.3 771.197 11
-6 2 -3 17260.3 807.683 19
6 2 3 16449.2 763.53 33
6 2 3 14474.9 1016.07 31
6 2 3 16466.8 1120.84 28
-6 2 -3 15703.3 1114.83 3
6 2 3 15719.1 1430.85 27
-6 2 -4 -18.3024 105.207 3
-6 2 -4 107.39 78.2771 24
6 2 4 277.974 128.238 33
6 2 4 368.441 141.628 22
-6 2 -4 102.306 96.8674 19
-6 2 -4 429.507 129.891 11
6 2 4 187.689 88.7189 9
6 2 4 301.462 126.306 25
6 2 5 1098.99 233.104 25
-6 2 -5 929.363 182.689 24
6 2 5 1156.42 207.808 22
6 2 5 923.311 186.055 33
-6 2 -5 944 199.75 19
6 2 5 1096.12 193.097 9
-6 2 -6 10659 583.53 24
6 2 6 10200.9 612.723 22
-6 2 -6 10710 636.492 19
6 2 6 10831.4 602.13 9
6 2 6 10721 670.334 25
6 2 7 3691.09 347.542 22
6 2 7 2904.33 307.98 21
-6 2 -7 3410.38 330.317 19
6 2 7 3629.76 324.642 9
6 2 8 2771.11 263.15 22
6 2 8 2009.71 218.725 21
-6 2 -8 2370.74 238.51 19
6 2 8 2616.48 247.576 9
-6 2 -9 5505.78 271.645 19
-6 3 11 8271.42 410.484 21
-6 3 11 7323.1 363.929 20
-6 3 11 7898.38 378.952 16
-6 3 10 2729.83 249.17 6
-6 3 10 2677.99 277.81 21
-6 3 10 2829.66 264.149 20
-6 3 10 2814.27 272.147 16
-6 3 9 10518.7 613.428 21
-6 3 9 10688.5 564.67 6
-6 3 9 10915.9 585.618 20
-6 3 9 9241.87 514.712 18
-6 3 9 10830.9 598.878 16
-6 3 8 32754 1028.35 12
-6 3 8 32384.9 1201.14 21
-6 3 8 32898.6 1134.87 6
-6 3 8 34813 1172.15 20
-6 3 8 34042.8 1161.43 18
-6 3 8 35108.9 1199.33 16
-6 3 7 9767.67 545.755 12
-6 3 7 10248.5 646.968 21
-6 3 7 10381 611.251 6
-6 3 7 10626.7 623.584 20
-6 3 7 10279.1 639.599 18
-6 3 7 10471.7 632.018 16
-6 3 6 7544.03 490.837 12
-6 3 6 7541.77 539.534 21
-6 3 6 8320.04 547 6
-6 3 6 7948.98 535.184 20
-6 3 6 7568.82 553.545 18
-6 3 6 7664.45 536.362 16
6 3 -6 7040.85 865.155 29
-6 3 6 8226.47 871.913 2
-6 3 5 10110.9 565.479 12
-6 3 5 10579.7 621.423 21
-6 3 5 11119.5 640.142 6
-6 3 5 10578.8 616.195 20
-6 3 5 10568.9 660.901 18
-6 3 5 10141.2 597.216 16
-6 3 5 11495.5 1006.93 2
6 3 -5 12530 1137.16 29
-6 3 4 3605.62 350.704 21
-6 3 4 4215.64 356.218 12
-6 3 4 3804.67 353.279 20
-6 3 4 4363.05 392.592 6
-6 3 4 3870.69 391.551 18
-6 3 4 4688.12 608.575 2
-6 3 4 4025.08 358.481 16
6 3 -4 3847.45 603.706 29
6 3 -4 4876.78 503.215 28
-6 3 3 1752.91 225.803 12
-6 3 3 1511.34 212.85 20
-6 3 3 1951.53 261.538 6
-6 3 3 1250.54 317.922 2
-6 3 3 1517.53 217.729 16
6 3 -3 1640.73 386.384 29
6 3 -3 1637.55 301.005 28
-6 3 2 1567.25 208.49 12
-6 3 2 1543.95 353.968 2
6 3 -2 1469.77 339.643 29
6 3 -2 1932.72 317.553 28
-6 3 1 5714.93 411.338 12
-6 3 1 6148.42 643.969 2
6 3 -1 5998.46 629.962 29
6 3 -1 6049.27 579.551 28
-6 3 0 7716.69 496.45 24
-6 3 0 7517.45 479.05 12
-6 3 0 6585.92 678.096 2
-6 3 0 7657.04 510.171 11
6 3 0 6639.78 442.989 33
6 3 0 6637.53 634.853 29
6 3 0 7186.84 662.42 28
-6 3 -1 7198.94 503.892 24
-6 3 -1 6944.73 475.85 12
-6 3 -1 7037.04 710.142 2
-6 3 -1 7743.04 523.184 11
-6 3 -1 6676.13 451.202 19
6 3 1 6925.93 463.537 33
6 3 1 6677.26 665.959 28
-6 3 -2 22143.9 938.458 24
-6 3 -2 22296.1 1293.94 2
-6 3 -2 19644.7 855.288 12
6 3 2 21953.6 861.699 22
-6 3 -2 21017.3 904.667 11
-6 3 -2 19388.9 856.309 19
6 3 2 19989.6 847.314 33
6 3 2 20575.7 1230.1 28
-6 3 -2 19778.7 1206.71 3
-6 3 -3 19409.4 895.129 24
6 3 3 18670.7 821.422 22
-6 3 -3 18135 836.099 11
-6 3 -3 19601.1 880.367 19
6 3 3 17940.3 814.682 33
6 3 3 17607.8 1181.75 28
6 3 3 20382.7 1620.11 27
-6 3 -3 17133.6 1200.15 3
-6 3 -4 26184.2 1053.6 24
6 3 4 25255.8 999.691 22
-6 3 -4 24386.8 983.181 11
-6 3 -4 27095.6 1084.25 19
6 3 4 24812.7 987.017 33
6 3 4 23876.5 930.31 9
6 3 4 21955.2 1411.15 28
-6 3 -4 24760.2 1515.72 3
-6 3 -5 2933.57 332.097 24
6 3 5 2853.7 325.502 22
-6 3 -5 2788.05 300.125 11
-6 3 -5 3073.92 362.937 19
6 3 5 2490.17 293.902 33
6 3 5 2698.72 304.361 9
-6 3 -6 17893.7 789.04 24
6 3 6 17301.6 808.482 22
-6 3 -6 18442.2 856.095 19
6 3 6 17571.2 773.104 9
-6 3 -7 403.388 103.043 24
6 3 7 442.545 134.303 22
6 3 7 535.344 144.135 21
-6 3 -7 455.616 128.908 19
6 3 7 415.452 117.822 9
6 3 8 4747.01 343.181 22
6 3 8 4338.55 323.776 21
-6 3 -8 4820.2 339.813 19
6 3 8 4617.05 320.819 9
-6 3 -9 4783.45 248.496 19
-6 4 11 111.17 51.2218 21
-6 4 11 6.83586 42.5417 20
-6 4 11 175.471 63.9212 16
-6 4 10 6806.17 433.994 21
-6 4 10 7942.01 439.014 20
-6 4 10 8188.94 464.593 16
-6 4 9 17014.7 656.316 12
-6 4 9 19807.9 835.85 21
-6 4 9 18730.9 750.201 6
-6 4 9 19111 787.563 20
-6 4 9 17969.1 794.558 16
-6 4 8 1071 215.904 21
-6 4 8 901.041 166.454 12
-6 4 8 1114.86 198.843 20
-6 4 8 1007.11 181.789 6
-6 4 8 829.931 182.99 16
-6 4 7 70077.7 1773.54 12
-6 4 7 67921.1 1873.09 21
-6 4 7 71522.7 1851.55 6
-6 4 7 70821.7 1861.17 20
-6 4 7 69970 1882.8 16
-6 4 6 72522.7 1951.38 21
-6 4 6 77965.1 1909.4 12
-6 4 6 78324.3 2001.77 6
-6 4 6 77855 1982.86 20
-6 4 6 74809 1938.31 18
-6 4 6 74370.7 1955.77 16
6 4 -6 78219.5 3098.46 29
-6 4 6 71078.4 2705.69 2
-6 4 5 4963.47 416.792 21
-6 4 5 4759.48 399.186 12
-6 4 5 5592.07 457.258 20
-6 4 5 5382.96 456.024 6
-6 4 5 4836.94 420.245 18
-6 4 5 5075.55 420.092 16
-6 4 5 4257.27 581.825 2
6 4 -5 5366.72 739.279 29
-6 4 4 15734.7 741.86 21
-6 4 4 15954.3 728.808 12
-6 4 4 16533.4 785.314 20
-6 4 4 16613 810.928 6
-6 4 4 14984.6 766.832 18
-6 4 4 15959.1 1107.79 2
-6 4 4 15546 730.865 16
6 4 -4 17013.3 1286.25 29
-6 4 3 11490.2 605.224 12
-6 4 3 10956.3 630.101 20
-6 4 3 12014.1 678.953 6
-6 4 3 11207.9 891.646 2
-6 4 3 11133.8 654.031 18
-6 4 3 10473.7 587.396 16
6 4 -3 12022.3 1017.78 29
6 4 -3 11024.5 782.92 28
-6 4 2 5832.8 425.514 12
-6 4 2 5261.64 412.534 11
-6 4 2 5430.74 608.424 2
6 4 -2 5461.2 401.966 33
6 4 -2 5479.5 649.779 29
6 4 -2 4749.07 515.641 28
6 4 -1 13531.1 652.303 33
-6 4 1 15148.5 697.92 12
-6 4 1 14930.8 997.01 2
-6 4 1 14508.2 714.765 11
6 4 -1 12213.6 938.852 29
6 4 -1 14233.1 909.038 28
-6 4 0 27395.9 1025.16 24
6 4 0 25715 947.125 33
-6 4 0 27556.9 985.885 12
-6 4 0 27056 1366.49 2
-6 4 0 29018.3 1066.4 11
6 4 0 26480.6 1359.71 29
6 4 0 26154.5 1308.03 28
-6 4 -1 7286.22 523.998 24
-6 4 -1 7707.36 502.362 12
-6 4 -1 7106.72 687.589 2
-6 4 -1 8769.1 573.293 11
-6 4 -1 6473.77 456.755 19
6 4 1 8208.21 511.889 33
6 4 1 7733.25 726.019 28
-6 4 -2 6346.07 504.543 24
-6 4 -2 7194.57 691.733 2
-6 4 -2 5823.59 445.953 12
6 4 2 6735.87 467.666 22
-6 4 -2 6609.85 501.625 11
-6 4 -2 6000.15 459.321 19
6 4 2 7110.15 488.555 33
6 4 2 5747.58 657.947 28
-6 4 -2 5353.84 657.191 3
-6 4 -3 7304.59 546.479 24
6 4 3 7471.6 518.545 22
-6 4 -3 6859.04 517.513 11
-6 4 -3 6717.7 510.161 19
6 4 3 7175.9 510.577 33
6 4 3 6010.83 698.087 28
6 4 3 6533.3 917.985 27
-6 4 -3 6840.99 751.504 3
-6 4 -4 3029.53 355.004 24
6 4 4 3267.61 346.608 22
6 4 4 3201.42 343 33
-6 4 -4 3134.62 342.594 11
-6 4 -4 3142.64 356.623 19
6 4 4 3164.44 325.803 9
-6 4 -5 3923.47 388.848 24
6 4 5 4090.28 389.085 22
-6 4 -5 3676.58 351.356 11
-6 4 -5 4381.7 426.773 19
6 4 5 4035.72 378.382 33
6 4 5 3676.6 353.259 9
-6 4 -6 2261.36 278.175 24
6 4 6 2309.88 287.752 22
-6 4 -6 2578.46 323.454 19
6 4 6 2391.14 269.017 9
-6 4 -7 2745.6 254.189 24
6 4 7 3570.12 329.064 22
6 4 7 3278.92 338.415 21
-6 4 -7 3465.27 345.753 19
6 4 7 3481.01 306.903 9
6 4 8 528.973 123.782 22
6 4 8 405.922 110.216 21
-6 4 -8 575.232 121.223 19
6 4 8 287.272 75.7667 16
-6 5 11 2772.16 204.775 16
-6 5 10 3905.55 299.929 21
-6 5 10 4574.3 318.453 20
-6 5 10 4184.36 319.857 16
-6 5 9 193.196 102.176 21
-6 5 9 305.298 95.9005 12
-6 5 9 440.708 134.23 20
-6 5 9 308.36 96.3862 6
-6 5 9 461.441 135.058 16
-6 5 8 17849.2 764.404 12
-6 5 8 18798.4 829.278 21
-6 5 8 17851.8 788.815 6
-6 5 8 18443.7 819.199 20
-6 5 8 18090.2 832.514 16
-6 5 7 430.054 137.882 21
-6 5 7 239.361 95.2184 12
-6 5 7 321.993 127.223 20
-6 5 7 231.707 114.71 6
-6 5 7 360.746 128.588 16
-6 5 6 3518.74 355.792 21
-6 5 6 3289.23 346.035 12
-6 5 6 3293.62 357.043 6
-6 5 6 3304.37 355.082 20
-6 5 6 2927.39 331.69 16
-6 5 5 10689.7 609.832 21
-6 5 5 11655.9 647.535 12
-6 5 5 12146 693.836 20
-6 5 5 12303.6 706.138 6
-6 5 5 11571.1 645.949 16
6 5 -5 13683.6 1229 29
-6 5 5 11143.5 924.11 2
-6 5 4 439.863 137.68 12
-6 5 4 452.125 138.856 20
-6 5 4 373.226 131.122 6
-6 5 4 298.425 149.375 2
-6 5 4 455.982 127.293 16
6 5 -4 518.636 225.038 29
-6 5 3 1318.28 215.625 12
-6 5 3 1645.73 242.757 20
-6 5 3 1302.68 239.12 6
-6 5 3 1045.07 191.494 11
-6 5 3 868.481 239.055 2
-6 5 3 1038.4 206.066 18
-6 5 3 1354.92 214.817 16
6 5 -3 1287.21 341.654 29
-6 5 2 5892.23 439.322 12
-6 5 2 5700.12 454.7 20
-6 5 2 5560.99 436.75 11
-6 5 2 5395.86 592.765 2
6 5 -2 5748.69 419.971 33
6 5 -2 5365.29 680.715 29
6 5 -2 5231.55 546.009 28
-6 5 1 1162.7 190.964 24
6 5 -1 1206.97 198.918 33
-6 5 1 1526.04 229.706 12
-6 5 1 579.626 200.652 2
-6 5 1 1462.81 234.653 11
6 5 -1 1065.6 288.851 29
6 5 -1 1074.53 254.387 28
-6 5 0 1322.48 223.747 24
-6 5 0 1337.01 214.47 12
-6 5 0 1382.62 230.693 11
-6 5 0 924.997 234.237 2
6 5 0 1164.22 204.917 33
6 5 0 561.814 245.463 29
6 5 0 1007.89 246.716 28
-6 5 -1 69637.7 1880.6 24
-6 5 -1 62804.8 1696.07 12
-6 5 -1 63487.5 2215.14 2
-6 5 -1 71904.1 1921.38 11
6 5 1 65873.5 1731.5 33
6 5 1 65010 2310.81 28
6 5 2 7262.36 506.471 33
-6 5 -2 7563.7 568.967 24
-6 5 -2 6050.68 451.767 12
-6 5 -2 6029.6 620.471 2
6 5 2 7854.12 513.007 22
-6 5 -2 7033.97 541.32 11
-6 5 -2 6440.59 488.113 19
6 5 2 5461.85 646.409 32
6 5 2 5965.76 696.334 28
6 5 2 3791.47 645.296 27
-6 5 -2 5479.94 671.357 3
-6 5 -3 1901.39 287.23 24
-6 5 -3 2096.35 436.206 3
6 5 3 1858.64 265.337 22
-6 5 -3 1616.8 329.565 2
-6 5 -3 2112.41 296.302 11
-6 5 -3 1559.96 257.773 19
6 5 3 1797.35 261.919 33
6 5 3 973.324 293.391 28
6 5 3 2073.06 489.582 27
-6 5 -4 9501.65 658.957 24
6 5 4 9261.97 590.779 33
6 5 4 10058.4 617.638 22
-6 5 -4 9210.46 601.762 11
-6 5 -4 9400.35 629.369 19
-6 5 -5 12826 724.571 24
6 5 5 12941.6 696.246 22
-6 5 -5 12953.7 679.198 11
-6 5 -5 12755.2 733.434 19
6 5 5 12962.2 665.252 9
-6 5 -6 294.305 111.252 24
6 5 6 392.54 127.494 22
-6 5 -6 516.116 157.744 19
-6 5 -7 9791.09 495.25 24
6 5 7 10906.6 564.568 22
6 5 7 11035.1 598.473 21
-6 5 -7 11999.7 618.212 19
6 5 8 6835.5 389.323 21
-6 5 -8 6666.06 384.674 19
-6 6 10 22040 682.329 21
-6 6 10 24134.4 744.224 20
-6 6 10 23696 761.579 16
-6 6 9 25335 847.579 12
-6 6 9 25676.9 862.116 21
-6 6 9 25178.8 840.818 6
-6 6 9 27761.2 951.871 16
-6 6 8 10418.4 562.681 21
-6 6 8 10059.3 566.104 12
-6 6 8 9299.62 548.996 6
-6 6 8 9947.53 580.78 20
-6 6 8 9942.3 584.472 16
-6 6 7 501.729 143.165 21
-6 6 7 697.967 166.161 12
-6 6 7 738.098 184.767 20
-6 6 7 489.422 156.011 6
-6 6 7 608.544 161.5 16
-6 6 6 37719 1202.76 21
-6 6 6 36602.9 1256.92 12
-6 6 6 38223.3 1312.07 6
-6 6 6 38085.5 1312.71 20
-6 6 6 34841.3 1226.87 16
-6 6 5 14255.3 740.852 12
6 6 -5 13391.3 1356.67 4
-6 6 5 13191.7 750.913 20
-6 6 5 13320.4 764.125 6
-6 6 5 12880.4 678.765 16
6 6 -5 13872.9 1255.62 29
-6 6 4 57889.7 1610.63 12
-6 6 4 52322.1 1692.27 20
-6 6 4 56537.8 1771.24 6
-6 6 4 53899.2 1508.31 16
6 6 -4 58943.9 2607.74 29
-6 6 3 44007.4 1366.8 12
-6 6 3 44425.9 1520.69 20
-6 6 3 42515.4 1329.66 11
6 6 -3 46140.6 2181.14 29
-6 6 2 12410.5 666.447 12
-6 6 2 11055.2 689.823 20
-6 6 2 12333.3 680.49 11
6 6 -2 12710.2 653.958 33
6 6 -2 12401.5 1056.75 29
-6 6 1 108286 2462.78 24
6 6 -1 109926 2421.2 33
-6 6 1 110733 2446.68 12
-6 6 1 108687 2544.68 11
6 6 -1 106614 3301.78 29
-6 6 0 3992.29 393.526 24
-6 6 0 4619.57 397.612 12
-6 6 0 4526.92 439.307 11
6 6 0 4823.02 404.998 33
6 6 0 4451.69 575.001 29
6 6 0 4605.14 553.357 28
-6 6 -1 20620.7 949.634 24
-6 6 -1 17084.1 779.701 12
-6 6 -1 21037.4 980.176 11
6 6 1 20334.9 866.295 33
6 6 1 17754.7 1157.18 28
-6 6 -2 9652.13 664.206 24
-6 6 -2 8364.95 520.756 12
6 6 2 9860.03 600.172 33
6 6 2 9559.85 580.553 22
-6 6 -2 9042.38 629.359 11
6 6 2 7159.58 781.942 32
6 6 2 8602.95 826.471 28
-6 6 -3 30351.4 1235.27 24
6 6 3 28819.3 1102.41 22
-6 6 -3 27940.3 1148.19 11
6 6 3 29849.9 1121.64 33
-6 6 -4 6978.93 562.65 24
6 6 4 7920.41 543.35 33
6 6 4 7854.15 548.553 22
-6 6 -4 7267.96 542.773 11
-6 6 -4 6698.89 533.299 19
-6 6 -5 1260.3 232.702 24
6 6 5 1092.08 209.451 22
-6 6 -5 977.475 217.975 19
-6 6 -5 955.545 182.397 11
-6 6 -6 4292.19 380.931 24
6 6 6 3792.67 351.505 22
-6 6 -6 4452.89 402.769 19
-6 6 -7 4483.47 316.581 24
6 6 7 5007.91 374.617 21
-6 6 -7 4999.5 383.746 19
6 6 7 3782.39 331.374 16
6 6 8 280.74 87.1951 21
-6 6 -8 370.63 92.0782 19
6 6 8 278.143 78.969 16
-6 7 10 11970.1 458.23 20
-6 7 10 12502.2 483.846 16
-6 7 9 4493.85 292.609 21
-6 7 9 4953.35 340.005 12
-6 7 9 5361.54 375.863 20
-6 7 9 5154.78 356.768 16
-6 7 8 1454 192.418 21
-6 7 8 1972.6 248.733 12
-6 7 8 1901.09 235.151 6
-6 7 8 2021.02 258.47 20
-6 7 8 2017.21 247.686 16
-6 7 7 8999.52 569.185 12
-6 7 7 8738.28 568.054 6
-6 7 7 9366.48 593.584 20
-6 7 7 9512.07 563.6 16
-6 7 6 3249.36 350.256 12
-6 7 6 2521.86 331.848 6
-6 7 6 3445.85 381.794 20
-6 7 6 2790.61 310.042 16
-6 7 5 16490.1 805.846 12
-6 7 5 16586.7 877.764 20
-6 7 5 17306.5 890.243 6
-6 7 5 16580 753.742 16
-6 7 4 16079.6 790.197 12
6 7 -4 18482.8 1625.8 4
-6 7 4 15750.3 879.171 20
-6 7 4 17050.7 907.23 6
6 7 -4 14602.5 1275.13 29
-6 7 4 15613.5 800.807 8
-6 7 3 20676.7 888.756 12
-6 7 3 20267.8 990.477 20
-6 7 3 19961.5 879.523 11
6 7 -3 18187.2 1367.75 29
-6 7 2 10596.5 613.15 12
-6 7 2 10037.8 629.386 11
6 7 -2 10694.5 610.366 33
6 7 -2 9139.45 926.913 29
-6 7 1 49750.2 1512.93 24
-6 7 1 50537.2 1480.22 12
-6 7 1 48988.3 1571.48 11
6 7 -1 50816.1 1488.49 33
6 7 -1 47046.9 2132.71 29
-6 7 0 52801.9 1618.59 24
-6 7 0 50482.3 1464.87 12
-6 7 0 54343.2 1673.97 11
6 7 0 50253.8 1498.83 33
-6 7 -1 35566.8 1330.77 24
-6 7 -1 36605.3 1342.68 11
6 7 1 33558.1 1185.5 33
-6 7 -2 8637.8 634.788 24
-6 7 -2 7630.97 589.654 11
6 7 2 8709.59 575.926 33
-6 7 -3 50121 1647.95 24
-6 7 -3 48591.2 1598.13 11
6 7 3 50206.6 1526.32 33
-6 7 -4 5094.62 472.633 24
-6 7 -4 5374.99 467.36 11
-6 7 -4 4407.86 432.393 19
-6 7 -5 86241.7 2195.41 24
-6 7 -5 84353.6 2056.44 11
-6 7 -6 339.593 131.201 24
-6 7 -6 152.915 97.7143 19
-6 7 -7 4076.18 290.577 24
6 7 7 4949.37 344.072 21
-6 7 -7 5007.43 362.503 19
6 7 7 4745.09 343.362 16
6 7 8 1930.48 167.237 21
-6 7 -8 2057.71 174.871 19
6 7 8 1663.27 153.229 16
-6 8 10 4984.71 247.986 16
-6 8 9 12312.8 524.581 12
-6 8 9 13358.2 566.98 20
-6 8 9 12927 523.356 16
-6 8 8 45252.9 1256.67 12
-6 8 8 40152.7 1148.42 6
-6 8 8 43234.2 1279.1 20
-6 8 8 42917.7 1176.94 16
-6 8 7 8792.05 542.071 12
-6 8 7 7888.22 522.212 6
-6 8 7 8258.31 553.375 20
-6 8 7 9053.52 510.502 16
-6 8 6 2127.44 277.443 12
-6 8 6 1481.44 258.428 6
-6 8 6 1971.06 288.43 20
-6 8 6 2042.09 246.89 16
-6 8 5 29656.8 1101.17 12
-6 8 5 26855.6 1167.61 20
-6 8 5 29561 1213.9 6
-6 8 4 6018.92 467.634 12
-6 8 4 6063.72 558.874 20
-6 8 4 6041.82 547.258 6
-6 8 4 5329.07 472.825 8
-6 8 3 49438.3 1467.13 12
-6 8 3 46109.3 1638.58 20
-6 8 3 46027.5 1466.17 11
-6 8 3 48529.5 1564.18 8
-6 8 2 2206.51 275.535 12
6 8 -2 2406.06 583.654 4
-6 8 2 2000.35 283.283 11
6 8 -2 3319.21 573.831 29
-6 8 1 7018.86 530.151 24
-6 8 1 7760.31 517.985 12
-6 8 1 7240.59 572.29 11
6 8 -1 7168.31 519.92 33
6 8 -1 7440.95 817.654 29
-6 8 0 12718.2 753.305 24
-6 8 0 12322.2 640.999 12
-6 8 0 13202.2 792.072 11
6 8 0 12514 691.749 33
-6 8 -1 7600.29 590.672 24
-6 8 -1 7161.51 583.262 11
6 8 1 7732.18 537.617 33
-6 8 -2 8776.62 650.665 24
-6 8 -2 7103.04 580.187 11
-6 8 -3 27776.9 1191.77 24
-6 8 -3 27999.7 1163.42 11
-6 8 -4 6381.41 534.761 24
-6 8 -4 7206.74 542.339 11
-6 8 -4 5307.13 460.818 19
-6 8 -5 11464.1 628.822 11
-6 8 -5 10778.8 636.13 19
-6 8 -6 7507.3 480.719 24
6 8 6 7827.24 460.881 21
-6 8 -6 7773.79 494.257 19
-6 8 -7 2550.78 205.75 24
6 8 7 3125.61 241.659 21
-6 8 -7 3234.51 263.833 19
6 8 7 3334.27 260.17 16
-6 9 9 2251.14 196.871 12
-6 9 9 2023.98 187.576 20
-6 9 9 1917.16 161.495 16
-6 9 8 -44.4029 61.0363 12
-6 9 8 47.1767 63.6228 20
-6 9 8 151.119 62.8649 16
-6 9 7 10482.9 562.594 12
-6 9 7 9417.2 531.179 6
-6 9 7 9497.89 579.304 20
-6 9 7 9415.44 468.612 16
-6 9 6 1072.11 196.54 12
-6 9 6 1097.04 216.106 20
-6 9 6 966.084 198.527 6
-6 9 5 14294.3 719.323 12
-6 9 5 13450.6 798.234 20
-6 9 5 13389.7 787.947 6
-6 9 4 54.1406 83.3622 12
-6 9 4 294.783 157.37 20
-6 9 4 214.12 130.388 6
-6 9 4 251.633 116.039 8
-6 9 3 599.972 147.18 12
-6 9 3 840.528 214.705 20
-6 9 3 519.457 150.013 11
-6 9 3 538.552 165.957 8
-6 9 2 23895.3 922.457 12
-6 9 2 21587.6 1012.04 11
-6 9 1 -227.604 94.6505 24
-6 9 1 -170.899 91.8237 12
-6 9 1 -101.436 101.401 11
-6 9 0 13246.6 775.2 24
-6 9 0 14385.1 665.704 12
-6 9 0 13400.3 808.243 11
-6 9 -1 685.141 187.099 24
-6 9 -1 621.081 178.099 11
-6 9 -2 2615.88 352.016 24
-6 9 -2 2622.56 353.988 11
-6 9 -3 12319.5 754.263 24
-6 9 -3 10684.9 692.934 11
-6 9 -4 4191.53 419.49 24
-6 9 -4 4075.38 395.632 11
-6 9 -4 3543.48 354.68 19
-6 9 -5 8511.9 509.9 11
-6 9 -5 9027 538.838 19
-6 9 -6 2850.9 268.81 24
6 9 6 3246.14 257.533 21
-6 9 -6 2802.23 266.712 19
6 9 7 994.474 112.846 21
-6 9 -7 1056.37 130.331 19
6 9 7 1077.49 130.68 16
-6 10 9 1092.82 116.778 12
-6 10 8 2346.63 213.168 12
-6 10 8 2063.2 209.195 20
-6 10 7 18409 703.103 12
-6 10 7 17432.9 747.409 20
-6 10 6 9238.17 519.521 12
-6 10 6 8027.02 517.368 6
-6 10 6 8110.23 554.182 20
-6 10 5 887.681 164.12 12
-6 10 5 864.862 217.393 20
-6 10 5 813.405 190.737 6
-6 10 4 6367.47 449.385 12
-6 10 4 5749.18 532.847 20
-6 10 4 5800.53 532.198 6
-6 10 3 -144.306 104.819 20
-6 10 3 -2.21568 63.3995 11
-6 10 2 10055.9 557.994 12
-6 10 2 9876.05 650.586 11
-6 10 1 4481.3 421.051 24
-6 10 1 4805 367.75 12
-6 10 1 4474.09 457.268 11
-6 10 0 15959.3 844.208 24
-6 10 0 16727.4 897.796 11
-6 10 -1 2342.92 328.133 24
-6 10 -1 1628.69 278.632 11
-6 10 -2 15532.7 846.305 24
-6 10 -2 14504.5 824.422 11
-6 10 -3 17793.8 886.98 24
-6 10 -3 17555.2 860.256 11
-6 10 -3 15285 710.839 19
-6 10 -4 18154 846.296 24
-6 10 -4 17941.2 801.714 11
-6 10 -5 748.737 155.674 24
6 10 5 477.064 103.989 21
-6 10 -5 625.602 122.741 19
-6 10 -5 398.096 103.891 11
-6 10 -6 2160.45 205.49 24
6 10 6 1844.05 163.81 21
-6 10 -6 2532.23 213.212 19
6 10 6 2151.22 200.658 16
-6 11 8 7794.22 341.065 12
-6 11 8 6637.35 310.844 20
-6 11 7 549.237 111.429 12
-6 11 7 508.868 113.495 20
-6 11 6 4191.32 314.206 12
-6 11 6 3568.14 298.259 6
-6 11 6 4505.5 372.006 20
-6 11 5 7626.94 448.697 12
-6 11 5 7547.05 535.796 20
-6 11 5 6860.91 492.206 6
-6 11 4 8154.19 475.425 12
-6 11 4 7296.77 563.795 20
-6 11 4 7522.23 562.468 6
-6 11 3 5713.84 390.948 12
-6 11 3 5721.54 517.662 20
-6 11 2 4636.7 340.685 12
-6 11 2 4260.5 409.569 11
-6 11 1 159.734 107.916 11
-6 11 0 1474.8 249.294 24
-6 11 0 1482.5 262.423 11
-6 11 -1 3331.58 363.742 24
-6 11 -1 3030.88 367.347 11
-6 11 -2 164.911 99.5628 24
-6 11 -2 340.754 151.246 11
-6 11 -3 7795.4 539.27 24
-6 11 -3 8629.09 556.152 11
-6 11 -4 3018.17 306.042 24
-6 11 -4 2746.03 280.171 11
-6 11 -4 2129.52 206.75 19
-6 11 -5 13184.9 513.229 11
6 11 5 13841.7 532.842 16
6 11 6 6529.83 289.357 16
-6 12 7 1016.2 118.467 12
-6 12 7 834.221 116.57 20
-6 12 6 6937.86 352.655 12
-6 12 6 5938.07 316.534 6
-6 12 6 6907.24 402.446 20
-6 12 5 5297.88 328.395 12
-6 12 5 4581.11 345.141 6
-6 12 5 5213.32 399.901 20
-6 12 4 13055.8 552.028 12
-6 12 4 14167.3 730.501 20
-6 12 4 12836.1 667.02 6
-6 12 3 8565.66 439.142 12
-6 12 3 9070.84 603.99 20
-6 12 3 9038.22 589.412 6
-6 12 2 55743.5 1646.63 20
-6 12 2 46420.4 1390.07 11
-6 12 1 137.018 103.001 11
-6 12 0 982.914 180.196 24
-6 12 0 842.004 189.681 11
-6 12 -1 12666.5 664.012 24
-6 12 -1 14500.6 738.777 11
-6 12 -2 639.632 148.87 24
-6 12 -2 617.518 148.312 11
-6 12 -3 8342.9 496.552 24
-6 12 -3 7388.56 468.832 11
-6 12 -4 427.053 106.267 24
-6 12 -4 333.765 86.4309 11
6 12 4 303.952 76.547 16
-6 12 -5 665.316 105.592 24
-6 13 6 4564.62 232.073 12
-6 13 6 4888.72 278.402 20
-6 13 5 5144.29 270.738 12
-6 13 5 4433.2 270.9 6
-6 13 5 5686.51 351.746 20
6 13 -5 3956.35 281.326 11
-6 13 4 4322.64 257.508 12
-6 13 4 4794.78 361.6 20
-6 13 4 4432.1 326.319 6
-6 13 3 2757.45 297.989 20
-6 13 3 3055.79 301.923 6
-6 13 2 22615.2 903.351 20
-6 13 2 20629.7 744.198 11
-6 13 1 2042.28 262.653 20
-6 13 1 2204.56 246.979 11
-6 13 0 14181.7 584.983 24
-6 13 0 17527.8 733.699 11
-6 13 -1 829.876 145.38 24
-6 13 -1 919.843 169.684 11
-6 13 -2 12783.8 569.034 24
-6 13 -2 13197.7 601.027 11
-6 13 -3 2159.92 211.543 24
-6 13 -3 2025.09 207.285 11
-6 13 -4 515.857 91.9726 24
-6 13 -4 520.515 87.5989 11
-6 14 5 2300.54 175.497 20
-6 14 4 6572.99 348.177 20
6 14 -4 7062.91 368.339 11
-6 14 3 8226.6 427.452 20
-6 14 3 8946.23 429.081 6
-6 14 2 6939.01 402.206 20
-6 14 2 6272.02 384.983 6
-6 14 1 2319.8 229.208 20
-6 14 1 1927.94 191.531 11
-6 14 0 4458.62 315.87 20
-6 14 0 5694.12 342.484 11
-6 14 -1 4102.97 243.342 24
-6 14 -1 4201.94 273.459 20
-6 14 -2 1968.87 165.26 24
-6 14 -2 2230.98 199.277 11
-6 15 2 652.709 95.9614 20
6 15 -2 799.36 120.262 11
-6 15 1 2032.5 172.938 20
-6 15 1 1657.72 157.974 6
-6 15 0 1965.8 166.921 6
-7 -14 2 11398.9 384.168 25
-7 -14 1 5103.02 241.42 25
-7 -13 5 209.57 53.5319 25
-7 -13 4 653.595 101.506 25
-7 -13 4 631.926 91.7209 10
-7 -13 3 9010.2 391.071 25
7 -13 -3 9329.2 353.185 13
-7 -13 3 10112.4 375.226 10
-7 -13 2 5283.47 310.938 25
7 -13 -2 5439.43 288.291 13
-7 -13 2 5373.43 282.587 10
7 -13 -1 4424.26 262.757 13
-7 -13 1 4542.31 286.295 25
-7 -13 1 4857.14 265.412 10
7 -13 0 5358.79 286.579 13
-7 -13 0 5505.34 273.277 10
7 -13 1 458.195 80.6294 13
-7 -13 -1 446.225 70.6083 10
-7 -12 6 19114.4 551.468 25
-7 -12 6 19127.3 552.415 10
-7 -12 5 1077.13 140.749 25
7 -12 -5 949.274 109.253 13
-7 -12 5 1113.37 136.186 10
-7 -12 4 25327.3 783.647 25
7 -12 -4 23612.4 685.056 13
-7 -12 4 24860.5 746.338 10
-7 -12 3 7419.81 406.287 25
7 -12 -3 5992.45 336.724 13
-7 -12 3 6764.9 372.629 10
7 -12 -2 36627.2 991.117 13
-7 -12 2 40346.4 1039.2 10
7 -12 -1 943.541 139.228 13
-7 -12 1 993.958 149.267 19
-7 -12 1 949.802 146.308 10
-7 -12 1 1159.57 171.903 14
7 -12 0 644.21 123.629 13
-7 -12 0 489.304 108.438 19
-7 -12 0 482.628 104.436 10
-7 -12 0 512.111 114.687 14
7 -12 1 1323.86 159.365 13
-7 -12 -1 1453.4 168.021 19
-7 -12 -1 1425.44 162.447 10
7 -12 2 2665.92 209.319 13
-7 -12 -2 3066.77 228.096 19
-7 -12 -2 3172.19 218.777 10
7 -12 3 2356.58 172.261 13
-7 -12 -3 2784.73 177.001 19
-7 -12 -3 2885.94 178.095 10
-7 -11 7 1796.92 147.892 25
-7 -11 7 1950.86 164.978 10
-7 -11 6 7294.52 363.041 25
-7 -11 6 7485.51 373.799 10
-7 -11 5 1083.88 154.694 25
7 -11 -5 810.703 121.094 13
-7 -11 5 799.664 138.429 10
-7 -11 4 2565.37 255.782 25
7 -11 -4 2782.9 234.916 13
-7 -11 4 2870 268.741 10
-7 -11 3 3473.88 309.65 25
7 -11 -3 3451.2 277.121 13
-7 -11 3 3589.58 307.035 17
-7 -11 3 3884.18 313.295 10
-7 -11 3 3128.54 285.845 14
7 -11 -2 21278.6 761.664 13
-7 -11 2 21007.7 775.566 19
-7 -11 2 21540.5 805.338 17
-7 -11 2 23593.1 826.972 10
-7 -11 2 21681.7 821.731 14
-7 -11 1 9988.47 513.982 19
-7 -11 1 9569.28 512.873 17
-7 -11 1 11093.3 545.196 10
-7 -11 1 10584.4 554.356 14
7 -11 0 1327.58 179.885 13
-7 -11 0 1298.26 183.548 19
-7 -11 0 1284.88 177.926 17
-7 -11 0 1476.16 207.921 10
-7 -11 0 1400.39 201.3 14
7 -11 1 1279.43 173.787 13
-7 -11 -1 1538.55 194.18 19
-7 -11 -1 1552.71 197.966 14
7 -11 2 14359.7 573.917 13
-7 -11 -2 14702.3 578.375 14
7 -11 3 3553.35 252.043 13
-7 -11 -3 4316.03 269.357 19
-7 -11 -4 8690.05 327.629 19
7 -11 4 9740.05 401.731 26
-7 -10 8 2293.47 172.947 10
-7 -10 7 4076.94 263.089 25
-7 -10 7 4326.72 285.759 10
-7 -10 6 13366.9 568.736 25
-7 -10 6 14433.1 597.947 10
-7 -10 5 1947.73 229.738 25
7 -10 -5 1787.59 185.854 13
-7 -10 5 2363.24 252.513 10
-7 -10 4 11565.6 581.325 25
7 -10 -4 10413.5 502.679 13
-7 -10 4 11755.7 593.78 17
-7 -10 4 12595.2 610.947 10
-7 -10 4 10121.2 533.582 14
7 -10 -3 8988.46 476.932 13
-7 -10 3 9345.52 510.377 19
-7 -10 3 9121.74 537.698 17
-7 -10 3 10076.6 551.001 10
-7 -10 3 8612.08 517.756 14
7 -10 -2 2487 255.859 13
-7 -10 2 3136.35 299.563 19
-7 -10 2 3021.39 311.017 17
-7 -10 2 3390.71 325.388 10
-7 -10 2 3068.92 316.972 14
7 -10 -1 16256.5 690.221 13
-7 -10 1 16149.2 713.149 19
-7 -10 1 16800.4 741.603 17
-7 -10 1 17674.6 774.578 10
-7 -10 1 17147.9 771.477 14
7 -10 0 4509.64 348.548 13
-7 -10 0 4959.31 378.452 19
-7 -10 0 4595.76 360.164 17
-7 -10 0 5141.53 406.63 14
7 -10 1 11615.9 564.81 13
-7 -10 -1 13108.7 614.377 19
-7 -10 -1 10865.1 530.98 17
-7 -10 -1 13366.9 640.212 14
-7 -10 -2 11566.2 546.527 19
-7 -10 -2 10207.3 522.528 14
7 -10 3 7009.43 396.615 13
-7 -10 -3 7536.3 394.48 14
7 -10 4 2958.08 228.954 13
-7 -10 -4 3278.1 234.09 19
7 -10 5 1466.35 149.308 9
7 -10 5 2362.89 189.163 26
-7 -9 8 7354.01 325.232 25
-7 -9 8 9891.24 419.486 10
-7 -9 7 2163.84 211.279 25
-7 -9 7 2397.26 236.806 10
-7 -9 6 631.902 132.816 25
-7 -9 6 901.497 170.262 10
-7 -9 5 29758.6 993.613 25
-7 -9 5 27520.2 964.669 17
-7 -9 5 31621.9 1026.6 10
-7 -9 5 25245 879.313 14
-7 -9 4 3365.49 325.405 25
7 -9 -4 3874.44 306.049 13
-7 -9 4 2747.91 276.127 19
-7 -9 4 3720.13 347.94 17
-7 -9 4 3569.28 341.016 10
-7 -9 4 3415.09 321.936 14
7 -9 -3 26120.1 882.811 13
-7 -9 3 23302 881.085 19
-7 -9 3 25634.9 981.426 17
-7 -9 3 27179.4 988.266 10
-7 -9 3 23100.4 925.26 14
7 -9 -2 15570.7 676.506 13
-7 -9 2 14634.4 694.847 19
-7 -9 2 15961.9 764.558 17
-7 -9 2 16631.5 782.172 10
-7 -9 2 15288.5 746.309 14
7 -9 -1 72963.2 1768.15 13
-7 -9 1 75122.2 1890.9 17
-7 -9 1 72972.5 1827.75 19
-7 -9 1 75629.7 1934.22 14
7 -9 0 14719.9 676.879 13
-7 -9 0 15845.8 729.728 19
-7 -9 0 15853.7 731.245 17
-7 -9 0 17026.6 795.275 14
7 -9 1 9568.91 532.258 13
-7 -9 -1 10315.5 578.43 19
-7 -9 -1 9618.85 533.224 17
-7 -9 -1 9952.02 587.395 14
-7 -9 -2 30026.1 1003.05 19
-7 -9 -2 29992.9 1013.33 14
7 -9 3 1926.76 219.396 13
-7 -9 -3 2513.69 258.647 19
-7 -9 -3 2267.11 241.374 14
7 -9 4 14647.2 587.994 13
-7 -9 -4 16281.1 620.668 19
7 -9 5 3199.63 226.004 13
7 -9 5 3584.85 271.075 26
7 -9 6 1437.01 137.33 22
7 -9 6 1216.77 125.507 26
-7 -8 9 8826.21 369.573 10
-7 -8 8 18346.4 605.111 18
-7 -8 8 20303.2 690.096 10
-7 -8 7 15311.7 627.816 25
-7 -8 7 15516.6 606.135 18
-7 -8 7 16312.1 680.943 10
-7 -8 6 3407.22 312.819 25
-7 -8 6 3189.34 277.532 18
-7 -8 6 3162.62 299.205 17
-7 -8 6 3265.76 322.19 10
-7 -8 5 4315.61 376.121 25
-7 -8 5 4650.95 347.213 18
-7 -8 5 4169.4 369.815 17
-7 -8 5 5114.85 412.996 10
-7 -8 5 4433.62 352.387 14
-7 -8 4 6200.45 419.667 19
-7 -8 4 6115.06 465.716 17
-7 -8 4 6910.13 485.317 10
-7 -8 4 6387.82 454.785 14
-7 -8 3 603.205 145.068 19
-7 -8 3 498.322 148.829 17
-7 -8 3 571.13 158.326 10
-7 -8 3 679.862 165.577 14
-7 -8 2 112.52 72.6576 19
-7 -8 2 184.278 100.774 17
-7 -8 2 53.7179 68.4241 10
-7 -8 2 228.055 108.427 14
-7 -8 1 66454.9 1817.43 17
-7 -8 1 64146.2 1836 14
7 -8 0 2196.66 256.372 13
-7 -8 0 2532.02 290.795 19
-7 -8 0 2465.94 295.218 17
-7 -8 0 2494.14 315.951 14
7 -8 1 12993.1 637.481 13
-7 -8 -1 13339.3 662.988 17
-7 -8 -1 14657.3 712.654 19
-7 -8 -1 14418.1 738.317 14
7 -8 2 2199.95 258.451 13
-7 -8 -2 2161.97 269.001 19
-7 -8 -2 2758.33 305.583 14
7 -8 3 1941.15 233.381 13
-7 -8 -3 2334.64 269.037 19
-7 -8 -3 2335.63 267.217 14
7 -8 4 249.472 90.9307 13
-7 -8 -4 160.888 85.0938 19
7 -8 5 3872.19 273.671 13
-7 -8 -5 4687.96 305.326 19
7 -8 5 4193.07 320.25 26
-7 -8 -6 1119.75 116.971 19
7 -8 6 1228.91 148.951 9
7 -8 6 1331.84 150.077 26
-7 -7 9 3387.37 239.638 18
-7 -7 9 3317.92 245.645 10
-7 -7 8 3167.5 267.922 18
-7 -7 8 2937.02 272.705 10
-7 -7 7 1164.51 180.149 25
-7 -7 7 1316.1 203.775 6
-7 -7 7 1068.42 173.552 18
-7 -7 7 1117.8 192 10
-7 -7 6 2158.77 259.999 25
-7 -7 6 1836.03 249.693 6
-7 -7 6 1976.03 245.062 18
-7 -7 6 1665.27 230.848 17
-7 -7 6 1888.5 252.781 10
-7 -7 5 42697.3 1328.9 25
-7 -7 5 43996.4 1326.09 6
-7 -7 5 43824.5 1285.97 18
-7 -7 5 43511.4 1350.35 17
-7 -7 5 45079.3 1371.76 10
-7 -7 5 42045.3 1248.05 14
-7 -7 4 749.56 155.642 6
-7 -7 4 793.598 155.858 19
-7 -7 4 920.486 170.583 18
-7 -7 4 916.853 197.258 17
-7 -7 4 1010.04 204.652 10
-7 -7 4 721.948 162.01 14
-7 -7 3 8654.33 588.619 23
-7 -7 3 9695.96 602.387 17
-7 -7 3 8395.38 517.116 19
-7 -7 3 9036.3 518.284 18
-7 -7 3 9675.51 605.197 10
-7 -7 3 9023.92 579.725 14
-7 -7 2 2135.25 288.058 23
-7 -7 2 2444.63 300.024 17
-7 -7 2 2459.63 288.868 19
-7 -7 2 2491.82 309.5 14
-7 -7 1 3904.42 384.708 23
-7 -7 1 4027.89 383.342 17
-7 -7 1 4178.6 382.569 19
-7 -7 1 4095.13 393.382 14
-7 -7 0 474.58 149.134 23
-7 -7 0 444.578 143.176 19
-7 -7 0 392.084 125.98 17
-7 -7 0 505.753 155.753 14
-7 -7 -1 18590.5 858.999 24
-7 -7 -1 19446.6 851.815 19
-7 -7 -1 19889.9 843.029 17
-7 -7 -1 20710.1 909.675 14
-7 -7 -2 6308.22 468.429 24
-7 -7 -2 6275.13 432.445 17
-7 -7 -2 5800.94 449.855 19
-7 -7 -2 5944 459.643 14
7 -7 3 2311.63 257.409 13
-7 -7 -3 3154.26 318.296 19
-7 -7 -3 3119.77 318.541 14
-7 -7 -4 15169.4 669.882 19
-7 -7 -4 13968.9 625.921 14
7 -7 5 2359.13 226.915 13
-7 -7 -5 2847.35 259.174 19
7 -7 5 2159.36 246.829 26
-7 -7 -6 1454.9 155.692 19
7 -7 6 1224.22 166.999 9
7 -7 6 1336.3 165.41 26
7 -7 7 603.052 96.1815 22
-7 -6 9 9350.64 452.765 18
-7 -6 9 8689.61 436.947 10
-7 -6 8 2820.78 285.244 6
-7 -6 8 3145.89 292.835 20
-7 -6 8 2671.45 272.985 18
-7 -6 8 2305.94 260.667 10
-7 -6 7 52.5265 78.4453 20
-7 -6 7 32.722 61.0505 6
-7 -6 7 122.709 88.2399 18
-7 -6 7 97.268 72.9147 10
-7 -6 6 7670.2 508.863 25
-7 -6 6 9217.96 573.177 6
-7 -6 6 8416.06 511.61 20
-7 -6 6 9873.51 578.295 18
-7 -6 6 8581.92 523.933 17
-7 -6 6 9229.17 580.744 10
-7 -6 5 12160.7 662.703 25
-7 -6 5 12570.4 665.423 6
-7 -6 5 12452.5 665.462 18
-7 -6 5 10878.9 637.123 17
-7 -6 5 12511.7 630.26 14
-7 -6 4 18418.9 853.638 23
-7 -6 4 18424.2 801.376 6
-7 -6 4 18340.4 755.415 19
-7 -6 4 18627.1 818.147 18
-7 -6 4 19195.8 864.428 17
-7 -6 4 19990.9 879.758 10
-7 -6 4 18397.7 828.836 14
-7 -6 3 10195.2 632.728 23
-7 -6 3 9267.08 544.704 19
-7 -6 3 9437.27 595.96 17
-7 -6 3 9945.14 578.402 18
-7 -6 3 11430.4 654.534 10
-7 -6 3 10626.2 629.667 14
-7 -6 2 1416.82 245.545 23
-7 -6 2 1141.96 198.332 19
-7 -6 2 1518.54 221.393 18
-7 -6 2 1512.88 240.075 17
-7 -6 2 1009.27 196.702 14
-7 -6 1 18855 861.757 24
-7 -6 1 18091.6 840.782 23
-7 -6 1 18913.6 838.364 19
-7 -6 1 19760 874.73 17
-7 -6 1 20558.4 902.015 14
-7 -6 0 642.304 168.81 24
-7 -6 0 827.39 176.934 23
-7 -6 0 523.588 146.879 19
-7 -6 0 732.898 170.128 17
-7 -6 -1 12666.6 690.875 24
-7 -6 -1 11500.7 646.623 23
-7 -6 -1 12454.5 670.256 19
-7 -6 -1 11522.6 634.047 17
-7 -6 -2 20482.4 885.249 24
-7 -6 -2 21293.4 893.368 19
-7 -6 -2 20673.8 834.301 17
-7 -6 -3 19816.8 847.542 24
-7 -6 -3 20475.3 858.934 19
-7 -6 -3 21525.8 889.732 14
-7 -6 -4 12204.7 617.258 24
-7 -6 -4 11638.1 609.194 19
-7 -6 -4 11892.7 605.364 14
-7 -6 -5 5082.48 359.93 19
7 -6 5 4767.92 383.375 9
7 -6 5 4901.45 383.53 26
-7 -6 -6 1103.82 150.177 19
7 -6 6 849.522 152.467 9
7 -6 6 760.311 136.328 26
7 -6 7 6467.18 340.837 22
7 -6 7 6514.03 329.217 9
-7 -5 9 11.405 63.9529 6
-7 -5 9 -1.4383 72.1147 18
-7 -5 9 125.223 75.9019 10
-7 -5 8 23942.6 916.159 6
-7 -5 8 23388 866.175 20
-7 -5 8 23342.6 880.904 18
-7 -5 7 13787.8 705.038 6
-7 -5 7 13300.6 665.966 20
-7 -5 7 15276.6 736.113 18
-7 -5 7 13278.7 697.199 10
-7 -5 6 1919.29 253.211 17
-7 -5 6 1937.61 261.681 6
-7 -5 6 1812.84 244.855 20
-7 -5 6 1931.16 267.685 18
-7 -5 6 2347.39 297.589 10
-7 -5 5 57193.7 1612.14 23
-7 -5 5 59637.1 1610.01 6
-7 -5 5 54743.9 1498.07 20
-7 -5 5 59858.5 1659.92 18
-7 -5 5 58783.1 1638.6 17
-7 -5 5 57241.3 1665.97 10
-7 -5 4 6654.03 492.459 23
-7 -5 4 6875.11 467.883 6
-7 -5 4 6747.38 492.27 18
-7 -5 4 6512.22 490.165 17
-7 -5 4 7067.88 514.685 10
-7 -5 4 6880.58 490.671 14
-7 -5 3 12364.9 679.842 23
-7 -5 3 11212.9 595.84 19
-7 -5 3 11084.6 631.691 18
-7 -5 3 11068.2 928.274 2
-7 -5 3 12445.6 675.571 17
-7 -5 3 12140.1 696.059 10
7 -5 -3 11145.3 995.336 28
-7 -5 3 12396.8 677.906 14
-7 -5 2 2004.62 268.225 24
-7 -5 2 2037.05 271.426 23
-7 -5 2 1902.82 248.48 19
-7 -5 2 1529.89 339.779 2
-7 -5 2 2196.8 269.253 18
-7 -5 2 1869.14 259.561 17
7 -5 -2 1696.19 359.8 30
7 -5 -2 2147.57 420.271 28
-7 -5 1 23322.8 941.59 24
-7 -5 1 21918.5 915.191 23
-7 -5 1 19858.2 1226.78 2
-7 -5 1 21582.8 885.486 19
-7 -5 1 21490.5 867.553 18
-7 -5 1 21456.5 910.282 17
7 -5 -1 18488.2 1218.44 30
7 -5 -1 21887.5 1373.03 28
-7 -5 0 41756.9 1315.17 24
-7 -5 0 39494 1266.43 23
-7 -5 0 37035.4 1714.39 2
-7 -5 0 40007.1 1264.75 19
-7 -5 0 36327.1 1191.77 18
-7 -5 0 38323.1 1259.62 17
7 -5 0 35426.9 1756.53 30
7 -5 0 37904.7 1819.38 28
-7 -5 -1 6497.68 483.35 24
-7 -5 -1 6417.86 464.429 23
-7 -5 -1 7146.62 496.593 19
-7 -5 -1 6256.79 462.159 17
-7 -5 -2 13082.4 695.585 24
-7 -5 -2 13073.5 671.574 23
-7 -5 -2 13404.3 696.642 19
-7 -5 -2 13252.9 659.976 17
-7 -5 -3 5435.04 429.615 24
-7 -5 -3 4678.61 402.03 19
-7 -5 -4 44886.8 1329.22 24
-7 -5 -4 45456.7 1343.1 19
-7 -5 -4 45873.2 1347.22 14
-7 -5 -5 3406.07 301.07 24
-7 -5 -5 3592.73 315.068 19
7 -5 5 3080.79 314.35 9
7 -5 5 2767.46 294.492 26
7 -5 6 3192.21 299.263 22
-7 -5 -6 3380.25 275.813 19
7 -5 6 2937.59 280.154 9
7 -5 6 2737.91 255.876 26
7 -5 7 955.308 144.386 22
-7 -5 -7 835.595 113.703 19
7 -5 7 704.555 116.604 9
-7 -4 10 1612.55 184.849 20
-7 -4 10 1188.56 158.19 18
-7 -4 9 14721.4 655.704 6
-7 -4 9 13249 607.845 20
-7 -4 9 14508.2 645.924 18
-7 -4 8 11564.3 622.85 6
-7 -4 8 11752.6 608.872 20
-7 -4 8 12319.7 649.381 18
-7 -4 8 10331.8 572.385 10
-7 -4 7 12074.5 657.057 6
-7 -4 7 12487.8 640.092 20
-7 -4 7 11809.3 667.593 18
-7 -4 7 10905.9 626.826 10
-7 -4 6 11503 623.613 23
-7 -4 6 10000 580.676 17
-7 -4 6 11265.2 630.439 6
-7 -4 6 11404.5 608.446 20
-7 -4 6 11482.8 666.657 18
-7 -4 6 11031.9 651.96 10
-7 -4 5 44870.5 1358.18 23
-7 -4 5 45588.9 1354.93 6
-7 -4 5 42647.6 1263.86 20
-7 -4 5 44952.8 1437.19 18
-7 -4 5 44773.3 1386.84 17
-7 -4 5 44167.3 1419.68 10
-7 -4 4 8842.02 554.065 23
-7 -4 4 9048 533.561 6
-7 -4 4 9200.84 587.819 18
-7 -4 4 9183.31 574.291 17
-7 -4 4 8538.88 849.212 2
-7 -4 4 8869.34 584.364 10
7 -4 -4 8081.22 840.152 28
-7 -4 4 8645.6 545.608 14
-7 -4 3 565.577 137.402 24
-7 -4 3 836.962 171.78 23
-7 -4 3 831.075 157.214 6
-7 -4 3 385.845 167.787 2
-7 -4 3 586.384 154.322 18
-7 -4 3 743.257 166.753 17
-7 -4 3 593.215 174.013 10
7 -4 -3 209.258 176.289 28
-7 -4 2 14109.6 701.555 24
-7 -4 2 15494.6 739.578 23
-7 -4 2 14398.4 686.563 19
-7 -4 2 13219.5 1000.75 2
-7 -4 2 14842 735.599 18
7 -4 -2 14355.5 1092.77 28
-7 -4 1 56717.3 1583.24 24
-7 -4 1 57713.1 1593.31 23
-7 -4 1 57124.5 2188.82 2
-7 -4 1 57559 1556.7 19
-7 -4 1 58788.4 1623.55 18
7 -4 -1 54536.4 2108.04 30
7 -4 -1 58709 2293.87 28
-7 -4 0 19403 846.094 24
-7 -4 0 18695.5 813.585 23
-7 -4 0 19123.1 1202 2
-7 -4 0 18729.2 818.048 19
7 -4 0 18963.9 1245.09 28
-7 -4 -1 66370.6 1747.72 24
-7 -4 -1 62012.4 1666.58 23
-7 -4 -1 62008.3 2319.36 2
-7 -4 -1 67514.4 1738.38 19
7 -4 1 60672.3 2392.55 28
-7 -4 -2 7258.48 505.393 24
-7 -4 -2 7437.11 490.106 23
-7 -4 -2 7480.94 507.295 19
-7 -4 -3 24246.3 948.525 24
-7 -4 -3 23917.5 942.217 19
-7 -4 -4 11545.7 615.395 24
7 -4 4 10074.3 567.419 33
-7 -4 -4 11489.4 612.831 19
-7 -4 -5 2546.51 263.535 24
-7 -4 -5 2514.07 271.915 19
7 -4 5 2866.1 307.549 9
7 -4 5 2211.77 257.389 26
7 -4 6 4546.84 366.795 22
-7 -4 -6 4942.46 346.531 19
7 -4 6 4453.21 352.432 9
7 -4 7 2964.35 263.374 22
-7 -4 -7 3180.75 237.963 19
7 -4 7 2999.17 244.464 9
7 -4 8 12189.7 426.403 22
-7 -3 10 18184.1 651.576 6
-7 -3 10 16680.3 630.985 20
-7 -3 10 17818.1 656.258 18
-7 -3 9 25040.4 899.182 6
-7 -3 9 26404.3 897.525 20
-7 -3 9 24970.2 905.487 18
-7 -3 8 15079.8 723.333 6
-7 -3 8 14477 681.693 20
-7 -3 8 14783.7 734.153 18
-7 -3 8 12865.1 625.585 10
-7 -3 7 14937 737.945 6
-7 -3 7 15407.4 715.774 20
-7 -3 7 15138.7 778.995 18
-7 -3 7 14627.6 712.601 10
-7 -3 6 5052.04 402.963 23
-7 -3 6 4610.3 400.367 6
-7 -3 6 4942.26 389.485 20
-7 -3 6 5307.44 461.871 18
-7 -3 6 4341.23 370.209 17
-7 -3 6 4750.07 407.54 10
-7 -3 5 35178.7 1149.65 23
-7 -3 5 34769.5 1163.02 17
-7 -3 5 33835.5 1127.09 6
-7 -3 5 32412.1 1061.26 20
-7 -3 5 33242.4 1219.5 18
-7 -3 5 30987.7 1139.06 10
-7 -3 4 18199.4 793.255 23
-7 -3 4 16764.3 740.78 6
-7 -3 4 17011.5 824.769 18
-7 -3 4 16047.6 1175.12 2
-7 -3 4 16611.4 776.858 17
-7 -3 4 15722.3 791.913 10
7 -3 -4 16579.1 1181.03 28
-7 -3 3 40680.1 1248.69 24
-7 -3 3 38063.7 1165.52 12
-7 -3 3 46043.2 1333.63 23
-7 -3 3 41625.8 1210.16 6
-7 -3 3 44770.5 1951.13 2
-7 -3 3 46087.4 1414.1 18
-7 -3 3 37376.4 1351.35 10
7 -3 -3 43232.2 1938.3 28
-7 -3 2 4697.67 387.578 24
-7 -3 2 4086.9 355.261 12
-7 -3 2 5173.28 411.14 23
-7 -3 2 5113.7 382.594 19
-7 -3 2 5600.12 641.247 2
-7 -3 2 5444.6 439.777 18
7 -3 -2 5391.3 652.913 28
-7 -3 1 35204.1 1159.02 24
-7 -3 1 32229.9 1136.43 12
-7 -3 1 37542.8 1183.22 23
-7 -3 1 37130.5 1732.17 2
-7 -3 1 33795 1107.55 19
7 -3 -1 36061.9 1726.62 28
-7 -3 0 40734.5 1277.62 24
-7 -3 0 38937.7 1229.14 23
-7 -3 0 40683 1830.21 2
-7 -3 0 41215.4 1249.76 19
7 -3 0 42011.1 1872.37 28
-7 -3 -1 82961.9 2022.48 24
-7 -3 -1 81551.5 1960.38 23
-7 -3 -1 81975.1 2753.56 2
-7 -3 -1 82765.5 1995.55 19
7 -3 1 84792 2824.28 28
-7 -3 -2 7846.88 521.347 24
-7 -3 -2 8042.21 496.481 23
-7 -3 -2 8122.46 522.071 19
-7 -3 -3 17955.5 800.475 24
-7 -3 -3 17983.8 805.795 19
-7 -3 -4 2615.81 289.253 24
-7 -3 -4 2521.29 289.188 19
7 -3 4 2228.92 268.814 33
7 -3 4 2311.78 285.878 9
-7 -3 -5 2665.27 276.497 24
-7 -3 -5 2631.99 284.15 19
7 -3 5 3265.07 330.19 9
7 -3 6 148.783 83.4875 22
-7 -3 -6 96.826 69.5217 19
7 -3 6 169.398 80.0133 9
7 -3 7 4090.98 313.901 22
-7 -3 -7 4062.08 281.717 19
7 -3 7 3759.62 281.627 9
7 -3 8 162.5 51.8313 22
-7 -2 10 9001.49 454.261 6
-7 -2 10 8986.79 457.333 20
-7 -2 10 9115.18 474.124 18
-7 -2 9 20116.9 808.554 6
-7 -2 9 21437 805.839 20
-7 -2 9 19025 811.953 18
-7 -2 8 5935.05 444.615 6
-7 -2 8 6760.27 454.687 20
-7 -2 8 5566.43 456.603 18
-7 -2 7 16040.6 761.209 6
-7 -2 7 15403.2 719.127 20
-7 -2 7 15488.3 804.351 18
-7 -2 6 2206.86 257.625 23
-7 -2 6 2127.91 271.985 6
-7 -2 6 2252.19 262.746 20
-7 -2 6 2558.4 326.925 18
-7 -2 6 2033.43 256.009 10
-7 -2 5 2235.63 269.018 23
-7 -2 5 2231.6 271.026 6
-7 -2 5 2153.5 249.665 20
-7 -2 5 2619.16 329.609 18
-7 -2 5 2161.02 267.721 17
-7 -2 5 2414.74 283.87 10
7 -2 -5 2497.25 442.708 28
-7 -2 4 14928.2 705.448 23
-7 -2 4 14278.5 678.05 6
-7 -2 4 15153.3 775.005 18
-7 -2 4 14110.1 1120.83 2
-7 -2 4 13128.2 680.465 10
7 -2 -4 15038.7 1087.7 28
-7 -2 3 2822.63 289.516 24
-7 -2 3 3135.24 315.145 23
-7 -2 3 2377.13 264.975 12
-7 -2 3 3200.71 299.187 6
-7 -2 3 2542.31 471.68 2
-7 -2 3 3438.37 357.818 18
-7 -2 3 2681.14 318.463 10
7 -2 -3 2430.14 431.884 28
-7 -2 2 2354.97 269.821 24
-7 -2 2 2667.77 283.536 12
-7 -2 2 2855.89 300.316 23
-7 -2 2 2115.35 415.661 2
-7 -2 2 2117.6 281.612 18
7 -2 -2 2564.89 445.654 28
-7 -2 1 1640.42 229.036 24
-7 -2 1 1547.57 229.592 12
-7 -2 1 2124.49 258.028 23
-7 -2 1 1685.06 223.494 19
-7 -2 1 1769.86 363.263 2
7 -2 -1 1521.06 330.716 28
-7 -2 0 778.52 167.399 24
-7 -2 0 813.307 162.357 23
-7 -2 0 719.99 176.443 12
-7 -2 0 883.071 181.777 11
-7 -2 0 881.372 302.545 2
-7 -2 0 775.842 163.207 19
7 -2 0 807.76 252.819 28
-7 -2 -1 2835.67 306.43 24
-7 -2 -1 2830.06 291.96 23
-7 -2 -1 2683.23 307.627 11
-7 -2 -1 2754.46 487.357 2
-7 -2 -1 2698 293.385 19
7 -2 1 2380.69 431.005 28
-7 -2 -2 88069.6 2122.21 24
-7 -2 -2 86078.9 2024.18 23
-7 -2 -2 93196.1 3013.11 2
-7 -2 -2 94610.2 2148.65 19
7 -2 2 85302.9 2898.53 28
7 -2 2 92796.5 3620.66 27
-7 -2 -3 100019 2286.35 24
7 -2 3 95934.1 2288.34 33
-7 -2 -4 10125.9 578.419 24
-7 -2 -4 10820.1 612.396 19
7 -2 4 11159.2 613.517 33
7 -2 4 12539.5 656.394 9
-7 -2 -5 11318.3 583.96 24
7 -2 5 10254.9 605.269 22
-7 -2 -5 9844.15 562.672 19
7 -2 5 11775.9 623.133 9
-7 -2 -6 3158.48 271.043 24
7 -2 6 3258.02 316.715 22
-7 -2 -6 3216.28 294.271 19
7 -2 6 3050.56 292.865 9
7 -2 7 13290.2 587.047 22
-7 -2 -7 12555.6 531.911 19
7 -2 7 12579.9 539.617 9
7 -2 8 1333.01 153.528 22
-7 -2 -8 946.869 108.714 19
7 -2 8 1088.34 124.665 9
-7 -1 11 434.597 82.7707 20
-7 -1 10 1617.81 189.267 6
-7 -1 10 1757.06 202.475 20
-7 -1 10 1881.98 214.098 18
-7 -1 9 7092.26 460.61 6
-7 -1 9 7500.98 460.594 20
-7 -1 9 6670.23 473.239 18
-7 -1 8 6285.89 456.573 6
-7 -1 8 5621.05 419.459 20
-7 -1 8 5660.57 467.402 18
-7 -1 8 5846.37 426.691 16
-7 -1 7 466.464 125.567 20
-7 -1 7 584.126 151.205 6
-7 -1 7 418.853 153.847 18
-7 -1 7 445.976 131.466 16
-7 -1 6 26282.6 941.346 23
-7 -1 6 26027.4 994.087 6
-7 -1 6 25078.2 945.046 20
-7 -1 6 26012 1094.87 18
-7 -1 6 26977.7 1033.4 16
-7 -1 5 10460.4 580.904 23
-7 -1 5 10042.2 586.871 6
-7 -1 5 10206 562.229 20
-7 -1 5 10976.1 675.06 18
-7 -1 5 9932.93 567.882 17
-7 -1 5 11273.2 640.482 16
-7 -1 5 10034.2 980.803 2
7 -1 -5 9687.47 846.407 28
-7 -1 4 6056.26 439.359 23
-7 -1 4 5677.35 398.467 12
-7 -1 4 5890.52 427.123 6
-7 -1 4 5784.17 394.362 20
-7 -1 4 6540.06 506.274 18
-7 -1 4 6305.81 743.562 2
7 -1 -4 6514.56 708.819 28
-7 -1 3 19243.4 809.231 23
-7 -1 3 16834.8 723.723 12
-7 -1 3 18711.2 767.086 6
-7 -1 3 19448.4 1320.58 2
-7 -1 3 19492.4 889.946 18
7 -1 -3 21309 1263.52 28
-7 -1 2 2751.23 284.007 24
-7 -1 2 2868.01 290.975 12
-7 -1 2 2951.29 304.716 23
-7 -1 2 2966.48 314.642 11
-7 -1 2 2980.99 487.057 2
7 -1 -2 2559.03 427.69 28
-7 -1 1 3305.02 312.108 24
-7 -1 1 2997.8 313.37 12
-7 -1 1 3172.62 313.605 23
-7 -1 1 3054.26 322.531 11
-7 -1 1 2714.79 272.93 19
-7 -1 1 2395.42 440.888 2
7 -1 -1 2653.89 469.452 29
7 -1 -1 3124.04 474.216 28
-7 -1 0 37814.6 1208.21 24
-7 -1 0 37767.9 1281.48 12
-7 -1 0 36536.2 1168.3 23
-7 -1 0 39577.9 1869.35 2
-7 -1 0 39591.3 1263.59 11
-7 -1 0 37162.4 1145.46 19
7 -1 0 38836.5 1752.05 28
-7 -1 -1 65335.8 1697.16 24
-7 -1 -1 64912.7 1771.59 12
-7 -1 -1 59688.8 1591.46 23
-7 -1 -1 66632.3 2499.27 2
-7 -1 -1 64258.3 1713.03 11
-7 -1 -1 61817.6 1632.89 19
7 -1 1 65203.2 2377.97 28
-7 -1 -2 11768.1 642.9 24
-7 -1 -2 10740.8 570.861 23
-7 -1 -2 11110 933.898 2
-7 -1 -2 11569.7 637.528 11
-7 -1 -2 10880.9 604.194 19
7 -1 2 11926.5 995.695 28
-7 -1 -3 41033 1294.11 24
-7 -1 -3 43308.8 1327.69 11
-7 -1 -3 43250.1 1333.76 19
7 -1 3 42111.3 1330.04 33
-7 -1 -4 1807.1 244.403 24
7 -1 4 1928.69 265.7 22
-7 -1 -4 2211.43 277.963 19
7 -1 4 1883.25 264.342 33
7 -1 4 2270.79 264.546 9
-7 -1 -5 1364.73 205.445 24
7 -1 5 1357.45 217.698 22
-7 -1 -5 1145.3 200.73 19
7 -1 5 1196.67 197.264 9
-7 -1 -6 1980.28 219.243 24
7 -1 6 2564.94 285.611 22
-7 -1 -6 2383.9 261.228 19
7 -1 6 2589.18 264.084 9
7 -1 7 15186.8 640.258 22
-7 -1 -7 14926.9 596.252 19
7 -1 7 13888.8 574.939 9
7 -1 8 4541.16 278.871 22
-7 -1 -8 3845.46 231.585 19
7 -1 8 3945.21 238.141 9
-7 0 11 9797.59 394.737 20
-7 0 10 1308.8 175.165 6
-7 0 10 1234.8 165.783 20
-7 0 10 1097.09 164.057 18
-7 0 9 390.199 129.798 21
-7 0 9 508.45 129.519 20
-7 0 9 405.698 124.977 6
-7 0 9 237.415 115.131 18
-7 0 9 168.984 91.1406 16
-7 0 8 17074 796.56 21
-7 0 8 17578.7 780.131 6
-7 0 8 16854.4 752.601 20
-7 0 8 17576 850.226 18
-7 0 8 17675.1 772.598 16
-7 0 7 85.3463 95.2938 21
-7 0 7 89.8322 81.401 20
-7 0 7 -17.542 85.169 6
-7 0 7 25.3116 98.0417 18
-7 0 7 118.496 91.8881 16
-7 0 6 777.722 159.397 23
-7 0 6 1169.38 218.672 21
-7 0 6 1117.18 194.36 20
-7 0 6 771.779 172.697 6
-7 0 6 1041.54 219.815 18
-7 0 6 852.093 192.618 16
-7 0 5 910.816 170.712 23
-7 0 5 982.673 168.46 12
-7 0 5 719.691 148.553 20
-7 0 5 973.399 186.914 6
-7 0 5 -46.1405 91.5106 2
-7 0 5 919.23 209.521 18
-7 0 5 783.133 185.304 16
7 0 -5 460.541 210.209 29
7 0 -5 196.154 132.426 28
-7 0 4 48.9491 77.2946 23
-7 0 4 120.631 78.9401 12
-7 0 4 203.668 74.6125 20
-7 0 4 280.042 111.493 6
-7 0 4 -145.665 174.864 2
-7 0 4 95.6426 103.739 18
-7 0 4 140.661 104.901 16
7 0 -4 -411.44 226.297 29
7 0 -4 414.533 175.371 28
-7 0 3 0.94566 60.6042 23
-7 0 3 30.6146 79.2304 12
-7 0 3 29.1196 68.4191 6
-7 0 3 -244.961 179.074 2
-7 0 3 146.114 86.209 11
-7 0 3 162.094 106.183 18
7 0 -3 -486.213 247.126 29
7 0 -3 313.662 155.732 28
-7 0 2 924.429 163.223 24
-7 0 2 1062.25 182.942 23
-7 0 2 867.726 171.268 12
-7 0 2 819.591 146.407 6
-7 0 2 1274.33 354.057 2
-7 0 2 923.08 177.807 11
7 0 -2 770.205 274.581 29
7 0 -2 1473.71 318.339 28
-7 0 1 1635.7 216.977 24
-7 0 1 1662.51 226.657 12
-7 0 1 1235.58 201.977 23
-7 0 1 1633.99 235.051 11
-7 0 1 1668.64 389.352 2
7 0 -1 1395.44 337.143 29
7 0 -1 1166.14 277.006 28
-7 0 0 8913.03 542.86 24
-7 0 0 9404.82 575.031 12
-7 0 0 8848.95 524.01 23
-7 0 0 10093.5 920.807 2
-7 0 0 8846.52 554.395 11
-7 0 0 8427.07 496.342 19
-7 0 -1 20959.5 876.391 24
-7 0 -1 22337.3 941.696 12
-7 0 -1 18346.1 786.013 23
-7 0 -1 22331.3 1399.8 2
-7 0 -1 20367.6 871.189 11
-7 0 -1 19861.7 819.59 19
7 0 1 20362.2 1257.45 28
-7 0 -2 351.745 128.707 24
-7 0 -2 206.581 78.9387 23
-7 0 -2 58.634 76.295 2
-7 0 -2 415.957 127.976 19
-7 0 -2 178.894 94.4811 11
7 0 2 488.753 138.979 33
7 0 2 502.715 191.235 28
-7 0 -3 8217.66 545.314 24
7 0 3 8148.21 530.619 22
-7 0 -3 8290.45 533.137 11
-7 0 -3 8648.32 549.306 19
7 0 3 8147.3 538.196 33
-7 0 -4 1460.79 222.42 24
7 0 4 1221.39 210.002 22
-7 0 -4 1448.12 223.266 11
-7 0 -4 1367.81 220.825 19
7 0 4 1204.43 206.507 33
-7 0 -5 1667.47 226.634 24
7 0 5 1633.25 223.118 33
7 0 5 2228.9 278.981 22
-7 0 -5 1862.13 252.172 19
7 0 5 1883.08 238.773 9
-7 0 -6 1668.29 202.115 24
7 0 6 1788.54 239.359 22
-7 0 -6 1732.83 234.512 19
7 0 6 1608.6 204.119 9
7 0 7 4613.45 338.026 22
7 0 7 3510.94 247.84 21
-7 0 -7 4139.03 306.303 19
7 0 7 3989.82 291.411 9
7 0 8 177.257 71.1867 22
-7 0 -8 275.413 66.0347 19
7 0 8 192.109 58.6957 9
-7 1 11 435.675 89.4253 20
-7 1 10 1457.95 176.069 6
-7 1 10 1578.71 190.765 20
-7 1 10 1288.18 165.605 18
-7 1 10 1196.99 164.134 16
-7 1 9 7043.74 471.89 21
-7 1 9 7015.9 447.075 6
-7 1 9 7973.49 473.588 20
-7 1 9 6564.35 458.087 18
-7 1 9 6889.92 441.839 16
-7 1 8 5660.07 453.083 21
-7 1 8 6286.87 450.805 6
-7 1 8 6309.75 446.864 20
-7 1 8 5767.44 473.769 18
-7 1 8 5696.96 430.664 16
-7 1 7 218.88 119.25 21
-7 1 7 506.928 140.92 20
-7 1 7 360.118 131.283 6
-7 1 7 418.965 157.134 18
-7 1 7 460.856 151.781 16
-7 1 6 26004.8 919.53 23
-7 1 6 25041.6 892.556 12
-7 1 6 25669.1 1058.75 21
-7 1 6 26734.4 1021.41 6
-7 1 6 25443.4 974.681 20
-7 1 6 25575.3 1113.24 18
-7 1 6 26092.8 1027.75 16
-7 1 5 10508 575.405 23
-7 1 5 9751.13 547.134 12
-7 1 5 11146 628.904 6
-7 1 5 10525.4 580.529 20
-7 1 5 10552.5 687.546 18
-7 1 5 11163.1 646.688 16
-7 1 5 10333.4 1037.81 2
7 1 -5 9398.32 1005.81 29
-7 1 4 5930.32 432.805 23
-7 1 4 6067.26 427.423 12
-7 1 4 6185.08 452.793 6
-7 1 4 5346.73 397.109 20
-7 1 4 6465.53 523.669 18
-7 1 4 6458.64 809.528 2
-7 1 4 6093.88 470.128 16
7 1 -4 6269.22 789.532 29
7 1 -4 6191.41 637.231 28
-7 1 3 18948.7 786.786 12
-7 1 3 18357.7 794.079 6
-7 1 3 17955.7 774.69 11
-7 1 3 19350.5 1359.84 2
-7 1 3 19631 911.922 18
7 1 -3 18641.9 1326.82 29
7 1 -3 18534.8 1151.66 28
-7 1 2 2396.94 262.128 24
-7 1 2 2805.11 296.254 12
-7 1 2 2923.07 296.89 6
-7 1 2 2873.62 306.49 11
-7 1 2 3309.28 549.728 2
7 1 -2 1528.28 363.248 29
7 1 -2 2613.53 433.73 28
-7 1 1 2076.16 255.171 24
-7 1 1 2625.63 296.452 12
-7 1 1 2703.11 303.224 11
-7 1 1 2496.27 478.768 2
7 1 -1 2107.37 403.902 29
7 1 -1 1973.02 371.828 28
-7 1 0 38958 1238.96 24
-7 1 0 40969.4 1291.19 12
-7 1 0 36942.4 1881 2
-7 1 0 41381.7 1301.76 11
-7 1 0 36910 1132.98 19
7 1 0 39268.4 1746.77 28
-7 1 -1 67687.1 1781.8 24
-7 1 -1 67188.5 1816.36 12
-7 1 -1 69570.9 2632.06 2
-7 1 -1 67228.7 1786.31 11
-7 1 -1 64145.4 1658.65 19
7 1 1 63435.4 1717.99 33
7 1 1 64784.6 2387.9 28
-7 1 -2 10583.5 624.3 24
-7 1 -2 9367.04 536.107 23
-7 1 -2 9735.68 951.906 2
7 1 2 10741.8 593.056 22
-7 1 -2 11226.2 639.592 11
-7 1 -2 10340.1 592.331 19
7 1 2 11322.8 633.333 33
7 1 2 10537.7 938.153 28
-7 1 -3 46498.6 1412.05 24
7 1 3 42773.7 1354.96 33
7 1 3 42042.5 1331.26 22
-7 1 -3 42625.1 1349.15 11
-7 1 -3 47914.5 1413.47 19
-7 1 -4 2640.14 301.887 24
7 1 4 2354.94 288.849 33
7 1 4 2293.62 285.051 22
-7 1 -4 2583.35 291.839 11
-7 1 -4 2454.55 296.45 19
-7 1 -5 1259.77 197.102 24
7 1 5 1226.95 210.232 22
-7 1 -5 1151.99 197.614 19
7 1 5 1140.84 187.255 33
7 1 5 1275.24 194.612 9
-7 1 -6 2415.73 245.045 24
7 1 6 2706.57 288.278 22
-7 1 -6 2700.66 281.774 19
7 1 6 2638.94 260.817 9
7 1 7 14521.9 614.137 22
-7 1 -7 15351.7 608.768 19
7 1 7 13446.6 551.172 9
7 1 8 3862.95 258.655 22
-7 1 -8 4220.65 249.639 19
-7 2 11 2156.86 173.64 20
-7 2 10 8849.2 436.149 6
-7 2 10 9411.77 454.126 20
-7 2 10 9182.76 451.863 16
-7 2 9 19470.7 805.794 21
-7 2 9 19504.4 758.528 6
-7 2 9 19560.6 764.711 20
-7 2 9 16727.2 716.974 18
-7 2 9 19813.9 773.91 16
-7 2 8 4661.02 418.381 21
-7 2 8 4963.5 399.883 6
-7 2 8 6173.88 440.107 20
-7 2 8 5546.79 446.852 18
-7 2 8 5703.3 436 16
-7 2 7 15280 658.769 12
-7 2 7 15826.9 804.258 21
-7 2 7 16336.9 766.59 6
-7 2 7 15583.6 744.035 20
-7 2 7 15579 820.471 18
-7 2 7 15836.3 776.832 16
-7 2 6 2187.09 244.746 23
-7 2 6 2692.49 280.456 12
-7 2 6 2235.49 304.607 21
-7 2 6 2289.09 284.995 6
-7 2 6 2479.15 290.087 20
-7 2 6 2675.13 338.168 18
-7 2 6 2650.49 317.591 16
-7 2 5 1889.32 244.906 23
-7 2 5 1816.99 240.766 12
-7 2 5 1729.55 254.134 6
-7 2 5 1885.36 247.59 20
-7 2 5 2206.92 313.841 18
-7 2 5 2347.16 487.48 2
-7 2 5 2004.86 278.107 16
7 2 -5 2194.69 495.207 29
-7 2 4 14998.9 704.818 12
-7 2 4 15427.8 747.814 6
-7 2 4 13673.1 667.257 20
-7 2 4 14861.4 816.079 18
-7 2 4 13900.8 1164.98 2
-7 2 4 13990.2 726.538 16
7 2 -4 15505.1 1287 29
7 2 -4 14068 985.368 28
7 2 -3 3123.77 316.177 33
-7 2 3 3074.98 312.529 12
-7 2 3 3028.77 319.458 6
-7 2 3 2175.79 265.12 11
-7 2 3 2819.86 354.282 18
7 2 -3 2092.53 442.14 29
7 2 -3 3104.23 443.384 28
-7 2 2 1227.2 186.735 24
-7 2 2 1339.2 210.512 12
-7 2 2 1474.02 225.237 6
-7 2 2 602.87 235.898 2
-7 2 2 1311.49 208.545 11
7 2 -2 1514.19 348.269 29
7 2 -2 1281.7 283.701 28
-7 2 1 1162.7 195.713 24
-7 2 1 1295.46 208.087 12
-7 2 1 1228.68 214.24 11
-7 2 1 1212.28 190.555 6
-7 2 1 1770.68 382.022 2
7 2 -1 1485.91 231.04 33
7 2 -1 1472.48 331.252 29
7 2 -1 1580.73 330.667 28
-7 2 0 712.411 163.402 24
-7 2 0 1137.51 208.136 12
-7 2 0 717.833 264.544 2
-7 2 0 1000.31 198.155 11
7 2 0 815.309 179.647 33
7 2 0 658.255 244.906 28
-7 2 -1 3135.47 337.755 24
-7 2 -1 2427.38 311.302 12
7 2 1 3096.06 330.325 33
-7 2 -1 3442.54 553.639 2
-7 2 -1 3001.79 337.681 11
-7 2 -1 2684.91 284.902 19
7 2 1 2717.08 477.038 28
-7 2 -2 96237.1 2265.74 24
-7 2 -2 83579.9 2184.65 12
-7 2 -2 91547.2 3118.91 2
7 2 2 88350.8 2155 33
-7 2 -2 90446.2 2207.32 11
-7 2 -2 89946.7 2131.03 19
7 2 2 90028.1 2979.52 28
-7 2 -3 102360 2431.68 24
7 2 3 102391 2377.83 33
7 2 3 99883.9 2327.58 22
-7 2 -3 102204 2384.7 11
-7 2 -3 107972 2439.15 19
-7 2 -4 11220 641.409 24
7 2 4 10547.1 613.562 22
-7 2 -4 12187.8 644.074 11
-7 2 -4 10706.5 635.317 19
7 2 4 11938.2 654.49 33
-7 2 -5 12101 629.691 24
7 2 5 12057.2 643.562 22
-7 2 -5 10717.3 567.999 11
-7 2 -5 12089 655.327 19
7 2 5 10894.2 589.48 33
7 2 5 12007.4 588.28 9
-7 2 -6 3645.4 306.657 24
7 2 6 3380.47 321.207 22
-7 2 -6 3423.36 318.706 19
7 2 6 3175.85 283.797 9
7 2 7 13403.5 581.5 22
7 2 7 11438.4 528.423 21
-7 2 -7 13772.8 578.541 19
7 2 7 12025.3 511.757 9
7 2 8 1069.18 136.272 22
-7 2 -8 1408.96 142.361 19
-7 3 10 16729.6 601.116 6
-7 3 10 17378.4 646.208 16
-7 3 9 23781.1 895.99 21
-7 3 9 24809.8 859.093 6
-7 3 9 25511.1 876.319 20
-7 3 9 24743.9 890.494 16
-7 3 8 13232.3 580.012 12
-7 3 8 14257.6 720.626 21
-7 3 8 13796.9 669.943 6
-7 3 8 14151 680.732 20
-7 3 8 13243.5 659.036 18
-7 3 8 14455.9 706.364 16
-7 3 7 14198.2 654.329 12
-7 3 7 15135.2 778.895 21
-7 3 7 14888.1 733.904 6
-7 3 7 15354 740.071 20
-7 3 7 15550.3 775.637 18
-7 3 7 15559.6 768.098 16
-7 3 6 3945.84 329.86 23
-7 3 6 4059.31 358.931 12
-7 3 6 3985.93 397.272 21
-7 3 6 4248.96 396.612 6
-7 3 6 4142.56 379.846 20
-7 3 6 3948.74 399.42 18
-7 3 6 3752.27 380.488 16
-7 3 5 33873.7 1140.67 12
-7 3 5 35774.2 1220.67 6
-7 3 5 33122.2 1145.6 20
-7 3 5 33817.7 1276.1 18
-7 3 5 33354.3 1193.91 16
-7 3 4 18030.2 801.399 12
-7 3 4 17697.6 829.052 6
-7 3 4 17182.2 774.121 20
-7 3 4 15807.6 1220.87 2
-7 3 4 17035.2 885.804 18
-7 3 4 17751.4 819.372 16
7 3 -4 16573.6 1349.89 29
-7 3 3 44737.7 1318.69 12
-7 3 3 37292.5 1194.4 20
-7 3 3 40028.6 1252.06 11
-7 3 3 41354.8 1329.81 6
-7 3 3 44111.1 2041.35 2
-7 3 3 40271.6 1420.72 18
7 3 -3 39896.3 1245.67 33
7 3 -3 39272.7 2002.94 29
7 3 -3 40958.4 1730.08 28
-7 3 2 3922.93 340.645 24
-7 3 2 4857.64 404.427 12
-7 3 2 4304.5 380.408 11
-7 3 2 4530 398.048 6
-7 3 2 4034.86 605.432 2
7 3 -2 4488.98 388.266 33
7 3 -2 4575.11 628.768 29
7 3 -2 4279.34 538.878 28
-7 3 1 35193.9 1168.87 24
-7 3 1 39047.2 1251.5 12
-7 3 1 40572.2 1908.58 2
-7 3 1 38234.1 1268.85 11
-7 3 1 35518.8 1188.06 6
7 3 -1 37515.8 1224.11 33
7 3 -1 33632.7 1680.11 29
7 3 -1 35411.1 1638.96 28
-7 3 0 39903.1 1300.54 24
-7 3 0 39299.1 1303.55 12
-7 3 0 42355.4 1974.48 2
-7 3 0 42546.8 1361.65 11
7 3 0 37912.3 1260.88 33
7 3 0 38982.9 1761.09 28
-7 3 -1 87163.9 2130.28 24
-7 3 -1 81131.6 2075.67 12
-7 3 -1 84189.7 2908.91 2
-7 3 -1 85065.4 2126.28 11
-7 3 -1 77255 1921.8 19
7 3 1 82648.7 2039.19 33
7 3 1 77336.7 2695.37 28
-7 3 -2 9633.15 619.48 24
-7 3 -2 9046.64 597.374 12
-7 3 -2 9777.03 621.439 11
-7 3 -2 9087.27 569.298 19
7 3 2 8953.9 573.116 33
-7 3 -3 18519.5 878.566 24
7 3 3 18578.3 820.549 22
-7 3 -3 17878.9 839.106 11
-7 3 -3 17801.7 842.831 19
7 3 3 18496.5 838.981 33
-7 3 -4 1874.32 269.837 24
7 3 4 1886.4 266.659 22
-7 3 -4 2044.77 263.88 11
-7 3 -4 1998.66 270.444 19
7 3 4 1811.78 260.62 33
-7 3 -5 2569.53 288.842 24
7 3 5 3117.85 318.795 22
-7 3 -5 2775.55 278.472 11
-7 3 -5 2839.21 315.326 19
7 3 5 2541.82 283.403 33
-7 3 -6 67.1861 59.0191 24
7 3 6 102.002 83.4893 22
-7 3 -6 71.33 68.1932 19
7 3 6 -115.842 72.631 9
7 3 7 3953.97 300.348 22
7 3 7 3655.11 292.726 21
-7 3 -7 4155.18 306.335 19
-7 3 -8 157.926 55.4005 19
-7 4 10 963.996 129.37 6
-7 4 10 1280.04 157.095 20
-7 4 10 1147.97 158.208 16
-7 4 9 10436.6 446.857 12
-7 4 9 12015.5 585.037 21
-7 4 9 12226.1 562.351 6
-7 4 9 12986.1 586.86 20
-7 4 9 11962 585.404 16
-7 4 8 11595.6 549.129 12
-7 4 8 11837.7 637.803 21
-7 4 8 11170.7 592.77 6
-7 4 8 11922.3 617.657 20
-7 4 8 12584.2 652.916 16
-7 4 7 12130.8 612.619 12
-7 4 7 12477.6 681.86 21
-7 4 7 12288.2 658.859 6
-7 4 7 12135.7 650.387 20
-7 4 7 12237.5 630.782 18
-7 4 7 12269.2 674.418 16
-7 4 6 11301.4 617.645 12
-7 4 6 10046.7 620.977 21
-7 4 6 11652.6 659.826 6
-7 4 6 11507.5 647.577 20
-7 4 6 10294.8 619.453 18
-7 4 6 11081 649.466 16
-7 4 5 44807.5 1368.93 12
-7 4 5 47633.1 1460.2 6
-7 4 5 43065 1362.01 20
-7 4 5 42998.2 1418.82 18
-7 4 5 43258.7 1388.16 16
-7 4 4 8681.63 550.003 12
-7 4 4 8399.23 542.418 20
-7 4 4 8556.88 580.855 6
-7 4 4 8748.18 598.987 18
-7 4 4 7471.61 794.407 2
-7 4 4 8048.5 539.633 16
7 4 -4 8393.52 961.686 29
-7 4 3 773.941 184.795 12
-7 4 3 468.103 135.239 20
-7 4 3 755.405 182.37 6
-7 4 3 636.358 142.687 11
-7 4 3 1229.29 310.151 2
-7 4 3 530.556 163.66 18
7 4 -3 833.769 304.799 29
7 4 -2 14497.4 716.327 33
-7 4 2 14384.2 724.661 12
-7 4 2 14024 724.646 11
-7 4 2 14885.5 761.193 6
-7 4 2 16482.7 1156.27 2
7 4 -2 14285.2 1141.23 29
7 4 -2 13631.2 979.495 28
-7 4 1 57361.1 1606.53 24
-7 4 1 64111.2 1711.09 12
-7 4 1 60350 1703.67 11
-7 4 1 60911.7 2333.92 2
-7 4 1 56243.1 1629.78 6
7 4 -1 59930.5 1646.21 33
7 4 -1 53905.7 2243.23 29
7 4 -1 54198 2122.65 28
-7 4 0 19277 870.657 24
-7 4 0 20162.7 889.403 12
7 4 0 19767.1 866.198 33
-7 4 0 17852.8 1219.29 2
-7 4 0 21388.9 947.822 11
-7 4 0 17295.2 808.83 6
7 4 0 16992.4 1160.88 28
-7 4 -1 66894.8 1820.09 24
-7 4 -1 59227 1718.38 12
-7 4 -1 61034.7 2364.5 2
-7 4 -1 63909.5 1810.68 11
-7 4 -1 59478.2 1603.16 19
7 4 1 61535.5 1704.51 33
7 4 1 58007.4 2293.73 28
-7 4 -2 7945.73 574.711 24
7 4 2 7256.27 516.453 33
-7 4 -2 6464.89 500.754 12
-7 4 -2 7591.63 563.146 11
-7 4 -2 6671.99 491.985 19
-7 4 -3 26004.2 1061.62 24
7 4 3 25021.8 966.493 22
-7 4 -3 23226 992.81 11
-7 4 -3 24298.8 999.943 19
7 4 3 24647.5 991.966 33
-7 4 -4 11621.7 670.179 24
7 4 4 11260.5 629.744 22
-7 4 -4 10828.3 627.022 11
-7 4 -4 11962.2 672.272 19
7 4 4 12136.4 808.176 33
-7 4 -5 2543.22 293.018 24
7 4 5 2838.88 302.482 22
-7 4 -5 2525.02 267.006 11
-7 4 -5 2600.74 294.078 19
7 4 5 2569.37 282.696 33
-7 4 -6 4577.34 344.262 24
7 4 6 5036.07 370.753 22
-7 4 -6 5241.65 389.237 19
-7 4 -7 2596.21 199.312 24
7 4 7 3393.91 278.775 21
-7 4 -7 3278.91 266.797 19
7 4 7 2512.04 210.286 16
-7 4 -8 12263.1 417.215 19
-7 5 10 1761.74 174.144 20
-7 5 10 1771.93 183.048 16
-7 5 9 99.8808 57.1192 12
-7 5 9 68.943 68.3059 20
-7 5 9 62.3323 60.1108 6
-7 5 9 147.16 75.0723 16
-7 5 8 22096.1 799.898 12
-7 5 8 22830.7 861.129 6
-7 5 8 23482.3 882.581 20
-7 5 8 22442.6 878.234 16
-7 5 7 14047.3 672.705 12
-7 5 7 13739.3 694.913 6
-7 5 7 13723.7 692.018 20
-7 5 7 13198.5 694.79 16
-7 5 6 1932.16 259.26 12
-7 5 6 1764.39 262.98 6
-7 5 6 2068.36 276.432 20
-7 5 6 2034.17 273.207 16
-7 5 5 60415 1653.85 12
-7 5 5 59021 1710.76 6
-7 5 5 57206.2 1644.64 20
-7 5 5 56184.3 1576.68 18
-7 5 5 56828.5 1620.89 16
-7 5 4 7348.74 517.909 12
-7 5 4 7042.85 509.905 20
-7 5 4 7497.57 555.343 6
-7 5 4 6477.82 490.371 18
-7 5 4 6560.94 481.184 16
-7 5 3 11611.4 656.968 12
-7 5 3 11384.1 650.185 20
-7 5 3 11804.8 639.951 11
-7 5 3 12272.7 722.118 6
-7 5 3 11280.1 672.098 18
7 5 -3 11102 1059.36 29
-7 5 2 2360.32 298.118 12
-7 5 2 2264.97 282.599 20
-7 5 2 2462.48 302.067 11
-7 5 2 2191.65 304.594 6
-7 5 2 808.566 294.921 2
7 5 -2 2304.85 282.829 33
7 5 -2 1218.69 338.968 29
7 5 -2 1921.22 367.25 28
-7 5 1 21258.6 897.87 24
-7 5 1 21138.1 921.546 12
-7 5 1 22225.9 961.846 11
-7 5 1 21172.9 1293.17 2
-7 5 1 21413.2 948.511 6
7 5 -1 21929.3 922.121 33
-7 5 0 39470.2 1314.67 24
-7 5 0 37863.7 1285.23 12
-7 5 0 32919.6 1663.79 2
-7 5 0 41915.8 1393.14 11
7 5 0 39084.5 1282.3 33
7 5 0 34349.2 1680.04 28
-7 5 -1 6464.35 517.151 24
-7 5 -1 5824.67 470.664 12
-7 5 -1 6064.14 511.206 11
7 5 1 6686.06 494.589 33
-7 5 -2 15298.6 816.915 24
-7 5 -2 14341.4 783.545 11
-7 5 -2 13783.6 715.348 19
7 5 2 14590.4 751.348 33
-7 5 -3 4761.43 450.619 24
7 5 3 6225.36 462.321 22
-7 5 -3 4978.66 443.861 11
-7 5 -3 5343.1 447.772 19
7 5 3 5731.31 462.719 33
-7 5 -4 43407.5 1416.97 24
7 5 4 43881.9 1335.5 22
-7 5 -4 44128.3 1367.42 11
-7 5 -4 41964.4 1368.86 19
7 5 4 43280.3 1341.83 33
-7 5 -5 3998.33 360.662 24
7 5 5 3938.75 346.794 22
-7 5 -5 3189.83 302.777 11
-7 5 -5 4017.27 366.032 19
-7 5 -6 2877.77 267.511 24
-7 5 -6 2928.76 286.264 19
-7 5 -7 538.061 87.8823 24
7 5 7 884.925 144.683 21
-7 5 -7 866.11 132.579 19
7 5 7 613.399 108.351 16
-7 6 10 4635.15 267.179 20
-7 6 10 5967.67 297.708 16
-7 6 9 9089.36 416.335 12
-7 6 9 9495.21 442.217 6
-7 6 9 10293.3 494.278 20
-7 6 9 9529.33 471.825 16
-7 6 8 2210.05 239.309 12
-7 6 8 2178.46 249.304 6
-7 6 8 2509.41 272.088 20
-7 6 8 2278.2 254.333 16
-7 6 7 40.609 88.3402 12
-7 6 7 191.292 80.375 20
-7 6 7 187.348 104.842 6
-7 6 7 140.48 79.3513 16
-7 6 6 10113 597.436 12
-7 6 6 9256.66 593.36 6
-7 6 6 10325.5 615.168 20
-7 6 6 9930.32 583.97 16
-7 6 5 13609.8 716.8 12
-7 6 5 13156.7 719.95 20
-7 6 5 13468.9 750.507 6
-7 6 5 12877.9 670.19 16
-7 6 4 19436.4 873.225 12
-7 6 4 18412.4 883.118 20
-7 6 4 20217.5 960.528 6
-7 6 4 19490.1 820.341 16
-7 6 3 10434.5 627.136 12
-7 6 3 10797.9 646.711 20
-7 6 3 10088.5 602.398 11
-7 6 3 11031.7 698.92 6
-7 6 2 1130 214.722 12
-7 6 2 1264.45 217.804 20
-7 6 2 1435.9 252.438 6
-7 6 2 800.419 185.315 11
7 6 -2 1360.08 217.767 33
-7 6 1 18099.7 840.93 24
-7 6 1 18160.6 847.644 12
-7 6 1 19986.3 929.039 11
7 6 -1 19713.3 878.172 33
-7 6 0 673.403 173.482 24
-7 6 0 921.213 195.934 12
-7 6 0 942.384 208.381 11
7 6 0 701.521 170.361 33
-7 6 -1 12909.8 740.561 24
-7 6 -1 11159.9 635.952 12
-7 6 -1 12235.8 740.853 11
7 6 1 11887.2 675.774 33
-7 6 -2 19653.3 951.676 24
-7 6 -2 16234.8 769.693 12
-7 6 -2 20928.6 959.019 11
-7 6 -2 17917.3 824.002 19
7 6 2 18822.2 864.177 33
-7 6 -3 21943.8 986.24 24
-7 6 -3 20698.9 938.76 11
-7 6 -3 19810.2 884.34 19
7 6 3 22314.7 927.656 33
-7 6 -4 11622.5 671.815 24
-7 6 -4 10966.1 625.046 11
-7 6 -4 11080.2 630.298 19
-7 6 -5 5716.61 437.381 24
-7 6 -5 5245.89 379.106 11
-7 6 -5 5137.16 402.72 19
-7 6 -6 1007.12 156.744 24
-7 6 -6 852.351 151.714 19
7 6 7 6587.07 342.973 21
-7 6 -7 6076.66 325.003 19
7 6 7 6022.67 315.034 16
-7 7 9 3340.86 236.982 12
-7 7 9 3929.77 281.56 20
-7 7 9 3981.88 264.012 16
-7 7 8 3160.58 280.977 12
-7 7 8 3114.61 281.081 6
-7 7 8 3346.21 303.463 20
-7 7 8 2989.19 268.095 16
-7 7 7 1494.8 219.466 12
-7 7 7 1223.73 202.16 20
-7 7 7 1000.76 187.845 6
-7 7 7 1200.36 187.026 16
-7 7 6 1932.28 259.085 12
-7 7 6 1888.88 270.36 6
-7 7 6 2122.15 279.56 20
-7 7 6 2273 261.347 16
-7 7 5 45119.2 1407.29 12
-7 7 5 46597.8 1471.69 20
-7 7 5 44792.9 1481.88 6
-7 7 5 46030.7 1305.5 16
-7 7 4 926.759 186.198 12
-7 7 4 537.715 156.198 20
-7 7 4 703.62 182.953 6
-7 7 3 9582.6 597.943 12
-7 7 3 8712.92 607.353 20
-7 7 3 9048.83 575.325 11
-7 7 3 9599.65 677.358 6
-7 7 2 2502.76 305.636 12
-7 7 2 1954.04 279.912 20
-7 7 2 2470.1 316.398 11
7 7 -2 2040.48 264.65 33
-7 7 1 3335.65 355.669 24
-7 7 1 3843.59 371.933 12
-7 7 1 3618.97 368.683 20
-7 7 1 3262.34 381.148 11
7 7 -1 3414.23 354.074 33
-7 7 0 753.166 187.408 24
-7 7 0 619.37 153.731 12
-7 7 0 671.972 177.664 11
7 7 0 468.481 151.203 33
-7 7 -1 21683.9 1000.79 24
-7 7 -1 20096.5 853.316 12
-7 7 -1 21054 991.287 11
7 7 1 19356.8 885.004 33
-7 7 -2 6983.86 552.499 24
-7 7 -2 6011.53 508.537 11
-7 7 -2 5235.11 418.305 19
7 7 2 6121.39 478.528 33
-7 7 -3 3159.25 364.251 24
-7 7 -3 2892.67 339.436 11
-7 7 -3 3094.72 329.382 19
-7 7 -4 14665 744.641 24
-7 7 -4 13833.6 698.409 11
-7 7 -4 12080.9 644.489 19
-7 7 -5 3164.98 308.602 24
-7 7 -5 2809.36 267.301 11
-7 7 -5 2297.53 259.222 19
-7 7 -6 1610.71 181.556 24
7 7 6 1580.28 190.555 21
-7 7 -6 1560.63 184.405 19
7 7 7 582.193 89.7971 21
-7 7 -7 601.389 90.2543 19
-7 8 9 8730.46 362.883 12
-7 8 9 9385.13 402.083 20
-7 8 8 19653.7 693.72 12
-7 8 8 17860.1 638.441 6
-7 8 8 19428.8 726.77 20
-7 8 8 18516.8 616.856 16
-7 8 7 17498.9 719.761 12
-7 8 7 17083 733.635 6
-7 8 7 17381.1 755.506 20
-7 8 7 16106.6 623.262 16
-7 8 6 3282.89 322.936 12
-7 8 6 3045.77 332.536 6
-7 8 6 3222.33 345.424 20
-7 8 6 3355.99 281.112 16
-7 8 5 5141.65 416.206 12
-7 8 5 5319.31 460.032 20
-7 8 5 5564.63 477.975 6
-7 8 4 6472.6 477.586 12
-7 8 4 6374.16 514.394 20
-7 8 4 5876.67 514.729 6
-7 8 3 469.326 142.85 12
-7 8 3 665.236 180.555 20
-7 8 3 409.356 154.874 6
-7 8 3 300.076 105.032 11
-7 8 2 48.4982 83.6648 12
-7 8 2 -10.0081 70.0784 20
-7 8 2 195.155 87.1999 11
-7 8 1 75064.7 1957.76 24
-7 8 1 80696.9 1943.88 12
-7 8 1 80171 2113.95 11
7 8 -1 76883.1 1956.42 33
-7 8 0 1843.17 277.839 24
-7 8 0 1693.21 235.687 12
-7 8 0 1653.47 276.598 11
7 8 0 1777.66 260.733 33
-7 8 -1 12838.5 746.842 24
-7 8 -1 13017.6 630.444 12
-7 8 -1 12786.3 763.421 11
-7 8 -2 2240.23 320.311 24
-7 8 -2 1981.17 290.371 11
-7 8 -3 1919.74 282.675 24
-7 8 -3 2085.34 287.258 11
-7 8 -3 1431.93 217.159 19
-7 8 -4 122.024 82.5221 24
-7 8 -4 69.2934 78.6062 19
-7 8 -4 79.7012 74.2433 11
-7 8 -5 5148.37 374.033 24
-7 8 -5 4653.68 321.976 11
-7 8 -5 4313.3 320.139 19
-7 8 -6 1379.79 155.853 24
7 8 6 1622.38 166.996 21
-7 8 -6 1272.84 147.274 19
7 8 6 1615.64 214.763 16
-7 9 8 9631.33 423.498 12
-7 9 8 9304.08 439.116 20
-7 9 7 2608.08 250.858 12
-7 9 7 2216.37 229.872 6
-7 9 7 2381.03 258.903 20
-7 9 6 749.375 152.268 12
-7 9 6 442.985 129.99 20
-7 9 6 503.542 142.193 6
-7 9 5 32093 1062.12 12
-7 9 5 31116.6 1154.56 20
-7 9 4 3568.36 336 12
-7 9 4 3352.52 371.607 20
-7 9 4 3614.41 398.08 6
-7 9 3 27250.1 978.164 12
-7 9 3 23625.3 1059.87 20
-7 9 3 22131.2 925.67 11
-7 9 3 26247.3 1140.66 6
-7 9 2 16120.7 726.355 12
-7 9 2 14003.1 795.116 20
-7 9 2 14922.2 778.925 11
-7 9 1 71391.5 1882.07 24
-7 9 1 67860.8 1936.83 20
-7 9 1 73979.4 2020.88 11
-7 9 0 13687 749.199 24
-7 9 0 14483.1 650.81 12
-7 9 0 13059.1 705.004 20
-7 9 0 13879.4 789.932 11
-7 9 -1 10168.6 655.322 24
-7 9 -1 10881.8 689.74 11
-7 9 -2 30353.7 1157.76 24
-7 9 -2 29740 1153.64 11
-7 9 -3 2133.48 286.951 24
-7 9 -3 2691.52 306.716 11
-7 9 -4 15215.1 674.884 11
-7 9 -4 13415.3 565.976 19
-7 9 -5 4344.58 315.767 24
7 9 5 3768.76 262.661 21
-7 9 -5 3506.98 249.221 11
-7 9 -5 3646.42 252.537 19
7 9 6 1452.86 141.315 16
-7 10 8 2424.96 179.116 12
-7 10 8 2055.08 172.811 20
-7 10 7 4839.08 301.439 12
-7 10 7 3900.46 259.538 6
-7 10 7 4217.48 306.045 20
-7 10 6 15003 610.986 12
-7 10 6 14345.3 629.128 6
-7 10 6 13609.9 643.056 20
-7 10 5 2040.22 232.318 12
-7 10 5 2271.08 276.689 6
-7 10 5 2162.97 271.485 20
-7 10 4 10597.4 546.268 12
-7 10 4 10213.8 624.569 20
-7 10 4 9685.97 618.628 6
-7 10 3 10247.6 541.737 12
-7 10 3 9458.38 622.464 20
-7 10 3 9254.2 640.021 6
-7 10 2 3927.69 323.064 12
-7 10 2 3695.68 397.878 20
-7 10 2 3480.65 355.677 11
-7 10 1 17212.8 683.189 12
-7 10 1 15821.6 804.291 20
-7 10 1 15761.7 805.876 11
-7 10 0 3471.51 347.973 24
-7 10 0 3377.07 343.415 20
-7 10 0 4029.47 405.599 11
-7 10 -1 12588.5 689.634 24
-7 10 -1 13534.3 742.142 11
-7 10 -2 10190.8 602.383 24
-7 10 -2 10907.8 632.905 11
-7 10 -3 8781.25 527.235 24
-7 10 -3 8521.9 513.152 11
-7 10 -4 2998.58 275.794 24
7 10 4 2747.03 217.904 21
-7 10 -4 2961.55 258.89 11
-7 10 -5 2128.13 191.167 24
7 10 5 2010.84 178.921 16
-7 11 7 2531.58 183.067 12
-7 11 7 2292.6 190.293 20
-7 11 6 6785.82 350.109 12
-7 11 6 6721.22 357.563 6
-7 11 6 7256.77 406.46 20
-7 11 5 525.948 108.969 12
-7 11 5 648.897 142.853 20
-7 11 5 708.282 143.24 6
-7 11 4 2626.12 239.789 12
-7 11 4 2999.7 314.808 20
-7 11 4 2956.73 313.347 6
-7 11 3 2499.76 235.087 12
-7 11 3 2407.03 291.258 20
-7 11 3 2655.01 324.126 6
-7 11 2 22174.2 734.53 12
-7 11 2 20865.9 892.824 20
-7 11 2 22999 969.975 6
-7 11 1 7926.68 518.207 20
-7 11 1 9572.36 569.742 11
-7 11 0 806.495 158.571 24
-7 11 0 829.708 160.626 20
-7 11 0 886.301 182.367 11
-7 11 -1 1317.15 199.136 24
-7 11 -1 1578.27 235.11 11
-7 11 -2 15556.5 683.078 24
-7 11 -2 16031.1 713.388 11
-7 11 -3 4478.92 332.945 24
-7 11 -3 3784.16 303.935 11
-7 11 -4 8940.25 414.398 24
-7 11 -4 8798.27 391.726 11
-7 12 6 19789.2 543.852 12
-7 12 6 18991.5 595.006 20
-7 12 5 942.474 119.145 12
-7 12 5 1117.61 144.771 6
-7 12 5 1012.64 145.204 20
-7 12 4 24671.4 703.194 12
-7 12 4 23912.9 822.856 20
-7 12 4 25939.6 846.082 6
-7 12 3 5667.01 304.685 12
-7 12 3 5208.97 374.268 20
-7 12 2 35724.1 1096.51 20
-7 12 2 35576.1 1001.45 11
-7 12 2 38894.9 1188.38 6
-7 12 1 791.324 146.007 20
-7 12 1 777.447 168.151 6
-7 12 1 763.934 146.888 11
-7 12 0 390.375 92.5807 24
-7 12 0 445.534 97.5834 20
-7 12 0 554.216 137.917 11
-7 12 -1 1184.97 160.971 24
-7 12 -1 1416.08 193.964 11
-7 12 -2 3124.84 249.1 24
-7 12 -2 3197.53 268.493 11
-7 12 -3 3587.33 241.163 24
-7 12 -3 3280.81 237.14 11
-7 13 5 200.402 59.2295 20
-7 13 4 422.449 93.1708 20
-7 13 4 486.839 92.7256 6
-7 13 3 8403.47 406.449 20
-7 13 3 8809.55 423.943 6
-7 13 2 4333.22 294.201 20
-7 13 2 4543.92 315.44 6
-7 13 1 3829.69 265.595 20
-7 13 1 4297.27 269.373 11
-7 13 1 3517.47 286.15 6
-7 13 0 3662.29 235.299 20
-7 13 0 4051.43 287.98 6
-7 13 -1 237.356 75.0884 6
-7 13 -1 589.829 106.341 11
-7 13 -2 3381.36 222.404 11
-7 14 2 6092.94 286.657 6
-7 14 1 2749.57 189.179 6
-8 -12 4 1191.12 114.406 10
-8 -12 3 11512.4 416.493 25
-8 -12 3 13777.3 447.966 10
-8 -12 2 4573.85 259.99 25
-8 -12 2 5559.85 275.561 10
-8 -12 1 2167.42 175.415 25
-8 -12 1 2733.37 189.834 10
-8 -12 0 15173.1 475.693 19
-8 -12 0 15870.3 477.616 10
-8 -12 -1 8102.34 304.595 19
-8 -11 5 453.235 76.1918 25
-8 -11 5 466.23 86.1831 10
-8 -11 4 687.358 107.032 25
-8 -11 4 983.949 130.677 10
-8 -11 3 148.283 62.7065 25
-8 -11 3 133.464 65.2924 10
-8 -11 2 7380.47 383.749 25
-8 -11 2 7984.77 378.587 19
-8 -11 2 7793.22 393.01 10
-8 -11 2 7370.93 389.444 14
-8 -11 1 11118.1 461.901 19
-8 -11 1 10890 464.452 10
-8 -11 1 10547.6 476.655 14
-8 -11 0 3692.92 253.831 19
-8 -11 0 3950.43 265.06 10
-8 -11 0 3386.35 251.965 14
-8 -11 -1 3493.58 233.651 19
-8 -11 -1 3727.91 243.42 10
-8 -11 -1 3159.6 223.757 14
-8 -11 -2 4160.99 232.485 19
-8 -11 -2 4547.59 243.846 10
-8 -10 6 1341.04 145.631 10
-8 -10 5 423.388 87.22 25
-8 -10 5 317.091 86.4683 10
-8 -10 4 3543.42 264.003 25
-8 -10 4 3521.38 279.771 17
-8 -10 4 4105.23 296.055 10
-8 -10 3 242.096 87.4225 25
-8 -10 3 206.474 86.7331 17
-8 -10 3 192.054 97.3613 10
-8 -10 3 93.1983 66.9114 14
-8 -10 2 7584.94 408.213 19
-8 -10 2 7223.81 424.899 17
-8 -10 2 8136.25 442.405 10
-8 -10 2 7647.61 441.759 14
-8 -10 1 2826.16 250.344 19
-8 -10 1 2392.35 236.886 17
-8 -10 1 2928.87 265.597 10
-8 -10 1 2842.85 268.135 14
-8 -10 0 4090.47 298.319 19
-8 -10 0 3095.12 252.745 17
-8 -10 0 3864.76 302.731 10
-8 -10 0 3896.01 305.904 14
-8 -10 -1 6750.52 372.576 19
-8 -10 -1 6499.92 373.052 14
-8 -10 -2 3249.7 238.511 19
-8 -10 -2 2975.17 220.311 14
-8 -10 -3 13080 446.099 19
-8 -9 7 500.146 89.2544 10
-8 -9 6 45.4671 44.9578 25
-8 -9 6 191.197 76.6065 10
-8 -9 5 11320.2 521.007 17
-8 -9 5 12462.6 544.353 10
-8 -9 4 10664.2 509.514 25
-8 -9 4 12068.8 574.212 17
-8 -9 4 11806.6 564.824 10
-8 -9 4 10696.8 512.886 14
-8 -9 3 2224.4 227.018 19
-8 -9 3 2374.34 260.224 17
-8 -9 3 2656.61 266.108 10
-8 -9 3 2111.1 243.999 14
-8 -9 2 2677.99 258.695 19
-8 -9 2 2493.28 270.015 17
-8 -9 2 2955.85 285.75 10
-8 -9 2 2799.92 286.341 14
-8 -9 1 23423.7 830.341 19
-8 -9 1 25066.9 883.023 17
-8 -9 1 24391.7 885.681 10
-8 -9 1 25049.9 909.837 14
-8 -9 0 135.278 79.2164 19
-8 -9 0 57.4363 58.8312 17
-8 -9 0 131.728 91.1849 14
-8 -9 -1 823.966 147.917 19
-8 -9 -1 704.701 123.451 17
-8 -9 -1 752.935 151.552 14
-8 -9 -2 7420.99 403.674 19
-8 -9 -2 6546 378.49 14
-8 -9 -3 5786.91 323.59 19
-8 -9 -3 5178.48 281.546 14
-8 -9 -4 4833.4 249.698 19
8 -9 4 4177.78 253.962 26
-8 -8 8 812.68 105.656 10
-8 -8 7 20069.1 596.586 18
-8 -8 7 23311.7 708.242 10
-8 -8 6 1733.05 181.051 25
-8 -8 6 2154.5 191.886 18
-8 -8 6 2072.56 212.629 17
-8 -8 6 2222.63 228.018 10
-8 -8 5 3816.97 294.735 25
-8 -8 5 4287.15 335.481 17
-8 -8 5 4872.27 356.735 10
-8 -8 5 3884.73 288.926 14
-8 -8 4 5852.73 391.437 25
-8 -8 4 5465.9 347.186 19
-8 -8 4 6581.51 441.991 17
-8 -8 4 6794.5 440.596 10
-8 -8 4 6416.69 417.914 14
-8 -8 3 963.464 161.728 19
-8 -8 3 777.302 171.225 17
-8 -8 3 1104.54 190.928 10
-8 -8 3 817.289 163.465 14
-8 -8 2 7646.45 504.695 17
-8 -8 2 7125.89 443.075 19
-8 -8 2 7353.06 477.359 10
-8 -8 2 7191.87 485.258 14
-8 -8 1 4535.42 358.35 19
-8 -8 1 4289.64 370.172 17
-8 -8 1 4846.68 405.318 14
-8 -8 0 39781.3 1183.49 19
-8 -8 0 39900.3 1192.79 17
-8 -8 0 39519.3 1256.41 14
-8 -8 -1 1329.16 200.787 19
-8 -8 -1 860.32 155.181 17
-8 -8 -1 1422.12 209.374 14
-8 -8 -2 5020.92 360.958 19
-8 -8 -2 4675.61 349.239 14
-8 -8 -3 3502.04 277.065 19
-8 -8 -3 3090.24 249.045 14
-8 -8 -4 2760.36 216.396 19
8 -8 4 2242.97 207.196 26
8 -8 5 13936.4 463.151 22
-8 -7 8 6426.67 314.474 18
-8 -7 8 6146.45 317.736 10
-8 -7 7 1306.9 160.95 18
-8 -7 7 1217.35 166.871 10
-8 -7 6 6254.82 399.43 6
-8 -7 6 7434.67 417.338 18
-8 -7 6 6858.04 410.104 17
-8 -7 6 7409.76 442.383 10
-8 -7 5 3441.97 293.889 25
-8 -7 5 3119.99 285.757 6
-8 -7 5 3449.33 294.259 18
-8 -7 5 3884.92 337.617 17
-8 -7 5 3820.69 338.271 10
-8 -7 5 3572.42 290.007 14
-8 -7 4 9464.6 530.918 25
-8 -7 4 8936.72 463.198 19
-8 -7 4 10708.4 535.169 18
-8 -7 4 10237.3 585.17 17
-8 -7 4 10454.5 574.447 10
-8 -7 4 9712.71 543.852 14
-8 -7 3 5531.11 439.679 17
-8 -7 3 5888.65 394.908 19
-8 -7 3 5673.43 383.939 18
-8 -7 3 5964.7 440.315 10
-8 -7 3 5803.57 439.983 14
-8 -7 2 7303.33 512.612 17
-8 -7 2 7654.18 472.203 19
-8 -7 2 7678.86 515.948 10
-8 -7 2 7867.42 536.516 14
-8 -7 1 3576.53 351.896 17
-8 -7 1 3534.81 331.252 19
-8 -7 1 3586.36 359.77 14
-8 -7 0 5259.74 408.826 17
-8 -7 0 5191.67 404.12 19
-8 -7 0 4639.93 410.06 14
-8 -7 -1 6278.55 444.403 19
-8 -7 -1 6142.97 419.927 17
-8 -7 -1 6752 472.631 14
-8 -7 -2 3354.62 310.621 19
-8 -7 -2 2873.58 259.339 17
-8 -7 -2 3357.99 315.832 14
-8 -7 -3 6641.16 411.509 19
-8 -7 -3 6031.7 389.934 14
-8 -7 -4 33117.4 935.179 19
8 -7 5 885.546 126.23 22
-8 -7 -5 1121.67 130.051 19
8 -7 5 842.989 110.271 26
-8 -6 9 9972.47 378.184 18
-8 -6 8 594.6 116.434 18
-8 -6 8 566.979 100.036 10
-8 -6 7 4846.64 356.561 6
-8 -6 7 5486.78 365.8 18
-8 -6 7 4737.18 342.944 10
-8 -6 6 248.595 92.8097 6
-8 -6 6 295.901 100.216 18
-8 -6 6 197.769 88.9644 17
-8 -6 6 220.351 100.373 10
-8 -6 5 7512.84 462.641 6
-8 -6 5 7628.95 494.727 17
-8 -6 5 8150.45 496.497 18
-8 -6 5 7324.11 488.076 10
-8 -6 4 366.531 105.702 25
-8 -6 4 663.909 166.909 23
-8 -6 4 706.443 151.84 18
-8 -6 4 608.866 156.415 17
-8 -6 4 427.665 137.014 10
-8 -6 4 527.33 136.773 14
-8 -6 3 34639.6 1215.66 23
-8 -6 3 34384.3 1069.99 19
-8 -6 3 35591.6 1217.93 17
-8 -6 3 35845.4 1144.38 18
-8 -6 3 36754.5 1280.19 10
-8 -6 3 36045 1208.39 14
-8 -6 2 17784.6 825.934 23
-8 -6 2 17638.2 749.827 19
-8 -6 2 18170.7 763.66 18
-8 -6 2 18159.3 832.829 17
-8 -6 2 17704.2 807.767 10
-8 -6 2 18095.7 836.747 14
-8 -6 1 36537.1 1216.91 23
-8 -6 1 35648 1156.66 19
-8 -6 1 32615.8 1064.59 18
-8 -6 1 37271.3 1226.38 17
-8 -6 1 36364.8 1245.85 14
-8 -6 0 143936 3016.38 24
-8 -6 0 138807 2953.46 23
-8 -6 0 142637 2958.61 19
-8 -6 0 146737 2987.24 17
-8 -6 0 148417 3082.03 14
-8 -6 -1 811.288 176.646 24
-8 -6 -1 984.209 187.338 19
-8 -6 -1 825.608 159.064 17
-8 -6 -1 849.326 177.379 14
-8 -6 -2 17877.3 782.209 24
-8 -6 -2 17654.6 713.956 17
-8 -6 -2 18517.4 778.19 19
-8 -6 -2 18320.4 795.392 14
-8 -6 -3 325.08 105.468 24
8 -6 3 242.236 90.6425 33
-8 -6 -3 364.787 119.142 19
-8 -6 -3 326.457 106.315 14
-8 -6 -4 2625.28 250.965 19
-8 -6 -4 2072.56 208.416 14
8 -6 5 2100.96 207.27 22
-8 -6 -5 2235.35 199.661 19
8 -6 5 1601.52 165.375 26
8 -6 6 96.1849 47.0452 22
-8 -5 9 23039 684.121 18
-8 -5 8 13764.3 594.485 6
-8 -5 8 14087 582.57 18
-8 -5 7 2750.22 282.904 6
-8 -5 7 2155.59 230.19 20
-8 -5 7 2742.45 279.435 18
-8 -5 7 2300.5 252.302 10
-8 -5 6 13349 653.13 6
-8 -5 6 13156.2 654.549 18
-8 -5 6 11999.1 592.102 17
-8 -5 6 11410.4 604.047 10
-8 -5 5 6064.69 458.707 23
-8 -5 5 6967.12 456.225 6
-8 -5 5 6708.61 473.75 18
-8 -5 5 6692.69 470.734 17
-8 -5 5 5693.74 439.628 10
-8 -5 4 1805.12 257.108 17
-8 -5 4 1714.43 250.921 23
-8 -5 4 1686.24 218.184 6
-8 -5 4 1509.67 234.416 18
-8 -5 4 1581.34 239.755 10
-8 -5 4 1891.63 249.233 14
-8 -5 3 14814 744.358 23
-8 -5 3 13701.1 628.082 19
-8 -5 3 14230.3 708.635 18
-8 -5 3 14346 739.945 17
-8 -5 3 14359.1 727.59 10
-8 -5 3 14030.1 725.5 14
-8 -5 2 1003.91 199.739 24
-8 -5 2 1072.16 206.275 23
-8 -5 2 963.569 174.793 19
-8 -5 2 970.871 187.878 18
-8 -5 2 1204.6 219.402 17
-8 -5 2 1056.31 200.327 14
-8 -5 1 3133.21 337.346 24
-8 -5 1 2906.74 321.756 23
-8 -5 1 3359.11 331.151 19
-8 -5 1 3606.61 338.159 18
-8 -5 1 3056.93 334.459 17
-8 -5 0 44022.2 1370.62 24
-8 -5 0 42294.2 1316.14 23
-8 -5 0 41981 1302.34 19
-8 -5 0 41830.6 1261.37 18
-8 -5 0 43185.3 1339.31 17
-8 -5 -1 483.736 140.939 24
-8 -5 -1 480.864 132.206 23
-8 -5 -1 528.707 140.726 19
-8 -5 -1 358.251 124.569 18
-8 -5 -1 803.475 169.115 17
-8 -5 -2 2504.4 287.295 24
-8 -5 -2 2795.23 301.949 19
-8 -5 -2 2822.72 283.577 17
-8 -5 -3 8799.17 512.467 24
-8 -5 -3 8880.93 518.127 19
-8 -5 -3 9327.03 532.954 14
-8 -5 -4 11038.6 535.181 24
-8 -5 -4 11337.7 560.072 19
-8 -5 -4 10626.4 516.779 14
8 -5 5 2684.04 247.654 22
-8 -5 -5 2597.96 234.371 19
8 -5 6 6042.22 320.449 22
-8 -5 -6 5847.05 292.727 19
-8 -4 9 1282.71 163.285 6
-8 -4 9 1355.08 163.213 20
-8 -4 9 1203.69 159.623 18
-8 -4 8 13323.3 603.294 6
-8 -4 8 13192.6 591.532 18
-8 -4 7 1403.88 215.68 6
-8 -4 7 1066.38 171.184 20
-8 -4 7 1102.18 194.582 18
-8 -4 7 1126.33 180.579 10
-8 -4 6 3769.28 341.142 23
-8 -4 6 4377.61 367.799 6
-8 -4 6 3612.05 307.18 20
-8 -4 6 4311.2 387.827 18
-8 -4 6 3675.39 325.111 17
-8 -4 6 3880.71 345.68 10
-8 -4 5 25954.1 983.753 23
-8 -4 5 27641.6 975.59 6
-8 -4 5 26020.4 1018.95 18
-8 -4 5 26574.9 997.497 17
-8 -4 5 25080.1 973.826 10
-8 -4 4 29240.5 1079.17 23
-8 -4 4 30463.1 1008.62 6
-8 -4 4 28495.5 1087.28 18
-8 -4 4 30987.2 1115.52 17
-8 -4 4 27729.9 1049.58 10
-8 -4 4 28865.9 1042.23 14
-8 -4 3 8076.8 545.56 23
-8 -4 3 8785.55 565.169 18
-8 -4 3 8577.28 564.634 17
-8 -4 3 7489.6 525.558 10
-8 -4 3 8537.57 559.741 14
-8 -4 2 1398.14 224.003 24
-8 -4 2 1558.54 245.949 23
-8 -4 2 1311.45 205.443 19
-8 -4 2 1402.42 224.071 18
-8 -4 2 1414.21 229.395 17
-8 -4 1 19510.3 860.914 24
-8 -4 1 19475.2 847.659 23
-8 -4 1 18075.2 800.966 19
-8 -4 1 19044.9 840.959 18
-8 -4 0 1850.67 258.142 24
-8 -4 0 1898.37 253.747 23
-8 -4 0 2122.23 269.59 19
-8 -4 0 1795.3 256.799 18
-8 -4 -1 7667.82 524.387 24
-8 -4 -1 7885.19 505.998 23
-8 -4 -1 7584.02 504.743 19
-8 -4 -2 5620.48 434.303 24
-8 -4 -2 5236.54 414.108 19
-8 -4 -2 5536.4 405.38 17
-8 -4 -3 6840.67 459.055 24
8 -4 3 6554.87 452.67 33
-8 -4 -3 7378.69 477.173 19
-8 -4 -4 10299.3 526.684 24
-8 -4 -4 9880.32 528.806 19
-8 -4 -4 9399.99 509.386 14
-8 -4 -5 373.89 98.9849 24
8 -4 5 320.407 90.9978 22
-8 -4 -5 544.23 115.498 19
8 -4 6 916.147 132.708 22
-8 -4 -6 826.352 119.007 19
-8 -3 10 4501.44 248.212 18
-8 -3 9 284.924 85.5799 20
-8 -3 9 508.571 121.27 6
-8 -3 9 373.979 101.024 18
-8 -3 8 6032.37 408.599 6
-8 -3 8 5094.18 353.726 20
-8 -3 8 5289.54 388.141 18
-8 -3 7 1737.57 236.441 6
-8 -3 7 1934.65 228.921 20
-8 -3 7 1775.61 249.343 18
-8 -3 6 19678.3 813.531 23
-8 -3 6 19405.9 783.421 17
-8 -3 6 20699.7 841.019 6
-8 -3 6 20119.8 769.855 20
-8 -3 6 20634.7 893.083 18
-8 -3 6 18367.9 769.429 10
-8 -3 5 29056.3 1047.28 23
-8 -3 5 29260.3 1013.84 6
-8 -3 5 28726.7 1102.14 18
-8 -3 5 29184.3 1051.05 17
-8 -3 5 26384.2 980.574 10
-8 -3 4 10907.1 625.172 23
-8 -3 4 10971.7 573.091 6
-8 -3 4 10274.3 631.851 18
-8 -3 4 10555.3 616.2 17
-8 -3 4 9528.58 575.454 10
-8 -3 4 9833.46 579.748 14
-8 -3 3 16362.3 744.318 24
-8 -3 3 15388.9 689.667 12
-8 -3 3 17125.2 801.423 23
-8 -3 3 17865.6 838.927 18
-8 -3 3 15722.2 769.012 10
-8 -3 2 4236.48 377.586 24
-8 -3 2 4246.54 388.681 23
-8 -3 2 4390.07 411.451 18
-8 -3 1 15018.2 733.505 24
-8 -3 1 14598.2 720.457 23
-8 -3 1 14151.3 682.573 19
-8 -3 1 12740.8 712.766 18
-8 -3 0 3265.16 340.876 24
-8 -3 0 3043.98 314.743 23
-8 -3 0 3033.5 312.762 19
-8 -3 -1 2052.61 274.892 24
-8 -3 -1 2448.03 278.025 23
-8 -3 -1 2054.57 266.784 19
-8 -3 -2 2465.94 287.306 24
-8 -3 -2 2684.37 279.083 23
-8 -3 -2 2253.09 278.659 19
-8 -3 -3 4336.35 367.105 24
-8 -3 -3 3939.35 353.933 19
8 -3 3 3823.54 353.129 33
-8 -3 -4 2896.79 282.352 24
8 -3 4 2452.26 272.205 22
-8 -3 -4 2583.99 273.075 19
8 -3 4 2160.23 240.603 33
-8 -3 -5 3428.4 273.527 24
8 -3 5 2937.46 275.338 22
-8 -3 -5 3290.93 284.571 19
8 -3 6 239.227 84.8575 22
-8 -3 -6 225.631 73.7647 19
-8 -2 10 2051.07 175.145 6
-8 -2 10 2032.46 173.392 20
-8 -2 10 1813.74 165.93 18
-8 -2 9 1089.96 163.864 6
-8 -2 9 966.764 144.084 20
-8 -2 9 1122.83 166.934 18
-8 -2 8 2301.97 239.087 20
-8 -2 8 2464.57 278.732 18
-8 -2 7 6552.5 451.704 6
-8 -2 7 5967.87 402.479 20
-8 -2 7 5710.39 451.689 18
-8 -2 6 2222.76 260.208 23
-8 -2 6 2333.98 277.237 6
-8 -2 6 2473.68 257.51 20
-8 -2 6 2524.44 318.038 18
-8 -2 6 2231.47 261.383 17
-8 -2 5 9957.96 576.755 23
-8 -2 5 9460.87 551.052 6
-8 -2 5 9101.14 602.346 18
-8 -2 5 9500.07 567.363 17
-8 -2 4 1936.84 236.544 12
-8 -2 4 2824.74 313.414 23
-8 -2 4 2581 278.569 6
-8 -2 4 2232.45 304.186 18
-8 -2 4 2453.01 294.678 17
-8 -2 3 18052.6 774.238 24
-8 -2 3 16140 725.331 12
-8 -2 3 18627.6 825.088 23
-8 -2 3 17081.4 715.669 6
-8 -2 3 18162.9 862.104 18
-8 -2 2 22818.8 913.436 24
-8 -2 2 21472.2 870.197 12
-8 -2 2 22843.3 934.889 23
-8 -2 2 23776.9 996.623 18
-8 -2 1 535.216 141.661 24
-8 -2 1 472.136 144.495 12
-8 -2 1 619.444 154.618 23
-8 -2 1 623.649 149.021 19
-8 -2 0 11054.2 621.513 24
-8 -2 0 10357.1 588.572 23
-8 -2 0 10664.5 592.633 19
-8 -2 -1 16902.2 776.851 24
-8 -2 -1 15259.3 704.503 23
-8 -2 -1 15284.8 725.629 19
-8 -2 -2 23798.6 939.337 24
-8 -2 -2 23963.1 880.429 23
-8 -2 -2 23986.2 923.018 19
8 -2 2 23341.8 944.719 33
-8 -2 -3 3115.04 316.43 24
8 -2 3 3389.68 325.365 22
-8 -2 -3 3448.85 330.833 19
8 -2 3 3230.69 330.654 33
-8 -2 -4 4816.89 367.688 24
8 -2 4 4134.38 352.751 22
-8 -2 -4 4809.64 379.854 19
8 -2 4 4099.93 339.984 33
-8 -2 -5 958.712 149.353 24
8 -2 5 749.342 143.839 22
-8 -2 -5 1141.67 171.497 19
8 -2 6 1092.66 156.875 22
-8 -2 -6 956.974 140.926 19
8 -2 7 13.5819 32.9103 22
-8 -2 -7 58.6249 29.9417 19
-8 -1 10 2275.32 187.856 6
-8 -1 10 2561.87 197.618 20
-8 -1 10 2204.56 186.185 18
-8 -1 9 3431.32 282.343 6
-8 -1 9 3418.66 269.517 20
-8 -1 9 3068.29 279.69 18
-8 -1 8 4022.56 335.287 6
-8 -1 8 4061.75 320.456 20
-8 -1 8 3939.47 356.883 18
-8 -1 7 18727.6 795.237 6
-8 -1 7 19630.7 767.161 20
-8 -1 7 18279.3 850 18
-8 -1 6 15107.1 688.099 23
-8 -1 6 16000 739.689 6
-8 -1 6 15757.2 684.811 20
-8 -1 6 15540.2 798.8 18
-8 -1 5 4763.13 394.003 23
-8 -1 5 4562.68 342.341 12
-8 -1 5 4176.82 370.455 6
-8 -1 5 4674.22 350.592 20
-8 -1 5 4461.47 426.536 18
-8 -1 5 4706.97 388.969 17
-8 -1 4 327.968 116.471 23
-8 -1 4 317.259 103.917 12
-8 -1 4 471.357 124.019 6
-8 -1 4 519.823 183.565 18
-8 -1 3 8569.57 512.217 24
-8 -1 3 9173.59 538.269 12
-8 -1 3 9233.76 568.331 23
-8 -1 3 8776.31 505.835 6
-8 -1 3 9424.41 624.999 18
-8 -1 2 2384.71 273.716 24
-8 -1 2 1904.22 259.663 12
-8 -1 2 2522.76 298.152 23
-8 -1 2 2179.32 306.812 18
-8 -1 1 5670.49 436.505 24
-8 -1 1 5860.83 463.391 12
-8 -1 1 5599.2 436.062 23
-8 -1 0 3063.42 322.411 24
-8 -1 0 2496.81 285.837 23
-8 -1 0 2763.85 294.307 19
-8 -1 -1 16483.3 777.833 24
-8 -1 -1 17153.7 748.88 23
-8 -1 -1 17621.2 764.992 19
-8 -1 -2 5167.36 422.572 24
-8 -1 -2 5241.71 386.872 23
-8 -1 -2 5358.85 417.394 19
8 -1 2 5285.28 431.341 33
-8 -1 -3 94.4517 79.2979 24
8 -1 3 56.3598 69.9283 22
-8 -1 -3 130.093 90.9292 19
8 -1 3 197.392 84.2429 33
-8 -1 -4 16030.6 697.684 24
8 -1 4 15518.5 703.958 22
-8 -1 -4 15594 702.799 19
8 -1 4 14776.8 675.321 33
-8 -1 -5 3853.57 300.735 24
8 -1 5 3366.41 303.824 22
-8 -1 -5 3826.47 315.762 19
-8 -1 -6 20179.1 632.978 24
8 -1 6 21799.8 727.051 22
-8 -1 -6 22584.8 724.395 19
8 -1 7 4224.08 244.937 22
-8 -1 -7 4313.05 239.929 19
-8 0 10 78.7838 47.8846 20
-8 0 10 83.7967 50.5323 6
-8 0 10 70.7817 47.732 18
-8 0 9 14404.1 593.225 6
-8 0 9 14225.6 572.03 20
-8 0 9 13142.1 589.707 18
-8 0 8 140.319 72.1868 20
-8 0 8 33.9217 57.0312 6
-8 0 8 216.315 104.393 18
-8 0 7 7451.8 485.894 6
-8 0 7 7727.46 466.206 20
-8 0 7 7500.26 537.958 18
-8 0 6 10652.3 563.146 23
-8 0 6 10754.2 598.928 6
-8 0 6 10187.6 548.537 20
-8 0 6 10812.2 671.03 18
-8 0 5 28420.3 1038.46 23
-8 0 5 32362.9 1035.98 12
-8 0 5 32643.4 1104.17 6
-8 0 5 33811.5 1046.01 20
-8 0 5 33013.4 1233.66 18
-8 0 5 29433.1 1040.3 17
-8 0 4 28908.6 1041.94 23
-8 0 4 26181 957.008 12
-8 0 4 27527.3 990.848 6
-8 0 4 27757.1 1138.99 18
-8 0 3 78854.9 1939.95 12
-8 0 3 82024.2 1995.54 23
-8 0 3 75031.5 1849.66 6
-8 0 3 82012.4 2141.22 18
-8 0 2 15310.2 713.347 24
-8 0 2 16644.7 780.428 12
-8 0 2 16533.1 773.737 23
-8 0 2 17439.1 802.458 11
-8 0 2 17872.5 884.861 18
-8 0 1 12031.2 638.338 24
-8 0 1 13078.4 696.996 12
-8 0 1 12002.2 650.192 23
-8 0 1 13437.3 711.327 11
-8 0 0 814.654 177.235 24
-8 0 0 664.461 155.059 23
-8 0 0 761.414 193.071 12
-8 0 0 654.858 151.037 19
-8 0 0 784.131 176.189 11
-8 0 -1 2952.68 319.137 24
-8 0 -1 2298.18 267.801 23
-8 0 -1 2684.11 311.685 11
-8 0 -1 3073.34 305.283 19
8 0 1 2434.82 301.742 33
-8 0 -2 79864.7 1984.09 24
-8 0 -2 78337.8 1848.64 23
-8 0 -2 80391.3 1995.06 11
-8 0 -2 76180.6 1895.3 19
8 0 2 79784.2 1996.17 33
-8 0 -3 10977.9 605.714 24
8 0 3 11299.9 596.608 22
-8 0 -3 10537.6 586.833 19
8 0 3 11059.3 615.278 33
-8 0 -4 1592.45 218.578 24
8 0 4 1354.53 206.757 22
-8 0 -4 1151.42 197.023 19
8 0 4 1278.42 200.642 33
-8 0 -5 10190.3 505.08 24
8 0 5 10712.3 538.512 22
-8 0 -5 10668.9 537.673 19
-8 0 -6 6373.08 333.692 24
8 0 6 6245.29 368.061 22
-8 0 -6 7231.85 390.574 19
8 0 7 1764.77 158.513 22
-8 0 -7 2037.15 165.362 19
-8 1 10 2066.65 177.922 6
-8 1 10 2794.68 206.54 20
-8 1 9 3227.57 266.632 6
-8 1 9 2962.52 249.803 20
-8 1 9 2523.92 248.127 18
-8 1 8 4532.13 352.778 6
-8 1 8 4285.33 331.692 20
-8 1 8 3589.58 340.246 18
-8 1 7 20257 823.74 6
-8 1 7 19710.6 778.464 20
-8 1 7 17583.8 843.893 18
-8 1 6 14835 668.115 23
-8 1 6 14758.9 645.95 12
-8 1 6 16049.6 744.475 6
-8 1 6 15446.7 692.709 20
-8 1 6 15417.7 812.392 18
-8 1 5 4954.34 397.374 23
-8 1 5 5016.77 385.326 12
-8 1 5 4570.66 392.285 6
-8 1 5 4662.58 364.717 20
-8 1 5 4031.93 419.367 18
-8 1 4 801.806 167.583 23
-8 1 4 715.26 154.718 12
-8 1 4 857.892 166.563 6
-8 1 4 695.094 206.477 18
-8 1 3 7943.72 530.087 23
-8 1 3 8423.74 532.52 12
-8 1 3 7849.41 497.922 6
-8 1 3 7700.65 506.057 11
-8 1 3 8645.44 615.457 18
8 1 -3 7795.46 518.886 33
-8 1 2 2305.37 263.656 24
-8 1 2 2118.87 276.054 12
-8 1 2 2437.87 294.581 23
-8 1 2 2308.33 256.743 6
-8 1 2 2351.66 286.51 11
8 1 -2 2261.96 283.055 33
-8 1 1 5525.18 422.668 24
-8 1 1 5487.17 458.24 12
-8 1 1 5493.25 435.695 23
-8 1 1 5960.05 467.116 11
8 1 -1 5457.62 447.915 33
-8 1 0 3055.68 322.851 24
-8 1 0 2730.26 335.282 12
-8 1 0 2797.55 302.982 23
-8 1 0 2998.56 335.912 11
-8 1 0 2708.81 277.923 19
8 1 0 2507.32 312.823 33
-8 1 -1 17947.4 816.186 24
-8 1 -1 16467.4 846.041 12
-8 1 -1 17053.8 752.647 23
-8 1 -1 18167 839.073 11
-8 1 -1 17582.3 754.476 19
8 1 1 16973.9 806.054 33
-8 1 -2 5897.04 456.443 24
-8 1 -2 5330.63 393.586 23
-8 1 -2 5566.8 443.504 11
-8 1 -2 4985.79 399.951 19
8 1 2 5124.7 431.182 33
-8 1 -3 147.212 88.0411 24
8 1 3 -45.1843 55.9476 22
-8 1 -3 51.34 68.3425 19
-8 1 -3 -90.2058 73.7769 11
8 1 3 -147.278 97.8047 33
-8 1 -4 15874.3 702.73 24
8 1 4 14922.3 677.1 22
-8 1 -4 15206.8 695.946 19
8 1 4 14998.4 690.142 33
-8 1 -5 3324.35 285.072 24
8 1 5 3703.98 307.002 22
-8 1 -5 3811.56 314.218 19
8 1 5 3246.53 277.84 33
-8 1 -6 20615.1 650.236 24
8 1 6 20986.8 702.215 22
8 1 7 3552.83 223.707 22
-8 1 -7 4257.55 241.666 19
-8 2 10 1135.78 127.372 6
-8 2 10 1775.77 163.322 20
-8 2 9 1285.92 169.502 6
-8 2 9 1299.59 164.65 20
-8 2 9 1059.08 145.711 18
-8 2 8 2103.11 238.584 6
-8 2 8 2377.78 242.441 20
-8 2 8 2164.9 252.976 18
-8 2 7 4053.6 308.201 12
-8 2 7 4674.16 380.619 6
-8 2 7 4713.17 363.582 20
-8 2 7 4597.76 406.969 18
-8 2 6 2396.96 257.667 23
-8 2 6 2637.2 270.506 12
-8 2 6 2763.67 299.931 6
-8 2 6 2647.26 280.67 20
-8 2 6 2607.16 328.677 18
-8 2 5 9408.21 548.461 23
-8 2 5 9919.56 556.443 12
-8 2 5 9540.51 572.424 6
-8 2 5 9071.76 521.513 20
-8 2 5 8909.05 626.146 18
-8 2 4 2417.17 286.803 23
-8 2 4 2440.82 284.199 12
-8 2 4 2775.16 304.443 6
-8 2 4 2677.94 268.447 20
-8 2 4 2555.8 341.256 18
-8 2 3 18478.4 829.458 23
-8 2 3 19555.1 841.908 12
-8 2 3 18674.7 803.643 6
-8 2 3 18402.9 810.822 11
-8 2 3 19009 941.84 18
8 2 -3 17711 803.383 33
-8 2 2 23251.5 874.584 24
-8 2 2 24872 980.51 12
-8 2 2 23076.7 892.238 6
-8 2 2 24218.8 963.032 11
8 2 -2 22968.3 948.648 33
-8 2 1 482.846 139.942 24
-8 2 1 595.214 161.902 12
-8 2 1 622.598 157.677 11
8 2 -1 685.568 169.399 33
-8 2 0 11378.3 629.971 24
-8 2 0 11672.6 677.813 12
-8 2 0 11823.4 676.939 11
8 2 0 10514.7 631.43 33
-8 2 -1 15277.2 755.006 24
-8 2 -1 14357.4 775.897 12
-8 2 -1 13334.8 666.996 23
-8 2 -1 14949.4 756.336 11
-8 2 -1 13512.2 655.767 19
8 2 1 14896.8 747.717 33
-8 2 -2 23186 951.84 24
-8 2 -2 22773.7 860.15 23
-8 2 -2 22852.7 952.804 11
-8 2 -2 22535 878.446 19
8 2 2 22670.4 931.023 33
-8 2 -3 3387.54 341.815 24
8 2 3 3943.8 337.989 22
-8 2 -3 3548.06 344.829 11
-8 2 -3 3665.21 337.08 19
8 2 3 3746.95 357.909 33
-8 2 -4 4185.17 354.152 24
8 2 4 4138.06 356.926 33
8 2 4 4740.05 363.488 22
-8 2 -4 4574.26 360.793 11
-8 2 -4 4824.92 378.435 19
-8 2 -5 998.82 160.364 24
8 2 5 1049.27 170.111 22
-8 2 -5 923.642 164.151 19
8 2 5 877.297 148.793 33
-8 2 -6 1266.67 149.807 24
8 2 6 1132.14 150.606 22
8 2 6 1157.12 154.234 21
-8 2 -6 1548.89 178.007 19
-8 2 -7 78.7484 36.4936 19
-8 3 10 4177.35 242.27 20
-8 3 9 364.013 94.6312 20
-8 3 9 417.543 102.135 6
-8 3 8 5245.6 308.232 12
-8 3 8 5945.86 396.221 6
-8 3 8 6024.57 387.833 20
-8 3 8 5035.9 350.391 18
-8 3 7 1973.61 217.157 12
-8 3 7 2305.31 264.901 6
-8 3 7 1893.76 230.233 20
-8 3 7 1829.85 246.725 18
-8 3 7 2141.53 271.379 16
-8 3 6 19159.6 756.29 23
-8 3 6 20140.4 797.65 12
-8 3 6 20128.1 846.685 6
-8 3 6 20239.5 811.94 20
-8 3 6 19731.8 883.887 18
-8 3 5 26310.4 975.404 23
-8 3 5 28934.3 1023.14 12
-8 3 5 28341.8 1042.13 6
-8 3 5 27206.4 973.875 20
-8 3 5 28155.8 1124.05 18
-8 3 4 10100 590.21 23
-8 3 4 11215.3 625.345 12
-8 3 4 9966.95 594.182 6
-8 3 4 9989.23 546.11 20
-8 3 4 9995.66 669.634 18
-8 3 3 17185.5 800.943 12
-8 3 3 16151.9 770.116 6
-8 3 3 17437.8 773.945 11
-8 3 3 17486.6 904.175 18
8 3 -3 16645.6 762.211 33
-8 3 2 3873.23 336.008 24
-8 3 2 4489.84 403.64 12
-8 3 2 3859.31 354.329 6
-8 3 2 4094.45 379.478 11
8 3 -2 3550.53 357.643 33
-8 3 1 14739.6 706.815 24
-8 3 1 15193.7 775.3 12
-8 3 1 13525.6 666.028 6
-8 3 1 14545.3 748.712 11
8 3 -1 14420.7 745.488 33
-8 3 0 3167.97 333.244 24
-8 3 0 3402.38 369.174 12
-8 3 0 3713.26 377.293 11
8 3 0 3325.35 354.422 33
-8 3 -1 2346.62 294.16 24
-8 3 -1 2831.86 336.404 12
-8 3 -1 2081.41 290.366 11
-8 3 -1 2304.26 259.809 19
8 3 1 2379.59 297.869 33
-8 3 -2 2750.83 318.941 24
-8 3 -2 2469.68 265.745 23
-8 3 -2 2439.16 304.026 11
-8 3 -2 2167.41 257.954 19
8 3 2 2417.83 302.586 33
-8 3 -3 4802.97 404.983 24
-8 3 -3 4374.96 382.485 11
-8 3 -3 4585.92 377.795 19
8 3 3 4433.48 388.073 33
-8 3 -4 2521.8 280.593 24
8 3 4 2715.17 271.133 22
-8 3 -4 2501.44 264.007 11
-8 3 -4 2446.38 270.948 19
8 3 4 2614.12 282.577 33
-8 3 -5 2965.14 269.22 24
8 3 5 2693.59 252.058 22
-8 3 -5 3344.69 291.586 19
-8 3 -6 245.532 75.6002 24
8 3 6 307.085 81.5395 22
8 3 6 251.423 80.3314 21
-8 3 -6 222.831 79.2579 19
-8 4 9 1172.42 153.838 6
-8 4 9 1188.51 150.098 20
-8 4 8 11563.2 483.658 12
-8 4 8 12594.7 577.157 6
-8 4 8 12124.1 557.796 20
-8 4 7 1323.12 187.915 12
-8 4 7 1077.07 183.69 6
-8 4 7 1272.82 191.439 20
-8 4 7 1312.22 183.204 18
-8 4 7 1407.98 215.638 16
-8 4 6 4655.73 344.421 23
-8 4 6 4810.48 377.67 12
-8 4 6 5006.47 404.245 6
-8 4 6 4545.35 370.693 20
-8 4 6 4299.35 374.499 18
-8 4 5 25432.3 941.594 23
-8 4 5 26818.8 991.206 12
-8 4 5 26451.4 1017.11 6
-8 4 5 26149.4 954.437 20
-8 4 5 25778.4 1024.61 18
-8 4 4 30042.9 1085.68 12
-8 4 4 29501.2 1086.59 6
-8 4 4 29101.2 1008.18 20
-8 4 4 29192 1134.71 18
-8 4 3 8011.25 537.019 12
-8 4 3 8256.27 546.552 6
-8 4 3 7539.57 499.744 11
-8 4 3 7499.17 568.364 18
8 4 -3 7792.2 504.629 33
-8 4 2 1941.65 272.737 12
-8 4 2 1737.85 248.498 6
-8 4 2 1701.63 249.448 11
-8 4 2 1059.55 257.968 18
8 4 -2 1735.65 251.435 33
-8 4 1 19685.9 836.616 24
-8 4 1 20419.6 908.718 12
-8 4 1 18735.4 821.831 6
-8 4 1 20268.7 900.271 11
8 4 -1 20561.9 900.031 33
-8 4 0 1572.88 234.592 24
-8 4 0 1416.6 244.668 12
-8 4 0 1668.43 260.461 11
8 4 0 1471.67 238.832 33
-8 4 -1 7620.79 534.056 24
-8 4 -1 7683.01 550.512 12
-8 4 -1 8073.5 563.81 11
8 4 1 7705.7 535.332 33
-8 4 -2 6003.37 477.676 24
-8 4 -2 5678.05 461.954 11
-8 4 -2 5106.66 396.603 19
8 4 2 5317.36 434.23 33
-8 4 -3 7653.87 520.348 24
8 4 3 6920.44 479.664 33
-8 4 -3 7071.05 488.8 11
-8 4 -3 6454.41 445.846 19
-8 4 -4 11253.3 585.513 24
-8 4 -4 10950.5 557.637 11
-8 4 -4 9549.32 526.8 19
8 4 4 10193.7 543.414 33
-8 4 -5 405.463 103.075 24
8 4 5 295.696 90.4829 22
-8 4 -5 412.335 113.328 19
-8 4 -6 722.365 112.187 24
8 4 6 1132.82 152.514 21
-8 4 -6 1089.78 138.741 19
-8 5 9 22494.7 683.09 6
-8 5 9 24221.9 716.315 20
-8 5 8 13945.6 544.763 12
-8 5 8 15275.3 622.317 6
-8 5 8 14416.9 601.465 20
-8 5 7 2693.9 262.393 12
-8 5 7 2486.55 270.241 6
-8 5 7 2363.22 258.044 20
-8 5 6 10837.3 536.549 23
-8 5 6 12460.5 622.947 12
-8 5 6 12755.6 657.744 6
-8 5 6 12925.5 631.522 20
-8 5 5 5890.52 426.832 23
-8 5 5 6057.54 449.296 12
-8 5 5 5903.08 461.198 6
-8 5 5 6328.89 446.739 20
-8 5 5 5426.16 414.64 18
-8 5 4 1021.61 197.926 12
-8 5 4 1187.81 197.239 20
-8 5 4 1123.17 215.964 6
-8 5 4 1132.5 203.249 18
-8 5 3 13525.9 710.26 12
-8 5 3 12756.1 630.632 20
-8 5 3 13685.3 719.648 6
-8 5 3 12705.5 654.951 11
-8 5 3 12959.7 713.055 18
-8 5 2 453.086 152.631 12
-8 5 2 1049.9 190.968 6
-8 5 2 751.512 175.346 11
-8 5 2 1027.72 205.129 18
8 5 -2 1168.42 204.851 33
-8 5 1 2597.9 294.783 24
-8 5 1 2503.8 338.59 12
-8 5 1 2866.73 331.504 11
-8 5 1 2292.9 285.014 6
8 5 -1 2784.67 323.3 33
8 5 0 41934.9 1358.64 33
-8 5 0 40282.8 1314.29 24
-8 5 0 39622.2 1345.09 12
-8 5 0 43544.1 1415.42 11
-8 5 -1 390.985 134.653 24
-8 5 -1 327.898 131.816 12
-8 5 -1 424.798 151.543 11
8 5 1 357.992 123.623 33
-8 5 -2 3046.05 337.588 24
-8 5 -2 2753.26 322.512 11
-8 5 -2 2703.92 280.41 19
8 5 2 2394.25 295.932 33
-8 5 -3 9622.18 574.414 24
-8 5 -3 8942.61 546.399 11
-8 5 -3 7479.73 464.535 19
8 5 3 8068.35 509.2 33
-8 5 -4 11341.1 589.361 24
-8 5 -4 10588.9 547.287 11
-8 5 -4 10481.8 534.374 19
-8 5 -5 2832.77 251.699 24
-8 5 -5 2821.31 228.902 11
-8 5 -5 2533.67 231.922 19
-8 5 -6 5757.7 289.15 24
8 5 6 5932.12 327.798 21
-8 5 -6 6000.87 304.922 19
-8 6 9 11023.5 434.77 20
-8 6 8 427.497 95.471 12
-8 6 8 294.637 94.3137 20
-8 6 8 499.264 111.366 6
-8 6 7 4815.68 352.43 12
-8 6 7 5020.98 373.789 6
-8 6 7 5268.59 375.862 20
-8 6 6 68.1822 57.645 23
-8 6 6 88.092 87.9797 12
-8 6 6 246.362 100.084 20
-8 6 6 288.104 115.483 6
-8 6 5 6489.95 464.616 12
-8 6 5 6541.59 483.47 6
-8 6 5 7408.98 482.831 20
-8 6 4 442.423 148.351 12
-8 6 4 406.385 118.477 20
-8 6 4 446.497 143.965 6
-8 6 3 35869.3 1215.27 12
-8 6 3 34146 1120.22 20
-8 6 3 34663.1 1149.09 11
-8 6 3 36040.2 1246.17 6
-8 6 3 33093.5 1108 18
-8 6 2 16783.8 805.33 12
-8 6 2 18077.6 827.798 11
-8 6 2 17394.7 832.141 6
-8 6 2 16998.7 793.227 18
8 6 -2 18492.9 812.161 33
-8 6 1 33950.6 1143.79 24
-8 6 1 34556.6 1208.45 12
-8 6 1 35548.6 1246.9 11
-8 6 1 33885.5 1192.45 6
8 6 -1 35710.4 1215.44 33
-8 6 0 141216 2998.86 24
-8 6 0 138982 2999.66 12
-8 6 0 137607 2930.04 6
8 6 0 145657 3036.44 33
-8 6 -1 668.376 170.955 24
-8 6 -1 633.382 167.876 12
-8 6 -1 746.564 191.822 11
8 6 1 528.747 158.829 33
-8 6 -2 18525.8 840.511 24
-8 6 -2 19458.6 865.484 11
8 6 2 18073.3 811.946 33
-8 6 -3 305.512 126.77 24
-8 6 -3 170.252 73.8837 19
-8 6 -3 248.394 101.49 11
8 6 3 320.824 116.535 33
-8 6 -4 2184.07 250.295 24
-8 6 -4 2177.06 233.818 11
-8 6 -4 2127.7 221.502 19
-8 6 -5 2014.33 202.194 24
-8 6 -5 1634.85 160.823 11
-8 6 -5 1646.44 176.538 19
8 6 6 180.352 58.4468 21
-8 7 8 7156.95 354.767 12
-8 7 8 6848.92 356.424 6
-8 7 8 6943.33 372.305 20
-8 7 7 1446.04 185.712 12
-8 7 7 1496.79 194.334 6
-8 7 7 1202.72 178.593 20
-8 7 6 8629.52 495.713 12
-8 7 6 8453.71 514.2 6
-8 7 6 8205.46 488.905 20
-8 7 5 3833.41 346.591 12
-8 7 5 3689.56 360.178 6
-8 7 5 4150.25 357.545 20
-8 7 4 11330.6 619.122 12
-8 7 4 10455.8 588.573 20
-8 7 4 10923.1 645.452 6
-8 7 3 5128.65 420.362 12
-8 7 3 5283.3 406.353 20
-8 7 3 4578.39 382.453 11
-8 7 3 5886.69 478.825 6
-8 7 2 7058.65 499.479 12
-8 7 2 7576.88 519.914 11
-8 7 2 7906.41 551.837 6
8 7 -2 8085.98 505.39 33
-8 7 1 3776.93 347.596 24
-8 7 1 3878.96 364.407 12
-8 7 1 4028.15 393.537 11
-8 7 1 4022.61 383.126 6
-8 7 1 3183.44 323.989 18
8 7 -1 4333.18 386.48 33
-8 7 0 4830.91 412.195 24
-8 7 0 5165.23 409.466 12
-8 7 0 5308.63 456.977 11
-8 7 0 4787.84 400.634 6
8 7 0 5199.27 430.293 33
-8 7 -1 4868.5 416.365 24
-8 7 -1 4460.49 366.702 12
-8 7 -1 5385.24 454.142 11
8 7 1 5343.27 430.676 33
-8 7 -2 3108.1 329.5 24
-8 7 -2 3845.14 370.276 11
-8 7 -3 5482.64 414.426 24
-8 7 -3 5832.11 420.528 11
-8 7 -4 32194.5 961.339 24
-8 7 -4 29710.9 905.211 11
-8 7 -5 1165.25 142.965 24
-8 7 -5 761.904 104.864 19
-8 8 8 839.673 112.541 12
-8 8 8 822.685 114.377 20
-8 8 7 23823.1 750.512 12
-8 8 7 22994 756.207 6
-8 8 7 22067.3 756.142 20
-8 8 6 2893.74 269.282 12
-8 8 6 2502.05 269.733 6
-8 8 6 2237.26 244.654 20
-8 8 5 4751.52 374.03 12
-8 8 5 4143.18 370.993 6
-8 8 5 4216.53 353.185 20
-8 8 4 8272.91 503.368 12
-8 8 4 6988.41 467.563 20
-8 8 4 7398.54 519.69 6
-8 8 3 755.845 168.65 12
-8 8 3 1050.52 186.321 20
-8 8 3 931.013 197.413 6
-8 8 3 1039.68 177.318 11
-8 8 2 6275.37 439.437 12
-8 8 2 6049.28 424.951 20
-8 8 2 5828.11 446.27 11
-8 8 2 6404.09 497.163 6
-8 8 1 3902.46 336.979 24
-8 8 1 4179.59 357.125 12
-8 8 1 3800.87 377.578 11
-8 8 1 4192.15 393.784 6
-8 8 0 35178.6 1165.06 24
-8 8 0 37253.7 1125.85 12
-8 8 0 34698.8 1184.75 6
-8 8 -1 709.506 160.846 24
-8 8 -1 651.658 130.397 12
-8 8 -1 1087 171.78 6
-8 8 -1 965.89 191.753 11
-8 8 -2 3676.82 338.783 24
-8 8 -2 4335.31 375.35 11
-8 8 -3 3892.45 324.988 24
-8 8 -3 3600.94 311.012 11
-8 8 -4 2326.11 224.131 24
-8 8 -4 2257.4 209.31 11
-8 8 -5 14529.5 476.413 24
8 8 5 12384.7 431.811 21
-8 9 7 642.11 106.191 12
-8 9 7 500.296 98.6455 20
-8 9 7 610.234 100.29 6
-8 9 6 277.791 88.4152 12
-8 9 6 243.996 86.6488 20
-8 9 6 224.452 89.8935 6
-8 9 5 12163.4 554.833 12
-8 9 5 11426.8 582.107 6
-8 9 5 11975.7 574.774 20
-8 9 4 12483.9 577.685 12
-8 9 4 11790.4 629.889 6
-8 9 4 10467 557.405 20
-8 9 3 2804.41 272.911 12
-8 9 3 2244.53 250.936 20
-8 9 3 2727.98 306.642 6
-8 9 2 2629.26 264.789 12
-8 9 2 2179.67 248.65 20
-8 9 2 2165.14 255.364 11
-8 9 2 2567.69 309.442 6
-8 9 1 22512.6 792.813 12
-8 9 1 21573 885.461 11
-8 9 1 22211.5 913.867 6
-8 9 0 -9.7655 54.7028 24
-8 9 0 27.2049 39.6354 12
-8 9 0 -8.04363 69.1301 11
-8 9 -1 757.251 151.506 24
-8 9 -1 568.822 118.872 6
-8 9 -1 771.433 158.386 11
-8 9 -2 6450.48 417.568 24
-8 9 -2 6682.5 439.498 11
-8 9 -3 4854.37 335.707 24
-8 9 -3 4832.41 331.152 11
-8 9 -4 4114.31 261.93 24
8 9 4 3508.76 219.905 21
-8 9 -4 4092.19 245.327 11
-8 10 6 1781.2 165.796 12
-8 10 6 1544.49 161.511 6
-8 10 6 1604.13 170.909 20
-8 10 5 305.607 73.9598 23
-8 10 5 350.582 88.6039 12
-8 10 5 361.501 93.0367 20
-8 10 5 250.07 88.9726 6
-8 10 4 3508.45 268.636 12
-8 10 4 3556.73 315.358 6
-8 10 4 3397.79 287.563 20
-8 10 3 150.339 70.7383 12
-8 10 3 172.086 75.4781 20
-8 10 3 166.762 91.165 6
-8 10 2 7006.77 382.814 12
-8 10 2 5438.28 369.319 20
-8 10 2 6223.5 394.204 11
-8 10 2 6615.92 460.744 6
-8 10 1 1965.13 193.031 12
-8 10 1 2361.18 260.889 11
-8 10 1 1905.66 240.611 6
-8 10 0 3335.84 262.38 24
-8 10 0 3921.89 334.605 11
-8 10 0 3008.46 279.897 6
-8 10 -1 6194.55 370.777 24
-8 10 -1 7211.11 441.747 11
-8 10 -2 3047.16 248.442 24
-8 10 -2 3152.11 271.625 11
-8 10 -3 12162.8 472.175 24
-8 10 -3 12547.8 487.464 11
-8 11 5 704.648 98.0416 12
-8 11 5 718.698 109.032 6
-8 11 5 679.634 104.054 20
-8 11 4 1168.32 137.018 12
-8 11 4 870.189 136.6 6
-8 11 4 761.118 122.569 20
-8 11 3 28.7599 28.5081 12
-8 11 3 -8.39841 41.0851 20
-8 11 3 107.776 70.7559 6
-8 11 2 6666.97 309.997 12
-8 11 2 5373.87 313.169 20
-8 11 2 6378.85 332.845 11
-8 11 2 6335.04 396.852 6
-8 11 1 9730.49 461.183 11
-8 11 1 8860.82 465.125 6
-8 11 0 3377.03 271.599 11
-8 11 0 2421.57 221.014 6
-8 11 -1 2245.25 177.919 24
-8 11 -1 1586.87 151.811 6
-8 11 -2 3682.44 223.726 24
-8 11 -2 4246.66 266.875 11
-8 12 4 966.621 113.208 6
-8 12 3 11498.5 445.139 6
-8 12 2 3649.05 247.121 6
-8 12 1 1903.45 177.697 6
-8 12 0 14639.8 487.97 11
-8 12 -1 8166.07 337.376 11
-9 -10 4 637.852 91.0564 10
-9 -10 3 2624.59 190.386 10
-9 -10 2 940.418 116.192 17
-9 -10 2 1112.9 126.169 10
-9 -10 2 1095.03 127.132 14
-9 -10 1 1096.06 115.952 19
-9 -10 1 1259.13 136.357 10
-9 -10 1 954.9 121.041 14
-9 -10 0 429.173 73.4997 19
-9 -10 0 406.228 79.0661 10
-9 -10 0 443.084 78.0139 14
-9 -10 -1 225.861 50.0005 19
-9 -10 -1 169.343 48.2346 10
-9 -9 5 2304.23 175.936 10
-9 -9 4 9200.54 409.33 17
-9 -9 4 9813.19 410.295 10
-9 -9 3 2503.85 215.324 17
-9 -9 3 2554.9 211.098 10
-9 -9 3 2144.14 195.046 14
-9 -9 2 20116.3 594.787 19
-9 -9 2 20166.6 659.04 17
-9 -9 2 22311.6 673.436 10
-9 -9 2 21013.8 676.766 14
-9 -9 1 698.916 107.753 19
-9 -9 1 648.821 112.123 17
-9 -9 1 820.952 126.612 10
-9 -9 1 800.495 130.225 14
-9 -9 0 20102.6 610.112 19
-9 -9 0 19879.2 628.821 10
-9 -9 0 19776.3 640.973 14
-9 -9 -1 2904.79 203.138 19
9 -9 1 2191.66 173.704 33
-9 -9 -1 2731.8 203.448 10
-9 -9 -1 2598.8 197.065 14
-9 -9 -2 1332.71 125.046 19
-9 -9 -2 1350.51 129.639 10
-9 -8 6 2060.18 164.477 10
-9 -8 5 229.7 75.6531 17
-9 -8 5 186.165 70.1318 10
-9 -8 4 1662.98 187.731 17
-9 -8 4 1676.92 182.008 10
-9 -8 4 1537.51 164.428 14
-9 -8 3 435.088 89.7488 25
-9 -8 3 408.73 83.4246 19
-9 -8 3 465.63 118.737 17
-9 -8 3 446.107 108.603 10
-9 -8 3 470.06 108.572 14
-9 -8 2 229.95 82.3806 19
-9 -8 2 174.99 84.5083 17
-9 -8 2 395.754 102.876 10
-9 -8 2 322.009 99.6026 14
-9 -8 1 3786.9 268.447 19
-9 -8 1 3451.42 278.849 17
-9 -8 1 3519.53 278.462 10
-9 -8 1 3641.61 295.768 14
-9 -8 0 1755.61 186.443 19
-9 -8 0 1468.29 167.363 17
-9 -8 0 1750.97 200.759 10
-9 -8 0 1648.98 192.534 14
-9 -8 -1 137.183 62.1687 19
-9 -8 -1 48.3385 34.3622 17
-9 -8 -1 97.1653 68.5459 10
-9 -8 -1 200.658 72.303 14
-9 -8 -2 7020.39 331.615 19
-9 -8 -2 6187.34 306.509 14
-9 -8 -3 2053.54 156.552 19
-9 -7 6 12241.7 432.962 18
-9 -7 6 12913.5 473.936 10
-9 -7 5 1125.74 135.272 18
-9 -7 5 992.73 149.118 17
-9 -7 5 811.312 128.851 10
-9 -7 4 1408.01 159.359 18
-9 -7 4 1530.59 200.145 17
-9 -7 4 1357.19 181.42 10
-9 -7 4 1376.81 175.48 14
-9 -7 3 2597.62 266.364 17
-9 -7 3 2242.26 234.688 10
-9 -7 3 2707.65 260.527 14
-9 -7 2 4265.96 291.822 19
-9 -7 2 4666.16 359.104 17
-9 -7 2 4703.76 340.052 10
-9 -7 2 4342.45 345.437 14
-9 -7 1 407.442 108.584 19
-9 -7 1 419.244 111.449 17
-9 -7 1 419.622 118.009 10
-9 -7 1 370.468 119.399 14
-9 -7 0 917.701 147.075 19
-9 -7 0 768.614 141.788 17
-9 -7 0 1070.97 175.718 14
-9 -7 -1 917.509 143.058 19
-9 -7 -1 825.69 124.733 17
-9 -7 -1 874.409 148.547 14
-9 -7 -2 4000.91 274.995 19
9 -7 2 3495.34 247.489 33
-9 -7 -2 3937.36 274.416 14
-9 -7 -3 -5.00349 35.7414 19
-9 -7 -3 29.4658 28.3975 14
-9 -6 7 13127.9 472.279 18
-9 -6 6 573.503 111.583 18
-9 -6 6 484.6 90.8049 17
-9 -6 6 410.823 91.4195 10
-9 -6 5 7188.74 400.214 18
-9 -6 5 6952.69 408.61 17
-9 -6 5 6647.36 389.939 10
-9 -6 4 5438.85 357.832 18
-9 -6 4 6479.38 425.412 17
-9 -6 4 5247.36 362.329 10
-9 -6 4 5330.69 355.802 14
-9 -6 3 4426.46 326.767 18
-9 -6 3 5030.5 388.652 17
-9 -6 3 4954.59 361.958 10
-9 -6 3 5241.38 382.998 14
-9 -6 2 418.632 108.498 19
-9 -6 2 361.778 101.833 18
-9 -6 2 335.126 146.748 17
-9 -6 2 314.187 120.873 10
-9 -6 2 254.247 99.804 14
-9 -6 1 3600.84 294.75 19
-9 -6 1 4305.97 353.623 17
-9 -6 1 3552.81 320.891 10
-9 -6 1 3777.19 340.464 14
-9 -6 0 7059.26 424.777 19
-9 -6 0 7372.58 444.58 17
-9 -6 0 8147.39 489.074 14
-9 -6 -1 1296.59 180.668 19
-9 -6 -1 1004.34 151.929 17
-9 -6 -1 1053.66 170.559 14
-9 -6 -2 2324.53 223.04 19
9 -6 2 1753.02 197.463 33
-9 -6 -2 2221.93 224.234 14
-9 -6 -3 9390.68 416.154 19
-9 -6 -3 8358.34 374.77 14
-9 -6 -4 1193.65 130.608 19
-9 -5 8 747.413 102.07 18
-9 -5 7 7482.47 373.046 6
-9 -5 7 7942.84 393.272 18
-9 -5 6 578.744 114.093 6
-9 -5 6 859.283 145.807 18
-9 -5 6 513.848 104.088 17
-9 -5 6 464.083 102.216 10
-9 -5 5 13426.6 603.306 18
-9 -5 5 12575.1 586.347 17
-9 -5 4 47530.2 1363.58 23
-9 -5 4 50438.7 1335.52 18
-9 -5 4 49732 1379.56 17
-9 -5 4 46057.5 1273.09 10
-9 -5 4 46516.2 1261.54 14
-9 -5 3 7403.83 494.491 23
-9 -5 3 7372.18 459.247 18
-9 -5 3 7555.47 490.374 17
-9 -5 3 6424.31 429.704 10
-9 -5 3 7541.12 477.159 14
-9 -5 2 7335.21 485.85 23
-9 -5 2 6419.06 387.268 19
-9 -5 2 6538.8 426.214 18
-9 -5 2 6843.27 471.2 17
-9 -5 2 6646.19 440.165 10
-9 -5 2 6967.41 472.634 14
-9 -5 1 15680.7 717.505 23
-9 -5 1 15125.3 638.788 19
-9 -5 1 14164.4 633.278 18
-9 -5 1 15976.1 725.339 17
-9 -5 1 13122.8 646.242 10
-9 -5 1 16483.9 750.598 14
-9 -5 0 1781.2 235.409 24
-9 -5 0 1394.65 200.115 23
-9 -5 0 1770.81 215.935 19
-9 -5 0 1594.46 197.147 18
-9 -5 0 2130.77 248.714 17
-9 -5 0 2225.02 267.805 14
-9 -5 -1 519.619 130.119 24
-9 -5 -1 596.484 135.492 19
-9 -5 -1 665.717 135.406 17
-9 -5 -1 639.881 145.881 14
-9 -5 -2 401.484 108.995 24
-9 -5 -2 454.396 114.375 19
9 -5 2 527.312 122.751 33
-9 -5 -2 571.506 106.75 17
-9 -5 -2 454.622 119.477 14
9 -5 3 2571.77 210.8 22
-9 -5 -3 3389.63 266.548 19
9 -5 3 2879.82 230.117 33
-9 -5 -3 2872.69 238.993 14
9 -5 4 569.181 91.1336 22
-9 -5 -4 968.346 129.215 19
-9 -4 8 8443.82 383.105 6
-9 -4 8 8323.65 382.295 18
-9 -4 7 3351.17 263.898 6
-9 -4 7 3528.62 278.214 18
-9 -4 6 -40.9926 49.8331 6
-9 -4 6 195.532 100.92 18
-9 -4 6 148.828 73.7895 17
-9 -4 5 1276.31 195.753 23
-9 -4 5 1299.48 174.233 6
-9 -4 5 1033.31 181.739 18
-9 -4 5 1212.26 186.655 17
-9 -4 5 1077.95 167.718 10
-9 -4 4 -25.7396 64.7876 23
-9 -4 4 48.4405 82.0458 18
-9 -4 4 28.5385 79.6631 17
-9 -4 4 -37.7773 70.5856 10
-9 -4 4 -47.8897 70.5905 14
-9 -4 3 1120.35 202.306 23
-9 -4 3 946.845 177.317 18
-9 -4 3 680.049 159.162 17
-9 -4 3 737.732 158.164 10
-9 -4 3 862.912 172.22 14
-9 -4 2 9248.1 553.319 23
-9 -4 2 9308.57 537.028 18
-9 -4 2 9943.88 578.923 17
-9 -4 2 7683.37 489.549 10
-9 -4 2 8466.42 536.383 14
-9 -4 1 4458.45 377.65 24
-9 -4 1 4781.17 384.349 23
-9 -4 1 4062.92 329.901 19
-9 -4 1 4864.85 382.543 18
-9 -4 1 4555.26 382.976 17
-9 -4 0 4196.59 361.808 24
-9 -4 0 4397.26 357.705 23
-9 -4 0 4265.99 340.834 19
-9 -4 0 4171.85 343.764 18
-9 -4 0 4586.79 370.684 17
-9 -4 -1 6424.73 438.715 24
-9 -4 -1 5997.22 399.713 23
-9 -4 -1 5493.53 389.306 19
-9 -4 -1 5612.14 381.799 18
-9 -4 -1 6301.69 411.264 17
-9 -4 -2 14356.1 641.045 24
-9 -4 -2 13714.4 609.097 19
-9 -4 -2 12032.5 528.296 18
9 -4 2 12311.1 591.95 33
-9 -4 -2 13013.1 564.047 17
-9 -4 -3 892.053 146.14 24
9 -4 3 699.288 130.279 33
-9 -4 -3 972.83 156.343 19
-9 -4 -3 747.885 130.797 14
9 -4 4 11538.5 441.714 22
-9 -4 -4 13956.1 520.583 19
-9 -4 -5 6753.8 303.825 19
-9 -3 8 8631.74 409.19 6
-9 -3 8 8206.27 404.302 18
-9 -3 7 2395.82 232.075 6
-9 -3 7 2069.29 227.797 18
-9 -3 6 8729.85 472.278 23
-9 -3 6 9532.08 489.527 6
-9 -3 6 9441.89 525.971 18
-9 -3 6 8110.6 429.976 17
-9 -3 5 12140.1 612.441 23
-9 -3 5 13061.7 585.855 6
-9 -3 5 13862.2 674.115 18
-9 -3 5 12339.5 605.358 17
-9 -3 4 20530.1 839.75 23
-9 -3 4 20612.1 867.242 18
-9 -3 4 20591.8 842.312 17
-9 -3 4 19404.3 768.464 14
-9 -3 3 990.372 192.282 23
-9 -3 3 898.116 190.321 18
-9 -3 3 818.059 173.595 17
-9 -3 3 832.273 168.28 14
-9 -3 2 73842.6 1816.01 24
-9 -3 2 77713.9 1902.12 23
-9 -3 2 76812.7 1898.01 18
-9 -3 2 79970.4 1927.29 17
-9 -3 1 6464.88 453.206 24
-9 -3 1 6570.26 456.408 23
-9 -3 1 5711.9 391.949 19
-9 -3 1 6441.47 463.843 18
-9 -3 0 19201.8 811.421 24
-9 -3 0 20006.5 799.353 23
-9 -3 0 17496.6 732.828 19
-9 -3 0 19361.9 807.42 18
-9 -3 -1 25434.4 938.595 24
-9 -3 -1 24178.5 862.424 23
-9 -3 -1 25024.3 885.865 19
-9 -3 -1 23422.2 884.729 18
9 -3 1 25476.9 954.602 33
-9 -3 -1 26825.1 928.649 17
-9 -3 -2 1019.87 177.94 24
-9 -3 -2 880.661 163.187 19
-9 -3 -2 1168.09 177.691 18
9 -3 2 1096.61 181.978 33
-9 -3 -2 1013.34 160.92 17
-9 -3 -3 13968.3 602.226 24
-9 -3 -3 14513.8 602.858 19
-9 -3 -3 11559.9 516.117 18
9 -3 3 12566.1 561.756 33
-9 -3 -4 143.989 66.5927 24
9 -3 4 271.833 73.7882 22
-9 -3 -4 132.669 75.5113 19
-9 -3 -4 89.2232 49.2758 14
-9 -3 -5 997.242 123.59 19
-9 -2 9 1580.64 152.259 6
-9 -2 9 1743.23 156.491 18
-9 -2 8 20817.9 684.172 6
-9 -2 8 21360 704.12 18
-9 -2 7 4122.86 310.072 6
-9 -2 7 4341.47 340.394 18
-9 -2 6 5139.15 366.063 23
-9 -2 6 6446.28 405.76 6
-9 -2 6 6937.78 461.597 18
-9 -2 6 5392.69 349.494 17
-9 -2 5 10038.3 554.531 23
-9 -2 5 10965.3 542.061 6
-9 -2 5 10579.1 605.232 18
-9 -2 5 9837.6 537.311 17
-9 -2 4 6445.66 454.061 23
-9 -2 4 6484.41 400.889 6
-9 -2 4 6544.95 479.507 18
-9 -2 4 6653.68 465.779 17
-9 -2 4 6056.1 415.592 14
-9 -2 3 1378.34 202.146 24
-9 -2 3 1571.94 230.346 23
-9 -2 3 1381.54 232.467 18
-9 -2 3 1738.96 251.051 17
-9 -2 2 5559.22 414.391 24
-9 -2 2 5454.94 425.05 23
-9 -2 2 5317.28 434.383 18
-9 -2 1 378.542 125.172 24
-9 -2 1 242.239 106.239 23
-9 -2 1 256.752 117.636 18
-9 -2 0 1451.24 222.638 24
-9 -2 0 1987.37 241.346 23
-9 -2 0 1434.66 206.838 19
-9 -2 0 1593.46 238.147 18
-9 -2 -1 3030.66 303.801 24
-9 -2 -1 2621.5 265.621 23
-9 -2 -1 2740.45 276.339 19
9 -2 1 2785.74 306.666 33
-9 -2 -2 200.973 99.1202 24
-9 -2 -2 3.15978 61.7582 19
9 -2 2 116.627 88.7487 33
-9 -2 -3 3880.64 312.72 24
-9 -2 -3 3427.14 291.255 19
9 -2 3 3710.69 304.601 33
-9 -2 -3 2872.57 237.805 17
-9 -2 -4 12860.4 529.376 24
9 -2 4 10557.5 453.506 22
-9 -2 -4 13849.1 552.138 19
9 -2 4 10709.2 459.741 33
-9 -2 -5 16996 532.993 24
-9 -2 -5 21573.6 625.012 19
-9 -1 9 1555.29 153.132 6
-9 -1 9 1488.88 147.847 18
-9 -1 8 981.65 144.71 6
-9 -1 8 855.621 115.955 20
-9 -1 8 1226.58 168.754 18
-9 -1 7 3653.47 295.021 6
-9 -1 7 3467.23 256.562 20
-9 -1 7 3531.88 318.279 18
-9 -1 6 3247.92 286.664 23
-9 -1 6 3864.51 318.46 6
-9 -1 6 3742.75 350.751 18
-9 -1 5 3108.45 295.79 17
-9 -1 5 3113.54 301.09 23
-9 -1 5 3205.93 293.179 6
-9 -1 5 3304.7 343.368 18
-9 -1 4 2112.8 237.849 12
-9 -1 4 2797.05 295.64 23
-9 -1 4 2407.31 248.967 6
-9 -1 4 2653.39 311.003 18
9 -1 -4 2471.53 267.569 33
-9 -1 4 2467.92 279.653 17
-9 -1 3 2144.8 245.626 24
-9 -1 3 2497.91 274.558 12
-9 -1 3 2420.5 283.641 23
-9 -1 3 2751.34 329.012 18
-9 -1 2 16433.3 722 24
-9 -1 2 15150.4 716.351 12
-9 -1 2 16329.4 753.653 23
-9 -1 2 17277.7 823.067 18
-9 -1 1 692.925 152.497 24
-9 -1 1 724.733 161.152 23
-9 -1 1 715.73 182.815 18
9 -1 -1 741.418 172.55 33
-9 -1 0 5221.59 408.376 24
-9 -1 0 5129.92 390.686 23
-9 -1 0 4655.5 354.875 19
9 -1 0 5192.56 425.117 33
-9 -1 -1 6212.29 438.296 24
-9 -1 -1 5928.27 403.121 23
-9 -1 -1 5361.6 389.452 19
9 -1 1 5691.15 443.779 33
-9 -1 -2 14239 665.239 24
-9 -1 -2 14154.4 630.26 19
9 -1 2 14069.6 670.38 33
-9 -1 -3 3593.57 305.566 24
-9 -1 -3 3288.35 284.748 19
9 -1 3 3437.81 296.915 33
-9 -1 -4 2618.25 231.909 24
9 -1 4 1970.1 187.944 22
-9 -1 -4 2836.97 246.238 19
9 -1 4 2427.21 221.11 33
-9 -1 -5 1093.95 127.847 24
-9 -1 -5 1363.46 149.647 19
-9 0 9 2018.01 174.055 6
-9 0 8 187.69 65.4966 20
-9 0 8 167.386 71.7304 6
-9 0 8 236.832 92.0734 18
-9 0 7 5666.59 372.007 6
-9 0 7 5265.41 321.314 20
-9 0 7 5701.47 408.374 18
-9 0 6 0.72093 49.6237 23
-9 0 6 4.69406 48.0628 6
-9 0 6 59.6675 85.5545 18
-9 0 5 1244.96 194.015 23
-9 0 5 1254.79 176.578 12
-9 0 5 1222.58 191.243 6
-9 0 5 1311.98 226.051 18
-9 0 5 1502.64 207.498 17
-9 0 4 105.174 71.3547 23
-9 0 4 124.028 84.8472 12
-9 0 4 -25.3497 47.7251 6
-9 0 4 -19.1724 105.209 18
9 0 -4 108.198 49.8823 33
-9 0 3 3063.48 308.597 12
-9 0 3 2907.95 308.748 23
-9 0 3 2509.69 249.089 6
-9 0 3 2371.5 311.373 18
9 0 -3 3396.84 329.684 33
-9 0 2 8686.5 513.897 24
-9 0 2 9389.12 561.115 12
-9 0 2 8990.16 550.458 23
-9 0 2 9413.61 618.487 18
9 0 -2 8693.28 550.017 33
-9 0 1 168.203 85.6379 24
-9 0 1 99.247 103.195 12
-9 0 1 126.632 84.5228 23
-9 0 1 97.8544 110.205 18
9 0 -1 187.927 112.02 33
-9 0 0 2394.63 277.906 24
-9 0 0 2500.33 274.053 23
9 0 0 2470.2 300.132 33
-9 0 -1 6009.69 434.03 24
-9 0 -1 6239.3 413.765 23
-9 0 -1 5765.29 394.721 19
9 0 1 6311.52 461.628 33
-9 0 -2 242.844 102.044 24
-9 0 -2 330.704 106.375 19
9 0 2 85.7082 98.967 33
-9 0 -3 2063.07 236.394 24
-9 0 -3 1640.31 203.438 19
9 0 3 1787.79 218.239 33
-9 0 -4 12.1966 47.5504 24
-9 0 -4 29.5731 58.3856 19
9 0 4 83.3416 60.4733 33
-9 0 -5 775.416 109.731 24
-9 0 -5 876.964 124.851 19
-9 1 9 1463.14 147.499 6
-9 1 8 1063.9 149.124 6
-9 1 8 1087.45 137.912 20
-9 1 8 1029.75 153.779 18
-9 1 7 3727.61 299.597 6
-9 1 7 3822.37 271.7 20
-9 1 7 3866.3 333.277 18
-9 1 6 3426.69 286.931 23
-9 1 6 3390.43 264.991 12
-9 1 6 3702.39 312.316 6
-9 1 6 3108.1 257.767 20
-9 1 6 3302.31 333.642 18
-9 1 5 3037.6 293.099 23
-9 1 5 2897.52 273.837 12
-9 1 5 2973.57 283.246 6
-9 1 5 2894.91 329.517 18
-9 1 5 2885.8 277.34 17
-9 1 4 2674.86 289.32 23
-9 1 4 2781.9 288.975 12
-9 1 4 2978.48 285.312 6
-9 1 4 2909.44 342.166 18
-9 1 3 2513.74 288.487 12
-9 1 3 2628.89 293.723 23
-9 1 3 2606.41 261.335 6
-9 1 3 2638.12 331.221 18
9 1 -3 2922.75 300.094 33
-9 1 2 15179.5 687.215 24
-9 1 2 16639.6 775.24 12
-9 1 2 15307.8 736.17 23
-9 1 2 17728.3 872.544 18
9 1 -2 16992.4 771.09 33
-9 1 1 704.654 149.834 24
-9 1 1 921.78 176.188 23
-9 1 1 893.447 188.753 12
-9 1 1 550.106 193.693 18
9 1 -1 562.249 157.485 33
-9 1 0 5569.87 410.525 24
-9 1 0 5470.53 404.349 23
-9 1 0 5573.18 434.524 11
9 1 0 5040.56 421.134 33
-9 1 -1 5588.24 414.174 24
-9 1 -1 5696.97 396.142 23
-9 1 -1 5419.86 375.153 19
9 1 1 5612.43 431.181 33
-9 1 -2 16006 702.083 24
-9 1 -2 14088 590.872 23
-9 1 -2 14153.6 619.489 19
9 1 2 14614.8 684.985 33
-9 1 -3 4040.61 324.619 24
-9 1 -3 3868.19 305.739 19
9 1 3 3588.5 308.704 33
-9 1 -4 2816.65 249.073 24
-9 1 -4 2625.87 233.568 19
9 1 4 2416.19 229.684 33
-9 1 -5 1481.72 150.379 24
-9 1 -5 1252.15 142.958 19
-9 2 9 1577.38 152.488 6
-9 2 8 20357.2 633.809 20
-9 2 8 18659.9 632.218 18
-9 2 7 4411.45 324.793 6
-9 2 7 3923.99 273 20
-9 2 6 5562.85 359.984 23
-9 2 6 5745.19 358.532 12
-9 2 6 6546.48 417.945 6
-9 2 6 5655.98 350.048 20
-9 2 6 6184.44 448.576 18
-9 2 5 9962.94 530.68 23
-9 2 5 9644.59 519.067 12
-9 2 5 10422.4 546.911 6
-9 2 5 10633.1 628.676 18
-9 2 5 8947.38 489.604 17
-9 2 4 6163.66 433.942 23
-9 2 4 6766.82 453.016 12
-9 2 4 6178.62 419.375 6
-9 2 4 5971.49 488.116 18
-9 2 3 1582.9 230.409 23
-9 2 3 1249.47 183.031 6
-9 2 3 1263.42 214.774 12
-9 2 3 1501.97 264.502 18
9 2 -3 1396.27 206.407 33
-9 2 2 5089.68 374.139 24
-9 2 2 5517.46 434.951 12
-9 2 2 5400.69 424.826 23
-9 2 2 5430.9 421.457 11
-9 2 2 6128.25 509.198 18
9 2 -2 5924.44 442.223 33
-9 2 1 125.779 93.8991 24
-9 2 1 184.94 98.5666 23
-9 2 1 249.698 124.788 12
-9 2 1 87.795 85.8832 11
9 2 -1 220.568 112.049 33
-9 2 0 1163.1 194.748 24
-9 2 0 1149.08 215.524 12
-9 2 0 1122.51 186.365 23
-9 2 0 1260.81 213.584 11
9 2 0 1299.52 219.65 33
-9 2 -1 2743.98 288.008 24
-9 2 -1 2625.85 269.95 23
-9 2 -1 2358.05 284.314 11
9 2 1 2483.92 295.8 33
-9 2 -2 85.812 85.9561 24
-9 2 -2 167.219 79.7184 23
-9 2 -2 95.3224 79.3073 11
-9 2 -2 158.838 65.1875 19
9 2 2 159.741 107.771 33
-9 2 -3 3185.95 291.905 24
-9 2 -3 3202.49 273.211 19
9 2 3 3297.97 291.79 33
-9 2 -4 13667.6 554.587 24
-9 2 -4 12738.4 523.886 19
9 2 4 12681.9 527.507 33
-9 2 -5 20604.9 600.99 24
-9 2 -5 20108.8 589.848 19
-9 3 8 8384.27 406.078 6
-9 3 8 8561.92 382.386 20
-9 3 7 1894.43 182.318 12
-9 3 7 1991.86 215.924 6
-9 3 7 2133.48 203.029 20
-9 3 7 2100.38 214.244 18
-9 3 6 9148.13 454.49 23
-9 3 6 9329.63 471.487 12
-9 3 6 10108.3 524.18 6
-9 3 6 8956.78 447.214 20
-9 3 6 8481.45 500.357 18
-9 3 5 13005.5 602.972 23
-9 3 5 13008.9 609.911 12
-9 3 5 13029.6 618.865 6
-9 3 5 11763.9 523.484 20
-9 3 5 12580.6 661.068 18
-9 3 4 18841.4 791.476 23
-9 3 4 20477.8 822.552 12
-9 3 4 20387.3 797.685 6
-9 3 4 19239.1 871.685 18
-9 3 3 736.453 164.74 23
-9 3 3 765.599 163.583 12
-9 3 3 915.236 161.601 6
-9 3 3 950.772 199.729 18
9 3 -3 941.485 169.98 33
-9 3 2 70539.1 1710.47 24
-9 3 2 75103.3 1902.87 12
-9 3 2 77319.8 1879.23 23
-9 3 2 75273.6 1729.26 6
-9 3 2 73355.6 1841.98 11
-9 3 2 74539.2 2017.26 18
9 3 -2 78815.8 1885.42 33
-9 3 1 5209.8 389.866 24
-9 3 1 5019.74 427.681 12
-9 3 1 6195.35 447.11 23
-9 3 1 6060.79 450.326 11
9 3 -1 6308.35 460.042 33
-9 3 0 18384.6 776.037 24
-9 3 0 17938.4 836.409 12
-9 3 0 19072.7 794.032 23
-9 3 0 20050.5 848.544 11
9 3 0 19496.2 834.639 33
-9 3 -1 26064.5 945.826 24
-9 3 -1 26929.3 922.337 23
-9 3 -1 27647.8 1002.18 11
9 3 1 27238.7 990.014 33
-9 3 -2 1173.46 184.606 24
-9 3 -2 945.812 144.284 23
-9 3 -2 909.727 145.485 19
-9 3 -2 953.312 172.281 11
9 3 2 1075.01 183.156 33
-9 3 -3 15459.5 641.435 24
9 3 3 14414.8 624.474 33
-9 3 -4 293.46 91.6003 24
-9 3 -4 224.012 75.0856 19
-9 3 -5 615.506 94.1489 24
9 3 5 628.073 97.0386 21
-9 3 -5 668.981 99.1748 19
-9 4 8 7852.88 380.996 6
-9 4 8 8157.34 362.181 20
-9 4 7 3300.59 243.035 12
-9 4 7 3448.92 276.611 6
-9 4 7 3490.51 257.045 20
-9 4 6 195.178 72.7256 23
-9 4 6 119.082 71.3304 12
-9 4 6 170.304 80.3027 20
-9 4 6 243.959 97.1349 6
-9 4 6 262.898 105.377 18
-9 4 5 663.921 134.292 23
-9 4 5 580.727 141.062 12
-9 4 5 685.405 127.7 20
-9 4 5 874.928 167.346 6
-9 4 5 642.024 148.575 18
-9 4 4 -6.9535 66.0425 23
-9 4 4 140.686 87.5962 12
-9 4 4 93.525 67.9206 6
-9 4 4 232.582 103.514 18
-9 4 3 1595.83 234.404 12
-9 4 3 1899.46 246.728 23
-9 4 3 1509.57 206.783 6
-9 4 3 1379.51 198.593 11
-9 4 3 1322.04 226.405 18
9 4 -3 1384.03 195.74 33
-9 4 2 8321.02 534.101 12
-9 4 2 7287.28 491.789 23
-9 4 2 7857 462.373 6
-9 4 2 7607.13 488.014 11
-9 4 2 7675.18 538.979 18
9 4 -2 9042.94 531.034 33
-9 4 1 3808.48 325.41 24
-9 4 1 4062.1 379.161 12
-9 4 1 4324.57 373.802 23
-9 4 1 4488.68 381.629 11
-9 4 1 4104.2 405.841 18
9 4 -1 4470.38 383.795 33
-9 4 0 4825.9 376.521 24
-9 4 0 4693.64 405.164 12
-9 4 0 5526.78 407.568 23
-9 4 0 5083.3 410.788 11
9 4 0 4780.12 397.15 33
-9 4 -1 5753.51 411.112 24
-9 4 -1 5411.85 383.598 23
-9 4 -1 6220.35 447.421 11
9 4 1 6503.28 453.132 33
-9 4 -2 14207.7 639.382 24
-9 4 -2 12175.7 536.521 23
-9 4 -2 14180.3 653.969 11
9 4 2 14649.9 659.264 33
-9 4 -3 732.81 145.165 24
-9 4 -3 525.729 108.901 19
-9 4 -3 703.046 135.923 11
9 4 3 725.472 146.004 33
-9 4 -4 13412 525.776 24
-9 4 -4 11320.6 447.205 19
-9 4 -5 6622.31 298.987 24
9 4 5 6381.15 302.13 21
-9 5 8 379.358 75.7534 20
-9 5 8 516.745 93.598 6
-9 5 7 7898.53 381.165 12
-9 5 7 7997.66 418.56 6
-9 5 7 8060.59 388.371 20
-9 5 6 828.244 129.175 23
-9 5 6 1019.83 159.618 12
-9 5 6 840.381 131.508 20
-9 5 6 788.886 150.858 6
-9 5 5 13002.7 583.725 23
-9 5 5 14081.2 632.352 12
-9 5 5 13838 628.364 6
-9 5 5 12380.2 538.436 20
-9 5 5 12244.4 543.904 18
-9 5 4 48386 1348.73 23
-9 5 4 51182.8 1403.72 12
-9 5 4 51174.6 1377.67 6
-9 5 4 47616.6 1318.19 18
-9 5 3 7638.88 499.042 12
-9 5 3 7667.15 489.815 23
-9 5 3 7548.93 466.491 6
-9 5 3 6792.11 432.065 11
-9 5 3 6757.54 460.849 18
-9 5 2 6815.51 476.891 12
-9 5 2 6411.39 418.715 6
-9 5 2 6224.21 436.858 11
-9 5 2 6737.23 472.002 18
9 5 -2 6712.02 445.785 33
-9 5 1 14269.3 643.246 24
-9 5 1 15893.8 745.401 12
-9 5 1 16152.6 732.872 11
-9 5 1 15503.9 751.228 18
9 5 -1 17112.7 746.162 33
-9 5 0 1483.67 205.622 24
-9 5 0 1771.65 246.749 12
-9 5 0 1715.88 225.446 23
-9 5 0 1500.11 228.614 11
9 5 0 1736.62 246.407 33
-9 5 -1 379.384 112.264 24
-9 5 -1 506.319 117.171 23
-9 5 -1 525.436 139.843 11
9 5 1 527.134 134.792 33
-9 5 -2 422.884 115.532 24
-9 5 -2 440.83 100.374 23
-9 5 -2 564.201 134.043 11
9 5 2 623.926 142.234 33
-9 5 -3 3169.42 268.112 24
-9 5 -3 2563.31 239.96 11
-9 5 -4 1152.42 145.314 24
-9 6 7 13177.8 491.91 12
-9 6 7 12964 515.569 6
-9 6 7 12534.2 477.975 20
-9 6 6 602.422 123.361 12
-9 6 6 674.078 117.778 20
-9 6 6 745.056 140.096 6
-9 6 5 7261.78 416.302 23
-9 6 5 8411.04 467.416 12
-9 6 5 7704.87 453.037 6
-9 6 5 6806.2 385.066 20
-9 6 4 5311.15 384.173 23
-9 6 4 6330.71 426.103 12
-9 6 4 6109.69 417.643 6
-9 6 3 5153.09 391.293 12
-9 6 3 4985.07 376.639 6
-9 6 3 4042.44 318.41 11
-9 6 3 3891 312.696 18
-9 6 2 388.035 133.065 12
-9 6 2 301.592 92.1646 6
-9 6 2 379.513 105.755 11
-9 6 2 406.815 116.074 18
9 6 -2 346.592 104.961 33
-9 6 1 2974.79 263.552 24
-9 6 1 3477.3 327.591 12
-9 6 1 3255.91 279.638 6
-9 6 1 3760.75 338.613 11
-9 6 1 3418.76 313.4 18
9 6 -1 3877.38 334.506 33
-9 6 0 6485.62 413.955 24
-9 6 0 6680.18 449.372 12
-9 6 0 7539.35 484.143 11
-9 6 0 6881.41 440.558 18
9 6 0 7881.15 483.617 33
-9 6 -1 1381.53 191.386 24
-9 6 -1 1444.99 188.675 23
-9 6 -1 1511.83 214.014 11
9 6 1 1035.58 174.893 33
-9 6 -2 2067.98 227.158 24
-9 6 -2 1941.69 191.319 23
-9 6 -2 2075.02 231.344 11
-9 6 -3 7956.3 409.624 24
-9 6 -3 8348.46 420.801 11
-9 6 -4 1198.92 135.43 24
-9 7 7 7803.93 341.054 12
-9 7 7 7590.48 354.499 6
-9 7 7 6746.04 313.851 20
-9 7 6 14285.9 552.164 12
-9 7 6 13998.9 567.433 6
-9 7 6 13068.9 503.15 20
-9 7 5 1107.19 150.899 23
-9 7 5 1108.52 166.301 12
-9 7 5 1289.53 178.881 6
-9 7 5 1146.64 146.831 20
-9 7 4 1432.3 194.439 23
-9 7 4 1826.1 219.648 12
-9 7 4 1941.04 228.777 6
-9 7 3 2338.98 253.614 12
-9 7 3 2069.04 238.695 6
-9 7 3 1824.96 199.781 11
-9 7 2 4404.98 351.631 12
-9 7 2 4193.99 333.26 6
-9 7 2 4150.36 331.352 11
-9 7 1 496.516 128.125 12
-9 7 1 420.091 111.163 6
-9 7 1 381.339 115.47 11
-9 7 1 485.618 104.186 18
-9 7 0 791.695 138.516 24
-9 7 0 770.919 142.138 12
-9 7 0 1050.49 175.655 11
-9 7 0 883.773 138.526 18
-9 7 -1 645.63 130.423 24
-9 7 -1 598.173 116.084 23
-9 7 -1 767.288 143.269 11
-9 7 -1 720.425 120.181 18
-9 7 -2 3435.4 270.211 24
-9 7 -2 2872.9 210.155 23
-9 7 -2 3192.31 271.78 11
-9 7 -3 56.0108 53.0826 24
-9 7 -3 26.8655 37.3008 11
-9 8 6 2495 199.907 12
-9 8 6 2291.75 195.981 6
-9 8 5 190.074 69.7718 23
-9 8 5 186.44 69.7363 12
-9 8 5 242.388 64.7513 20
-9 8 5 180.676 75.2329 6
-9 8 4 1492.42 185.832 12
-9 8 4 1329.59 171.288 23
-9 8 4 1549.37 193.969 6
-9 8 4 1069.33 135.386 20
-9 8 3 441.885 112.025 12
-9 8 3 389.002 109.32 6
-9 8 2 400.899 107.437 12
-9 8 2 313.495 99.2266 6
-9 8 2 190.972 76.4706 11
-9 8 1 2370.02 229.845 12
-9 8 1 2577.85 232.735 6
-9 8 1 2746.94 262.902 11
-9 8 0 1288.12 155.674 24
-9 8 0 1544.28 198.524 11
-9 8 -1 99.3171 66.152 24
-9 8 -1 220.969 65.9513 23
-9 8 -1 224.447 85.1989 11
-9 8 -2 6550.78 337.729 24
-9 8 -2 6447.88 356.2 11
-9 8 -3 1817.77 154.23 24
-9 8 -3 1834.55 155.968 11
-9 9 5 2576.87 196.146 12
-9 9 5 2351.11 196.64 6
-9 9 4 9495.25 413.996 12
-9 9 4 8633.49 398.618 23
-9 9 4 9048.28 432.224 6
-9 9 3 2380.85 209.133 12
-9 9 3 2392.83 223.02 6
-9 9 2 18648.7 659.665 6
-9 9 2 18095.8 606.424 11
-9 9 1 545.649 94.0782 12
-9 9 1 471.731 95.0069 6
-9 9 1 515.024 109.145 11
-9 9 0 19517.8 678.38 11
-9 9 -1 1880.23 157.168 24
-9 9 -1 2041.84 172.166 23
-9 9 -2 1142.24 128.743 11
-9 10 4 619.827 97.1302 6
-9 10 3 1906.14 151.558 12
-9 10 3 2261.29 187.433 23
-9 10 3 2174.68 184.807 6
-9 10 2 842.446 115.795 6
-9 10 1 717.24 100.959 11
-9 10 0 219.177 57.9774 23
-9 10 0 230.53 59.487 11
-10 -8 3 6635.9 292.929 17
10 -8 -2 75.227 46.3413 33
-10 -8 2 119.09 42.9571 17
10 -8 -1 4822.04 252.446 33
-10 -8 1 4802.47 241.982 14
-10 -7 4 2521.07 185.581 17
-10 -7 3 2220.69 187.26 17
-10 -7 3 1999.99 159.557 14
-10 -7 2 628.947 104.597 17
-10 -7 2 753.734 96.4437 10
-10 -7 2 761.075 109.721 14
-10 -7 1 5877.88 301.117 17
10 -7 -1 6621.49 341.158 33
-10 -7 1 5788.12 271.468 10
-10 -7 1 6570.34 324.025 14
10 -7 0 5088.67 276.796 33
-10 -7 0 5200.97 276.872 14
-10 -6 5 8455.35 336.233 17
-10 -6 4 8206.42 373.852 17
10 -6 -4 7109.93 347.31 33
-10 -6 3 698.146 119.885 17
-10 -6 3 550.444 92.3277 10
-10 -6 3 607.708 104.302 14
-10 -6 2 4842.39 306.06 17
-10 -6 2 4895.94 299.936 14
-10 -6 1 13841.5 519.987 17
10 -6 -1 13368.6 542.079 33
-10 -6 1 14001.5 536.081 14
-10 -6 0 1062.57 113.534 19
-10 -6 0 1304.85 139.475 17
10 -6 0 1444.18 164.623 33
-10 -6 0 977.434 116.993 10
-10 -6 0 1368.25 158.873 14
10 -6 1 9567.72 382.629 33
-10 -6 -1 10065.3 398.408 14
-10 -5 5 10509.3 413.158 18
-10 -5 5 10466.2 410.463 17
-10 -5 4 693.775 109.556 18
-10 -5 4 783.14 125.207 17
10 -5 -4 726.124 119.069 33
-10 -5 3 206.876 72.9885 18
-10 -5 3 171.633 70.1833 17
-10 -5 3 179.993 68.9113 14
-10 -5 2 3505.39 244.409 18
-10 -5 2 4162.34 304.014 17
-10 -5 2 3659.64 276.44 14
-10 -5 1 1427.94 147.847 18
-10 -5 1 1795.96 198.628 17
10 -5 -1 1874.79 208.596 33
-10 -5 1 1256.07 144.364 10
-10 -5 1 2083.44 213.011 14
-10 -5 0 5242.07 279.082 19
-10 -5 0 6030.99 336.17 17
10 -5 0 6463.41 369.818 33
-10 -5 0 4946.88 274.024 10
-10 -5 0 6871.05 380.412 14
-10 -5 -1 7862.31 336.646 19
-10 -5 -1 7573.73 329.5 17
10 -5 1 8276.2 388.909 33
-10 -5 -1 8017.99 384.95 14
-10 -5 -2 681.808 92.1968 19
-10 -5 -2 1078.44 119.65 14
-10 -4 6 61.9235 41.4805 18
-10 -4 5 2419.88 226.528 18
-10 -4 5 2312.18 196.802 17
-10 -4 4 2019.59 202.949 18
-10 -4 4 2028.53 211.078 17
10 -4 -4 1664.82 186.884 33
-10 -4 3 3424.04 290.364 23
-10 -4 3 3392.58 269.617 18
-10 -4 3 3804.89 299.861 17
10 -4 -3 3457.34 282.83 33
-10 -4 3 3486.43 269.289 14
-10 -4 2 3422.07 292.204 23
-10 -4 2 3306.91 265.886 18
-10 -4 2 3803.18 306.424 17
10 -4 -2 3478 294.824 33
-10 -4 2 4018.13 304.596 14
-10 -4 1 5126.58 344.193 23
-10 -4 1 4904.89 314.422 18
10 -4 -1 5921.06 385.752 33
-10 -4 1 5994.8 374.83 17
-10 -4 1 6425.27 393.051 14
-10 -4 0 2036.12 177.131 19
-10 -4 0 2147.68 194.412 18
10 -4 0 2277.46 230.584 33
-10 -4 0 2442.59 225.193 17
-10 -4 0 2494.01 239.884 14
-10 -4 -1 9.97097 47.2789 19
10 -4 1 49.5168 62.5166 33
-10 -4 -1 116.131 55.0283 17
-10 -4 -1 95.8551 64.916 14
-10 -4 -2 3980.07 235.568 19
10 -4 2 4073.48 249.266 33
-10 -4 -2 3886.78 248.888 14
-10 -3 7 994.504 118.615 18
-10 -3 6 344.263 87.2589 18
-10 -3 5 222.452 87.5469 23
-10 -3 5 271.832 86.1255 18
-10 -3 5 276.554 75.6644 17
-10 -3 4 85.1484 68.8754 23
-10 -3 4 81.8547 70.6857 18
10 -3 -4 3.01475 56.0805 33
-10 -3 4 20.0824 50.3297 17
-10 -3 3 7981.63 453.471 23
-10 -3 3 6608.15 406.592 18
10 -3 -3 6662.47 401.938 33
-10 -3 3 8193.54 450.313 17
-10 -3 3 6422.7 381.971 14
-10 -3 2 12364 572.074 23
-10 -3 2 10849.7 532.315 18
10 -3 -2 11459.1 557.436 33
-10 -3 2 11399.4 545.052 14
-10 -3 1 3099.7 271.82 23
-10 -3 1 2698.07 249.678 18
10 -3 -1 2904.98 278.275 33
-10 -3 1 3057.25 278.308 17
-10 -3 1 3081.65 277.263 14
-10 -3 0 277.687 97.5368 24
-10 -3 0 249.961 88.1719 23
-10 -3 0 210.97 70.4085 19
-10 -3 0 216.781 78.0032 18
10 -3 0 354.862 112.638 33
-10 -3 0 230.815 81.3171 17
-10 -3 0 237.648 94.7884 14
-10 -3 -1 6217.3 367.581 24
-10 -3 -1 5594.35 308.699 19
-10 -3 -1 5293.48 310.984 18
10 -3 1 6590.26 382.902 33
-10 -3 -1 5553.56 328.99 17
-10 -3 -1 5903.91 367.542 14
-10 -3 -2 265.67 78.0158 24
-10 -3 -2 411.048 82.532 19
-10 -3 -2 394.317 74.0943 18
10 -3 2 330.786 91.1503 33
-10 -3 -2 371.398 68.4944 17
-10 -3 -2 410.635 91.6965 14
-10 -2 7 318.141 79.1945 18
-10 -2 6 6842.19 324.103 6
-10 -2 6 7313.83 388.855 18
-10 -2 5 2606.09 238.699 23
-10 -2 5 2481.32 244.184 18
-10 -2 5 2527.94 217.145 17
-10 -2 4 7619.4 437.224 23
-10 -2 4 7041.15 431.544 18
10 -2 -4 6926.91 382.743 33
-10 -2 4 7690.61 425.04 17
-10 -2 3 15627.3 653.627 23
-10 -2 3 13824 629.992 18
10 -2 -3 13902.1 599.022 33
-10 -2 3 14836.9 634.029 17
-10 -2 2 5478.6 378.924 23
-10 -2 2 5504.65 385.556 18
10 -2 -2 4979.72 364.275 33
-10 -2 2 5663.41 386.729 17
-10 -2 2 4637.15 348.29 14
-10 -2 1 83.1019 75.751 24
-10 -2 1 82.8256 70.2002 23
-10 -2 1 76.2762 67.3789 18
10 -2 -1 106.049 78.2132 33
-10 -2 1 25.2225 55.8534 17
-10 -2 0 1309.8 181.547 24
-10 -2 0 1302.62 170.787 23
-10 -2 0 1136.88 169.624 18
10 -2 0 1287.76 193.484 33
-10 -2 0 1241.31 179.033 17
-10 -2 -1 2990.72 258.478 24
-10 -2 -1 2743.52 217.186 23
-10 -2 -1 2591.18 210.006 19
-10 -2 -1 2754.18 240.998 18
10 -2 1 3040.71 265.927 33
-10 -2 -1 2941.07 246.883 17
-10 -2 -2 895.969 133.634 24
-10 -2 -2 785.669 115.104 19
-10 -2 -2 636.299 106.337 18
10 -2 2 811.555 130.994 33
-10 -2 -2 677.422 100.249 17
-10 -2 -3 3473.57 227.378 24
-10 -2 -3 2820.67 187.525 19
-10 -1 7 6149.18 296.907 6
-10 -1 7 7047.64 346.103 18
-10 -1 6 145.134 61.407 23
-10 -1 6 346.33 79.4176 6
-10 -1 6 289.528 94.9153 18
-10 -1 5 1733.07 195.572 23
-10 -1 5 1669.74 169.78 6
-10 -1 5 1886.8 220.665 18
-10 -1 5 1747.33 184.864 17
-10 -1 4 3305.93 286.683 23
-10 -1 4 2979.59 290.675 18
10 -1 -4 2850.34 240.489 33
-10 -1 4 2801.47 257.767 17
-10 -1 3 6957.61 426.623 23
-10 -1 3 6814.38 444.412 18
10 -1 -3 5573.01 368.381 33
-10 -1 3 6184.87 405.153 17
-10 -1 3 5139.41 348.88 14
-10 -1 2 4036.74 305.242 24
-10 -1 2 5689.06 384.421 23
-10 -1 2 5128.45 389.469 18
10 -1 -2 5001.01 365.84 33
-10 -1 2 5458.16 382.18 17
-10 -1 1 572.15 126.351 24
-10 -1 1 568.424 128.514 23
-10 -1 1 715.905 153.634 18
10 -1 -1 516.166 141.157 33
-10 -1 0 3161.74 278.689 24
-10 -1 0 2649.81 246.413 23
-10 -1 0 2678.04 268.278 18
10 -1 0 3357.75 298.507 33
-10 -1 -1 259.522 88.8135 24
-10 -1 -1 57.4801 58.5138 23
-10 -1 -1 217.724 68.7877 19
-10 -1 -1 257.617 93.8274 18
10 -1 1 235.189 91.38 33
-10 -1 -1 212.405 76.8428 17
-10 -1 -2 11212 482.93 24
-10 -1 -2 9315.1 394.142 19
-10 -1 -2 10143.7 455.152 18
10 -1 2 11213.8 481.031 33
-10 -1 -2 8295.01 387.887 17
-10 -1 -3 5735.9 273.918 19
-10 -1 -3 5883.65 291.559 18
10 -1 3 6359.8 301.355 33
-10 0 7 4361.92 251.778 6
-10 0 7 4228.64 267.648 18
-10 0 6 3153.69 228.849 23
-10 0 6 3839.32 252.553 6
-10 0 6 3939.97 298.37 18
-10 0 5 69.0621 47.282 23
-10 0 5 -68.7414 42.715 6
-10 0 5 122.675 76.7157 18
-10 0 5 -50.9123 52.8127 17
-10 0 4 41600.6 1122.08 23
-10 0 4 40515.8 1190.95 18
-10 0 3 40979.8 1136.54 23
-10 0 3 38764 1181.19 18
10 0 -3 34260.5 1025.89 33
-10 0 3 35946.7 1078.86 17
-10 0 2 2168.73 216.239 24
-10 0 2 3083.58 286.699 23
-10 0 2 3171.75 315.783 18
10 0 -2 2993.39 281.009 33
-10 0 1 13127.8 574.386 24
-10 0 1 14937.6 630.339 23
-10 0 1 14640.8 678.314 18
10 0 -1 13699.4 630.709 33
-10 0 0 2449.08 241.532 24
-10 0 0 2339.75 234.217 23
-10 0 0 2516.66 265.974 18
10 0 0 2323.19 250.931 33
-10 0 -1 13271.8 568.397 24
-10 0 -1 12094.7 494.675 23
-10 0 -1 11715.3 558.962 18
10 0 1 14092.4 602.77 33
-10 0 -2 1162.12 156.725 24
-10 0 -2 996.576 123.606 19
-10 0 -2 1339.84 174.504 18
10 0 2 1268.14 167.386 33
-10 0 -2 860.678 124.177 17
-10 0 -3 42.0461 49.5816 24
-10 0 -3 0.93857 31.632 18
10 0 3 20.9723 42.6708 33
-10 1 7 6824.91 321.559 6
-10 1 7 6439.45 324.543 18
-10 1 6 302.583 75.5058 23
-10 1 6 332.973 78.0144 6
-10 1 6 420.736 104.878 18
-10 1 5 1510.15 166.655 12
-10 1 5 1576.79 183.131 23
-10 1 5 2109.45 196.469 6
-10 1 5 1811.05 220.156 18
-10 1 4 2858.06 251.907 12
-10 1 4 3572.41 290.945 23
-10 1 4 3011.34 228.615 6
-10 1 4 3219.75 308.085 18
-10 1 4 2882.33 254.811 17
-10 1 3 7372.03 433.785 23
-10 1 3 6957.94 467.846 18
10 1 -3 6161.4 377.927 33
-10 1 2 4171.79 299.809 24
-10 1 2 5242.24 407.328 18
10 1 -2 4678.51 345.73 33
-10 1 1 405.762 110.362 24
-10 1 1 586.911 132.281 23
-10 1 1 620.294 157.619 18
10 1 -1 698.565 152.535 33
-10 1 0 2663.43 252.618 24
-10 1 0 3047.16 261.434 23
-10 1 0 3590.53 325.221 18
10 1 0 3139.84 286.411 33
-10 1 -1 80.3104 69.6841 24
-10 1 -1 106.73 51.8184 23
-10 1 -1 215.37 96.4851 18
10 1 1 152.898 84.1778 33
-10 1 -2 10811.5 476.493 24
-10 1 -2 9337.58 480.465 18
10 1 2 10837.4 486.359 33
-10 1 -3 7574.81 355.207 24
-10 1 -3 6664.48 348.081 18
10 1 3 7216.98 339.463 33
-10 2 7 312.638 74.1941 6
-10 2 6 5567.37 277.853 12
-10 2 6 5881.83 302.61 23
-10 2 6 7229.65 353.188 6
-10 2 6 7335.99 382.488 18
-10 2 5 2025.22 194.189 12
-10 2 5 2657.41 230.333 23
-10 2 5 2270.04 199.547 6
-10 2 5 2330.88 240.663 18
-10 2 4 7104.51 405.309 12
-10 2 4 7854.89 425.952 23
-10 2 4 6885.93 357.815 6
-10 2 4 7370.75 460.827 18
-10 2 3 14135.9 622.171 12
-10 2 3 14330.4 678.713 18
10 2 -3 13223.6 559.477 33
-10 2 2 5573.59 377.824 23
-10 2 2 5164.23 406.601 18
10 2 -2 5142.13 355.137 33
-10 2 1 117.835 77.6108 24
-10 2 1 77.0327 53.1209 23
-10 2 1 50.5895 78.2587 18
10 2 -1 108.592 82.3755 33
-10 2 0 997.511 153.409 24
-10 2 0 1150.18 162.248 23
-10 2 0 1335.59 205.34 18
10 2 0 1111.7 176.419 33
-10 2 -1 3397.04 269.278 24
-10 2 -1 3249.4 240.817 23
-10 2 -1 3376.83 307.983 18
10 2 1 3716.53 296.91 33
-10 2 -2 898.966 134.719 24
-10 2 -2 942.604 153.119 18
10 2 2 831.078 136.917 33
-10 2 -3 3280.17 225.479 24
-10 2 -3 2768.51 224.295 18
10 2 3 3033.35 212.916 33
-10 3 7 1118.94 124.474 6
-10 3 6 467.413 82.4589 12
-10 3 6 432.582 89.1195 6
-10 3 6 435.783 86.3745 18
-10 3 5 174.325 70.9628 23
-10 3 5 216.804 72.5489 12
-10 3 5 458.595 88.0965 6
-10 3 5 293.713 90.7339 18
-10 3 4 178.568 80.5218 23
-10 3 4 16.7414 57.8857 12
-10 3 4 103.614 56.0018 6
-10 3 4 25.6714 71.7455 18
-10 3 4 -58.965 51.3888 17
-10 3 3 7389.43 434.107 12
-10 3 3 7557.4 432.718 23
-10 3 3 6785.94 443.551 18
10 3 -3 6290.86 358.762 33
-10 3 2 12093.4 584.085 12
-10 3 2 13140.6 586.047 23
-10 3 2 12315.8 614.021 18
10 3 -2 10734.2 514.173 33
-10 3 1 2680.47 236.513 24
-10 3 1 3500.42 289.444 23
-10 3 1 3689.44 327.475 18
10 3 -1 2951.16 271.802 33
-10 3 0 230.405 77.2491 24
-10 3 0 250.661 73.954 23
-10 3 0 314.893 108.329 18
10 3 0 162.266 85.1309 33
-10 3 -1 5909.32 351.591 24
-10 3 -1 5915.05 320.051 23
-10 3 -1 4847.01 366.325 18
10 3 1 6226.46 380.544 33
-10 3 -2 559.893 107.379 24
-10 3 -2 484.31 116.339 18
10 3 2 483.013 109.27 33
-10 3 -3 549.978 91.9681 24
-10 3 -3 422.906 88.9566 18
-10 4 6 54.9619 47.4843 12
-10 4 6 57.4289 42.9184 6
-10 4 5 2658.37 223.202 12
-10 4 5 2414.06 206.66 23
-10 4 5 2499.69 206.044 6
-10 4 5 1918.79 179.355 18
-10 4 4 2273.37 225.891 12
-10 4 4 2083.99 211.57 23
-10 4 4 1951.79 189.509 6
-10 4 4 1721.64 193.312 18
-10 4 3 3236.29 283.45 12
-10 4 3 3218.44 274.071 23
-10 4 3 2918.97 219.421 6
-10 4 3 3145.82 277.217 18
-10 4 2 3749.71 310.11 12
-10 4 2 4264.46 315.714 23
-10 4 2 3655.73 309.231 18
10 4 -2 3184.77 261.754 33
-10 4 1 4417.3 287.976 24
-10 4 1 5847.05 366.15 23
-10 4 1 5554.56 382.124 18
10 4 -1 5574.68 355.349 33
-10 4 0 1816.37 188.318 24
-10 4 0 2126.8 206.055 23
-10 4 0 2091.42 230.768 18
10 4 0 2313.07 232.471 33
-10 4 -1 18.4265 44.1957 24
-10 4 -1 125.366 46.1204 23
-10 4 -1 36.1973 49.8484 18
10 4 1 189.025 77.3997 33
-10 4 -2 4276.65 266.345 24
-10 4 -2 3405.93 256.719 18
-10 4 -3 1075.06 112.656 24
-10 5 6 3434.04 213.122 12
-10 5 6 3794.98 231.375 6
-10 5 5 11643.7 470.407 12
-10 5 5 10322.1 422.802 23
-10 5 5 11377.8 445.096 6
-10 5 4 834.527 139.592 12
-10 5 4 857.907 133.599 23
-10 5 4 899.325 123.749 6
-10 5 3 110.512 69.824 23
-10 5 3 119.397 66.26 12
-10 5 3 128.143 53.276 6
-10 5 3 133.027 63.8326 18
-10 5 2 2671.11 252.251 12
-10 5 2 3258.24 270.978 23
-10 5 2 2518.9 230.724 18
10 5 -2 2736.12 225.264 33
-10 5 1 1790.27 199.819 23
-10 5 1 1544.08 183.397 18
10 5 -1 1684.17 184.528 33
-10 5 0 5097.57 298.74 24
-10 5 0 6431.51 346.26 23
-10 5 0 5808.41 345.734 18
10 5 0 5959.71 353.559 33
-10 5 -1 7638.88 364.512 24
-10 5 -1 6742.9 313.606 23
-10 5 -1 7526.4 376.36 18
-10 5 -2 653.243 100.423 24
-10 5 -2 648.437 100.094 18
-10 6 5 10262.9 415.723 12
-10 6 5 9465.26 384.998 6
-10 6 4 6334.41 349.224 12
-10 6 4 6458.25 340.259 23
-10 6 4 6003.05 309.249 6
-10 6 3 457.387 103.194 23
-10 6 3 431.641 99.1569 12
-10 6 3 483.971 103.694 6
-10 6 2 4357.76 301.81 12
-10 6 2 4808.51 313.305 23
-10 6 1 13028.9 510.999 23
-10 6 1 9618 397.871 18
-10 6 0 1128.58 135.649 23
-10 6 0 1089.85 125.641 18
-10 6 -1 6612.44 302.719 24
-10 7 4 2232.15 185.934 12
-10 7 4 2044.27 168.204 23
-10 7 4 1979.48 158.679 6
-10 7 3 2257.81 194.539 12
-10 7 3 2189.21 192.562 23
-10 7 2 813.439 121.949 23
-10 7 1 5694.42 310.006 23
-10 7 0 5210.8 266.479 23
-10 8 2 229.44 61.5053 23
-11 -3 3 2552.85 179.552 17
-11 -3 2 1856.74 157.478 17
11 -3 -1 12735.5 436.668 33
-11 -3 1 12544.8 423.575 17
-11 -2 4 3800.65 221.453 18
-11 -2 3 3952.51 234.602 18
-11 -2 3 4102.33 237.083 17
-11 -2 2 5013.56 274.813 23
-11 -2 2 4370.05 250.031 18
11 -2 -2 4974.93 265.102 33
-11 -2 2 5292.37 278.132 17
11 -2 -1 25155 652.559 33
-11 -2 1 25166.6 643.346 17
-11 -1 4 1201.62 129.499 23
-11 -1 4 1241.81 134.55 18
-11 -1 3 2883.77 210.43 23
-11 -1 3 2843.58 211.217 18
-11 -1 3 2642.21 194.834 17
-11 -1 2 2737.7 204.426 23
-11 -1 2 2514.72 200.048 18
11 -1 -2 2396.81 182.661 33
-11 -1 2 2748.21 202.597 17
-11 -1 1 2998.3 201.724 23
-11 -1 1 2838.91 202.458 18
11 -1 -1 2884.08 206.152 33
-11 -1 1 2698.08 199.879 17
11 -1 0 5918.23 282.092 33
-11 -1 0 2464.94 183.386 14
-11 0 4 885.179 113.31 23
-11 0 4 1091.87 127.745 18
-11 0 3 110.074 51.5306 23
-11 0 3 117.38 60.2677 18
-11 0 3 73.8284 43.8478 17
-11 0 2 323.227 76.3448 23
-11 0 2 417.738 91.4708 18
11 0 -2 492.797 83.8498 33
-11 0 2 363.994 83.192 17
-11 0 1 4114.42 239.217 23
-11 0 1 4076.31 252.186 18
11 0 -1 4564.49 256.075 33
-11 0 0 38.8167 34.7281 18
11 0 0 -52.4393 43.5311 33
-11 0 0 19.1529 33.6766 17
-11 0 0 -26.7921 35.2011 14
-11 1 4 1110.58 124.35 23
-11 1 4 1394 143.373 18
-11 1 3 2994.45 214.079 23
-11 1 3 3087.08 226.063 18
-11 1 2 2693.53 204.908 23
-11 1 2 2592.96 210.066 18
-11 1 1 2702.92 193.158 23
-11 1 1 2832.24 213.512 18
11 1 -1 2713.34 194.43 33
-11 1 0 5227.27 268.823 18
11 1 0 5200.06 264.117 33
-11 2 3 4259.4 249.25 23
-11 2 3 3647.24 237.501 18
-11 2 2 5074.44 272.014 23
-11 2 2 4291.24 262.344 18
-11 2 1 23594.5 595.26 23
-11 2 1 23064 632.69 18
-11 3 3 2587.22 187.851 23
-11 3 2 2215.03 173.712 23
