#------------------------------------------------------------------------------
#$Date: 2016-02-18 17:37:37 +0200 (Thu, 18 Feb 2016) $
#$Revision: 176729 $
#$URL: svn://www.crystallography.net/cod/cif/1/51/71/1517177.cif $
#------------------------------------------------------------------------------
#
# This file is available in the Crystallography Open Database (COD),
# http://www.crystallography.net/
#
# All data on this site have been placed in the public domain by the
# contributors.
#
data_1517177
loop_
_publ_author_name
'He, Yu-Tao'
'Li, Lian-Hua'
'Zhou, Zhao-Zhao'
'Hua, Hui-Liang'
'Qiu, Yi-Feng'
'Liu, Xue-Yuan'
'Liang, Yong-Min'
_publ_section_title
;
 Copper-catalyzed three-component
 cyanotrifluoromethylation/azidotrifluoromethylation and carbocyclization
 of 1,6-enynes.
;
_journal_issue                   15
_journal_name_full               'Organic letters'
_journal_page_first              3896
_journal_page_last               3899
_journal_paper_doi               10.1021/ol501574f
_journal_volume                  16
_journal_year                    2014
_chemical_formula_moiety         'C21 H19 F3 N4 O3 S'
_chemical_formula_sum            'C21 H19 F3 N4 O3 S'
_chemical_formula_weight         464.46
_chemical_name_systematic
;
 ?
;
_space_group_crystal_system      monoclinic
_space_group_IT_number           14
_space_group_name_Hall           '-P 2ybc'
_space_group_name_H-M_alt        'P 1 21/c 1'
_symmetry_space_group_name_Hall  '-P 2ybc'
_symmetry_space_group_name_H-M   'P 1 21/c 1'
_atom_sites_solution_hydrogens   geom
_atom_sites_solution_primary     direct
_audit_creation_date             2014-06-27
_audit_creation_method
;
Olex2 1.2
(compiled 2014.06.23 svn.r2946 for OlexSys, GUI svn.r4855)
;
_cell_angle_alpha                90
_cell_angle_beta                 104.901(15)
_cell_angle_gamma                90
_cell_formula_units_Z            4
_cell_length_a                   16.421(2)
_cell_length_b                   8.6118(12)
_cell_length_c                   16.299(2)
_cell_measurement_reflns_used    1733
_cell_measurement_temperature    293(2)
_cell_measurement_theta_max      63.6830
_cell_measurement_theta_min      4.4640
_cell_volume                     2227.4(5)
_computing_cell_refinement
;
CrysAlisPro, Agilent Technologies,
Version 1.171.36.28 (release 01-02-2013 CrysAlis171 .NET)
(compiled Feb  1 2013,16:14:44)
;
_computing_data_collection
;
CrysAlisPro, Agilent Technologies,
Version 1.171.36.28 (release 01-02-2013 CrysAlis171 .NET)
(compiled Feb  1 2013,16:14:44)
;
_computing_data_reduction
;
CrysAlisPro, Agilent Technologies,
Version 1.171.36.28 (release 01-02-2013 CrysAlis171 .NET)
(compiled Feb  1 2013,16:14:44)
;
_computing_molecular_graphics    'Olex2 (Dolomanov et al., 2009)'
_computing_publication_material  'Olex2 (Dolomanov et al., 2009)'
_computing_structure_refinement  'ShelXL (Sheldrick, 2008)'
_computing_structure_solution    'ShelXS (Sheldrick, 2008)'
_diffrn_ambient_temperature      293(2)
_diffrn_detector_area_resol_mean 16.0733
_diffrn_measured_fraction_theta_full 0.968
_diffrn_measured_fraction_theta_max 0.933
_diffrn_measurement_details
;
  1 omega  -79.00  -34.00   1.5000    1.5000
omega____ theta____ kappa____ phi______ frames
    -        0.0000  178.0000  -30.0000 30

  2 omega   -1.00   71.00   1.5000    1.5000
omega____ theta____ kappa____ phi______ frames
    -        0.0000   57.0000 -150.0000 48

  3 omega -101.00  -74.00   1.5000    2.0000
omega____ theta____ kappa____ phi______ frames
    -      -42.5000  178.0000  -30.0000 18

  4 omega   25.00   52.00   1.5000    2.0000
omega____ theta____ kappa____ phi______ frames
    -       56.0000 -125.0000 -120.0000 18

  5 omega   29.00   93.50   1.5000    2.0000
omega____ theta____ kappa____ phi______ frames
    -       56.0000  -99.0000  -90.0000 43

  6 omega   24.00  123.00   1.5000    2.0000
omega____ theta____ kappa____ phi______ frames
    -       56.0000   77.0000    0.0000 66

  7 omega   48.00   85.50   1.5000    2.0000
omega____ theta____ kappa____ phi______ frames
    -       56.0000  -38.0000    0.0000 25

  8 omega   34.00  112.00   1.5000    2.0000
omega____ theta____ kappa____ phi______ frames
    -       56.0000   38.0000 -180.0000 52

  9 omega   49.00   98.50   1.5000    3.0000
omega____ theta____ kappa____ phi______ frames
    -      112.0000 -111.0000   60.0000 33

 10 omega   38.00   63.50   1.5000    3.0000
omega____ theta____ kappa____ phi______ frames
    -      112.0000  -25.0000  -30.0000 17

 11 omega  112.00  152.50   1.5000    3.0000
omega____ theta____ kappa____ phi______ frames
    -      112.0000  111.0000 -120.0000 27

 12 omega   52.00  103.00   1.5000    3.0000
omega____ theta____ kappa____ phi______ frames
    -      112.0000  -50.0000 -150.0000 34

 13 omega   40.00   79.00   1.5000    3.0000
omega____ theta____ kappa____ phi______ frames
    -      112.0000  -25.0000    0.0000 26

 14 omega   58.00   88.00   1.5000    3.0000
omega____ theta____ kappa____ phi______ frames
    -      112.0000  -50.0000  -60.0000 20

 15 omega   53.00   78.50   1.5000    3.0000
omega____ theta____ kappa____ phi______ frames
    -      112.0000   12.0000  -90.0000 17

 16 omega   45.00   99.00   1.5000    3.0000
omega____ theta____ kappa____ phi______ frames
    -      112.0000 -111.0000  -90.0000 36

 17 omega   92.00  176.00   1.5000    3.0000
omega____ theta____ kappa____ phi______ frames
    -      112.0000   77.0000    0.0000 56

 18 omega   64.00  109.00   1.5000    3.0000
omega____ theta____ kappa____ phi______ frames
    -      112.0000 -111.0000  -30.0000 30

 19 omega   42.00   79.50   1.5000    3.0000
omega____ theta____ kappa____ phi______ frames
    -      112.0000  -38.0000  -90.0000 25

 20 omega   96.00  162.00   1.5000    3.0000
omega____ theta____ kappa____ phi______ frames
    -      112.0000   12.0000  -90.0000 44

 21 omega   47.00   81.50   1.5000    3.0000
omega____ theta____ kappa____ phi______ frames
    -      112.0000  -50.0000   90.0000 23
;
_diffrn_measurement_device_type  'SuperNova, Dual, Cu at zero, Eos'
_diffrn_measurement_method       '\w scans'
_diffrn_orient_matrix_UB_11      0.0343578000
_diffrn_orient_matrix_UB_12      -0.0881087000
_diffrn_orient_matrix_UB_13      -0.0662328000
_diffrn_orient_matrix_UB_21      0.0064001000
_diffrn_orient_matrix_UB_22      0.1540699000
_diffrn_orient_matrix_UB_23      -0.0459147000
_diffrn_orient_matrix_UB_31      0.0905305000
_diffrn_orient_matrix_UB_32      0.0222996000
_diffrn_orient_matrix_UB_33      0.0556098000
_diffrn_radiation_monochromator  mirror
_diffrn_radiation_type           CuK\a
_diffrn_radiation_wavelength     1.54184
_diffrn_reflns_av_R_equivalents  0.0819
_diffrn_reflns_av_unetI/netI     0.0948
_diffrn_reflns_Laue_measured_fraction_full 0.968
_diffrn_reflns_Laue_measured_fraction_max 0.933
_diffrn_reflns_limit_h_max       19
_diffrn_reflns_limit_h_min       -19
_diffrn_reflns_limit_k_max       10
_diffrn_reflns_limit_k_min       -9
_diffrn_reflns_limit_l_max       19
_diffrn_reflns_limit_l_min       -19
_diffrn_reflns_number            8052
_diffrn_reflns_point_group_measured_fraction_full 0.968
_diffrn_reflns_point_group_measured_fraction_max 0.933
_diffrn_reflns_theta_full        67.684
_diffrn_reflns_theta_max         71.832
_diffrn_reflns_theta_min         5.592
_diffrn_source                   'SuperNova (Cu) X-ray Source'
_exptl_absorpt_coefficient_mu    1.790
_exptl_absorpt_correction_T_max  1.00000
_exptl_absorpt_correction_T_min  0.56765
_exptl_absorpt_correction_type   multi-scan
_exptl_absorpt_process_details
;
CrysAlisPro, Agilent Technologies,
Version 1.171.36.28 (release 01-02-2013 CrysAlis171 .NET)
(compiled Feb  1 2013,16:14:44)
Empirical absorption correction using spherical harmonics,
 implemented in SCALE3 ABSPACK scaling algorithm.
;
_exptl_crystal_colour            'clear light colourless'
_exptl_crystal_density_diffrn    1.385
_exptl_crystal_description       block
_exptl_crystal_F_000             960
_exptl_crystal_size_max          0.35
_exptl_crystal_size_mid          0.23
_exptl_crystal_size_min          0.15
_refine_diff_density_max         0.492
_refine_diff_density_min         -0.405
_refine_diff_density_rms         0.099
_refine_ls_extinction_coef       0.029(4)
_refine_ls_extinction_expression Fc^*^=kFc[1+0.001xFc^2^\l^3^/sin(2\q)]^-1/4^
_refine_ls_extinction_method     SHELXL
_refine_ls_goodness_of_fit_ref   1.084
_refine_ls_hydrogen_treatment    constr
_refine_ls_matrix_type           full
_refine_ls_number_parameters     292
_refine_ls_number_reflns         4080
_refine_ls_number_restraints     0
_refine_ls_restrained_S_all      1.084
_refine_ls_R_factor_all          0.2052
_refine_ls_R_factor_gt           0.1296
_refine_ls_shift/su_max          0.000
_refine_ls_shift/su_mean         0.000
_refine_ls_structure_factor_coef Fsqd
_refine_ls_weighting_details
;
 w=1/[\s^2^(Fo^2^)+(0.2000P)^2^]
 where P=(Fo^2^+2Fc^2^)/3
;
_refine_ls_weighting_scheme      calc
_refine_ls_wR_factor_gt          0.3403
_refine_ls_wR_factor_ref         0.4317
_reflns_Friedel_coverage         0.000
_reflns_number_gt                1469
_reflns_number_total             4080
_reflns_threshold_expression     'I > 2\s(I)'
_cod_data_source_file            ol501574f_si_003.cif
_cod_data_source_block           heyt0615
_cod_depositor_comments
'Adding full bibliography for 1517176--1517177.cif.'
_cod_original_cell_volume        2227.5(6)
_cod_database_code               1517177
#BEGIN Tags that were not found in dictionaries:
_shelxl_version_number           2013-2
_chemical_oxdiff_formula         'C11 H10 N O'
_shelx_space_group_comment
;
The symmetry employed for this shelxl refinement is uniquely defined
by the following loop, which should always be used as a source of
symmetry information in preference to the above space-group names.
They are only intended as comments.
;
_reflns_odcompleteness_completeness 97.94
_reflns_odcompleteness_iscentric 1
_reflns_odcompleteness_theta     66.97
_olex2_refinement_description
;
1. Fixed Uiso
 At 1.2 times of:
  All C(H) groups, All C(H,H) groups
 At 1.5 times of:
  All C(H,H,H) groups
2.a Secondary CH2 refined with riding coordinates:
 C9(H9A,H9B), C13(H13A,H13B)
2.b Aromatic/amide H refined with riding coordinates:
 C1(H1), C2(H2), C3(H3), C4(H4), C5(H5), C16(H16), C17(H17), C19(H19), C20(H20)
2.c Idealised Me refined as rotating group:
 C12(H12A,H12B,H12C), C21(H21A,H21B,H21C)
;
_shelx_res_file
;
TITL heyt0615 in P21/c #14
CELL 1.54184 16.421498 8.611842 16.299132 90 104.9012 90
ZERR 4 0.002309 0.001154 0.002361 0 0.0146 0
LATT 1
SYMM -X,0.5+Y,0.5-Z

SFAC C H F N O S
UNIT 84 76 12 16 12 4

L.S. 20
PLAN  20
REM reset to P21/c #14
BOND $H
HTAB
MORE -1
CONF
fmap 2
acta
SHEL 999 0.81
OMIT -13 1 11
OMIT -14 1 11
OMIT -2 7 5
OMIT 4 7 5
OMIT -5 4 12
OMIT 3 6 3
OMIT -15 1 2
OMIT 2 6 0
OMIT -1 8 4
OMIT 1 7 1
OMIT -2 7 7
OMIT -3 4 13
OMIT 7 8 4
OMIT 15 0 2
OMIT -6 5 11
OMIT 2 6 10
OMIT -14 3 8
OMIT 4 5 9
OMIT -11 5 4
OMIT 6 7 1
OMIT 0 5 11
OMIT -12 5 10
OMIT -11 6 4
OMIT 0 6 2
OMIT -2 6 2
REM <HKL>D:/olex2_heyt0615/heyt0615.hkl</HKL>

WGHT    0.200000
EXTI    0.028718
FVAR       8.23161
S1    6    0.190387    0.926586    0.262241    11.00000    0.11809    0.16045 =
         0.08191   -0.01680    0.02881   -0.00085
F1    3    0.086293    0.438734   -0.008956    11.00000    0.13687    0.25853 =
         0.15751   -0.07875   -0.00875   -0.00196
F2    3    0.096564    0.604553    0.089548    11.00000    0.11896    0.21616 =
         0.18631   -0.07414    0.04057   -0.00864
F3    3    0.145415    0.376366    0.116752    11.00000    0.17059    0.23047 =
         0.16581    0.00085    0.03368   -0.05094
O1    5    0.220793    0.885502    0.086629    11.00000    0.15796    0.15928 =
         0.09109    0.00519    0.04578    0.00970
O2    5    0.224566    1.072090    0.241231    11.00000    0.13060    0.14514 =
         0.14717   -0.02163    0.04593   -0.02933
O3    5    0.202627    0.880885    0.348360    11.00000    0.14058    0.20681 =
         0.07304   -0.02020    0.01875    0.02249
N1    4    0.233886    0.786350    0.219002    11.00000    0.10968    0.13763 =
         0.07692    0.00125    0.02749    0.01997
N2    4    0.350113    0.378069    0.322677    11.00000    0.11857    0.17478 =
         0.09524    0.01104    0.02988    0.01590
N3    4    0.384894    0.253280    0.349522    11.00000    0.10539    0.20087 =
         0.09967    0.01817    0.02351    0.02466
N4    4    0.414581    0.148246    0.384523    11.00000    0.17863    0.23698 =
         0.12607    0.02054    0.02588    0.06968
C1    1    0.357436    0.209747    0.135203    11.00000    0.12056    0.16256 =
         0.09502   -0.00746    0.02594    0.00205
AFIX  43
H1    2    0.301629    0.182744    0.130737    11.00000   -1.20000
AFIX   0
C2    1    0.404224    0.127426    0.088628    11.00000    0.16370    0.16660 =
         0.12578   -0.02045    0.04198   -0.01638
AFIX  43
H2    2    0.378962    0.048023    0.052241    11.00000   -1.20000
AFIX   0
C3    1    0.487635    0.164248    0.096807    11.00000    0.14157    0.19255 =
         0.11150   -0.00768    0.03668    0.02056
AFIX  43
H3    2    0.519038    0.110617    0.065984    11.00000   -1.20000
AFIX   0
C4    1    0.523458    0.281218    0.151131    11.00000    0.10639    0.19264 =
         0.14621   -0.00156    0.05402    0.01444
AFIX  43
H4    2    0.579711    0.306793    0.157141    11.00000   -1.20000
AFIX   0
C5    1    0.478050    0.360573    0.196432    11.00000    0.09866    0.17312 =
         0.11411   -0.00186    0.02072    0.00417
AFIX  43
H5    2    0.504348    0.437079    0.234327    11.00000   -1.20000
AFIX   0
C6    1    0.393441    0.329579    0.187181    11.00000    0.09635    0.15814 =
         0.08030    0.00534    0.01735    0.00228
C7    1    0.343862    0.421753    0.235047    11.00000    0.10160    0.15378 =
         0.07656   -0.02146    0.02258   -0.02627
C8    1    0.296045    0.549983    0.207038    11.00000    0.08873    0.16751 =
         0.08291    0.00900    0.02121    0.00237
C9    1    0.252695    0.631709    0.262062    11.00000    0.09723    0.16904 =
         0.08327   -0.00937    0.02719    0.00384
AFIX  23
H9A   2    0.288680    0.642749    0.319136    11.00000   -1.20000
H9B   2    0.201346    0.578373    0.264510    11.00000   -1.20000
AFIX   0
C10   1    0.240539    0.785096    0.137624    11.00000    0.10801    0.18341 =
         0.08298   -0.01366    0.03720    0.00074
C11   1    0.280602    0.626368    0.121968    11.00000    0.10028    0.17467 =
         0.07847   -0.00900    0.02502   -0.01058
C12   1    0.360229    0.664514    0.091773    11.00000    0.13875    0.17586 =
         0.11720    0.01370    0.06324   -0.00837
AFIX 137
H12A  2    0.401703    0.711780    0.137371    11.00000   -1.50000
H12B  2    0.345722    0.734868    0.044565    11.00000   -1.50000
H12C  2    0.382697    0.570577    0.074634    11.00000   -1.50000
AFIX   0
C13   1    0.220450    0.543895    0.048803    11.00000    0.14004    0.18657 =
         0.08117   -0.00370    0.02634    0.01212
AFIX  23
H13A  2    0.209564    0.612600    0.000030    11.00000   -1.20000
H13B  2    0.249263    0.453353    0.034677    11.00000   -1.20000
AFIX   0
C14   1    0.138741    0.492498    0.060062    11.00000    0.14194    0.20997 =
         0.09959   -0.04107    0.01682    0.00135
C15   1    0.082913    0.920180    0.210915    11.00000    0.11550    0.11857 =
         0.07355   -0.00314    0.03480   -0.00024
C16   1    0.029749    0.825375    0.243480    11.00000    0.12225    0.14830 =
         0.09578    0.02774    0.03971    0.00412
AFIX  43
H16   2    0.050830    0.767087    0.292368    11.00000   -1.20000
AFIX   0
C17   1   -0.053851    0.819944    0.202099    11.00000    0.11977    0.13018 =
         0.12782    0.00803    0.04831   -0.01627
AFIX  43
H17   2   -0.089892    0.761224    0.225346    11.00000   -1.20000
AFIX   0
C18   1   -0.086757    0.898265    0.127175    11.00000    0.11891    0.13439 =
         0.07526   -0.00773    0.03266    0.00646
C19   1   -0.034437    0.994101    0.097704    11.00000    0.11582    0.14631 =
         0.08245    0.01392    0.04127    0.00866
AFIX  43
H19   2   -0.056531    1.054445    0.049833    11.00000   -1.20000
AFIX   0
C20   1    0.050024    1.003541    0.137044    11.00000    0.11972    0.12723 =
         0.08094    0.00106    0.04414   -0.00311
AFIX  43
H20   2    0.085056    1.065615    0.114235    11.00000   -1.20000
AFIX   0
C21   1   -0.179821    0.884704    0.080322    11.00000    0.11772    0.19551 =
         0.11114   -0.01341    0.02667   -0.00006
AFIX 137
H21A  2   -0.194798    0.967591    0.039857    11.00000   -1.50000
H21B  2   -0.213527    0.891187    0.120378    11.00000   -1.50000
H21C  2   -0.189640    0.786808    0.051278    11.00000   -1.50000
AFIX   0
HKLF 4

REM  heyt0615 in P21/c #14
REM R1 =  0.1296 for    1469 Fo > 4sig(Fo)  and  0.2052 for all    4080 data
REM    292 parameters refined using      0 restraints

END

WGHT      0.2000      0.0000

REM Instructions for potential hydrogen bonds
EQIV $1 x, -y+3/2, z-1/2
HTAB C13 O3_$1

REM Highest difference peak  0.492,  deepest hole -0.405,  1-sigma level  0.099
Q1    1   0.0968  0.6374  0.0179  11.00000  0.05    0.40
Q2    1   0.3472  0.4644  0.1206  11.00000  0.05    0.35
Q3    1   0.3177  0.6434  0.1279  11.00000  0.05    0.34
Q4    1   0.1998  0.5559  0.0484  11.00000  0.05    0.30
Q5    1   0.2520  0.9239  0.2964  11.00000  0.05    0.28
Q6    1   0.2165  1.0185  0.1622  11.00000  0.05    0.28
Q7    1   0.2061  1.1182  0.3048  11.00000  0.05    0.27
Q8    1   0.1542  1.0542  0.1871  11.00000  0.05    0.26
Q9    1   0.2646  0.4127  0.1209  11.00000  0.05    0.26
Q10   1   0.1874  0.9718  0.1797  11.00000  0.05    0.25
Q11   1   0.2374  0.6283  0.1018  11.00000  0.05    0.25
Q12   1   0.3484  0.2460  0.1166  11.00000  0.05    0.25
Q13   1   0.2221  0.5087  0.1111  11.00000  0.05    0.24
Q14   1   0.1063  1.0479  0.2743  11.00000  0.05    0.24
Q15   1   0.4017  0.3590  0.1276  11.00000  0.05    0.23
Q16   1   0.0543  0.4445  0.0434  11.00000  0.05    0.23
Q17   1   0.1279  0.4456  0.0515  11.00000  0.05    0.23
Q18   1   0.3580  0.1928  0.2767  11.00000  0.05    0.22
Q19   1   0.4829  0.0847  0.0269  11.00000  0.05    0.22
Q20   1  -0.0080  0.9117  0.1708  11.00000  0.05    0.22
;
_shelx_res_checksum              88914
_shelx_hkl_file
;
   3   0   0 170084. 3128.16   3
   4   0   0 196.338 113.831   3
  -4   0   0 102.675 107.838   1
   5   0   0 172984. 4120.53   3
  -5   0   0 170033. 5203.09   1
   6   0   0 100101. 3561.61   3
   6   0   0 95730.3 3802.27   5
   7   0   0 791228. 10936.7   3
   7   0   0 774583. 11984.9   5
   8   0   0 517.698 305.902   3
   8   0   0 519.428 340.269   5
   9   0   0 3910.68 1013.78   5
 -10   0   0 18003.2 2337.54   6
  10   0   0 16582.6 2197.53   5
  11   0   0 1115.26 608.634   5
 -11   0   0 1235.56 685.280   6
 -12   0   0 535.017 472.565   6
  12   0   0 288.104 365.852   5
  13   0   0-382.525 527.575  18
  13   0   0 214.155 300.858   5
  14   0   0 166.418 298.113   9
  14   0   0-289.455 605.900  18
  15   0   0-99.3360 392.240   9
  15   0   0-93.1015 371.170  18
  16   0   0-102.290 317.179  18
  16   0   0 1741.52 708.339   9
  17   0   0-187.917 384.456  18
  18   0   0 75.4120 194.230  18
   0   1   0 73.9724 50.9926   1
   1   1   0 75082.8 1968.58   1
   2   1   0 285819. 4645.26   1
   4   1   0 4568.93 632.896   3
   4   1   0 1484.68 405.598   5
  -4   1   0 1694.28 407.088   1
   4  -1   0 2198.84 470.608   5
   4   1   0 4322.02 751.947   1
   5  -1   0 269072. 6013.40   5
   5   1   0 281502. 5600.15   3
  -5   1   0 274803. 6055.86   1
   5   1   0 268821. 6020.52   5
  -5  -1   0 273072. 7075.26   1
  -6   1   0 112.215 163.618   1
   6   1   0 84.7261 87.7084   3
   6  -1   0 122.441 163.168   5
   6   1   0 19.0882 42.2918   5
   7  -1   0 221.808 226.934   5
   7   1   0 411.712 248.595   3
   7   1   0 260.648 247.162   5
   8   1   0 25117.2 2382.17   5
  -8  -1   0 23523.5 2155.55   6
   8  -1   0 25797.5 2370.11   5
   8   1   0 24763.5 2211.24   3
   9   1   0 557.902 400.449   5
   9  -1   0 680.828 409.854   5
   9   1   0 760.255 410.734   3
  10   1   0 8039.56 1560.63   5
  10   1   0 7556.30 1406.89   3
  10  -1   0 9346.48 1651.94   5
 -11   1   0 1753.62 830.252   6
  11   1   0 1538.83 726.782   5
  11  -1   0 1595.07 713.478   5
 -12   1   0 7277.62 1838.62   6
  12  -1   0 6012.93 1529.49   5
  13   1   0 309.172 432.488   9
  13   1   0-292.064 419.020  18
 -13   1   0 134.464 318.955   6
  13  -1   0-86.4699 174.636  18
  13  -1   0 121.135 322.942   5
  14  -1   0 246.673 412.316  18
  14   1   0 619.585 515.202   9
  14   1   0-173.238 407.328  18
  15   1   0-304.942 568.848  18
  15  -1   0-241.056 257.861  18
  15   1   0 245.205 158.386   9
  16   1   0 31.9793 323.408  18
  16   1   0 136.399 151.299   9
  16  -1   0-30.1054 154.963  18
  17   1   0-272.165 388.611  18
  17  -1   0 105.554 50.7758  18
  17   1   0 709.063 519.217   9
  18   1   0 196.102 183.782  18
  18   1   0-92.1366 237.422   9
  18  -1   0-116.601 143.638  18
   0   2   0 75480.8 2164.17   1
   1   2   0 693568. 7724.64   1
   2   2   0 48571.3 2296.54   1
  -2  -2   0 50741.9 2433.77   1
   3   2   0 55858.5 2786.18   1
   3  -2   0 58573.7 1398.21   2
  -3  -2   0 58842.3 2988.00   1
   4  -2   0 1439.58 411.340   5
  -4   2   0 1503.54 338.723   1
   4   2   0 1190.28 441.125   1
  -4  -2   0 1569.75 528.431   1
   5  -2   0 13453.1 1379.74   5
   5   2   0 14144.1 1372.66   3
   6  -2   0 141.557 134.972   5
   6   2   0 14.1687 67.0818   5
   6   2   0 91.3087 145.503   3
   7  -2   0 1690.45 569.289   5
   7   2   0 1279.78 504.936   5
   7   2   0 1651.48 541.445   3
   8   2   0 78330.8 4073.62   3
   8  -2   0 80225.1 4350.97   5
   9   2   0 6743.89 1297.89   3
   9  -2   0 7146.59 1415.55   5
  10   2   0 9682.79 1638.97   3
  10  -2   0 11514.2 1909.88   5
  11  -2   0 1403.71 666.093   5
 -11   2   0 1399.57 763.021   6
 -12   2   0 601.620 565.170   6
  12  -2   0 985.449 646.187   5
  13  -2   0 1990.18 909.417   5
  13   2   0-599.028 811.624  18
 -13   2   0 2076.53 1085.30   6
  13   2   0 2652.24 1039.62   9
  14  -2   0-128.845 202.729  18
  14   2   0-354.580 518.138  18
  14   2   0 1430.67 797.138   9
  15   2   0 37.2463 89.1317  18
  15   2   0 400.559 373.633   9
  15  -2   0-329.686 538.148  18
  16   2   0-77.9797 392.424  18
  16   2   0 232.925 404.005   9
  16  -2   0-189.401 261.183  18
  17   2   0-31.1794 14.9220  18
  17  -2   0-99.8344 151.651  18
  17   2   0-116.211 254.065   9
  18  -2   0-102.237 161.269  18
  18   2   0 89.2042 143.582   9
   0   3   0 19.0556 55.0700   1
   0   3   0 12.0124 71.4006   7
   1   3   0 24465.2 1738.64   1
  -1   3   0 27038.1 2104.56   7
  -1   3   0 24628.6 1339.23   1
   1   3   0 26585.3 2038.49   7
   2   3   0 17757.5 1656.79   1
   2   3   0 18330.2 1778.09   7
   3   3   0 59541.8 3186.44   7
   3   3   0 50681.5 3039.14   1
   3  -3   0 11496.9 1518.02   8
   4  -3   0 5153.88 815.672   8
   4  -3   0 6506.15 917.253   5
   4   3   0 6978.18 1149.56   7
   5   3   0 26.0253 76.0000   7
   5  -3   0 272.568 228.431   5
   5   3   0 76.3310 111.354   3
   6  -3   0 19468.0 1945.16   5
   6   3   0 19185.5 2166.18   7
   6   3   0 19586.5 1920.05   3
   7  -3   0 3414.33 871.032   5
   7   3   0 2745.58 896.311   7
   7   3   0 3425.92 862.481   3
   8   3   0 2906.26 883.765   7
   8   3   0 3116.59 863.959   3
   8  -3   0 3442.42 912.362   5
   9   3   0 58918.5 4117.11   3
   9  -3   0 57892.1 4173.76   5
 -10   3   0 10537.7 2089.96   6
  10  -3   0 10351.7 1835.11   5
  10   3   0 8945.36 1691.33   3
  11  -3   0 14474.0 2305.11   5
 -11   3   0 18219.4 2962.87   6
  11   3   0 15396.8 2338.41   3
  12   3   0 15053.4 2536.96   9
 -12   3   0 14748.6 2858.84   6
  12   3   0 13867.8 2967.42  18
  12  -3   0 12177.0 2189.86   5
 -12  -3   0 11594.6 2001.48  12
  13   3   0 2519.06 1056.96   9
  13   3   0 1397.67 880.934  18
 -13  -3   0 2596.09 972.914  12
 -14  -3   0-84.9526 245.404  12
  14   3   0 297.041 435.841   9
  14   3   0 240.467 284.172  18
  15  -3   0-316.100 487.080  18
  15   3   0-165.730 242.364  18
  15   3   0 4122.41 1215.12   9
  16  -3   0 2.04314 195.242  18
  16   3   0 690.705 485.481   9
  17  -3   0-6.74634 12.3369  18
  17   3   0 789.502 457.560   9
  18   3   0-106.792 171.210   9
   0   4   0 341316. 8791.73   7
   1   4   0 2499.69 768.859   7
  -1   4   0 1928.16 679.882   7
   2   4   0 33692.5 2796.45   7
   3  -4   0 8678.25 1733.72   8
   3   4   0 54119.9 3671.59   7
   3   4   0 45244.1 2562.20   3
   4   4   0 12464.8 1496.08   3
   4   4   0 13456.3 1869.91   7
   5   4   0 146.854 130.276   3
   5   4   0 196.916 234.844   7
   6   4   0 257.339 216.622   3
   6   4   0 83.9610 152.469   7
   7   4   0 2726.59 948.888   7
   7   4   0 3294.78 925.928   3
   8   4   0 3267.63 970.328   3
   8   4   0 2886.52 1029.42   7
   9   4   0 241.494 278.446   3
  -9   4   0 296.615 364.604   6
   9   4   0-39.1820 222.103   7
 -10   4   0 10641.3 2271.51   6
  10   4   0 9053.95 1860.91   3
  11   4   0-1.41734 21.7363  11
 -11  -4   0 10015.5 1809.33  12
 -11   4   0 9811.36 2366.16   6
  11   4   0 9089.32 1967.64   9
  11   4   0 10782.1 2631.21  18
  12   4   0 3692.52 1265.55   9
 -12  -4   0 5162.33 1354.77  12
  13  -4   0-406.477 339.975  19
 -13  -4   0 1590.76 726.048  12
  13   4   0 1110.97 643.063   9
 -14  -4   0 5.62186 164.612  12
  14   4   0 141.870 238.260   9
  15  -4   0 25.1363 93.2221  18
  15   4   0 908.857 565.566   9
  16   4   0 1015.66 576.411   9
  16  -4   0-75.8109 197.756  18
  17   4   0-127.278 105.357   9
   0   5   0-203.051 274.496   7
   1   5   0 8366.86 1630.98   7
   1  -5   0-25.6964 62.8080   8
   2   5   0 1092.43 590.477   7
   3  -5   0 1011.88 486.999   8
   3   5   0 1118.08 634.423   7
   4   5   0 44050.8 3850.70   7
   5   5   0-17.0052 161.676   7
   6   5   0 220.160 175.994   3
   6   5   0 290.402 341.219   7
   7   5   0 8294.75 1647.52   3
   7   5   0 8168.75 1794.89   7
  -8   5   0 524.386 469.293   6
   8   5   0 569.579 510.183   3
   8   5   0 322.344 233.083   7
  -9   5   0 7037.22 1852.23   6
   9   5   0 4458.60 1404.22   7
 -10   5   0 1989.01 1023.92   6
 -10  -5   0 2050.65 789.186  12
  10   5   0 15.5453 73.2871  11
  11   5   0-10.6151 59.8095  11
 -11  -5   0 1225.52 643.654  12
  11   5   0 1260.89 719.803   9
 -12  -5   0 2816.51 976.889  12
  12   5   0 2874.61 1074.13   9
  12   5   0 5.86929 43.3107  11
  13   5   0 1204.96 736.995   9
 -13  -5   0 2052.78 798.067  12
  13  -5   0 226.087 238.402  19
  14   5   0 961.808 671.070   9
  14  -5   0-77.3037 125.689  19
 -14  -5   0 604.736 434.698  12
  15   5   0-140.550 251.299   9
  16   5   0 374.882 280.938   9
   2   6   0 63015.7 5188.88   7
   2  -6   0 57816.1 4797.44   8
   3   6   0 18765.2 2889.04   7
   4   6   0 1607.30 787.748   7
   5   6   0 411.973 543.868   7
   6   6   0 1099.85 747.620   7
   7   6   0 13213.5 2516.66   7
   7   6   0 4.79216 40.7480  11
   8   6   0 614.476 526.444   7
   8   6   0 21.2173 86.0221  11
  -8  -6   0 1261.28 629.092  12
   9   6   0-5.36631 43.0070  11
  -9  -6   0 7979.44 1597.77  12
  10   6   0-8.72992 53.9280  11
 -10  -6   0 6240.73 1406.87  12
  11   6   0-2.54125 28.3648  11
 -11  -6   0 7629.61 1530.67  12
 -12  -6   0 742.216 465.887  12
  12  -6   0 260.534 250.243  19
  12   6   0-4.97415 37.7329  11
  13  -6   0-245.715 220.506  19
 -13  -6   0 26.2856 133.243  12
  14  -6   0 68.3233 99.6046  19
   0  -7   0-2.39406 258.343   8
   1  -7   0 244.369 229.442   8
  -1   7   0-814.942 1082.41  20
  -2   7   0-452.618 965.287  20
   3   7   0 926.241 650.608  13
  -3   7   0-182.201 845.565  20
   4   7   0 6.81127 49.1834  11
  -4   7   0 1360.08 1688.76  20
   4   7   0 460.087 399.027  13
   5   7   0 4995.00 1295.99  13
   5   7   0 2.60690 30.1643  11
   6   7   0 292.278 399.793  13
   6   7   0-2.99063 31.9617  11
   7   7   0-9.47107 56.5186  11
  -7  -7   0 409.269 372.128  12
   8   7   0 5.72947 43.5862  11
  -8  -7   0-129.749 258.933  12
  -9  -7   0 160.312 242.603  12
   9   7   0 5.28925 41.1226  11
 -10  -7   0-32.2663 110.124  12
  10   7   0 5.31145 39.7763  11
 -11  -7   0 52.4744 151.520  12
  11  -7   0 91.1565 137.452  19
  11   7   0 12.7122 58.2616  11
  12  -7   0-25.0919 65.0654  19
   0   8   0-382.488 916.846  20
   1   8   0-125.366 371.607  20
  -1   8   0 267.544 845.182  20
   2   8   0-147.005 309.037  20
   3   8   0 7.04977 49.7618  11
   3   8   0 483.323 770.681  20
   4   8   0-5.94090 45.1733  11
   5   8   0 4.18705 37.3386  11
   6   8   0 4.41215 37.5060  11
   7   8   0-3.97200 34.6528  11
   8   8   0-4.83662 37.0369  11
   9   8   0-4.25904 33.2481  11
  10   8   0 4.22051 31.0683  11
  10  -8   0 100.243 125.488  19
   0   9   0-2.69968 28.8725  11
   1   9   0-12.1428 61.1618  11
   2   9   0 1.00733 17.4777  11
   3   9   0-0.58638 13.1648  11
   4   9   0 0.18723 7.29368  11
   5   9   0-10.9489 54.2304  11
   6   9   0 3.59532 29.9059  11
   7  -9   0-18.7268 50.8665  19
   7   9   0-0.88615 14.1047  11
   8   9   0-8.35895 40.6462  11
   9   9   0-3.50868 24.3976  11
   0  10   0 5.84332 33.9372  11
   1  10   0 0.81874 12.7957  11
  -1  10   0 6.05204 33.7278  11
   2  10   0 7.36424 38.1433  11
   3  10   0-4.37289 28.8628  11
   4  10   0 4.34201 27.8636  11
   5  10   0-0.77099 11.2050  11
   6  10   0-3.88731 23.5425  11
  18   0  -1 179.933 312.743  18
  17   0  -1-43.9943 253.764  18
  17   0  -1-332.914 319.550   9
  16   0  -1-112.348 45.9601   9
  16   0  -1-301.834 566.499  18
  15   0  -1-93.7315 191.159   9
  15   0  -1 209.866 440.981  18
  14   0  -1-145.016 350.147   9
  14   0  -1 70.7219 325.035  18
  12   0  -1-36.6958 153.526   5
 -12   0   1 111.038 246.506   6
  11   0  -1 65.5454 235.735   5
 -11   0   1 90.7498 230.280   6
  10   0  -1 36.1088 119.174   3
 -10   0   1-77.6989 200.698   6
  10   0  -1-78.9369 174.233   5
  -9   0   1 11.9793 51.0356   6
   9   0  -1-60.5512 102.716   3
   9   0  -1 13.2560 103.337   5
   8   0  -1 123.542 212.343   5
   8   0  -1 44.9472 59.7311   3
  -8   0   1 708.224 365.651   6
   7   0  -1 16.6469 35.2992   5
   7   0  -1 141.586 126.837   3
  -7   0   1 8.71435 106.207   6
   6   0  -1 109.056 98.5910   3
   6   0  -1 6.25481 38.9723   5
  -6   0   1 56.1068 73.1962   1
  -5   0   1 75.9844 137.791   1
   5   0  -1 208.427 113.554   3
   5   0  -1 258.693 186.295   1
  -4   0   1 23.4549 50.4141   1
   4   0  -1 71.5962 85.1266   1
   3   0  -1 34.6739 27.8723   1
  -3   0   1 110.407 84.9408   1
   2   0  -1 34.1189 32.6909   1
  -1   0   1 34.7476 29.6377   2
   1   0   1 225.173 90.3722   2
  -2   0  -1 202.276 95.9699   2
   3   0   1 16.6017 54.4566   3
  -4   0  -1 1.44890 53.4426   1
   4   0   1-33.7228 89.1373   3
   5   0   1 34.9604 95.2509   3
   5   0   1 1.84884 91.5053   5
  -5   0  -1-15.4500 74.5839   1
   6   0   1 24.8566 29.6886   5
   7   0   1 6629.93 1156.83   5
   8   0   1 15.7772 122.037   5
   9   0   1 33.4779 105.464   5
  10   0   1 172.974 228.030   5
  11   0   1 85.6561 107.831   5
 -11   0  -1 47.7286 300.084   6
  12   0   1 68.4989 144.267   5
 -12   0  -1-35.6583 104.897   6
  13   0   1-61.8841 296.590   5
  13   0   1 66.1572 165.375  16
  13   0   1-128.666 476.523  18
  13   0   1-65.9993 278.038   9
  14   0   1-76.6086 282.703   9
  14   0   1-22.6622 109.542  18
  14   0   1 144.525 233.688  16
  15   0   1 11.0728 161.617   9
  15   0   1-225.764 495.245  18
  16   0   1-117.303 316.962  18
  17   0   1-135.526 444.902  18
  18   0   1-60.0461 153.053  18
  19   1  -1-17.4833 164.734   9
  18   1  -1 11.1736 87.8183   9
  18  -1  -1-212.611 278.054  18
  18   1  -1-119.125 114.652  18
  17   1  -1 49.4723 320.122  18
  17  -1  -1 25.1364 91.4342  18
  17   1  -1 1859.12 766.830   9
  16   1  -1 10.2690 283.829  18
  16  -1  -1-126.865 202.687  18
  16   1  -1 1403.88 747.877   9
  15  -1  -1 120.275 376.663  18
  15   1  -1 4182.65 1334.65   9
  15   1  -1-132.078 321.565  18
  14  -1  -1-394.812 532.128  18
  14   1  -1 4055.59 1272.08   9
  14   1  -1-38.8906 387.772  18
 -14   1   1 3556.16 1377.66   6
 -13   1   1 1007.65 745.619   6
  13   1  -1 150.044 124.065  18
  13  -1  -1 954.077 611.325   5
  13  -1  -1 223.538 452.361  18
  12  -1  -1 256.254 375.390   5
 -12   1   1-43.1978 290.267   6
 -11   1   1 341.262 314.739   6
  11   1  -1 594.253 414.894   3
  11  -1  -1 406.324 364.296   5
  10  -1  -1 3342.45 987.045   5
 -10   1   1 3374.97 1023.05   6
  10   1  -1 3124.17 964.987   5
  10   1  -1 2821.46 825.638   3
  -9   1   1 95173.5 5158.39   6
   9   1  -1 91057.1 4897.29   5
   9   1  -1 92910.0 4524.85   3
  -9  -1   1 86691.3 4613.38   6
   9  -1  -1 89529.7 4689.19   5
   8   1  -1 37149.6 2893.63   5
   8   1  -1 37585.6 2607.40   3
   8  -1  -1 37170.2 2781.09   5
  -8  -1   1 34960.7 2671.03   6
   7   1  -1 292.168 211.961   3
   7   1  -1 207.564 191.216   5
   7  -1  -1 344.230 218.585   3
   7  -1  -1 314.412 247.714   5
  -7  -1   1 367.999 261.960   6
   6   1  -1 331615. 7302.49   5
   6  -1  -1 325205. 7065.23   5
   6   1  -1 329417. 6356.33   3
  -6   1   1 307161. 6986.26   1
   6  -1  -1 319485. 5598.60   3
  -6  -1   1 297192. 6481.41   6
  -5  -1   1 267488. 6937.92   1
   5   1  -1 266356. 6088.83   5
   5  -1  -1 255047. 4452.27   3
   5  -1  -1 272115. 5845.68   5
  -5   1   1 263729. 3221.47   2
  -5   1   1 258407. 5476.03   1
   5   1  -1 255585. 6375.79   1
   4  -1  -1 68413.6 1948.66   3
  -4   1   1 77664.8 1651.61   2
   4   1  -1 74475.4 3019.39   1
  -4   1   1 78706.9 2500.59   1
   4   1  -1 73291.6 2894.98   5
   3   1  -1 137.937 99.7652   1
  -3   1   1 176.040 79.0914   2
  -3   1   1 213.952 106.076   1
   2   1  -1 442324. 5901.72   1
   1  -1  -1 4224.22 450.929   2
   0  -1  -1 67332.0 1462.46   1
  -1  -1  -1 9936.91 772.634   1
   2  -1   1 31118.3 833.588   2
   2   1   1 28860.6 1341.05   3
   3   1   1 225499. 4279.83   3
   4   1   1 681790. 8313.47   3
   4  -1   1 678114. 8768.30   5
   4   1   1 651004. 8947.11   5
   5   1   1 1198.49 376.339   3
   5  -1   1 944.984 347.580   5
  -5   1  -1 1017.51 387.097   1
   5   1   1 995.096 372.946   5
   6   1   1 103472. 4162.70   5
   6   1   1 107825. 4050.67   3
   6  -1   1 102830. 4132.96   5
   7   1   1 34980.6 2463.34   3
   7   1   1 33939.6 2631.69   5
   7  -1   1 34896.9 2628.72   5
   8  -1   1 1388.55 564.312   5
   8   1   1 1571.50 590.942   5
   8   1   1 1313.07 517.754   3
   9  -1   1 18179.4 2216.78   5
   9   1   1 17334.4 2174.39   5
  10   1   1 10703.2 1842.80   5
  10  -1   1 10984.4 1846.91   5
  11   1   1 8374.57 1711.69   5
  11  -1   1 9673.25 1836.51   5
 -12   1  -1 408.479 301.515   6
  12   1   1 291.813 293.130   5
  12  -1   1 256.583 231.704   5
  13  -1   1-145.565 440.696  18
  13  -1   1 51.9842 362.351  16
  13   1   1 908.847 578.664   9
  13   1   1 126.961 54.3261  16
  13   1   1-112.858 242.013  18
 -13   1  -1 657.082 590.179   6
  13  -1   1 491.289 389.926   5
  14  -1   1-34.4338 263.405  16
  14  -1   1 33.6293 401.095  18
  14   1   1 221.527 275.981   9
  14   1   1 0.39723 57.4032  18
  15  -1   1-47.6972 85.3124  18
  15   1   1 160.745 445.744  18
  15   1   1 894.477 571.665   9
  16  -1   1 70.9961 576.532  18
  16   1   1 60.1797 319.042  18
  16   1   1-227.837 353.958   9
  17   1   1 151.791 259.871   9
  17   1   1 249.448 367.381  18
  17  -1   1 30.6766 260.158  18
  18   1   1 57.5036 183.044  18
  18  -1   1-83.0466 90.3278  18
  18   1   1 154.294 272.487   9
  19   2  -1 925.009 414.787   9
  18   2  -1 448.533 308.040   9
  17   2  -1 14.4144 184.623   9
  17  -2  -1 81.9937 100.168  18
  17   2  -1-249.455 321.019  18
  16   2  -1 35.1474 264.326  18
  16  -2  -1 5.35950 413.589  18
  16   2  -1 474.257 459.123   9
  15   2  -1 47.5575 66.8832  18
  15   2  -1 3725.98 1200.71   9
  15  -2  -1-277.087 443.902  18
  14  -2  -1-256.446 427.199  18
  14   2  -1 2701.30 1080.76   9
  14   2  -1-10.5547 374.199  18
  13   2  -1 1179.83 723.401   9
  13   2  -1-93.4340 296.922  18
 -13   2   1 1488.03 902.652   6
  13  -2  -1 1190.58 743.785   5
  12  -2  -1 10169.4 1952.14   5
 -12   2   1 12884.5 2548.58   6
  12   2  -1 10492.2 1952.51   3
  11  -2  -1 9844.26 1865.30   5
  11   2  -1 9874.58 1755.57   3
 -11   2   1 11064.3 2176.59   6
  10   2  -1 11510.9 1775.83   3
 -10   2   1 13574.7 2200.36   6
  10  -2  -1 13700.6 2033.90   5
  -9   2   1 9284.39 1699.42   6
   9  -2  -1 9305.47 1540.99   5
   9   2  -1 8890.08 1439.73   3
   8   2  -1 71846.7 3832.78   3
   8  -2  -1 72255.5 4024.22   5
   7  -2  -1 51381.3 3128.81   5
   7   2  -1 49937.2 2948.55   3
   6  -2  -1 169046. 5267.02   5
   5  -2  -1 35153.3 2200.66   5
   4  -2  -1 167.868 117.177   5
   4   2  -1 306.873 240.752   1
  -4   2   1 465.244 144.866   1
   4  -2  -1 265.448 88.1823   2
   3   2  -1 75234.8 3247.11   1
   3  -2  -1 76039.4 2047.69   2
   2  -2  -1 3752.83 531.953   2
   2   2  -1 3167.24 599.588   1
   1   2  -1 490902. 6870.92   1
   1   2   1 10329.1 939.502   1
   1   2   1 9020.99 735.721   3
  -1  -2  -1 11844.2 1022.59   1
   2   2   1 22744.3 1356.50   3
  -2  -2  -1 24613.7 1708.67   1
   2   2   1 22629.0 1639.20   7
  -3  -2  -1 158798. 4923.12   1
   3   2   1 152430. 4385.19   7
   3   2   1 149681. 3909.99   3
   3  -2   1 154546. 2058.86   2
   3  -2   1 143045. 3899.09   5
   4   2   1 32849.3 1997.91   3
   4   2   1 27029.8 1835.65   5
   4  -2   1 32035.9 2023.03   5
   4   2   1 30097.7 2087.59   7
   5  -2   1 102777. 3933.61   5
   5   2   1 91827.9 3812.73   5
   5   2   1 105238. 3907.43   3
   5   2   1 83103.7 3940.78   7
  -5   2  -1 92095.6 3733.66   1
   6   2   1 41163.7 2682.95   3
   6  -2   1 42071.9 2755.40   5
   6   2   1 39248.0 2692.26   5
   7   2   1 112127. 4961.65   5
   7   2   1 120754. 4922.82   3
   7  -2   1 124166. 5193.04   5
   8  -2   1 8539.03 1497.17   5
   8   2   1 7863.44 1328.15   3
   8   2   1 9848.64 1583.25   5
   9  -2   1 2101.65 825.094   5
   9   2   1 2332.81 837.795   5
   9   2   1 2136.64 734.702   3
  10   2   1 5240.49 1341.95   5
  10  -2   1 6379.63 1422.90   5
  11  -2   1 250.832 326.983   5
  12  -2   1 7093.12 1700.56   5
 -12   2  -1 6803.27 1835.05   6
  13   2   1-94.5219 31.8409  18
  13  -2   1 1021.57 633.128  16
  13  -2   1 1364.49 795.206   5
 -13   2  -1 1025.00 718.974   6
  13   2   1 2036.69 946.144   9
  14   2   1 259.252 307.187   9
  14   2   1-113.166 497.725  18
  14  -2   1 108.875 130.006  18
  15  -2   1-459.880 550.216  18
  15   2   1 2236.61 947.881   9
  15   2   1-130.897 433.955  18
  16   2   1 251.328 402.234  18
  16  -2   1 123.667 47.2574  18
  16   2   1 138.765 125.457   9
  17  -2   1-108.848 236.132  18
  17   2   1 116.761 77.4599  18
  17   2   1 34.6231 144.290   9
  18   2   1 372.009 286.799   9
  18   3  -1-167.996 230.199   9
  17   3  -1 122.752 203.666   9
  16  -3  -1-278.005 422.444  18
  16   3  -1-208.842 376.035   9
  15   3  -1 76.6949 448.721  18
  15  -3  -1-139.570 229.909  18
  15   3  -1 838.430 591.018   9
  14   3  -1 423.230 588.623  18
 -14  -3   1 2459.14 975.024  12
  14   3  -1 3287.88 1221.34   9
  13   3  -1 164.136 294.269   9
  13  -3  -1 237.397 256.728   5
 -13  -3   1 201.916 158.807  12
  13   3  -1-193.145 470.670  18
 -13   3   1 122.790 303.768   6
  13  -3  -1 83.0015 159.267  19
  12  -3  -1-490.960 391.484  19
  12  -3  -1 824.829 555.179   5
  12   3  -1 1221.71 935.796  18
 -12   3   1 942.130 614.409   6
  11  -3  -1 601.779 472.729   5
  11   3  -1 871.350 567.279   3
 -11   3   1 907.756 699.028   6
 -10   3   1 26366.8 3350.12   6
  10   3  -1 15337.5 2611.09   7
  10  -3  -1 24503.4 2729.84   5
  10   3  -1 21885.5 2618.90   3
   9   3  -1 5332.86 1171.49   3
   9  -3  -1 5775.04 1235.57   5
  -9   3   1 5591.51 1425.27   6
   8  -3  -1 1321.95 546.147   5
   8   3  -1 1103.92 509.009   3
  -8   3   1 1567.51 696.042   6
   7   3  -1 2871.14 766.354   3
   7  -3  -1 2868.81 752.350   5
   6  -3  -1 167.257 183.822   5
   5  -3  -1 2517.20 598.897   5
   4  -3  -1 1572.28 472.680   8
   3   3  -1 77437.1 3885.09   1
   3   3  -1 94861.8 4080.31   7
   3  -3  -1 85927.7 3544.03   8
   2   3  -1 53236.1 2973.41   1
   2   3  -1 53589.9 3061.04   7
  -1   3   1 11601.2 1378.44   7
   1   3  -1 11088.4 1245.03   1
   1   3  -1 10463.9 1302.14   7
   0   3   1 320.836 257.840   7
   0   3   1 459.289 159.916   3
   0   3  -1 544.550 279.650   7
   0   3  -1 400.682 209.353   1
   1   3   1 1628.74 359.611   3
  -1   3  -1 1892.01 558.148   7
   1   3   1 1734.04 546.795   7
   2   3   1 18182.0 1395.79   3
   2   3   1 22114.0 1920.13   7
  -2   3  -1 18844.9 1774.62   7
   3  -3   1 441.512 222.689   5
   3   3   1 527.669 296.496   7
   3   3   1 521.656 254.858   3
   4   3   1 19457.9 1986.38   7
   4   3   1 20753.2 1777.61   3
   4  -3   1 19857.3 1717.43   5
   5   3   1 5419.57 1123.78   7
   5   3   1 7338.02 1123.99   3
   5  -3   1 8027.44 1174.28   5
   6  -3   1 297.569 240.797   5
   6   3   1 219.451 281.111   7
   6   3   1 201.461 201.625   3
   7   3   1 10253.5 1556.84   3
   7  -3   1 10449.8 1581.46   5
   7   3   1 5691.05 1354.57   7
   8  -3   1 1795.34 697.379   5
   8   3   1 1653.35 661.112   3
   9   3   1 1412.36 611.384   3
   9  -3   1 1793.66 770.309   5
  10  -3   1 9629.34 1894.08   5
  11  -3   1 3341.30 1095.43   5
 -11   3  -1 3639.46 1319.78   6
  12   3   1-34.0979 319.074  18
 -12  -3  -1 261.808 326.303  12
 -12   3  -1 311.190 342.307   6
  12   3   1 394.475 382.770   9
  12  -3   1 222.994 196.145   5
 -13  -3  -1 861.174 521.891  12
  13   3   1 31.1380 301.911  18
  13   3   1 1300.94 749.257   9
  14   3   1 501.612 583.625   9
  14   3   1-68.3951 254.456  18
  15   3   1 113.155 249.218  18
  15  -3   1 109.871 193.192  18
  15   3   1 359.927 470.455   9
  16   3   1 347.963 266.804   9
  16  -3   1-77.0631 186.560  18
  17  -3   1-103.105 211.518  18
  17   3   1-89.9122 96.1226   9
  18   3   1-144.255 249.074   9
  18   4  -1 674.117 333.332   9
  17   4  -1 309.289 202.555   9
  16   4  -1 922.393 559.139   9
  15   4  -1 237.065 344.127   9
  14   4  -1 2064.28 917.145   9
  14  -4  -1-489.126 355.433  19
 -14  -4   1 2111.62 851.878  12
  13   4  -1 8222.80 1944.53   9
  13  -4  -1-286.181 290.215  19
 -13  -4   1 10659.0 1915.88  12
 -12   4   1 1488.49 873.741   6
  12   4  -1 1516.21 743.297   9
 -12  -4   1 1832.35 763.349  12
  12  -4  -1-413.156 358.868  19
 -11  -4   1 25600.7 2952.34  12
 -11   4   1 28266.3 3948.62   6
  10   4  -1 2295.24 1112.11   7
 -10   4   1 5849.85 1684.99   6
  10   4  -1 5698.09 1436.47   3
   9   4  -1 901.958 627.485   7
   9   4  -1 1495.79 663.303   3
  -9   4   1 1658.42 819.446   6
   8   4  -1 4544.67 1125.61   3
   8   4  -1 3218.51 1049.36   7
  -8   4   1 4548.89 1323.71   6
   7   4  -1 9911.16 1609.82   3
   7   4  -1 8667.14 1654.65   7
  -7   4   1 9919.56 1796.69   6
   6   4  -1 48119.1 3276.29   3
  -6   4   1 50522.7 3744.48   6
   6   4  -1 48147.8 3757.63   7
   5   4  -1 3126.04 881.889   7
  -5   4   1 2917.23 817.131   6
   4  -4  -1 118528. 4780.06   8
   4   4  -1 119364. 5506.05   7
  -4   4   1 106853. 4712.87   6
   3   4  -1 49534.2 3505.32   7
   3  -4  -1 50583.2 3216.44   8
   2   4  -1 562.565 334.933   7
   1  -4  -1-170.323 257.019   8
   1   4  -1-41.3203 120.431   7
   0   4  -1 1159.18 542.073   7
   0   4   1 1279.82 559.843   7
  -1   4  -1 3893.00 1048.87   7
   1   4   1 4808.24 1067.11   7
   2   4   1 6765.32 1291.22   7
   3   4   1 327.856 218.674   3
   3   4   1 176.319 228.904   7
   4   4   1 15012.0 1985.51   7
   4   4   1 13204.2 1559.92   3
   5   4   1 954.291 417.275   3
   5   4   1 1179.63 581.166   7
   6   4   1 23925.8 2476.28   3
   6   4   1 23385.3 2658.47   7
   7   4   1 2717.56 857.457   3
   7   4   1 2458.27 837.979   7
   8   4   1 16233.3 2267.08   3
   8   4   1 15022.7 2233.12   7
   9   4   1 782.300 469.685   3
 -10   4  -1 70.7656 179.535   6
  11   4   1 14669.3 2513.39   9
 -11   4  -1 15007.1 2883.42   6
 -11  -4  -1 15687.3 2299.65  12
  11   4   1 16565.6 3441.39  18
  11   4   1 11.8280 63.3629  11
  12   4   1 2210.81 1247.32  18
  12   4   1 1208.80 671.519   9
 -12  -4  -1 2082.78 868.252  12
  13   4   1 12637.5 2289.83   9
 -13  -4  -1 11442.7 1993.45  12
 -14  -4  -1 144.173 248.388  12
  14   4   1 127.090 243.734   9
  15   4   1 1370.25 676.443   9
  15  -4   1-62.0375 106.142  18
 -15  -4  -1 1441.25 654.869  12
  16   4   1 718.502 462.845   9
  16  -4   1 94.0255 116.494  18
  17   4   1 94.1276 142.926   9
  17   5  -1 82.8357 49.2768   9
  16   5  -1 952.148 447.556   9
  15   5  -1 191.598 72.1498   9
  15  -5  -1-313.611 228.155  19
 -14  -5   1-137.973 247.171  12
  14  -5  -1 344.020 275.483  19
  14   5  -1 152.641 52.2889   9
  13   5  -1-414.073 390.330   9
 -13  -5   1-39.7895 195.776  12
  13  -5  -1 195.792 226.571  19
 -12  -5   1 72.1300 357.771  12
  12  -5  -1-362.607 325.844  19
  12   5  -1 12.5281 63.2301  11
  12   5  -1-5.90437 116.964   9
  11   5  -1 5425.47 1515.32   9
  11   5  -1-3.72093 35.3318  11
 -11  -5   1 6330.91 1416.88  12
  10   5  -1 58.7266 94.7554   7
  10   5  -1-14.8569 71.2863  11
 -10  -5   1 68.1737 177.607  12
 -10   5   1-17.7384 354.114   6
  -9   5   1 15566.6 2714.57   6
   9   5  -1 13413.3 2368.21   7
   9   5  -1 12071.5 2178.25   3
   8   5  -1 1621.75 776.597   7
  -8   5   1 2129.09 910.532   6
   8   5  -1 1444.35 674.854   3
   7   5  -1 1300.51 690.369   7
   7   5  -1 1817.35 729.175   3
   6   5  -1 18689.9 2666.93   7
   6   5  -1 16378.9 2161.89   3
   5   5  -1 1006.67 613.256   7
   4  -5  -1 45893.2 3382.16   8
   4   5  -1 51154.0 4122.83   7
   3  -5  -1 9239.13 1531.38   8
   3   5  -1 9597.30 1787.37   7
   2  -5  -1 1129.83 697.554   8
   2   5  -1 3574.25 1101.22   7
   1   5  -1 12783.3 2036.95   7
   0  -5  -1-42.5595 137.070   8
   0   5  -1 2938.67 1006.44   7
   1   5   1 8438.07 1652.38   7
   2   5   1 22839.3 2707.72   7
   3   5   1 1273.32 639.772   7
   4   5   1 16016.9 2360.26   7
   5   5   1 3645.64 1126.38   7
   6   5   1 11949.6 2161.84   7
   7   5   1 739.463 581.672   7
   7   5   1 932.598 614.577   3
  -8   5  -1 1914.13 903.252   6
   8   5   1 1040.22 668.689   7
   8   5   1 1908.47 829.691   3
   9   5   1 7.65875 51.3859  11
  -9   5  -1 23994.6 3483.53   6
  -9  -5  -1 23047.7 2675.42  12
 -10  -5  -1 567.711 320.226  12
  10   5   1 7.07933 49.4013  11
 -10   5  -1 500.406 385.582   6
  10   5   1 653.086 581.381   9
  11   5   1-4.98136 40.8061  11
 -11  -5  -1 4055.58 1168.12  12
  11   5   1 3039.51 1170.29   9
 -12  -5  -1 259.176 276.955  12
  12   5   1 3.70173 124.004   9
  13  -5   1 218.964 226.927  19
  13   5   1 1780.14 847.765   9
 -13  -5  -1 2094.67 791.049  12
 -14  -5  -1 365.862 350.328  12
  14   5   1 198.578 280.226   9
  15  -5   1 12.4891 140.137  18
  15   5   1 1027.53 524.050   9
  14  -6  -1-401.780 254.836  19
  13  -6  -1 101.405 145.571  19
  12  -6  -1-70.1687 131.662  19
  12   6  -1-2.33180 25.9236  11
 -12  -6   1 545.325 420.316  12
  11   6  -1-2.79284 29.8288  11
 -11  -6   1-60.0072 169.701  12
  10   6  -1-3.63667 34.9405  11
 -10  -6   1 308.840 336.237  12
   9   6  -1-3.08886 32.8107  11
  -9  -6   1-0.21010 244.604  12
   8   6  -1-123.526 311.349   7
   8   6  -1-5.09314 42.3733  11
  -8  -6   1 141.128 170.952  12
   7   6  -1 1326.55 1024.98   7
   7   6  -1-6.82677 48.9228  11
   6   6  -1 2509.45 1094.49   7
   5   6  -1 1498.11 761.126   7
   4   6  -1 1296.60 712.588   7
   3  -6  -1 1000.29 590.627   8
   3   6  -1 715.198 553.120   7
   2   6  -1 440.455 389.381   7
   2  -6  -1 347.856 368.396   8
   1   6  -1-190.195 367.473   7
   1  -6  -1 19.3344 96.7323   8
   3   6   1 230.161 57.1328   7
   4   6   1 8642.20 1929.28   7
   5   6   1 1736.71 861.312   7
   6   6   1 6611.75 1735.67   7
   7   6   1 25.5668 93.3966  11
   7   6   1-159.628 180.570   7
  -7  -6  -1 165.348 330.884  12
   8   6   1-23.2975 126.463   7
   8   6   1 1.39887 21.9129  11
  -8  -6  -1 480.480 407.897  12
   9   6   1-5.23222 42.0724  11
  -9  -6  -1 3800.64 1085.14  12
  10   6   1-1.31428 20.7698  11
 -10  -6  -1 629.203 426.198  12
  11   6   1-0.41266 11.3217  11
 -11  -6  -1 332.766 307.901  12
 -12  -6  -1 1990.46 767.232  12
  12  -6   1-60.8598 117.907  19
  13  -6   1 205.100 192.289  19
 -13  -6  -1 106.761 136.271  12
  13  -7  -1 7.82154 32.3759  19
  12  -7  -1-267.619 217.030  19
  12   7  -1-7.15682 40.7853  11
  11  -7  -1 96.0994 142.618  19
  11   7  -1 6.66532 42.4988  11
  10   7  -1-9.04367 52.3344  11
 -10  -7   1 1393.38 654.477  12
   9   7  -1 7.98482 50.9218  11
  -9  -7   1 289.696 359.687  12
   8   7  -1-4.27016 37.9326  11
  -8  -7   1 360.342 336.620  12
   7   7  -1 3.00192 32.1541  11
   7   7  -1 683.833 390.635  13
   6   7  -1 1.64906 23.9950  11
   6   7  -1 1191.22 622.713  13
   5   7  -1 10.9216 61.7756  11
   5   7  -1 247.857 337.590  13
   5   7  -1 377.531 518.871   7
   4   7  -1 1942.09 1196.92  20
   4   7  -1 12746.1 2744.91   7
   4   7  -1 14108.1 2213.61  13
  -3   7   1 450.619 1110.41  20
   3   7  -1 8218.75 1682.78  13
   2   7  -1 586.131 432.097  13
   2  -7  -1 753.168 548.203   8
  -2   7   1 2052.42 1450.88  20
  -1   7   1-266.564 505.747  20
   1  -7  -1 19327.1 2907.01   8
   0  -7  -1 97.1836 300.162   8
   1  -7   1 30539.4 3923.64   8
  -1   7  -1 11433.5 3660.18  20
  -1  -7  -1 34439.6 4815.92   8
  -2   7  -1 4471.41 2176.84  20
  -3   7  -1 1801.13 1571.39  20
   3   7   1-2.48576 29.8735  11
   4   7   1 1.95051 26.3458  11
  -4   7  -1-489.182 880.199  20
  -5   7  -1 456.678 316.309  20
   5   7   1 2.85198 31.6103  11
   6   7   1-10.5513 60.0040  11
   7   7   1-5.46394 42.3180  11
  -7  -7  -1 110.023 173.561  12
   8   7   1-2.35995 27.6449  11
  -8  -7  -1 5073.78 1247.96  12
   9   7   1 9.85567 55.3974  11
  -9  -7  -1-92.8740 272.101  12
  10   7   1-4.75227 37.0549  11
 -10  -7  -1 96.2431 171.740  12
  11   7   1-3.74281 31.0934  11
 -11  -7  -1 15.4437 87.4777  12
  11  -7   1 97.9167 139.208  19
  12  -7   1-18.6985 53.9914  19
 -12  -7  -1 64.1395 85.9873  12
  11   8  -1-4.74041 30.5777  11
  10   8  -1 1.39798 18.1272  11
  10  -8  -1 133.261 147.296  19
   9  -8  -1 26.4347 71.4725  19
   9   8  -1-8.05272 46.2929  11
   8   8  -1-4.77447 37.2549  11
   7   8  -1 5.70512 42.0451  11
   6   8  -1 7.00905 47.5238  11
   5   8  -1 1.10036 19.1345  11
   4   8  -1 1.82600 25.0515  11
   4   8  -1 168.479 556.532  20
   3   8  -1 4328.73 1888.95  20
   2   8  -1 86.6498 141.649  20
   1   8  -1 17517.2 4258.78  20
   0   8  -1 943.512 939.016  20
  -1   8  -1 5549.42 2450.84  20
  -2   8  -1 6779.46 2723.69  20
   2   8   1-7.62649 51.8465  11
   3   8   1-17.2600 77.4492  11
  -3   8  -1 1842.75 1536.05  20
   4   8   1-4.08135 37.2603  11
   5   8   1 2.83969 30.5981  11
   6   8   1-0.20787 8.09637  11
   7   8   1 16.5357 69.9862  11
   8   8   1 3.04117 28.8097  11
   9   8   1 0.16312 6.36961  11
  -9  -8  -1 528.560 325.160  12
  10  -8   1 86.8759 113.190  19
  10   8   1-2.29492 22.3582  11
  10   9  -1 3.28181 21.5892  11
   9   9  -1 1.17697 14.4118  11
   8   9  -1 0.54255 10.5555  11
   7   9  -1-0.15149 5.90893  11
   6  -9  -1-266.623 200.491  19
   6   9  -1-5.12651 35.9483  11
   5   9  -1 2.32123 25.1341  11
   4   9  -1-0.56788 12.7904  11
   3   9  -1 11.2700 58.1583  11
   2   9  -1 12.2497 61.5061  11
   1   9  -1-11.2589 59.4619  11
  -1   9   1 1.80479 22.9670  11
   0   9   1 4.63764 37.1083  11
   1   9   1 2.40297 26.7327  11
   2   9   1-4.52010 36.4507  11
   3   9   1 13.3353 61.8206  11
   4   9   1-0.91199 15.8549  11
   5   9   1 5.15366 36.6331  11
   6   9   1-2.85433 26.2095  11
   7   9   1-0.42832 9.62834  11
   8   9   1-3.99592 27.4403  11
   9   9   1 0.53067 9.17199  11
   6  10  -1 5.11520 27.5180  11
   5  10  -1 3.39530 23.9069  11
   4  10  -1 0.12368 4.77742  11
   3  10  -1-2.50379 22.1867  11
   2  10  -1-4.39766 29.9873  11
   1  10  -1 3.50991 27.0078  11
   0  10  -1 8.42385 41.6722  11
   1  10   1 5.78781 32.7811  11
  -1  10  -1-1.36996 16.5024  11
  -2  10  -1-5.94557 33.0993  11
   2  10   1 7.98193 38.3813  11
   3  10   1 5.35862 30.9138  11
   4  10   1-3.88198 25.4968  11
   5  10   1 3.32342 22.4694  11
  18   0  -2 718.354 365.565   9
  18   0  -2 90.7230 186.744  18
  17   0  -2 74.2523 203.111  18
  17   0  -2 3738.59 1129.37   9
  16   0  -2 259.572 429.457  18
  16   0  -2 3159.93 1132.97   9
  15   0  -2-259.950 453.174  18
  15   0  -2 518.292 505.905   9
  14   0  -2 16.0878 216.693  18
  14   0  -2 9242.60 1925.73   9
 -13   0   2 114.014 149.116   6
 -12   0   2 4262.72 1322.23   6
  11   0  -2 404.738 304.914   3
 -11   0   2 721.589 491.477   6
  10   0  -2 6533.55 1356.26   5
 -10   0   2 6139.15 1350.50   6
  10   0  -2 5843.28 1137.29   3
  -9   0   2 67063.1 4195.70   6
   9   0  -2 63193.9 3924.49   5
   9   0  -2 62171.8 3401.78   3
   8   0  -2 769.525 351.223   3
   8   0  -2 1084.21 465.438   5
  -8   0   2 1113.74 479.723   6
   7   0  -2 10195.9 1155.67   3
  -7   0   2 10971.0 1433.24   6
   7   0  -2 9774.40 1306.29   5
   6   0  -2 128909. 4404.17   5
   6   0  -2 128446. 4526.19   1
  -6   0   2 133996. 4598.69   6
  -5   0   2 117179. 3901.25   6
   5   0  -2 121598. 3926.90   1
   5   0  -2 116186. 3878.47   5
   4   0  -2 79109.5 2807.89   1
   3   0  -2 78077.3 2466.37   1
  -3   0   2 77176.4 2397.78   2
  -2   0   2 179926. 3354.21   2
  -1   0   2 660390. 6137.50   2
   1   0   2 229554. 3626.44   2
  -1   0  -2 258062. 3977.50   2
  -2   0  -2 180190. 3643.81   2
  -3   0  -2 540.319 220.402   2
   4   0   2 400558. 6931.41   5
  -4   0  -2 415105. 6683.86   2
  -5   0  -2 81534.8 3210.55   2
   5   0   2 82640.9 3482.27   5
   6   0   2 13239.6 1525.43   5
   7   0   2 275381. 7602.05   5
   8   0   2 16542.9 2036.91   5
   9   0   2 12908.2 1893.90   5
  10   0   2 1549.15 685.758   5
  11   0   2 220.652 200.569   5
  12   0   2 13650.5 2376.23   5
  13   0   2 948.084 1153.93  16
  13   0   2 7453.77 1809.60   5
  13   0   2 50.8500 226.675  18
  14   0   2 56.0177 119.422  16
  14   0   2 62.6913 280.879  18
  15   0   2-76.9324 150.739  18
  16   0   2 60.1856 280.420  18
  17   0   2 280.792 379.422  18
  18   0   2 87.4873 120.560  18
  19   1  -2 363.179 274.748   9
  18   1  -2 12.5901 102.970  18
  18   1  -2 884.471 502.103   9
  17   1  -2 258.959 324.144  18
  17  -1  -2 151.369 127.806  18
  17   1  -2 1697.61 747.027   9
  16   1  -2 250.632 519.285  18
  16  -1  -2-264.786 308.926  18
  16   1  -2-59.3755 204.236   9
  15   1  -2-13.7244 417.523  18
  15  -1  -2 45.5653 121.167  18
  15   1  -2 8010.26 1835.71   9
 -14   1   2 45.6640 148.746   6
  14  -1  -2 79.2358 191.231  18
  14   1  -2 121.639 147.323  18
  14   1  -2-4.16102 120.931   9
 -13   1   2 5429.58 1648.06   6
  12   1  -2 4060.20 1136.19   3
 -12   1   2 5155.19 1490.62   6
  11   1  -2 3087.47 934.431   3
  11  -1  -2 3187.95 1025.82   5
 -11   1   2 3562.49 1178.10   6
 -10  -1   2 310.072 298.792   6
  10   1  -2 405.758 317.578   3
  10  -1  -2 369.811 307.266   5
 -10   1   2 1000.65 578.748   6
  -9  -1   2 134.169 251.690   6
   9   1  -2 96.7584 186.332   3
   9  -1  -2 109.919 207.931   5
  -9   1   2 35.2658 83.9590   6
   8   1  -2 7107.86 1109.82   3
   8  -1  -2 6827.34 1192.07   5
  -8  -1   2 6729.04 1160.94   6
  -8   1   2 7517.99 1319.63   6
   8  -1  -2 6569.96 963.771   3
   7  -1  -2 1497.54 490.330   5
  -7  -1   2 1408.66 469.004   6
  -7   1   2 1452.34 520.573   6
   7  -1  -2 1696.60 430.253   3
  -6  -1   2 195941. 5302.09   6
   6  -1  -2 198932. 4246.00   3
   6  -1  -2 197423. 4609.70   8
   6  -1  -2 206690. 5571.40   5
  -6   1   2 203112. 5744.11   6
   6   1  -2 198158. 6236.65   1
  -5  -1   2 94947.7 3366.85   6
  -5   1   2 104562. 2816.16   2
   5   1  -2 107190. 4171.99   1
   5  -1  -2 108557. 3239.05   1
   5  -1  -2 98104.4 3056.15   8
   5  -1  -2 99255.9 2587.61   3
   5  -1  -2 97515.8 3495.20   5
  -5   1   2 98824.1 3659.00   6
   4  -1  -2 92272.9 2498.17   1
  -4   1   2 91940.7 2542.10   2
   4   1  -2 91935.0 3429.95   1
   3  -1  -2 16151.1 864.022   1
   3  -1  -2 16775.8 1013.95   2
  -3   1   2 16993.9 1087.72   2
   3   1  -2 15544.7 1279.80   1
   2  -1  -2 1479.79 308.967   2
  -2   1   2 1572.25 337.175   2
  -1   1   2 297470. 4769.66   2
   0  -1   2 102940. 2570.84   2
   1  -1   2 21974.2 1121.73   2
   3   1   2 386446. 6119.59   3
  -3   1  -2 391927. 4434.60   2
   3   1   2 378216. 6537.77   4
   4  -1   2 4865.32 770.454   5
  -4   1  -2 4418.66 466.357   2
  -4  -1  -2 6119.03 1033.30   1
   4   1   2 4597.77 756.782   5
   4   1   2 4825.91 749.857   3
   5  -1   2 19257.3 1679.53   5
   5   1   2 18181.7 1711.07   5
   6   1   2 123376. 4736.50   5
   6  -1   2 117763. 4523.76   5
   7  -1   2 15178.6 1810.92   5
   7   1   2 13607.1 1734.33   5
   8  -1   2 6958.23 1310.65   5
   8   1   2 7065.21 1324.85   5
   9   1   2 15688.5 2136.77   5
   9  -1   2 14941.7 2106.57   5
  10   1   2 32.6590 147.061   5
  10  -1   2 18.2773 80.6446   5
  11  -1   2 2189.93 880.169   5
  11   1   2 2342.50 936.574   5
  12  -1   2 125.495 138.545   5
 -12   1  -2 432.294 496.276   6
  12   1   2 359.237 473.649   5
  13  -1   2 312.245 465.835  18
 -13   1  -2 585.543 653.142   6
  13   1   2 255.783 381.952   5
  13  -1   2 652.533 530.615   5
  13   1   2 36.3905 343.254  18
  13  -1   2 466.486 404.253  16
  13   1   2 5.35312 165.700  16
  13   1   2 409.018 232.036   9
  14   1   2 313.236 325.513   9
  14  -1   2 292.219 318.515  16
  14  -1   2 86.7043 324.560  18
  14   1   2-22.7538 349.269  18
  14   1   2-296.110 306.975  16
  15   1   2-107.126 325.407  18
  15  -1   2-139.990 408.143  18
  15   1   2 340.346 315.704   9
  16  -1   2 60.5930 162.969  18
  16   1   2-165.742 394.041  18
  16   1   2-129.286 370.390   9
  17   1   2-110.133 264.273  18
  17   1   2 804.198 465.284   9
  17  -1   2-54.0470 105.615  18
  18  -1   2-11.9589 223.779  18
  18   1   2 31.0188 173.010  18
  19   2  -2 410.419 277.547   9
  18   2  -2-88.5891 147.540   9
  17   2  -2-15.5821 260.676   9
  17   2  -2 411.167 441.539  18
  16   2  -2-223.810 515.281  18
  16   2  -2-223.385 305.417   9
  15   2  -2 280.561 352.656   9
  15   2  -2-113.057 376.273  18
  14   2  -2 1617.39 871.217   9
  14   2  -2-152.851 378.090  18
  13   2  -2-370.224 658.055  18
 -13   2   2 905.914 683.592   6
  13   2  -2 1040.21 497.144   9
 -12   2   2 5178.29 1579.64   6
  12  -2  -2 4458.38 1296.36   5
  12   2  -2 4141.87 1203.59   3
  11   2  -2 1485.51 680.381   3
  11  -2  -2 1941.92 823.051   5
 -11   2   2 1749.42 819.769   6
  10   2  -2 12131.5 1802.39   3
 -10   2   2 13735.6 2259.07   6
  10  -2  -2 12367.7 1903.95   5
   9   2  -2 4587.62 1008.13   3
  -9   2   2 5586.48 1303.56   6
   9  -2  -2 4856.50 1105.78   5
   8   2  -2 39868.9 2746.95   3
   8  -2  -2 44179.8 3054.88   5
  -8   2   2 43465.2 3415.33   6
   7  -2  -2 188.947 189.195   5
  -7   2   2 328.663 294.180   6
   6  -2  -2 119696. 3848.69   8
  -6   2   2 137076. 5059.33   6
   6  -2  -2 133621. 4517.56   5
   5  -2  -2 1164.43 373.797   5
   5  -2  -2 2173.57 485.120   8
  -5   2   2 1227.67 441.990   6
   4   2  -2 400.701 244.462   1
   4  -2  -2 416.588 193.811   8
   4  -2  -2 394.612 164.289   2
  -4   2   2 463.537 248.089   6
   3  -2  -2 84948.5 2966.99   8
  -3   2   2 82127.0 3144.97   6
   3   2  -2 93008.8 3748.62   1
   3  -2  -2 89492.7 2710.30   2
   2  -2  -2 165320. 4147.28   8
   2  -2  -2 166221. 4092.93   2
   1  -2  -2 46229.6 2310.06   2
   1  -2  -2 46831.8 1269.04   1
   0  -2  -2 41367.6 1685.42   1
   1   2   2 32464.2 1550.44   3
  -1  -2  -2 34497.1 1861.79   1
   1   2   2 32851.9 2017.23   7
  -2  -2  -2 22345.0 1727.22   1
   2   2   2 21784.0 1439.49   3
   2  -2   2 22966.7 1236.47   2
   2   2   2 21213.6 1645.06   7
   3  -2   2 22860.5 1053.30   2
   3   2   2 19890.3 1608.84   7
   3   2   2 21888.4 1599.89   3
   3   2   2 20282.1 1606.98   4
  -3  -2  -2 21876.4 1946.60   1
   4   2   2 90.6888 73.6674   7
   4  -2   2 289.457 199.381   5
   4   2   2 254.467 190.503   5
   4   2   2 262.883 165.835   3
   5   2   2 3869.21 822.630   7
   5  -2   2 5466.50 953.394   5
   5   2   2 5028.65 892.427   5
   5   2   2 5488.82 928.167   3
   6   2   2 7360.96 1171.06   3
   6  -2   2 7815.06 1239.50   5
   6   2   2 6976.54 1140.30   5
   7  -2   2 107.138 149.931   5
   7   2   2-4.64053 147.338   5
   7   2   2 24.9577 96.9078   3
   8   2   2 11726.7 1758.56   5
   8  -2   2 13559.2 1916.15   5
   9  -2   2 2022.04 794.137   5
   9   2   2 1923.78 741.533   5
  10   2   2 2482.47 926.821   5
  10  -2   2 3147.71 1033.61   5
  11  -2   2 13693.5 2279.07   5
  11   2   2 11555.9 2115.03   5
  12   2   2 3270.29 1173.89   9
  12   2   2 398.545 621.197  16
  12   2   2-128.908 358.739  18
  12  -2   2 3171.28 1143.85   5
 -12   2  -2 2338.40 1117.33   6
  13   2   2 2067.04 1059.60  16
  13  -2   2 3937.03 1496.33  16
  13   2   2 8206.72 1874.50   9
  13   2   2 129.739 183.742  18
  14   2   2-42.6873 368.768  18
  14   2   2-131.719 366.007   9
  14  -2   2 8.70133 117.359  16
  14  -2   2-249.986 522.967  18
  15   2   2 247.221 393.505   9
  15   2   2-129.240 382.369  18
  15  -2   2-23.6181 298.022  18
  16   2   2-51.0872 255.762  18
  16  -2   2 150.018 372.840  18
  16   2   2 1146.27 603.965   9
  17   2   2-35.5731 135.487   9
  17   2   2 176.417 283.755  18
  17  -2   2-130.870 276.673  18
  19   3  -2 286.150 214.390   9
  18   3  -2 12.4394 124.996   9
  17   3  -2 4511.65 1191.71   9
  16   3  -2 33.6680 103.062   9
  15   3  -2 3818.73 1431.36  18
  15   3  -2 11673.2 2157.51   9
  14  -3  -2 49.7155 120.294  19
  14   3  -2-5.46741 242.732   9
 -14  -3   2-75.2453 341.844  12
  14   3  -2 34.8786 303.018  18
  13   3  -2 190.132 319.975   9
  13  -3  -2 156.013 220.185  19
  13   3  -2-480.883 597.826  18
 -13  -3   2-31.2344 86.6448  12
 -13   3   2 59.8511 225.446   6
 -12   3   2 17279.8 3016.36   6
  12  -3  -2 77.4434 156.441  19
 -11   3   2 24934.6 3400.94   6
  11   3  -2 18888.9 2584.77   3
  11  -3  -2 19688.0 2580.18   5
  10  -3  -2 16050.1 2198.53   5
 -10   3   2 20821.4 2971.53   6
  10   3  -2 16540.1 2223.25   3
   9   3  -2 38109.7 3169.11   3
   9  -3  -2 39593.8 3199.59   5
  -9   3   2 44324.4 4080.89   6
   8   3  -2 9073.59 1434.65   3
  -8   3   2 10290.8 1789.49   6
   8  -3  -2 8319.23 1379.29   5
  -7   3   2 123.108 161.256   6
  -6   3   2 5792.22 1143.72   6
  -5   3   2 126395. 5043.02   6
   5  -3  -2 130589. 4310.00   8
  -4   3   2 4213.83 833.985   6
   4  -3  -2 4289.08 777.188   8
   3  -3  -2 84063.7 3561.33   8
  -3   3   2 81000.2 3494.23   6
   3  -3  -2 72415.8 3042.18   2
   3   3  -2 77005.8 3974.12   1
   2   3  -2 97018.6 4251.78   1
   2  -3  -2 95176.4 3796.74   2
   2  -3  -2 111498. 4196.98   8
   1  -3  -2 27796.2 2175.10   2
   1   3  -2 31171.4 2251.72   7
   0   3  -2 11239.4 1370.34   7
   0   3   2 17985.6 1778.40   7
   1   3   2 1100.21 321.939   3
  -1   3  -2 1388.93 467.825   7
  -1  -3  -2 1382.00 419.092   1
   1   3   2 1347.84 489.467   7
   2   3   2 43534.8 2848.03   7
   2   3   2 39944.7 2161.89   3
   2   3   2 31716.2 1967.09   4
  -2   3  -2 29935.1 2212.28   7
  -2  -3  -2 36345.7 2475.01   1
   3   3   2 2135.17 631.842   7
   3   3   2 2353.94 574.635   3
   3   3   2 1820.46 492.906   4
   4   3   2 565.596 340.900   7
   4   3   2 566.878 292.886   3
   4  -3   2 543.975 280.749   5
   5   3   2 23804.3 2241.52   7
   5  -3   2 26428.8 2246.09   5
   5   3   2 26255.8 2234.71   3
   6   3   2 1944.60 651.365   3
   6  -3   2 1732.23 614.459   5
   6   3   2 1780.07 607.939   7
   7   3   2 29901.7 2741.62   3
   7  -3   2 31449.7 2819.99   5
   8  -3   2 29639.4 2971.42   5
   9  -3   2 65543.3 4675.17   5
  10  -3   2 44918.1 4090.97   5
  11  -3   2 1927.92 870.875   5
  12   3   2 2005.78 897.762   9
 -12  -3  -2 1746.20 806.910  12
  12  -3   2 1943.90 940.169   5
 -12   3  -2 1580.19 973.475   6
  12   3   2 757.477 651.734  18
  13   3   2 661.266 491.123   9
 -13  -3  -2 1152.49 600.261  12
  13   3   2 82.4466 181.914  18
  14   3   2-1.88743 401.001  18
  14  -3   2 104.997 42.4825  18
  14   3   2 1835.69 856.479   9
  15  -3   2-112.264 297.746  18
  15   3   2 547.473 461.940   9
  15   3   2-209.196 460.741  18
  16  -3   2-93.5056 155.932  18
  16   3   2 3468.29 1030.33   9
  17  -3   2 40.8087 115.432  18
  17   3   2 1301.15 557.081   9
  18   4  -2 63.8529 152.516   9
  17   4  -2 62.7880 149.449   9
  16   4  -2-128.843 267.052   9
  15  -4  -2 186.450 205.071  19
  15   4  -2 43.6218 47.2046   9
  14  -4  -2-216.098 241.405  19
  14   4  -2 153.331 194.601   9
  13  -4  -2 26.1612 88.5273  19
  13   4  -2 3052.37 1137.64   9
 -13  -4   2 3348.58 1067.34  12
  12  -4  -2-340.214 326.389  19
  12   4  -2 1929.32 907.653   9
 -12   4   2 1995.27 1109.25   6
 -12  -4   2 1712.15 783.182  12
 -11   4   2 5959.64 1733.56   6
  11   4  -2 4743.20 1436.03   7
 -10   4   2-74.0676 171.849   6
  10   4  -2 26.9129 36.8788   3
  10   4  -2 105.216 247.044   7
   9   4  -2 2673.38 906.894   3
  -9   4   2 2574.11 1024.54   6
   9   4  -2 2649.68 1049.63   7
  -8   4   2 3297.34 1083.34   6
   8   4  -2 3097.60 940.671   3
   8   4  -2 3155.56 1060.25   7
   7   4  -2 893.880 555.985   7
  -7   4   2 434.038 361.084   6
   6   4  -2 38509.3 3502.77   7
  -6   4   2 37948.9 3317.71   6
  -5   4   2 449.475 351.841   6
   5  -4  -2 510.830 280.332   8
   5   4  -2 550.217 369.715   7
   4   4  -2 410.760 310.608   7
   4  -4  -2 403.881 245.312   8
   3  -4  -2 12268.7 1579.06   8
   3   4  -2 11498.0 1693.42   7
   2  -4  -2 2439.67 778.238   8
   2   4  -2 2198.67 763.961   7
   1   4  -2 770.860 444.426   7
   0   4  -2 10992.4 1616.45   7
   1   4   2 375.674 285.639   7
  -1   4  -2 168.845 284.101   7
   2   4   2 4095.12 994.937   7
   3   4   2 11685.5 1413.88   3
   3   4   2 13695.2 1883.44   7
   4   4   2 36.2802 53.8561   7
   4   4   2 197.222 193.829   3
   5  -4   2 2505.24 748.372   5
   5   4   2 2302.91 729.153   3
   5   4   2 2965.20 977.363   7
   6   4   2 894.077 420.601   7
   6  -4   2 1021.38 495.076   5
   6   4   2 922.751 473.558   3
   7  -4   2 4523.32 1138.72   5
   7   4   2 3680.86 1108.72   7
   8  -4   2 683.360 446.448   5
   9  -4   2 2451.00 945.027   5
  10  -4   2 3138.14 1095.60   5
  10   4   2 28.8334 99.2117  11
  11   4   2 5764.63 2017.74  18
 -11   4  -2 5684.06 1805.14   6
 -11  -4  -2 5979.00 1427.19  12
  11   4   2 5574.48 1518.54   9
  12   4   2 1043.27 658.354   9
  12   4   2 667.257 640.863  18
 -12  -4  -2 1089.58 630.774  12
  13   4   2 37.9662 279.925   9
 -13  -4  -2 293.888 314.394  12
  14   4   2 390.233 429.511   9
 -14  -4  -2 176.453 92.1505  12
  15  -4   2 130.458 207.249  18
 -15  -4  -2 2385.16 804.204  12
  15   4   2 2203.88 834.295   9
  16  -4   2 53.1181 63.7274  18
  16   4   2 81.9503 139.269   9
  17   5  -2 93.1759 164.428   9
  16   5  -2-116.946 164.063   9
  15  -5  -2-85.9223 124.689  19
  15   5  -2 320.501 294.665   9
  14  -5  -2-102.795 154.119  19
  14   5  -2 1461.32 699.083   9
  13  -5  -2-54.8096 121.275  19
  13   5  -2 3936.47 1188.88   9
 -13  -5   2 4308.08 1188.02  12
  12  -5  -2-162.400 218.502  19
 -12  -5   2 172.858 215.638  12
  12   5  -2 8.31328 242.221   9
  11   5  -2 13.0169 65.6185  11
 -11   5   2 210.533 510.383   6
 -11  -5   2 167.415 284.423  12
  10   5  -2 2332.50 948.694   7
  10   5  -2-8.34333 52.9397  11
 -10  -5   2 3222.72 995.372  12
 -10   5   2 2392.94 1080.67   6
   9   5  -2 14611.1 2369.55   3
  -9   5   2 17647.3 2896.04   6
   9   5  -2 16613.1 2699.92   7
   8   5  -2 67.2861 147.412   3
   8   5  -2 216.303 342.564   7
   7   5  -2 4612.48 1334.86   7
   7   5  -2 4419.64 1183.69   3
   6   5  -2 2108.70 944.657   7
   6   5  -2 1925.79 702.652   3
   5   5  -2 105.901 257.520   7
   4   5  -2 487.667 438.495   7
   4  -5  -2 465.770 367.087   8
   3  -5  -2 17.5712 182.519   8
   3   5  -2 67.3593 174.119   7
   2  -5  -2 11243.4 1731.45   8
   2   5  -2 10764.6 1854.65   7
   1  -5  -2 23.3416 439.326   8
   1   5  -2 4471.41 1237.34   7
   0   5  -2 6911.51 1533.54   7
  -1   5  -2 12415.1 2064.26   7
   2   5   2 5153.24 1297.05   7
  -2  -5  -2 31.3750 82.4978   8
   3   5   2 17176.4 2428.43   7
   4   5   2 1107.87 575.059   7
   5   5   2 1766.12 823.009   7
   6   5   2 128.212 141.902   7
   7   5   2 1153.49 901.184   7
   9   5   2 2867.24 1089.21   9
   9   5   2-9.61037 57.2735  11
  -9  -5  -2 3251.74 980.972  12
  10   5   2-13.1082 66.6995  11
  10   5   2 9405.74 2033.49   9
 -10  -5  -2 9664.95 1753.55  12
  11   5   2 4104.76 1341.80   9
 -11  -5  -2 4903.85 1270.87  12
  11   5   2-2.19752 26.8289  11
  12   5   2 271.976 379.647   9
 -12  -5  -2 373.579 232.554  12
  13   5   2 1517.19 772.695   9
 -13  -5  -2 1933.41 797.110  12
  14   5   2 204.114 288.280   9
 -14  -5  -2 2.80438 27.2468  12
  15  -5   2 15.5424 152.461  18
  14  -6  -2 92.5122 125.838  19
  13  -6  -2 213.559 214.189  19
  12  -6  -2 366.024 302.086  19
 -12  -6   2 154.040 161.420  12
  12   6  -2-5.84047 40.8491  11
  11   6  -2-3.23774 32.0423  11
 -11  -6   2 3809.76 1090.20  12
  10   6  -2-14.6759 70.2068  11
 -10  -6   2 952.684 522.459  12
   9   6  -2-9.32463 56.9737  11
  -9  -6   2 2346.59 875.553  12
   8   6  -2 8.57954 55.1137  11
  -8  -6   2 865.274 502.695  12
   8   6  -2 522.440 632.333   7
   7   6  -2 1830.98 1089.43   7
   6   6  -2 7576.48 1916.93   7
   5   6  -2-237.905 404.618   7
   4   6  -2 2521.93 1095.20   7
   4  -6  -2 1882.94 770.513   8
   3  -6  -2 3257.72 1043.61   8
   3   6  -2 3725.51 1260.28   7
   2  -6  -2 33672.8 3441.36   8
   2   6  -2 41479.1 4198.88   7
   1  -6  -2 1306.06 655.331   8
   1   6  -2 1244.58 696.974   7
   0  -6  -2 26793.1 3358.97   8
   0   6  -2 22033.5 3039.79   7
   6   6   2 12.5089 65.2569  11
  -7  -6  -2 5658.27 1295.12  12
   7   6   2 10.3759 59.1673  11
  -8  -6  -2 2263.01 842.429  12
   8   6   2 4.97951 40.8605  11
   9   6   2-0.21978 8.50149  11
  -9  -6  -2 276.584 313.302  12
  10   6   2 28.2613 95.1439  11
 -10  -6  -2 6700.27 1462.32  12
  11   6   2-7.34836 47.0070  11
 -11  -6  -2 136.201 216.566  12
 -12  -6  -2 64.6115 95.0521  12
  12  -6   2 235.632 222.295  19
  13  -6   2-65.0424 100.781  19
 -13  -6  -2 101.207 214.826  12
 -14  -6  -2 628.204 363.333  12
  13  -7  -2-135.037 137.682  19
  12  -7  -2 31.4092 74.8778  19
  12   7  -2-0.62400 12.0084  11
  11   7  -2-3.98054 32.8005  11
  11  -7  -2-39.1263 91.7101  19
  10   7  -2 4.25347 35.9265  11
  -9  -7   2 332.414 249.886  12
   9   7  -2-3.70930 34.8135  11
   8   7  -2 489.284 404.417  13
   8   7  -2 1.82150 24.8873  11
  -8  -7   2 624.778 400.392  12
   7   7  -2 2372.70 920.983  13
   7   7  -2 2.57884 29.9854  11
   6   7  -2-117.890 197.484  13
   6   7  -2 22.5292 89.3804  11
   5   7  -2-138.218 332.858   7
   5   7  -2 100.324 298.724  13
   4   7  -2-682.490 895.230  20
   4   7  -2 3232.91 1055.50  13
   4   7  -2 2914.57 1283.11   7
   3   7  -2 466.508 332.958  20
   3  -7  -2 147.412 169.928   8
   3   7  -2-61.8654 216.264  13
   3   7  -2-39.6798 313.868   7
   2   7  -2 640.877 470.107  13
   2  -7  -2 381.214 412.495   8
   2   7  -2 357.069 522.016  20
   1   7  -2 4654.68 2145.26  20
   1  -7  -2 93.9683 225.641   8
   1   7  -2 155.825 241.912  13
   0   7   2-193.061 687.953  20
   0  -7  -2 3716.63 1273.49   8
   0   7  -2-16.4468 553.956  20
   1   7   2-605.867 901.749  20
  -1   7  -2 1350.95 1011.29  20
  -1  -7  -2 224.388 224.252   8
   2   7   2-11.7184 64.5036  11
  -2   7  -2 419.478 448.254  20
  -2  -7  -2 1022.63 747.482   8
   3   7   2 18.3044 80.8067  11
  -3   7  -2-110.938 736.869  20
  -3  -7  -2 88.7256 126.044   8
  -4   7  -2 1239.24 970.108  20
   4   7   2 36.6649 113.989  11
  -4  -7  -2-216.482 510.314   8
   5   7   2-0.70931 15.7317  11
  -5   7  -2 2999.62 1632.24  20
   6   7   2-13.2135 66.9806  11
   7   7   2-13.9789 67.7441  11
  -7  -7  -2 107.872 66.0625  12
   8   7   2 3.95240 35.2740  11
  -8  -7  -2 1024.88 551.767  12
  -9  -7  -2 9.05217 47.9854  12
   9   7   2 7.87740 48.5695  11
  10   7   2-7.24079 44.6932  11
 -10  -7  -2 506.158 345.129  12
  11  -7   2 140.680 160.639  19
 -11  -7  -2 1229.42 541.292  12
  12  -7   2-106.782 120.577  19
 -12  -7  -2 450.582 299.147  12
  11   8  -2 1.06093 14.4754  11
  10   8  -2 0.47145 10.5650  11
  10  -8  -2-200.954 181.561  19
   9  -8  -2-342.807 256.790  19
   9   8  -2-8.14802 46.7611  11
   8   8  -2 9.47714 52.7547  11
   7   8  -2 1.85974 24.1550  11
   6   8  -2 5.17975 41.1680  11
   5   8  -2 467.403 579.872  20
   5   8  -2-10.4184 59.0997  11
   4   8  -2 2182.48 1271.54  20
   3   8  -2-382.970 607.285  20
   2   8  -2 2920.22 1631.88  20
   1   8  -2 17392.0 3964.48  20
   0   8  -2 4669.35 2084.64  20
   0   8   2 9.85240 58.4177  11
   1   8   2-3.57060 35.1894  11
  -1   8  -2 7016.93 2562.63  20
  -2   8  -2 565.098 773.971  20
   2   8   2 5.15573 42.1622  11
   3   8   2 0.22932 8.83526  11
  -3   8  -2-37.1509 517.191  20
   4   8   2-6.45738 46.3851  11
   5   8   2-7.70255 49.8323  11
   6   8   2 0.60852 13.6764  11
   7   8   2 7.93122 47.7382  11
  -8  -8  -2 2420.76 737.734  12
   8   8   2 3.79829 31.6216  11
  -9  -8  -2 51.3784 71.8787  12
   9   8   2-8.28697 44.0224  11
 -10  -8  -2 206.453 160.845  12
  10  -8   2-111.798 122.949  19
  10   9  -2-1.66244 15.4367  11
   9   9  -2-3.70375 25.7260  11
   8   9  -2 2.34288 22.0931  11
   7   9  -2 1.69383 19.9133  11
   6   9  -2 8.02037 45.1993  11
   5   9  -2 12.0893 57.2616  11
   4   9  -2 0.56597 12.7590  11
   3   9  -2 6.90438 45.5320  11
   2   9  -2 1376.79 1226.39  20
   2   9  -2-4.48458 37.2570  11
   1   9  -2 418.568 767.460  20
   0   9   2 9.06180 50.4074  11
   1   9   2-9.02483 50.4761  11
   2   9   2-11.6993 57.2255  11
   3   9   2 10.4282 53.3889  11
   4   9   2-4.71667 35.1825  11
   5   9   2-3.93692 31.2051  11
   6   9   2-2.56240 24.1510  11
   7   9   2 3.10110 25.1127  11
   8   9   2 112.729 129.922  21
   8   9   2 0.11755 4.55304  11
   6  10  -2-2.40819 18.9008  11
   5  10  -2 4.41455 27.2940  11
   4  10  -2-0.98957 13.5353  11
   3  10  -2-0.13186 5.10329  11
   2  10  -2-4.40281 30.0992  11
   1  10  -2 0.42242 9.41300  11
   0  10  -2 3.10609 25.4767  11
  -1  10  -2-2.35054 21.8257  11
   2  10   2 4.14342 26.0942  11
  -2  10  -2-5.91161 33.4930  11
   3  10   2 2.99257 21.8404  11
   4  10   2 5.38471 28.3491  11
  19   0  -3 1.62727 53.2876   9
  18   0  -3 39.9653 203.804   9
  17   0  -3-230.541 374.707   9
  16   0  -3 47.3021 272.051   9
  16   0  -3-53.5901 115.696  14
  15   0  -3 144.609 251.570   9
  15   0  -3-113.914 286.747  14
  14   0  -3-450.857 427.269   9
 -13   0   3-70.8553 159.980   6
 -12   0   3 29.1979 139.032   6
 -11   0   3-164.893 286.074   6
  10   0  -3-62.6864 179.720   3
 -10   0   3 30.5192 133.560   6
  -9   0   3-15.7644 186.029   6
   9   0  -3 92.8115 169.033   3
   8   0  -3 29.8762 56.5089   3
  -8   0   3 135.811 163.608   6
  -7   0   3 101.567 120.325   6
  -7   0   3 50.6247 97.0509   2
   6   0  -3 57.1903 80.7700   1
  -6   0   3 118.463 141.734   2
  -6   0   3 23.0062 102.431   6
   5   0  -3 17.5140 39.5580   1
  -5   0   3 86.0230 128.069   6
  -5   0   3 12.2334 29.2739   2
  -4   0   3-3.93152 15.5308   6
  -4   0   3 13.3473 75.9018   2
   4   0  -3 12.8243 45.6273   1
  -3   0   3 59.5179 43.3151   2
  -2   0   3-2.22474 44.5639   2
  -1   0   3 28.9141 43.3319   2
   0   0   3 217.766 147.999   2
  -1   0  -3 47.3312 64.9714   2
   1   0   3 77.6944 70.9144   2
   2   0   3-19.6276 70.1115   2
  -2   0  -3 25.2065 27.4372   2
  -3   0  -3-62.2721 117.472   2
   3   0   3 31.4803 45.6289   5
   4   0   3 25.7441 52.5890   5
  -4   0  -3 144.165 127.558   2
  -5   0  -3 95.9920 145.450   2
   5   0   3-2.16288 130.227   5
   6   0   3-9.15651 104.425   5
   7   0   3 49.4195 103.971   5
   8   0   3-127.806 259.667   5
   9   0   3-4.04652 167.812   5
  10   0   3-56.5544 146.506   5
  11   0   3-102.685 152.677   5
  12   0   3 61.0587 247.669  16
  12   0   3-211.646 347.727  18
  12   0   3-12.9980 108.697   5
  13   0   3 81.2926 161.401  16
  13   0   3 246.639 325.882  18
  14   0   3-22.7108 314.775  18
  14   0   3 26.8637 337.292  16
  15   0   3 126.796 231.280  18
  16   0   3-94.4481 264.840  18
  17   0   3 62.5578 139.597  18
  18   0   3-34.1472 61.8566  18
  19   1  -3 107.176 279.870   9
  18   1  -3 66.3599 181.562   9
  17   1  -3-87.5860 246.275  18
  17   1  -3 151.290 240.878   9
  17  -1  -3 73.7873 207.536  14
  16   1  -3-132.110 132.856  18
  16  -1  -3 187.708 344.421  14
  16   1  -3 145.554 288.067   9
  15   1  -3-93.4391 177.635  18
  15   1  -3 1802.23 913.415   9
  14   1  -3 1518.59 742.551  14
  14   1  -3 2665.31 1050.40   9
 -14   1   3 1837.87 985.845   6
  14   1  -3-9.58895 276.869  18
  13   1  -3 1111.83 633.425   3
 -13   1   3 1290.68 839.143   6
  12   1  -3 29405.0 3089.94   3
 -12   1   3 34875.5 3958.41   6
  11   1  -3 4947.50 1139.82   3
 -11   1   3 6271.20 1540.89   6
  10   1  -3 19608.8 2161.49   3
 -10  -1   3 17859.2 2267.01   6
 -10   1   3 23798.0 2783.48   6
   9   1  -3 781.027 404.802   3
  -9  -1   3 915.716 456.543   6
  -9   1   3 1022.89 530.356   6
   9  -1  -3 1074.80 526.775   5
  -8   1   3 1781.53 648.220   6
  -8  -1   3 1215.70 508.713   6
   8  -1  -3 1438.71 528.473   5
   7  -1  -3 37176.5 2599.43   5
  -7  -1   3 35939.4 2562.87   6
  -7   1   3 38347.5 2780.09   6
   7  -1  -3 34878.8 1933.89   3
   6  -1  -3 17762.8 1478.33   1
  -6   1   3 17937.0 1482.41   2
   6  -1  -3 19849.8 1576.39   8
  -6   1   3 18544.7 1764.31   6
  -6  -1   3 19140.2 1752.67   6
   6  -1  -3 18635.8 1708.75   5
  -5  -1   3 72969.5 3261.72   6
   5  -1  -3 76553.8 2772.48   1
   5  -1  -3 79205.4 2965.27   8
  -5   1   3 76155.4 2959.18   2
   5   1  -3 76294.5 3587.23   1
  -5   1   3 74234.6 3277.54   6
   4  -1  -3 78604.1 2828.54   8
   4   1  -3 77718.8 3379.60   1
  -4   1   3 73613.1 2821.56   2
   4  -1  -3 82570.8 2525.87   1
   4  -1  -3 81085.5 2775.34   2
   3  -1  -3 57736.1 2330.63   2
  -3   1   3 58583.7 2464.60   2
  -1   1   3 999999. 10268.9   2
  -1  -1   3 985573. 9803.73   2
   0  -1   3 42072.8 1953.57   2
   0   1   3 40871.0 2133.63   2
   1  -1   3 270.941 161.510   2
  -2  -1  -3 401025. 7536.85   2
  -2   1  -3 405443. 5918.09   2
   2  -1   3 393841. 5883.95   2
  -3  -1  -3 40787.0 2584.91   2
   3   1   3 37738.0 2255.83   4
  -3   1  -3 39501.7 1817.12   2
   3   1   3 36702.7 2009.88   5
   3  -1   3 41748.5 1909.86   2
   4  -1   3 8386.40 1081.18   5
   4   1   3 8527.10 1073.20   5
  -4   1  -3 7706.24 815.563   2
  -4  -1  -3 7647.32 1187.55   2
   5  -1   3 5683.41 970.698   5
   5   1   3 5604.31 966.791   5
   6  -1   3 109911. 4614.75   5
   6   1   3 111122. 4730.97   5
   7  -1   3 88450.8 4544.75   5
   7   1   3 89627.1 4608.31   5
   8  -1   3 746.553 410.999   5
   8   1   3 562.931 377.809   5
   9   1   3 19261.9 2458.42   5
   9  -1   3 21315.5 2623.80   5
  10   1   3 4102.97 1186.14   5
  10  -1   3 4481.98 1267.40   5
  11   1   3 2066.79 881.926   5
  11  -1   3 2552.50 1005.01   5
  12  -1   3 306.351 232.569  16
  12   1   3 386.029 487.791  16
  12  -1   3 328.801 365.470   5
  12   1   3 414.229 427.747   5
  12   1   3-207.598 527.343  18
  12   1   3 454.463 411.331   9
  13  -1   3-72.8335 389.493  18
  13   1   3 716.934 570.996   9
  13   1   3 178.338 496.351  18
  13   1   3 342.071 360.398  16
  13  -1   3 270.729 343.883  16
  14   1   3-13.0621 264.927  18
  14  -1   3-58.6316 414.640  18
  14   1   3 43.6560 115.348   9
  14  -1   3 59.8713 235.395  16
  14   1   3-1.89363 180.389  16
  15   1   3-4.99317 314.869   9
  15  -1   3 143.801 291.688  18
  15   1   3 115.290 224.302  18
  15  -1   3 223.353 248.375  16
  16   1   3 550.902 410.595   9
  16  -1   3 9.37600 185.789  18
  16   1   3-60.1269 146.338  18
  17   1   3 28.2345 110.633  18
  17  -1   3 65.0201 126.128  18
  18   1   3-90.4757 182.108  18
  19   2  -3 415.303 241.687   9
  18   2  -3 178.815 198.850   9
  18  -2  -3 69.8042 34.1189  14
  17   2  -3-0.20975 189.921   9
  17  -2  -3 352.213 351.765  14
  16   2  -3-24.6260 270.376  18
  16   2  -3 553.532 441.443   9
  15   2  -3-358.843 545.431  18
  15   2  -3 1172.79 780.897   9
  14   2  -3-223.778 704.300  18
  14  -2  -3-413.147 354.557  19
  14   2  -3 1545.58 757.313   9
 -13   2   3 29183.4 3927.79   6
  13   2  -3 31297.5 3556.04   9
  13  -2  -3-14.5153 67.2648  19
  13   2  -3 50.1303 1243.27  18
 -12   2   3 16432.9 2797.21   6
  12   2  -3 11641.6 2033.29   3
 -11   2   3 23275.7 3113.48   6
  11   2  -3 19438.6 2426.90   3
  10  -2  -3 2330.63 823.507   5
 -10   2   3 2584.13 935.171   6
  10   2  -3 2448.04 779.527   3
   9  -2  -3 45127.0 3352.58   5
  -9   2   3 49057.6 3886.69   6
  -8   2   3 37426.9 3184.40   6
   8  -2  -3 31542.6 2628.76   5
  -7   2   3 2044.67 675.225   6
   7  -2  -3 1597.02 544.247   5
   7  -2  -3 1699.55 492.127   8
   6  -2  -3 20823.5 1692.42   8
  -6   2   3 19872.7 1992.31   6
   6  -2  -3 17564.7 1649.02   5
  -5   2   3 7603.30 1142.19   6
   5  -2  -3 6949.54 952.572   5
   5  -2  -3 7969.99 992.807   8
   4  -2  -3 2173.57 471.778   2
   4  -2  -3 2371.30 525.115   8
  -4   2   3 2289.96 575.531   6
   4   2  -3 2356.28 669.469   1
   3  -2  -3 103330. 3442.21   2
   3  -2  -3 101430. 3331.62   8
  -3   2   3 100903. 3596.47   6
   2  -2  -3 370889. 6810.95   2
   1  -2  -3 3986.75 747.177   2
   0  -2  -3 260225. 4933.86   1
   0  -2  -3 305203. 6388.46   8
   0  -2  -3 266366. 6470.01   2
   1  -2   3 212369. 4711.70   2
  -1  -2  -3 212580. 5006.56   1
   2   2   3 141738. 4448.38   4
   2   2   3 141933. 4393.06   7
  -2  -2  -3 142930. 4702.56   1
   2  -2   3 153125. 3829.64   2
   3   2   3 54530.0 2772.68   7
   3   2   3 56605.5 2933.88   4
   4  -2   3 188241. 5382.06   5
   4   2   3 164093. 4931.14   7
   5  -2   3 2279.97 653.579   5
   5   2   3 1843.43 554.213   5
   6  -2   3 2667.51 744.002   5
   6   2   3 2322.14 674.948   5
   7  -2   3 50449.7 3510.21   5
   7   2   3 43351.3 3189.42   5
   8   2   3 3612.03 986.385   5
   8  -2   3 3793.79 1054.12   5
   9  -2   3 2896.67 968.035   5
   9   2   3 2044.11 822.725   5
  10  -2   3 21748.6 2958.72   5
  11  -2   3 4495.74 1345.14   5
  12   2   3 1162.17 661.058  16
  12   2   3-262.208 401.448  18
  12  -2   3 5300.39 1534.74   5
  12   2   3 4963.90 1509.53   9
  12  -2   3 3713.83 1132.31  16
  13   2   3 595.496 585.974  16
  13   2   3 1357.66 671.943   9
  13  -2   3 1191.14 553.116  16
  13   2   3 64.2569 256.628  18
  14   2   3 269.437 466.225   9
  14  -2   3 103.945 54.3234  16
  14   2   3-103.680 413.116  18
  14  -2   3-208.779 444.221  18
  15   2   3-139.896 423.046  18
  15   2   3-243.855 372.908   9
  15  -2   3-357.806 426.494  18
  16  -2   3 69.7198 312.868  18
  16   2   3 157.233 355.736  18
  16   2   3 172.593 222.094   9
  17   2   3-21.6052 80.9937  18
  17  -2   3 183.440 280.999  18
  19   3  -3 107.272 127.537   9
  18  -3  -3-64.7553 55.5997  14
  18   3  -3-143.098 250.816   9
  17   3  -3 137.585 215.936   9
  16   3  -3-321.961 430.387   9
  15  -3  -3-1.07218 16.7949  19
  15   3  -3 683.845 479.306   9
  14   3  -3 5166.20 1455.59   9
  14  -3  -3 25.0376 86.2845  19
  14   3  -3 1804.84 1177.34  18
 -13  -3   3 1061.32 644.907  12
  13   3  -3-138.976 210.665  18
  13   3  -3 1179.57 551.164   9
 -13   3   3 893.998 654.983   6
  13  -3  -3 108.762 184.699  19
  12  -3  -3 12.1422 62.1869  19
 -12   3   3 10169.2 2291.88   6
  11   3  -3 72.4384 35.9050   3
 -11   3   3-141.596 365.660   6
 -10   3   3 9706.81 1987.75   6
  10   3  -3 7725.68 1494.35   3
   9   3  -3 1884.80 680.215   3
  -9   3   3 2229.38 891.028   6
  -8   3   3 4421.58 1167.56   6
  -7   3   3 1361.13 618.883   6
   6  -3  -3 10253.1 1293.25   8
  -6   3   3 11389.4 1629.83   6
  -5   3   3 66885.3 3689.22   6
   5  -3  -3 67205.3 3237.59   8
   4  -3  -3 86478.5 3580.88   8
  -4   3   3 81541.9 3815.71   6
  -3   3   3 49838.2 2763.98   6
   3  -3  -3 44500.1 2622.72   2
   3  -3  -3 58674.3 2958.97   8
   2  -3  -3 4178.25 852.346   2
   2  -3  -3 4522.84 819.882   8
   1  -3  -3 14335.6 1540.18   8
   1   3  -3 13616.1 1591.46   7
   0   3  -3 25318.1 2012.91   7
  -1   3  -3 15917.4 1552.50   7
  -1  -3  -3 15958.6 1505.78   1
   2   3   3 42347.5 2577.27   4
   2   3   3 49179.5 3082.63   7
   3   3   3 20872.7 1876.08   4
   3   3   3 22672.4 2115.52   7
   4  -3   3 41719.7 2765.92   5
   4   3   3 42668.8 3002.65   7
   5  -3   3 1146.88 504.859   5
   5   3   3 1117.82 498.102   7
   6  -3   3 7195.98 1311.83   5
   7  -3   3 4209.58 1074.85   5
   8  -3   3-49.9671 148.386   5
   9  -3   3 6867.36 1573.97   5
  10  -3   3 31.6026 244.004   5
  11   3   3 423.943 425.613  18
  11  -3   3 930.420 625.933   5
  11   3   3 1444.76 851.872   9
 -11  -3  -3 1268.01 635.017  12
  12   3   3 16.5369 156.081  18
  12   3   3 30.4437 41.5295   9
 -12  -3  -3 179.225 240.629  12
  13   3   3 192.574 317.486   9
  13   3   3-254.590 421.562  18
 -13  -3  -3 85.8810 273.610  12
  14   3   3 1410.52 788.238   9
  14  -3   3 229.623 504.467  18
  14   3   3 238.311 575.668  18
  15   3   3-194.178 406.233  18
  15   3   3 869.785 517.793   9
  15  -3   3 84.9309 135.927  18
  16  -3   3-201.512 305.558  18
  16   3   3 521.313 402.729   9
  18   4  -3 129.573 200.129   9
  18  -4  -3 30.3054 20.7890  14
  17   4  -3 34.5961 151.358   9
  16   4  -3 514.009 406.658   9
  16  -4  -3 12.6897 48.1490  19
  15  -4  -3-187.080 209.982  19
  15   4  -3 1325.63 686.580   9
  14  -4  -3-640.603 420.454  19
  14   4  -3-453.091 414.163   9
  13   4  -3 587.033 457.846   9
  13  -4  -3-135.696 202.049  19
 -13  -4   3 565.946 486.918  12
  12   4  -3 1652.06 808.977   7
  12   4  -3 2657.69 1023.88   9
 -12   4   3 2783.25 1241.43   6
  12  -4  -3-269.702 289.727  19
 -12  -4   3 3724.54 1133.35  12
  11   4  -3 18797.7 2957.54   7
 -11   4   3 24987.6 3655.83   6
  10   4  -3 5172.21 1524.70   7
 -10   4   3 6008.46 1683.88   6
  10   4  -3 5052.03 1333.67   3
   9   4  -3 4777.89 1234.86   3
  -9   4   3 4813.46 1402.55   6
  -8   4   3 14113.0 2269.35   6
  -7   4   3 14717.0 2163.77   6
  -6   4   3 4708.01 1133.91   6
   6  -4  -3 4711.89 974.580   8
   5  -4  -3 7409.58 1203.17   8
  -5   4   3 7547.25 1356.16   6
   4  -4  -3 22410.4 2128.10   8
   4   4  -3 24223.8 2594.12   7
   3  -4  -3 50910.8 3268.56   8
   3   4  -3 48808.0 3626.48   7
   2   4  -3 539.859 398.055   7
   2  -4  -3 1013.41 455.195   8
   1  -4  -3 57237.1 3587.58   8
   1   4  -3 36963.3 3000.65   7
   0   4  -3 7170.44 1332.46   7
  -1   4  -3 1122.53 541.293   7
   2   4   3 23591.8 2466.24   7
   3   4   3 17320.7 2160.11   7
   3  -4   3 14499.8 1658.02   5
  -4  -4  -3 36.2571 191.930   8
   4   4   3 8569.17 1580.73   7
   4  -4   3 7958.05 1311.58   5
   5   4   3 711.939 494.120   7
  -5  -4  -3-61.6031 227.601   8
   5  -4   3 741.380 423.090   5
   6  -4   3 5217.24 1196.36   5
   6   4   3 3089.01 954.486   7
   7  -4   3 852.519 526.328   5
   8  -4   3 11167.4 1990.22   5
   9  -4   3 2307.73 947.695   5
  10   4   3 2695.87 1264.61  18
  10   4   3-2.79978 30.8143  11
  10   4   3 3857.72 1223.11   9
  10  -4   3 2873.34 1073.06   5
 -10  -4  -3 3376.82 1061.61  12
 -11  -4  -3 6623.65 1526.51  12
  11   4   3 7234.04 1756.00   9
  11   4   3 7138.01 2282.25  18
 -12  -4  -3 1231.70 654.767  12
  12   4   3 1132.00 670.801   9
  13   4   3 5285.69 1451.97   9
 -13  -4  -3 4409.88 1174.53  12
  14  -4   3-208.504 339.278  18
  14   4   3 2014.53 856.924   9
 -14  -4  -3 2831.82 915.082  12
  15  -4   3-15.1487 245.392  18
 -15  -4  -3 1105.50 527.843  12
  15   4   3 1175.21 535.183   9
  17   5  -3-106.423 155.161   9
  16  -5  -3 15.0139 44.9346  19
  16   5  -3 373.225 298.168   9
  15   5  -3 82.5995 143.861   9
  15  -5  -3-102.136 139.483  19
  14   5  -3-8.04898 115.298   9
  14  -5  -3-4.20409 31.4900  19
  13   5  -3 1462.99 759.085   9
  13  -5  -3-50.3130 116.535  19
  12  -5  -3-197.486 240.047  19
 -12  -5   3 6130.66 1400.21  12
  11   5  -3 2540.33 1090.13   7
 -11  -5   3 3868.72 1098.08  12
 -11   5   3 2207.30 1050.80   6
 -10   5   3 3956.96 1393.79   6
  10   5  -3 4063.49 1369.83   7
 -10  -5   3 4249.92 1162.13  12
   9   5  -3 9907.39 1941.54   3
  -9   5   3 10116.0 2172.05   6
   9   5  -3 9923.95 2194.46   7
   8   5  -3 913.158 656.965   7
   8   5  -3 741.306 499.015   3
   7   5  -3 583.887 422.177   7
   6   5  -3 7495.81 1705.47   7
   5  -5  -3 9328.15 1520.09   8
   5   5  -3 9490.24 1836.63   7
   4  -5  -3 8614.63 1486.87   8
   4   5  -3 9762.56 1866.91   7
   3  -5  -3 11460.2 1769.24   8
   3   5  -3 10187.9 1865.16   7
   2   5  -3 74805.8 5000.31   7
   2  -5  -3 74414.8 4562.23   8
   1  -5  -3 128.143 229.245   8
   1   5  -3-48.6410 247.127   7
   0  -5  -3 17622.5 2400.04   8
   0   5  -3 16229.0 2279.26   7
  -1   5  -3 16440.8 2305.22   7
   5   5   3 1559.19 849.457   7
   6   5   3 154.770 164.169   7
   8   5   3-7.32419 49.2589  11
  -8  -5  -3 790.701 496.805  12
   9   5   3 2.27937 27.6425  11
   9   5   3 16781.8 2684.47   9
  -9  -5  -3 18110.2 2386.16  12
  10   5   3 13095.5 2418.96   9
  10   5   3 1.99801 25.7018  11
 -10  -5  -3 13205.0 2078.17  12
  11   5   3 1149.34 668.826   9
 -11  -5  -3 1481.14 732.553  12
 -12  -5  -3-77.2029 221.427  12
  12   5   3-62.2131 247.806   9
  13   5   3 539.360 445.303   9
 -13  -5  -3 524.656 381.245  12
 -14  -5  -3-116.191 300.252  12
  14  -5   3-152.529 273.314  18
 -15  -5  -3 360.518 279.480  12
  15  -6  -3 113.958 120.427  19
  14  -6  -3-271.013 217.995  19
  13  -6  -3-132.325 169.098  19
  12  -6  -3-12.3306 55.2481  19
  11  -6  -3-109.921 173.178  19
  11   6  -3-12.6765 62.9132  11
  10   6  -3-1.60568 23.1187  11
 -10  -6   3 3388.97 1034.76  12
   9   6  -3-21.9868 87.1260  11
  -9  -6   3 1660.05 723.630  12
   8   6  -3 28.7488 269.860  13
   8   6  -3 1.71397 24.5423  11
  -8  -6   3-125.216 245.420  12
   8   6  -3 36.8332 210.977   7
   7   6  -3 1.48988 22.9526  11
   7   6  -3 1220.32 780.105   7
   6   6  -3 154.464 292.487   7
   5   6  -3 5732.43 1665.38   7
   5  -6  -3 5636.08 1287.95   8
   4  -6  -3 1724.21 737.526   8
   4   6  -3 1706.63 908.560   7
   3  -6  -3 26.0320 114.654   8
   3   6  -3-156.692 234.651   7
   2   6  -3 12649.2 2379.20   7
   2  -6  -3 11193.5 2008.95   8
   1  -6  -3 4147.62 1222.09   8
   1   6  -3 3949.50 1269.64   7
   0  -6  -3 8002.87 1734.52   8
   0   6  -3 7865.42 1842.47   7
  -1  -6  -3 18806.4 2728.58   8
  -2  -6  -3 6262.88 1618.52   8
  -3  -6  -3-249.426 365.193   8
  -4  -6  -3-232.678 333.236   8
  -5  -6  -3-39.4466 435.008   8
  -6  -6  -3 3622.50 1041.47  12
  -6  -6  -3 372.049 581.776   8
   6   6   3-4.96861 41.2941  11
   7   6   3 4.60797 39.5276  11
  -7  -6  -3 10194.4 1789.86  12
   8   6   3-0.66257 14.7645  11
  -8  -6  -3 2600.03 887.841  12
   9   6   3 5.30061 41.1162  11
  -9  -6  -3 305.652 330.301  12
  10   6   3 0.61161 13.7435  11
 -10  -6  -3 30.1556 121.331  12
 -11  -6  -3 33.4448 20.2823  12
 -12  -6  -3 961.764 502.505  12
  12  -6   3 211.134 197.018  19
 -13  -6  -3 110.491 147.066  12
 -14  -6  -3 121.955 153.937  12
  13  -7  -3-187.304 162.938  19
  12  -7  -3 96.0732 131.562  19
  12   7  -3-2.45252 23.4661  11
  11   7  -3-14.1415 61.2258  11
  11  -7  -3 206.911 211.270  19
  10   7  -3-2.21568 25.7672  11
  10  -7  -3-266.325 255.036  19
   9   7  -3 10.0312 57.0740  11
   9   7  -3 3415.51 1034.50  13
   8   7  -3 5.03718 41.4129  11
   8   7  -3 180.871 292.556  13
   7   7  -3 777.767 546.612  13
   7   7  -3 13.4740 68.7215  11
   6   7  -3 524.031 370.376  13
   6   7  -3-8.23443 54.2761  11
   5   7  -3 5425.36 1340.00  13
   5   7  -3 13570.7 3447.36  20
   5   7  -3 5416.14 1672.45   7
   4   7  -3 2890.06 1454.52  20
   4   7  -3 12662.3 2073.35  13
   4   7  -3 13279.7 2733.62   7
   4  -7  -3 8852.08 1768.56   8
   3   7  -3 1651.67 768.808  13
   3   7  -3 1952.26 1179.36  20
   3  -7  -3 1475.47 708.502   8
   3   7  -3 1346.64 879.086   7
   2   7  -3 1165.22 586.481  13
   2  -7  -3 782.230 568.824   8
   2   7  -3 1209.66 776.045   7
   2   7  -3 10194.6 3157.36  20
   1   7  -3 3963.36 1927.34  20
   1  -7  -3 5557.32 1515.69   8
   1   7  -3 5462.14 1429.59  13
   0   7  -3 2205.51 875.916  13
   0  -7  -3 1861.34 830.076   8
   0   7  -3 14285.1 3577.38  20
  -1   7  -3 14178.7 3662.17  20
   1   7   3-20.3703 83.5885  11
  -1  -7  -3 9349.87 2018.73   8
  -2   7  -3 1225.27 1112.06  20
   2   7   3-6.87202 48.9290  11
  -2  -7  -3 6434.73 1700.37   8
   3   7   3-0.48752 13.0823  11
  -3  -7  -3 735.677 579.132   8
  -3   7  -3 21253.9 4616.91  20
   4   7   3 3.83845 36.6590  11
  -4   7  -3 2887.77 1755.49  20
  -5   7  -3 21527.1 4465.02  20
   5   7   3-6.76378 48.2692  11
   6   7   3-11.8776 63.0296  11
  -6  -7  -3 10016.0 1702.38  12
  -7  -7  -3 81.4775 133.953  12
   7   7   3 5.17495 40.9886  11
   8   7   3 1.01821 17.7301  11
  -8  -7  -3 3427.30 982.126  12
   9   7   3-2.25165 25.3673  11
  -9  -7  -3 4103.20 1061.42  12
 -10  -7  -3 493.604 357.033  12
  11  -7   3-0.99168 12.7096  19
 -11  -7  -3 185.811 207.947  12
 -12  -7  -3 404.449 238.477  12
  11   8  -3-0.13034 45.7919  11
  10  -8  -3-164.693 162.632  19
  10   8  -3 4.04495 30.6930  11
   9   8  -3-3.52981 30.6491  11
   9  -8  -3-272.407 225.465  19
   8   8  -3-5.40954 39.7662  11
   8  -8  -3 111.260 152.387  19
   7   8  -3-1.86402 24.1828  11
   7   8  -3 19.1128 104.512  13
   6   8  -3-9.12052 54.7642  11
   6   8  -3 1424.62 657.220  13
   5   8  -3-3.35738 33.7115  11
   5   8  -3 5161.35 2039.34  20
   5   8  -3 1016.36 595.009  13
   4   8  -3 1759.75 1173.80  20
   4   8  -3 2609.73 951.044  13
   3   8  -3 4608.01 1952.35  20
   3   8  -3 831.878 570.655  13
   2   8  -3 1420.06 1235.90  20
   1   8  -3 73.6634 458.409  20
   0   8  -3 567.258 607.079  20
  -1   8  -3 1699.08 1266.14  20
   1   8   3-7.16310 48.9035  11
   2   8   3 7.28824 49.2658  11
  -2   8  -3 2936.70 1643.05  20
   3   8   3 14.2540 68.4898  11
  -3   8  -3 472.015 467.849  20
   4   8   3 7.11773 47.8466  11
  -4   8  -3 333.695 454.559  20
   5   8   3-5.57247 41.5732  11
   6   8   3-2.52960 27.2814  11
   7   8   3-2.34468 25.3415  11
   8   8   3 4.75175 34.4193  11
  -8  -8  -3 204.270 222.812  12
   9   8   3-1.00882 14.8647  11
  -9  -8  -3 65.5039 132.441  12
 -10  -8  -3-45.2080 88.4440  12
  10   9  -3 1.14621 12.6133  11
   9   9  -3 0.82862 12.0790  11
   8   9  -3-1.09678 15.0492  11
   7   9  -3 1.99649 21.5656  11
   6   9  -3 3.67461 30.5699  11
   5   9  -3-12.7873 58.8558  11
   5   9  -3 210.775 314.911  20
   4   9  -3 2374.51 1399.97  20
   4   9  -3-9.08787 50.7125  11
   3   9  -3 5.04805 38.6586  11
   3   9  -3 193.058 380.194  20
   2   9  -3 445.215 696.733  20
   1   9  -3 1682.07 952.213  20
   0   9  -3 111.051 390.662  20
  -1   9  -3 541.938 894.200  20
   2   9   3-4.61642 34.6751  11
   3   9   3 12.5612 56.5559  11
   4   9   3-4.26237 32.2626  11
   5   9   3 11.0253 50.2552  11
   6   9   3-2.37568 22.3031  11
   7   9   3 128.133 150.302  21
   7   9   3-6.84519 35.6935  11
   6  10  -3 0.89433 11.4484  11
   5  10  -3 2.65559 20.9197  11
   4  10  -3 1.93196 18.6873  11
   3  10  -3-1.80469 18.6793  11
   2  10  -3-10.3701 45.7545  11
   1  10  -3-5.10319 32.4350  11
  -1  10   3-151.930 164.195  21
   0  10  -3 2.49226 22.6504  11
   0  10   3-475.603 299.001  21
   1  10   3-50.3724 97.5714  21
  -1  10  -3 0.13589 5.21760  11
  -2  10  -3-10.4763 44.4082  11
   2  10   3-121.341 148.639  21
  -3  10  -3-2.47467 20.3919  11
   3  10   3-247.444 204.380  21
   4  10   3-386.809 240.651  21
  19   0  -4 1061.04 476.930   9
  18   0  -4 1456.12 631.329   9
  18   0  -4 1063.72 491.368  14
  17   0  -4 251.933 206.655   9
  17   0  -4-26.1825 238.957  14
  16   0  -4 3153.39 1011.31  14
  16   0  -4 4241.06 1337.74   9
  15   0  -4 962.852 563.295  14
  15   0  -4 1490.80 774.433   9
 -14   0   4 6245.06 1825.85   6
 -13   0   4 9530.73 2135.25   6
 -12   0   4 8303.64 1877.23   6
 -11   0   4 4486.46 1265.36   6
 -10   0   4 2750.69 928.876   6
  10   0  -4 2603.05 726.889   3
   9   0  -4 34465.0 2421.04   3
  -9   0   4 38037.6 3242.21   6
  -8   0   4 187632. 6718.61   6
  -7   0   4 64380.4 3602.36   6
  -7   0   4 53396.2 3329.76   2
  -6   0   4 46377.4 2926.29   2
  -6   0   4 50298.6 2988.50   6
   6   0  -4 45834.2 2854.86   1
  -5   0   4 19702.0 1780.80   6
   5   0  -4 18386.8 1679.94   1
  -5   0   4 18734.6 1742.91   2
  -4   0   4 55194.2 2834.75   6
   4   0  -4 56293.7 2515.62   8
  -4   0   4 52362.0 2777.52   2
  -3   0   4 3376.72 665.135   2
  -2   0   4 115572. 3786.64   2
  -1   0   4 782655. 9642.63   2
   0   0   4 205569. 5055.11   2
   1   0   4 874.292 341.256   2
   1   0   4 996.539 338.396   6
  -1   0  -4 1106.46 371.353   2
  -2   0  -4 177882. 4988.72   2
   2   0   4 174018. 4753.12   4
   2   0   4 178677. 5084.41   2
   3   0   4 19294.4 1673.39   4
  -3   0  -4 16790.2 1582.90   2
  -4   0  -4 194887. 5685.19   2
   4   0   4 223643. 5835.54   5
   5   0   4 38558.6 2690.80   5
   6   0   4 12275.4 1623.86   5
   7   0   4 8196.77 1461.86   5
   8   0   4 2535.52 869.047   5
   9   0   4 6771.48 1514.32   5
  10   0   4 632.024 504.537   5
  11   0   4 980.460 602.285   5
  12   0   4 42.2823 132.700   5
  12   0   4-86.3653 412.955  18
  12   0   4 34.4186 74.1001  16
  13   0   4-223.481 574.218  18
  13   0   4 499.766 367.024  16
  14   0   4-254.528 435.612  18
  14   0   4 195.472 211.004  16
  15   0   4-44.4409 186.136  18
  15   0   4 10.0978 117.493  16
  16   0   4 79.7844 219.603  18
  17   0   4 126.313 176.373  18
  19   1  -4 483.704 339.582   9
  18   1  -4 204.745 237.929   9
  18  -1  -4 325.922 297.129  14
  17   1  -4 733.743 512.443   9
  17  -1  -4 694.520 408.413  14
  16   1  -4 1040.59 596.193   9
  16  -1  -4 968.933 590.854   9
  16   1  -4 776.194 543.035  14
  16  -1  -4 871.143 594.131  14
  15  -1  -4 2687.16 1042.34   9
  15   1  -4 2335.68 1092.46   9
  15   1  -4 2489.11 925.276  14
 -14   1   4 1326.04 800.887   6
  14   1  -4 1357.06 755.374  14
 -13   1   4 3077.50 1196.12   6
 -12   1   4 1724.18 843.375   6
  12   1  -4 1409.94 669.009   3
 -11   1   4 9547.26 1962.95   6
 -11  -1   4 9141.87 1826.87   6
  11   1  -4 8302.53 1505.19   3
 -10   1   4 15471.6 2311.05   6
 -10  -1   4 14040.5 2102.59   6
  10   1  -4 12973.7 1721.15   3
  -9   1   4 2510.12 844.734   6
  -9  -1   4 2239.93 793.137   6
  -8  -1   4 53788.3 3643.84   6
  -8   1   4 56913.8 3767.90   6
  -7  -1   4 10724.0 1500.61   6
   7  -1  -4 10265.6 1296.41   8
  -7   1   4 10556.9 1474.50   6
  -6   1   4 2328.93 640.815   6
  -6   1   4 1667.61 536.157   2
  -6  -1   4 2464.25 671.882   6
   6  -1  -4 1829.94 500.212   1
   6  -1  -4 2340.69 572.533   8
  -5  -1   4 78642.8 3692.65   6
  -5   1   4 75314.8 3467.74   6
  -5   1   4 67286.5 3232.48   2
   5  -1  -4 80975.2 3205.90   8
   5   1  -4 74707.3 3792.78   1
   5  -1  -4 75017.9 2910.31   1
  -5  -1   4 75514.5 3808.86   2
   4  -1  -4 18068.7 1446.58   8
  -4   1   4 18039.7 1631.96   2
  -4  -1   4 16667.9 1635.32   6
  -4   1   4 16862.6 1569.37   6
  -4  -1   4 16589.4 1669.08   2
   4  -1  -4 16951.1 1470.54   2
  -3  -1   4 285904. 6603.19   6
  -3   1   4 300951. 6557.41   2
  -3  -1   4 295905. 6604.32   2
   3  -1  -4 299253. 6117.22   2
  -3   1   4 297056. 6458.25   6
  -2   1   4 14167.0 1381.84   6
  -2   1   4 14990.7 1461.92   2
  -2  -1   4 13487.7 1385.23   6
  -2  -1   4 13845.9 1340.30   2
   2  -1  -4 13742.6 1336.88   2
  -1  -1   4 96465.0 3583.36   6
   1  -1  -4 95173.3 2965.72   8
  -1   1   4 101686. 3803.94   2
  -1  -1   4 103403. 3620.39   2
   0  -1   4 42493.9 2290.28   2
   0   1   4 44061.3 2564.05   2
  -1  -1  -4 17947.5 1653.09   2
   1  -1   4 16880.2 1435.11   2
  -1   1  -4 18192.3 1491.39   2
   2  -1   4 30652.7 1940.56   4
   2   1   4 29531.4 2048.34   4
   2  -1   4 30000.2 1939.02   2
  -2   1  -4 32547.9 1976.88   2
  -2  -1  -4 30727.0 2309.58   2
  -3   1  -4 1536.47 428.631   2
   3   1   4 1297.47 402.903   5
   3  -1   4 1447.34 427.845   2
   3   1   4 1629.24 497.991   4
   4   1   4 7948.96 1113.73   5
   4  -1   4 8563.99 1147.87   5
   4   1   4 9126.35 1273.70   4
   5   1   4 1201.84 456.594   5
   5  -1   4 1228.96 494.740   5
   6  -1   4 36496.6 2871.06   5
   6   1   4 34512.0 2771.31   5
   7   1   4 748.846 404.771   5
   7  -1   4 925.201 472.254   5
   8   1   4 10937.4 1818.10   5
   8  -1   4 11003.7 1796.57   5
   9   1   4 1215.94 635.677   5
   9  -1   4 1214.39 637.927   5
  10   1   4 3730.94 1152.78   5
  10  -1   4 4290.63 1361.91   5
  11   1   4 1598.72 828.921   5
  11  -1   4 1649.21 866.413   5
  12  -1   4-64.4092 230.492   5
  12  -1   4-90.0899 250.252  18
  12   1   4 454.720 563.690   9
  12   1   4-21.0188 168.599  16
  12   1   4-126.106 424.329  18
  12  -1   4 146.197 183.056  16
  12   1   4-15.6875 141.630   5
  13  -1   4-313.040 412.332  18
  13   1   4-129.007 249.112  18
  13  -1   4-110.099 183.849  16
  13   1   4 91.5783 254.607  16
  13   1   4 178.250 362.404   9
  14  -1   4-55.5714 331.959  18
  14   1   4-170.169 269.958   9
  14   1   4 61.0588 275.884  18
  14   1   4 179.312 259.686  16
  14  -1   4 3.24513 106.101  16
  15   1   4-241.493 401.011  18
  15  -1   4-182.092 299.281  18
  15   1   4 184.113 8.46355   9
  15  -1   4 164.082 238.642  16
  16  -1   4-244.914 350.086  18
  16   1   4 209.030 390.885  18
  17  -1   4 122.923 261.075  18
  17   1   4-267.744 198.366  18
  19   2  -4 108.083 162.135   9
  19  -2  -4 69.7975 123.496  14
  18   2  -4 41.4133 132.364   9
  18  -2  -4 15.0175 107.910  14
  17   2  -4 473.043 398.099   9
  17  -2  -4 302.457 317.572  14
  16   2  -4 1278.40 662.092   9
  15  -2  -4-244.530 263.992  19
  15   2  -4 275.605 330.847   9
  15   2  -4-105.892 249.413  14
  14   2  -4 1194.70 688.154  14
  14   2  -4 1477.82 780.498   9
  14  -2  -4-296.096 302.240  19
  13  -2  -4-110.814 187.299  19
 -13   2   4 101.188 356.920   6
 -12   2   4 549.197 379.691   6
  12   2  -4 635.822 437.937   3
  11   2  -4 7176.11 1450.18   3
 -11   2   4 9377.36 1973.65   6
  10   2  -4 37739.4 3096.61   3
 -10   2   4 44902.4 4067.93   6
  -9   2   4 970.191 553.752   6
   8  -2  -4 1185.95 450.562   8
  -8   2   4 1383.60 607.901   6
   7  -2  -4 112562. 4335.42   8
  -7   2   4 116388. 5292.01   6
  -6  -2   4 11819.8 1554.37   6
  -6   2   4 12974.9 1637.01   6
   6  -2  -4 14440.9 1494.89   8
  -5   2   4 1030.70 394.988   2
  -5  -2   4 1202.56 460.358   6
  -5   2   4 1430.86 518.840   6
   5  -2  -4 1539.59 463.254   8
   4  -2  -4 192038. 5206.57   2
  -4  -2   4 200117. 5836.82   6
  -4   2   4 216505. 5961.96   6
   4  -2  -4 214301. 5230.78   8
  -4   2   4 209054. 6033.69   2
   3  -2  -4 221766. 5782.03   2
  -3   2   4 228909. 5956.78   6
   3  -2  -4 231607. 5326.70   8
  -3  -2   4 220732. 5826.55   6
  -2   2   4 61604.3 2994.69   6
   2  -2  -4 64205.9 2747.88   8
   2  -2  -4 60106.9 3048.88   2
  -2  -2   4 61040.7 2953.45   6
  -1  -2   4 100683. 3674.33   6
   1  -2  -4 102091. 3507.23   8
  -1  -2   4 106095. 4116.65   2
   1  -2  -4 99735.7 4116.34   2
   0  -2   4 191793. 5277.70   2
   0  -2  -4 188425. 4919.58   8
  -1  -2  -4 200856. 5210.67   8
   1  -2   4 202168. 5339.81   2
   2  -2   4 117331. 3944.91   2
  -2  -2  -4 125133. 4247.03   8
   2   2   4 122386. 4452.71   4
  -3  -2  -4 3338.94 719.789   8
   3   2   4 3681.52 796.968   4
   4   2   4 37085.4 2736.07   4
  -4  -2  -4 34588.7 2471.75   8
   5  -2   4 21217.7 2065.23   5
   6  -2   4 1418.48 577.689   5
   7  -2   4 725.339 423.327   5
   8  -2   4 1273.53 641.846   5
   9  -2   4 768.373 504.906   5
  10  -2   4 140.529 311.601   5
  11   2   4-161.348 389.306  18
  11  -2   4 5592.96 1326.72  16
  11   2   4 654.770 1178.76  16
  11  -2   4 6799.45 1711.72   5
  11   2   4 6762.60 1680.67   9
  12   2   4-50.7570 422.152  18
  12   2   4 665.465 472.756   9
  12  -2   4 579.974 520.009  16
  12   2   4 587.325 439.737  16
  13   2   4 181.671 162.645  18
  13  -2   4 50.7286 79.4081  16
  13   2   4-85.5540 25.3795   9
  13   2   4-21.0605 165.959  16
  13  -2   4-299.963 538.484  18
  14   2   4 322.029 547.643  18
  14  -2   4-48.3726 210.854  18
  14   2   4 211.417 295.475   9
  14  -2   4 31.5012 149.857  16
  15  -2   4 249.675 491.376  18
  15   2   4 356.737 361.650   9
  15   2   4 7.29743 191.264  18
  16  -2   4 4.67837 212.554  18
  16   2   4-68.1130 170.576  18
  19   3  -4 411.014 283.389   9
  18   3  -4 259.317 274.106   9
  18  -3  -4 148.070 129.812  14
  17   3  -4 3971.34 1148.50   9
  16  -3  -4 147.552 182.134  19
  16   3  -4 51.2477 162.964   9
  15   3  -4 1860.56 967.081   9
  15  -3  -4 147.435 199.553  19
  14  -3  -4-329.963 314.555  19
  14   3  -4 88.7078 163.023   9
  13  -3  -4-480.334 388.442  19
 -13   3   4 4654.87 1600.97   6
  13   3  -4 3428.15 1069.68  14
  13   3  -4 2808.89 1414.88   9
  12  -3  -4-262.540 288.717  19
 -12   3   4 1514.02 932.194   6
  11   3  -4 518.467 445.278   3
 -11   3   4 609.459 511.429   6
  10   3  -4 20687.9 2392.91   3
 -10   3   4 24879.9 3233.18   6
  -9   3   4 28132.7 3187.85   6
  -8   3   4 20242.9 2551.78   6
  -7   3   4 111688. 5619.30   6
   7  -3  -4 103458. 4539.03   8
  -6   3   4 190.584 166.416   6
   6  -3  -4 222.834 142.000   8
  -5   3   4 84776.3 4301.06   6
   5  -3  -4 84458.9 3780.75   8
   4  -3  -4 159520. 5060.67   8
  -4   3   4 147553. 5379.86   6
  -3   3   4 92427.3 4072.75   6
   3  -3  -4 97435.1 3915.25   8
   2  -3  -4 254004. 6417.85   8
   1  -3  -4 17574.4 1689.11   8
   0  -3  -4 85134.6 3835.05   8
   0  -3   4 69924.7 3680.36   2
   0   3  -4 65384.7 3310.83   7
  -1  -3  -4 27596.2 2278.33   8
  -2  -3  -4 68.0793 273.412   8
   2   3   4 2010.28 609.803   4
   3   3   4 37945.2 2749.93   4
   4   3   4 1852.82 631.200   4
   4  -3   4 1962.63 633.704   5
   5  -3   4 26771.5 2511.73   5
   6  -3   4 7710.60 1449.44   5
   7  -3   4 368.019 342.461   5
   8  -3   4 10811.4 1959.61   5
   9  -3   4 154.881 161.513   5
  10  -3   4 119.738 145.355   5
  11   3   4-279.869 470.246  18
  11  -3   4 183.904 368.358   5
  11   3   4-47.8311 426.881   9
 -11  -3  -4 69.4928 124.326  12
  12   3   4-75.4715 510.926  18
  12   3   4 106.316 187.524   9
  12   3   4 239.703 319.570  16
 -12  -3  -4 18.9493 241.079  12
  13   3   4 538.393 533.143   9
  13   3   4 414.703 604.300  18
  14   3   4 2920.82 1042.75   9
  14  -3   4-186.187 367.862  18
  14   3   4 222.241 483.528  18
  15   3   4 1797.34 786.562   9
  15   3   4 17.0116 127.164  18
  15  -3   4 9.70529 277.493  18
  16  -3   4 28.6402 176.172  18
  18   4  -4-51.4414 105.261   9
  18  -4  -4-106.915 105.248  14
  17   4  -4 84.7996 146.701   9
  17  -4  -4-159.679 144.720  19
  16  -4  -4-248.489 218.442  19
  16   4  -4 234.022 265.014   9
  15   4  -4-87.7219 322.316   9
  15  -4  -4-21.4399 71.8711  19
  14  -4  -4-46.6948 113.824  19
  14   4  -4 1782.88 804.398   9
  13  -4  -4 29.0308 93.1463  19
  13   4  -4 1214.34 850.539   9
  12   4  -4 479.872 549.799   7
  12   4  -4 517.626 717.864   9
 -12   4   4 817.843 696.147   6
  12  -4  -4-136.695 204.874  19
  11  -4  -4-194.746 245.146  19
 -11   4   4 1024.89 674.762   6
  10   4  -4 1025.50 605.488   3
 -10   4   4 801.552 655.877   6
  -9   4   4 4148.69 1337.30   6
  -8   4   4 2145.49 891.428   6
  -7   4   4 12673.8 2061.47   6
   7  -4  -4 12856.6 1696.46   8
  -6   4   4 23656.5 2625.42   6
   6  -4  -4 25149.7 2327.52   8
   5  -4  -4 15673.4 1809.57   8
   4  -4  -4 37463.0 2804.54   8
   3  -4  -4 6056.76 1129.96   8
   3   4  -4 6478.82 1387.49   7
   2  -4  -4 32109.2 2653.33   8
   2   4  -4 34600.9 2921.46   7
   1  -4  -4 54151.6 3461.49   8
   1   4  -4 47528.8 3407.49   7
   0  -4  -4 5975.59 1166.78   8
   0   4  -4 5576.17 1176.38   7
  -1  -4  -4 27917.4 2778.23   8
  -2  -4  -4 684.660 712.790   8
   4  -4   4 30.7173 133.295   5
   5  -4   4 828.471 486.264   5
   6  -4   4 3196.19 988.688   5
   7  -4   4 2216.36 874.096   5
   8  -4   4 2663.92 1026.96   5
   9   4   4-21.4645 84.2116  11
   9   4   4-22.1395 289.295   9
  -9  -4  -4-42.1369 253.227  12
   9  -4   4 95.5933 29.6538   5
  10   4   4 7508.04 2339.22  18
  10   4   4 6766.80 1747.35   9
 -10  -4  -4 8214.48 1659.46  12
  10  -4   4 6635.47 1752.65   5
  11   4   4-63.0043 37.7859  18
  11   4   4 281.960 470.425   9
 -11  -4  -4 278.063 300.738  12
  12   4   4 1804.93 951.294   9
 -12  -4  -4 1823.21 737.096  12
  13   4   4 260.012 198.080   9
 -13  -4  -4 297.079 316.558  12
 -14  -4  -4 1696.60 679.623  12
  14  -4   4-31.8429 203.540  18
  15  -4   4 238.811 311.006  18
  17   5  -4 247.914 208.281   9
  16  -5  -4-46.1827 81.2612  19
  16   5  -4 37.7409 166.869   9
  15   5  -4 1354.93 662.049   9
  15  -5  -4 27.5452 73.1076  19
  14  -5  -4-247.700 241.861  19
  14   5  -4 1001.09 583.781   9
  13  -5  -4-449.196 346.677  19
  12  -5  -4 61.9114 133.260  19
  11  -5  -4-317.279 305.482  19
  10   5  -4 973.218 619.785   7
 -10   5   4 1201.43 787.447   6
 -10  -5   4 1441.56 673.018  12
   9   5  -4 9633.22 1938.62   3
   9   5  -4 10770.5 2195.16   7
   8   5  -4 1225.13 730.467   7
   7   5  -4 12247.9 2198.77   7
   6  -5  -4 255.654 231.642   8
   6   5  -4 515.216 433.236   7
   5  -5  -4 6738.41 1339.46   8
   5   5  -4 7242.27 1631.37   7
   4   5  -4 751.295 602.775   7
   4  -5  -4 1755.64 675.009   8
   3   5  -4 2410.82 922.826   7
   3  -5  -4 2033.63 743.554   8
   2  -5  -4 1477.68 637.708   8
   2   5  -4 983.998 561.984   7
   1   5  -4 462.012 413.445   7
   1  -5  -4 301.799 301.354   8
   0  -5  -4 7197.22 1450.65   8
   0   5  -4 6195.30 1432.16   7
  -1  -5  -4 6567.97 1402.87   8
  -2  -5  -4 4715.21 1255.93   8
  -3  -5  -4 6587.29 1573.93   8
  -4  -5  -4 590.406 402.068   8
  -5  -5  -4 2854.08 1066.78   8
  -6  -5  -4 9065.91 1988.09   8
   8   5   4-22.7477 86.9738  11
  -8  -5  -4 327.816 303.626  12
   8   5   4-80.0387 346.044   9
  -9  -5  -4 886.455 546.949  12
   9   5   4-2.19487 26.7356  11
   9   5   4 928.591 549.652   9
  10   5   4 4856.98 1442.15   9
 -10  -5  -4 5634.89 1340.28  12
  11   5   4 953.243 667.280   9
 -11  -5  -4 1695.20 744.936  12
 -12  -5  -4 1977.06 786.423  12
 -13  -5  -4 4259.17 1099.10  12
  14  -5   4 129.921 260.765  18
 -14  -5  -4-22.6554 71.0660  12
  15  -6  -4-155.954 142.751  19
  14  -6  -4-28.0450 70.0503  19
  13  -6  -4-43.2243 95.9699  19
  12  -6  -4-69.8561 130.953  19
  11  -6  -4-16.3112 66.6509  19
  10  -6  -4-17.1757 70.6958  19
  10   6  -4-4.55571 38.6034  11
   9   6  -4-27.0681 95.9561  11
   9   6  -4 431.837 334.686  13
   8   6  -4-8.76877 55.1922  11
   8   6  -4 3327.74 1033.96  13
   8   6  -4 1887.95 980.559   7
   7   6  -4 3365.26 1086.96  13
   7   6  -4 2178.51 982.495   7
   6   6  -4 14038.7 2578.47   7
   5  -6  -4 7034.28 1507.99   8
   5   6  -4 6757.00 1854.95   7
   4  -6  -4 1239.14 647.484   8
   4   6  -4 1075.93 752.585   7
   3  -6  -4 2396.94 908.326   8
   3   6  -4 1955.77 1052.96   7
   2  -6  -4 8962.24 1781.62   8
   2   6  -4 9379.52 2030.42   7
   1  -6  -4 513.004 415.220   8
   1   6  -4 834.969 581.511   7
   0  -6  -4 22384.6 2859.53   8
  -1  -6  -4 122.251 209.074   8
  -2  -6  -4 585.262 534.699   8
  -3  -6  -4 4819.81 1384.84   8
  -4  -6  -4 2960.09 1126.21   8
   5   6   4 8.15558 52.9633  11
  -5  -6  -4 2494.25 834.492  12
  -5  -6  -4 3237.83 1174.22   8
  -6  -6  -4 75.9921 67.0497  12
   6   6   4 2.82350 31.1250  11
  -6  -6  -4 176.382 229.298   8
  -7  -6  -4 2424.32 893.608  12
   7   6   4-20.0432 82.1767  11
   8   6   4-2.59919 29.0293  11
  -8  -6  -4 9916.86 1736.06  12
   9   6   4-5.36994 40.9328  11
  -9  -6  -4 173.255 221.830  12
 -10  -6  -4 250.685 278.583  12
 -11  -6  -4 485.459 395.835  12
 -12  -6  -4 13.5631 175.873  12
  13  -6   4-109.174 261.523  18
 -13  -6  -4 1560.03 586.660  12
 -14  -6  -4 99.8374 167.375  12
  13  -7  -4-36.7479 72.1181  19
  12  -7  -4-48.6960 93.2553  19
  11   7  -4-10.9741 52.9098  11
  11  -7  -4 210.592 211.381  19
  10   7  -4 12.4326 60.1585  11
  10  -7  -4-138.285 181.786  19
  10   7  -4 581.331 459.710  13
   9  -7  -4-225.087 241.390  19
   9   7  -4-2.37126 27.4995  11
   9   7  -4 23.1915 99.6354  13
   8   7  -4-2.96404 31.6246  11
   8   7  -4 293.386 212.613  13
   7   7  -4 9.44600 57.4194  11
   7   7  -4 1538.28 770.759  13
   6   7  -4 417.905 450.531  13
   5   7  -4 11839.6 3071.10  20
   5   7  -4 84.0767 302.121  13
   4  -7  -4 3467.67 1109.75   8
   4   7  -4 5171.88 1319.14  13
   4   7  -4 4981.29 1632.85   7
   4   7  -4 15880.8 3685.80  20
   3   7  -4 10715.5 1945.04  13
   3  -7  -4 8822.83 1813.15   8
   3   7  -4 2506.53 1388.12  20
   3   7  -4 9786.25 2353.37   7
   2  -7  -4 797.100 564.659   8
   2   7  -4 3615.95 1759.37  20
   2   7  -4 733.691 474.973  13
   2   7  -4 660.608 586.909   7
   1   7  -4 424.084 503.684  20
   1  -7  -4 2403.08 955.283   8
   1   7  -4 2123.38 857.954  13
   0   7  -4 4309.16 1863.93  20
   0  -7  -4 205.845 313.178   8
   0   7  -4-61.2252 338.016  13
  -1  -7  -4 1481.41 788.851   8
  -1   7  -4 64.0780 419.645  20
  -1   7  -4 969.258 732.575  13
   2   7   4 4.80704 40.4244  11
  -2   7  -4 763.715 927.884  20
  -2  -7  -4 766.141 618.439   8
  -3   7  -4 5708.74 2190.50  20
   3   7   4-7.63654 51.1846  11
  -4   7  -4 3508.27 1656.88  20
   4   7   4-16.4134 74.9239  11
   5   7   4-4.54417 39.0547  11
   6   7   4 10.9817 60.0181  11
  -6  -7  -4 487.475 346.122  12
   7   7   4 3.97976 35.4415  11
  -7  -7  -4 558.404 444.501  12
   8   7   4-3.13119 30.4889  11
  -8  -7  -4 1157.33 543.779  12
   9   7   4-0.89006 15.5358  11
  -9  -7  -4-98.5648 235.518  12
 -10  -7  -4 125.642 131.794  12
  11  -7   4 153.332 143.011  19
 -11  -7  -4 369.664 276.090  12
 -12  -7  -4 189.372 204.977  12
  11   8  -4-9.11816 40.7451  11
  10  -8  -4 215.720 180.963  19
  10   8  -4-2.56420 23.9568  11
   9   8  -4 127.065 185.619  13
   9  -8  -4 83.6483 121.372  19
   9   8  -4 1.38052 18.8926  11
   8   8  -4-0.95012 16.4903  11
   8  -8  -4-2.81067 23.4461  19
   8   8  -4 1731.53 691.805  13
   7   8  -4 3.89367 34.7122  11
   7   8  -4 388.293 422.144  13
   6   8  -4-6.04898 44.4447  11
   6   8  -4 7221.16 2497.35  20
   6   8  -4 22.9586 123.695  13
   5   8  -4-184.997 61.0475  20
   5   8  -4 5785.12 1381.65  13
   4   8  -4 194.507 381.562  20
   4   8  -4-27.1881 230.241  13
   3   8  -4 16.1834 544.575  20
   3   8  -4 629.449 498.844  13
   2   8  -4 1038.56 948.196  20
   2   8  -4-106.027 155.549  13
   1   8  -4 45157.9 6163.89  20
   0   8  -4 21739.4 4347.01  20
  -1   8  -4 6927.01 2435.12  20
  -2   8  -4-334.961 171.417  20
   2   8   4-5.22695 40.6368  11
   3   8   4-8.29387 50.8937  11
  -3   8  -4 228.195 508.059  20
  -4   8  -4 547.512 648.022  20
   4   8   4-0.41062 11.1844  11
   5   8   4 1.56248 21.3701  11
   6   8   4-3.47699 30.9584  11
   7   8   4 1.35265 18.6001  11
   8   8   4-299.796 248.591  21
   8   8   4 0.91134 14.4808  11
  -8  -8  -4 1548.89 547.167  12
  -9  -8  -4 92.6992 115.880  12
 -10  -8  -4 414.981 255.611  12
   9   9  -4 3.98130 25.8357  11
   8   9  -4-2.93482 24.2087  11
   7   9  -4 6.75574 39.1400  11
   6   9  -4 3.93552 31.3042  11
   5   9  -4 275.924 272.958  20
   5   9  -4 0.17498 6.82872  11
   4   9  -4 376.847 685.030  20
   4   9  -4 7.14708 44.6963  11
   3   9  -4 175.069 196.550  20
   2   9  -4-116.891 276.872  20
   1   9  -4 130.261 435.819  20
   0   9  -4 107.352 247.129  20
  -1   9  -4 383.484 692.562  20
   3   9   4 0.78693 13.4451  11
   4   9   4-3.43768 27.4921  11
   5   9   4 108.209 154.463  21
   5   9   4 7.21371 38.4577  11
   6   9   4 0.12597 4.84541  11
   6   9   4-215.568 204.044  21
   7   9   4-207.868 180.498  21
   5  10  -4 2.03066 17.9368  11
   4  10  -4-3.12238 23.2148  11
   3  10  -4 1.72141 17.8024  11
   2  10  -4-1.54411 17.2525  11
   1  10  -4 5.27599 32.2567  11
  -1  10   4-125.052 144.915  21
   0  10   4 23.6434 64.7639  21
   0  10  -4 5.69140 33.4857  11
  -1  10  -4 4.15400 28.2233  11
   1  10   4-143.901 159.747  21
   2  10   4-61.7497 102.214  21
  -2  10  -4 5.18666 30.5725  11
   3  10   4 185.792 169.518  21
  19   0  -5 51.6518 84.9886  14
  19   0  -5-98.9760 97.0658   9
  18   0  -5-142.115 188.066   9
  18   0  -5 58.6130 210.976  14
  17   0  -5-221.617 308.974   9
  17   0  -5-50.4306 281.190  14
  16   0  -5-79.5626 175.394  14
  16   0  -5-6.83214 133.002   9
  15   0  -5 85.0977 133.578  14
 -14   0   5 129.518 457.501   6
  14   0  -5 90.3150 92.5398  14
 -13   0   5 54.5450 359.406   6
 -12   0   5-166.802 263.807   6
 -11   0   5 262.926 333.514   6
  10   0  -5-56.2685 226.151   3
 -10   0   5 150.155 202.460   6
  -9   0   5 23.3060 123.626   6
  -8   0   5 61.1156 227.797   6
  -7   0   5 420.505 310.104   6
  -6   0   5 65.7419 24.3144   6
  -6   0   5 2.45358 93.0673   2
   6   0  -5 19.0149 92.5744   1
  -5   0   5 25.4836 47.3227   6
  -5   0   5 7.71771 141.832   2
   4   0  -5 68.0927 107.296   8
  -4   0   5 4.57216 40.5704   2
  -4   0   5 32.0350 85.4042   6
  -3   0   5 13.1220 92.0023   2
  -3   0   5 95.1919 149.729   6
   3   0  -5 28.2604 64.1697   8
  -2   0   5 15.9478 52.5456   2
   2   0  -5-36.1217 77.2867   8
  -1   0   5 173.059 116.475   2
   1   0  -5 87.6833 106.833   8
   1   0  -5 36.0386 74.9377   2
   0   0   5 52.5696 101.666   6
   0   0   5 46.8215 100.024   2
   0   0  -5 25.7979 53.7544   2
   1   0   5 11.2408 21.8986   4
   1   0   5 26.1646 97.2292   2
   1   0   5 10.0513 103.404   6
  -1   0  -5-60.8979 118.960   2
   2   0   5 116.282 165.011   2
   2   0   5 65.2712 108.147   4
  -2   0  -5 56.7528 158.485   2
   3   0   5 61.1285 67.2735   4
   4   0   5 169.681 189.126   5
   5   0   5 13.9480 27.2536   5
   6   0   5 124.187 157.379   5
   7   0   5 83.1790 172.174   5
   8   0   5-11.7563 167.773   5
   9   0   5 7.80930 90.8787   5
  10   0   5-134.300 366.707   5
  11   0   5 21.3254 142.575   5
  11   0   5-21.5310 307.311  16
  11   0   5-209.265 797.071  18
  12   0   5-330.971 326.165  16
  12   0   5 392.150 664.461  18
  13   0   5-125.303 281.463  16
  13   0   5 46.9907 173.270  18
  14   0   5-229.162 350.831  18
  14   0   5 81.0095 133.947  16
  15   0   5-125.493 295.476  18
  15   0   5-4.09458 103.657  16
  16   0   5 35.6000 163.668  18
  17   0   5-69.5319 223.053  18
  19   1  -5 164.347 181.018   9
  19  -1  -5 171.758 165.530  14
  18   1  -5 360.292 355.815   9
  18   1  -5 581.042 358.011  14
  18  -1  -5 245.542 264.213  14
  17   1  -5 109.628 116.098   9
  17  -1  -5-79.3547 365.577   9
  17   1  -5-41.5560 218.798  14
  17  -1  -5 27.6409 144.326  14
  16   1  -5 660.422 442.515   9
  16   1  -5 345.679 323.179  14
  16  -1  -5 452.993 338.245  14
  16  -1  -5 472.536 452.579   9
  15  -1  -5 302.846 298.560  19
  15   1  -5 210.640 369.793  14
  14  -1  -5-80.9351 158.898  19
  14   1  -5 3929.53 1201.87  14
 -14   1   5 3840.94 1480.53   6
  13  -1  -5 390.679 350.727  19
 -13   1   5 1806.74 937.497   6
 -12   1   5 7952.14 1934.00   6
  12   1  -5 7393.45 1511.54   3
  11   1  -5 7408.41 1420.11   3
 -11   1   5 9701.52 1990.11   6
 -11  -1   5 8481.28 1811.88   6
 -10  -1   5 38513.0 3651.26   6
 -10   1   5 40179.7 3784.76   6
  -9   1   5 4623.22 1172.87   6
  -9  -1   5 5349.58 1278.03   6
  -8   1   5 14660.9 1965.39   6
  -8  -1   5 16390.7 2090.18   6
  -7  -1   5 18340.4 2108.53   6
   7  -1  -5 19097.7 1837.69   8
  -7   1   5 17953.8 2044.99   6
  -6   1   5 1448.15 530.984   2
  -6  -1   5 2029.18 675.925   6
  -6   1   5 2138.89 670.155   6
   6  -1  -5 2576.20 643.731   8
  -5   1   5 34122.0 2583.84   6
  -5   1   5 31081.4 2502.04   2
   5  -1  -5 31996.1 2122.55   1
  -5  -1   5 35998.5 2711.09   6
   5  -1  -5 36811.7 2269.36   8
  -4  -1   5 162285. 5661.44   6
  -4   1   5 166489. 5499.03   6
  -4   1   5 156328. 5533.64   2
   4  -1  -5 167287. 4599.44   8
  -4  -1   5 149551. 5442.63   2
   4  -1  -5 146455. 4860.40   2
   3  -1  -5 2731.97 665.250   2
  -3  -1   5 3340.95 781.031   6
  -3   1   5 2733.70 674.860   6
  -3   1   5 2829.44 722.024   2
   3  -1  -5 2601.07 544.924   8
  -3  -1   5 2929.08 715.697   2
  -2  -1   5 2460.23 650.914   6
   2  -1  -5 2506.92 634.649   2
  -2   1   5 2809.77 683.044   6
  -2  -1   5 2827.22 692.200   2
  -2   1   5 2667.59 688.138   2
   2  -1  -5 2499.03 525.651   8
  -1  -1   5 7095.81 1073.49   2
  -1   1   5 7357.15 1101.83   6
   1  -1  -5 6944.30 1074.99   2
  -1  -1   5 7346.09 1061.15   6
   1  -1  -5 6731.18 859.510   8
  -1   1   5 6540.78 1091.61   2
   0   1   5 101222. 4002.57   6
   0   1   5 104463. 4487.99   2
   0  -1  -5 101878. 3283.96   8
   0  -1   5 108783. 4281.72   2
   0  -1   5 105486. 3939.82   6
   1  -1   5 887.100 369.779   2
   1   1   5 651.838 291.563   6
   1  -1   5 703.448 290.563   4
  -1   1  -5 776.728 351.191   2
  -1  -1  -5 732.236 272.622   8
  -2  -1  -5 14506.3 1214.62   8
   2  -1   5 18094.6 1750.19   2
   2  -1   5 19706.8 1709.62   4
   2   1   5 19240.6 1786.93   4
  -2   1  -5 17074.7 1665.00   2
   3  -1   5 5775.32 1007.07   2
   3   1   5 6441.27 975.836   5
   3   1   5 7165.30 1143.29   4
  -3   1  -5 5453.63 934.759   2
   4   1   5 9286.31 1366.89   4
   4   1   5 8636.93 1223.69   5
   5  -1   5 6632.79 1176.95   5
   5   1   5 6719.06 1168.52   5
   6   1   5 7838.28 1369.79   5
   6  -1   5 8334.61 1440.55   5
   7  -1   5 6280.19 1315.46   5
   7   1   5 5308.63 1216.35   5
   8  -1   5 14893.6 2203.93   5
   8   1   5 13620.1 2124.45   5
   9   1   5 18142.4 2542.50   5
   9  -1   5 21410.5 2808.70   5
  10   1   5 564.446 476.751   5
  10  -1   5 756.131 529.114   5
  11   1   5 1915.49 863.325   5
  11   1   5-145.036 463.926  18
  11  -1   5 2270.50 1039.24   5
  11   1   5 1891.08 899.756   9
  11   1   5 2287.20 899.607  16
  11  -1   5 2102.20 791.294  16
  12   1   5 104.503 157.362  18
  12  -1   5 28.6899 348.627  18
  12   1   5 792.924 533.396  16
  12  -1   5 696.970 480.955  16
  12   1   5 1217.58 810.804   9
  13   1   5-77.8637 238.688  18
  13   1   5 29.3621 199.133  16
  13  -1   5 141.912 160.131  18
  13   1   5 434.305 400.608   9
  13  -1   5 291.336 299.747  16
  14   1   5 134.816 226.764  16
  14   1   5 4.29501 240.317  18
  14  -1   5-26.4596 253.908  18
  14  -1   5 530.168 386.588  16
  14   1   5 281.726 371.365   9
  15  -1   5-51.8849 199.660  16
  15   1   5 286.043 438.786  18
  15  -1   5 20.9797 205.529  18
  16   1   5-15.1144 223.647  18
  16  -1   5-161.693 218.785  18
  17   1   5 101.019 139.542  18
  19   2  -5 653.783 398.661   9
  19  -2  -5 425.000 263.302  14
  18   2  -5 45.7184 135.986   9
  18  -2  -5 63.9000 110.226  14
  17  -2  -5 239.191 243.705  14
  17   2  -5 458.309 402.652   9
  16   2  -5 693.657 523.159   9
  16   2  -5 660.280 510.680  14
  16  -2  -5-259.903 254.252  19
  15  -2  -5 120.912 186.981  19
  15   2  -5 814.315 593.687   9
  15   2  -5 584.550 451.153  14
  14  -2  -5-411.007 356.873  19
  14   2  -5 1844.61 793.827  14
  13  -2  -5-99.6033 178.360  19
 -13   2   5 53225.4 5483.31   6
  13   2  -5 47151.3 4133.85  14
  12   2  -5 2206.78 865.176   3
 -12   2   5 2758.83 1123.75   6
  11   2  -5 772.195 446.742   3
 -11   2   5 850.473 607.458   6
 -10   2   5 53044.1 4494.96   6
  -9   2   5 5261.07 1315.31   6
   8  -2  -5 3520.44 851.089   8
  -8   2   5 3282.95 960.369   6
   7  -2  -5 90333.5 4172.50   8
  -7  -2   5 85982.0 4731.10   6
  -7   2   5 90705.9 4830.07   6
  -6   2   5 129494. 5545.74   6
   6  -2  -5 133716. 4747.53   8
  -6  -2   5 118103. 5317.07   6
   5  -2  -5 429.389 232.188   8
  -5  -2   5 533.588 357.143   6
  -5   2   5 576.217 338.778   2
  -5   2   5 507.328 330.350   6
  -4  -2   5 64480.2 3616.65   6
   4  -2  -5 64298.2 3034.16   8
  -4   2   5 57026.6 3572.91   2
  -4   2   5 65140.4 3610.42   6
  -3  -2   5 84820.2 3990.86   6
  -3   2   5 83160.9 3950.22   6
  -3   2   5 78111.5 4206.36   2
   3  -2  -5 83215.0 3349.51   8
  -2   2   5 10923.6 1411.97   6
  -2  -2   5 11005.8 1360.41   6
   2  -2  -5 10782.8 1182.61   8
  -2  -2   5 10620.7 1463.61   2
  -1   2   5 154.719 171.009   6
   1  -2  -5 98.9038 103.576   8
  -1  -2   5 47.3915 83.1112   2
  -1  -2   5-3.69652 101.471   6
   0  -2   5 13287.7 1584.20   2
   0   2   5 11529.0 1324.47   6
   0  -2  -5 12987.2 1340.06   8
   1  -2   5 11312.3 1426.51   2
  -1  -2  -5 11228.3 1261.89   8
   1   2   5 8469.19 1057.67   6
   2   2   5 35.5023 145.994   4
  -2  -2  -5 155.815 149.829   8
  -3  -2  -5 126357. 4477.72   8
   3   2   5 150661. 5548.84   4
   4   2   5 45823.1 3263.86   4
   5  -2   5 28820.0 2581.47   5
   6  -2   5 4134.49 1045.91   5
   7  -2   5 8450.80 1571.85   5
   8  -2   5 39864.4 3652.65   5
   9  -2   5 5372.18 1450.44   5
  10  -2   5 8062.45 1920.75   5
  11   2   5-260.287 266.079  18
  11   2   5 2390.50 1194.11   9
  11   2   5 1447.14 1070.58  16
  11  -2   5 3488.60 1045.25  16
  11  -2   5 3862.80 1292.70   5
  12   2   5 66.7001 200.825   9
  12  -2   5 61.2214 55.9820  16
  12   2   5-7.77446 161.309  16
  12   2   5 167.340 530.094  18
  13   2   5 31.6466 314.850  18
  13  -2   5-285.491 719.683  18
  13   2   5-40.1734 223.953   9
  13   2   5-108.407 241.541  16
  13  -2   5 85.4430 267.538  16
  14   2   5 357.898 493.084  18
  14  -2   5 0.95814 196.768  18
  14   2   5 167.209 136.097   9
  14  -2   5 94.6585 164.321  16
  15   2   5 112.094 178.294  18
  15  -2   5 170.321 269.984  18
  15  -2   5 584.792 374.820  16
  16   2   5-188.622 294.671  18
  16  -2   5 44.5213 114.838  18
  19   3  -5 204.267 195.413   9
  19  -3  -5 88.6949 122.516  14
  18   3  -5-38.1749 57.7372   9
  18  -3  -5 157.690 152.858  14
  17   3  -5 922.927 534.965   9
  16   3  -5 357.007 374.373   9
  16  -3  -5-205.078 217.400  19
  15  -3  -5-122.290 182.556  19
  15   3  -5 451.556 410.370   9
  14  -3  -5 71.6388 146.413  19
  14   3  -5 1136.41 541.425   9
  14   3  -5 567.205 384.777  14
  13  -3  -5 73.0436 150.752  19
  13   3  -5 5308.17 1553.32   9
 -13   3   5 5737.49 1838.49   6
  13   3  -5 5403.13 1385.59  14
  12  -3  -5 127.435 200.077  19
 -12   3   5 8783.90 2179.24   6
  11   3  -5 609.544 457.011   3
 -11   3   5 708.998 626.695   6
 -10   3   5 2691.55 1057.26   6
  -9   3   5 2634.90 1011.48   6
  -8   3   5 5260.78 1326.69   6
   8  -3  -5 5239.40 1086.24   8
  -7   3   5 10124.0 1717.53   6
   7  -3  -5 11355.5 1549.72   8
  -6   3   5 368.182 346.350   6
   6  -3  -5 224.602 197.081   8
  -5   3   5 1346.78 575.289   6
   5  -3  -5 1287.99 476.891   8
   4  -3  -5 14396.9 1594.98   8
  -4   3   5 14121.6 1781.29   6
  -3   3   5 127139. 5196.25   6
   3  -3  -5 136649. 4781.89   8
   2  -3  -5 401.583 259.824   8
   1  -3  -5 49641.5 2937.50   8
   0  -3  -5 36072.8 2601.20   8
  -1  -3  -5 50407.2 3118.44   8
  -2  -3  -5 5050.97 1006.71   8
   2   3   5 4524.68 983.775   4
  -3  -3  -5 20325.2 2063.37   8
   3   3   5 20793.4 2212.12   4
  -4  -3  -5 4791.46 1025.47   8
   4   3   5 4963.31 1128.11   4
   5  -3   5 2469.93 798.955   5
   6  -3   5 1853.06 735.793   5
   7  -3   5-23.6211 128.691   5
   8  -3   5 19451.3 2716.21   5
   9  -3   5 1410.37 742.379   5
 -10  -3  -5 9118.38 1758.08  12
  10   3   5 9562.96 2164.74   9
  10  -3   5 11873.2 2360.03   5
  10   3   5 7052.15 2621.32  18
 -11  -3  -5 189.924 178.082  12
  11   3   5-295.113 574.223  18
  11   3   5 64.7127 218.728   9
  12  -3   5 937.148 524.839  16
  12   3   5 292.803 553.869  18
  12   3   5 884.262 613.757   9
 -12  -3  -5 1276.44 659.333  12
  13  -3   5 144.328 89.2927  16
  13   3   5 203.699 253.952  18
  13   3   5 215.937 402.418   9
  14   3   5-189.075 476.674  18
  14  -3   5-79.2807 308.580  18
  15  -3   5-42.1952 139.516  18
  18   4  -5-104.747 169.349   9
  18  -4  -5 148.289 203.842  14
  17   4  -5 209.995 291.314   9
  16  -4  -5 261.785 226.499  19
  16   4  -5 77.4172 160.818   9
  15   4  -5 577.506 580.608   9
  15  -4  -5-49.6864 109.465  19
  14   4  -5 3624.10 1206.95   9
  14  -4  -5-34.6584 97.6360  19
  13   4  -5 2754.76 1459.08   9
  13  -4  -5 173.398 225.990  19
  12  -4  -5-265.036 282.383  19
  12   4  -5 234.944 469.251   9
 -12   4   5 427.280 449.022   6
 -11   4   5 29649.8 4013.87   6
  11  -4  -5 141.117 206.486  19
  10  -4  -5 175.704 231.194  19
 -10   4   5 2580.38 1075.32   6
  -9   4   5 163.590 356.479   6
  -8   4   5 1985.94 846.947   6
  -7   4   5 851.336 534.218   6
   7  -4  -5 826.565 433.992   8
  -6   4   5 24370.6 2769.46   6
   6  -4  -5 26060.2 2478.12   8
   5  -4  -5 2379.60 711.890   8
   4  -4  -5 67119.1 3831.75   8
   3  -4  -5 135552. 5425.51   8
   2  -4  -5 46110.5 3176.22   8
   2   4  -5 45487.3 3463.71   7
   1  -4  -5 3393.74 880.116   8
   1   4  -5 3229.44 899.590   7
   0  -4  -5 1937.67 678.950   8
  -1  -4  -5 23268.1 2374.54   8
  -2  -4  -5 18955.2 2207.07   8
  -3  -4  -5 8275.87 1497.21   8
   4  -4   5 9693.67 1621.17   5
  -4  -4  -5 9279.55 1625.44   8
   5  -4   5 11152.2 1867.08   5
   6  -4   5 2344.65 899.487   5
   7  -4   5 597.898 395.813   5
   8  -4   5 7725.49 1766.64   5
   9   4   5 8818.63 1936.06   9
  -9  -4  -5 8563.46 1677.94  12
   9  -4   5 7904.04 1915.38   5
   9   4   5 9664.36 2518.37  18
  10   4   5 221.781 539.365  18
  10   4   5 583.424 586.672   9
 -10  -4  -5 132.104 134.068  12
  11   4   5 106.525 469.586   9
 -11  -4  -5 124.861 118.369  12
  12   4   5 1001.88 599.741   9
 -12  -4  -5 758.608 440.668  12
 -13  -4  -5 265.311 206.143  12
  14  -4   5-13.9348 127.820  18
 -14  -4  -5 719.887 388.341  12
  15  -4   5 320.821 327.380  18
  16  -5  -5-27.5731 63.3204  19
  16   5  -5 539.747 362.623   9
  15   5  -5-172.476 274.846   9
  15  -5  -5 204.524 198.597  19
  14  -5  -5-169.887 198.714  19
  13  -5  -5-257.931 259.799  19
  12  -5  -5-61.0732 131.297  19
  11  -5  -5-148.208 209.449  19
  10  -5  -5 481.804 384.099  19
  10   5  -5 1204.55 810.297   7
  10   5  -5 397.317 448.792  13
   9   5  -5 410.354 322.996   7
   8   5  -5 292.891 330.538   7
   7  -5  -5 8227.02 1531.85   8
   7   5  -5 8607.83 1863.08   7
   6   5  -5 188.469 297.999   7
   6  -5  -5 52.4690 199.085   8
   5  -5  -5 11592.4 1817.26   8
   5   5  -5 11601.0 2123.39   7
   4  -5  -5 4256.07 1082.87   8
   4   5  -5 4041.08 1300.98   7
   3  -5  -5 11283.0 1752.64   8
   3   5  -5 10400.4 1968.96   7
   2  -5  -5 26412.8 2739.61   8
   2   5  -5 25223.8 3018.92   7
   1  -5  -5 18025.1 2284.43   8
   1   5  -5 17488.7 2418.73   7
   0  -5  -5 383.914 320.599   8
  -1  -5  -5 18109.1 2373.46   8
  -2  -5  -5 452.163 387.057   8
  -3  -5  -5 7340.85 1599.67   8
  -4  -5  -5 441.303 399.402   8
  -5  -5  -5 3646.22 1123.09   8
   7   5   5-24.3854 90.6035  11
  -7  -5  -5 146.422 208.043  12
   8   5   5 1.35333 21.2157  11
  -8  -5  -5 5100.32 1238.85  12
  -9  -5  -5 297.454 340.546  12
 -10  -5  -5 329.869 308.635  12
 -11  -5  -5 126.074 220.404  12
 -12  -5  -5 270.537 220.095  12
 -13  -5  -5 480.120 330.047  12
 -14  -5  -5-157.594 276.120  12
  15  -6  -5 19.8446 50.6228  19
  14  -6  -5-87.8435 122.380  19
  13  -6  -5 46.3830 98.5663  19
  12  -6  -5-23.4009 75.3112  19
  11  -6  -5 151.097 201.300  19
  10   6  -5 3794.31 1072.35  13
  10  -6  -5 132.592 194.984  19
   9  -6  -5 19.6279 76.3980  19
   9   6  -5 587.853 412.576  13
   8   6  -5 16.4087 74.9000  11
   8   6  -5 752.362 646.562   7
   8   6  -5 803.186 496.098  13
   7   6  -5 194.619 265.017  13
   7   6  -5 105.430 134.547   7
   6  -6  -5 695.939 470.126   8
   6   6  -5 395.131 374.675   7
   5  -6  -5 2737.64 1009.08   8
   5   6  -5 2036.51 1000.25   7
   4  -6  -5 1002.90 539.728   8
   4   6  -5 686.029 537.444   7
   3  -6  -5 403.401 283.808   8
   3   6  -5 374.406 502.242   7
   2  -6  -5-0.90233 224.728   8
   2   6  -5-12.2012 248.566   7
   1  -6  -5 706.627 464.790   8
   0  -6  -5 1409.43 706.983   8
  -1  -6  -5 2255.30 942.548   8
  -2  -6  -5-43.0423 180.812   8
  -3  -6  -5 52.8829 128.744   8
  -4  -6  -5 4862.03 1426.39   8
   4   6   5-3.80097 35.7125  11
  -5  -6  -5 293.424 253.445  12
   5   6   5 13.7058 68.3036  11
  -5  -6  -5 382.224 382.813   8
  -6  -6  -5 11434.3 1871.52  12
   6   6   5 1.84967 25.0286  11
  -7  -6  -5 1038.51 582.704  12
   7   6   5-19.7595 80.7248  11
   8   6   5-6.15851 44.3252  11
  -8  -6  -5 1894.40 767.848  12
  -9  -6  -5 516.982 415.772  12
 -10  -6  -5 214.030 256.318  12
 -11  -6  -5 12.9560 147.199  12
 -12  -6  -5-35.0537 171.199  12
 -13  -6  -5 693.585 333.600  12
  13  -7  -5 82.8869 106.596  19
  12  -7  -5 34.8181 77.5676  19
  11  -7  -5 69.6594 119.274  19
  11   7  -5 165.927 237.497  13
  10  -7  -5-19.7545 67.3605  19
  10   7  -5 2.08946 24.0671  11
  10   7  -5 133.375 269.064  13
   9  -7  -5 28.0123 83.3906  19
   9   7  -5-8.19481 50.2728  11
   9   7  -5 2780.08 1086.81  13
   8  -7  -5-194.918 226.165  19
   8   7  -5 233.668 291.660  13
   8   7  -5-23.8085 88.7090  11
   7   7  -5 2.34150 28.4148  11
   7   7  -5 85.9876 139.545  13
   6   7  -5 1125.74 822.073  20
   6   7  -5 596.645 419.142  13
   5   7  -5 190.643 412.895  20
   5   7  -5 858.009 547.047  13
   4   7  -5 1092.90 657.388  20
   4  -7  -5 278.523 241.577   8
   4   7  -5 366.318 424.830  13
   4   7  -5 106.695 321.395   7
   3  -7  -5 339.228 363.045   8
   3   7  -5 537.231 392.922  13
   3   7  -5 575.144 468.973   7
   3   7  -5 69839.7 7751.45  20
   2   7  -5 14932.0 3605.90  20
   2  -7  -5 33660.9 3683.49   8
   2   7  -5 37121.2 3691.00  13
   1   7  -5 351.745 544.337  20
   1  -7  -5 6807.37 1682.00   8
   1   7  -5 7313.83 1670.67  13
   0   7  -5 3318.11 1579.80  20
   0  -7  -5 30.7374 230.647   8
   0   7  -5 78.0543 437.138  13
  -1   7  -5 2087.11 1363.58  20
  -1  -7  -5 1388.32 714.660   8
  -2   7  -5-131.190 563.382  20
   3   7   5-21.2916 84.0485  11
  -3   7  -5 20167.0 4254.99  20
  -4   7  -5 38.2158 268.838  20
   4   7   5-3.85037 35.6376  11
   5   7   5 3.30074 32.7424  11
  -5  -7  -5 243.324 227.476  12
   6   7   5-3.37864 32.6323  11
  -6  -7  -5 4140.53 1058.86  12
   7   7   5-4.58081 37.0648  11
  -7  -7  -5 946.953 505.124  12
   8   7   5-9.17764 50.5244  11
  -8  -7  -5-10.0278 114.913  12
  -9  -7  -5 1537.70 618.865  12
 -10  -7  -5-66.1299 165.018  12
 -11  -7  -5 1232.96 502.806  12
 -12  -7  -5 107.711 129.599  12
  10  -8  -5-52.4954 84.7290  19
  10   8  -5-16.1133 58.0321  11
  10   8  -5 44.5446 37.9094  13
   9  -8  -5-152.269 155.863  19
   9   8  -5 4.63130 33.7317  11
   9   8  -5 258.720 240.593  13
   8   8  -5-2.02359 23.6058  11
   8   8  -5 29.9335 128.800  13
   7   8  -5-35.3237 233.978  13
   7   8  -5 6.18253 43.0590  11
   6   8  -5-3.81523 34.9167  11
   6   8  -5 183.017 46.3064  20
   6   8  -5 2002.33 753.459  13
   5   8  -5 6531.68 2330.19  20
   5   8  -5 85.3211 23.5806  13
   4   8  -5 5061.75 1295.68  13
   4   8  -5 1622.96 956.947  20
   3   8  -5 5054.34 2001.06  20
   3   8  -5 1052.24 534.153  13
   2   8  -5 126.141 760.523  20
   2   8  -5 4000.57 1160.27  13
   1   8  -5 1095.67 940.079  20
   0   8  -5-336.209 564.736  20
  -1   8  -5 1154.39 882.353  20
  -2   8  -5-319.126 818.609  20
  -3   8  -5 371.724 173.511  20
   3   8   5 7.14311 45.4230  11
  -4   8  -5 58.6528 246.400  20
   4   8   5 5.34046 38.7333  11
   5   8   5-11.4018 55.3853  11
   6   8   5 2.03026 22.6729  11
   6   8   5-180.954 217.776  21
   7   8   5 410.890 305.723  21
  -7  -8  -5 471.048 294.895  12
   8   8   5-311.128 237.935  21
  -8  -8  -5 94.3095 136.817  12
  -9  -8  -5 217.275 221.877  12
   9   9  -5 0.31575 6.94728  11
   8   9  -5 3.40549 25.2352  11
   7   9  -5 3.58667 27.7860  11
   6   9  -5 4.10258 31.2804  11
   6   9  -5-67.7316 146.894  20
   5   9  -5-596.375 569.701  20
   5   9  -5 5.58281 37.8696  11
   4   9  -5-493.896 841.152  20
   4   9  -5 4.44738 34.7080  11
   3   9  -5-77.5986 75.7247  20
   2   9  -5-799.312 741.988  20
  -2   9   5-4.91256 36.1498  21
   1   9  -5 48.4051 186.164  20
   0   9  -5-42.5853 314.873  20
  -1   9  -5-231.475 74.1440  20
  -2   9  -5-82.2846 238.238  20
   3   9   5-50.1041 109.973  21
   4   9   5 4.18975 28.1259  11
   4   9   5 62.1887 118.094  21
   5   9   5-435.010 296.213  21
   6   9   5-102.233 132.852  21
   5  10  -5 3.88569 23.8408  11
   4  10  -5 0.54411 9.36763  11
   3  10  -5-2.53318 20.8429  11
   2  10  -5-5.50281 31.3388  11
   1  10  -5-0.49049 9.46767  11
   0  10  -5-0.24582 6.69728  11
   0  10   5 137.732 149.531  21
   1  10   5-201.631 180.378  21
  -1  10  -5 2.64175 21.6198  11
   2  10   5 120.289 135.255  21
  19   0  -6 1100.81 512.822   9
  19   0  -6 1103.28 442.405  14
  18   0  -6 510.052 418.467   9
  18   0  -6 384.326 294.607  14
  17   0  -6 147.876 266.680   9
  17   0  -6-235.581 298.075  14
  16   0  -6 424.649 337.310  14
  15   0  -6 12068.4 2108.65  14
 -14   0   6 8295.51 2160.74   6
  14   0  -6 11428.9 2030.30  14
 -13   0   6 26723.6 3814.85   6
 -12   0   6 16299.8 2812.66   6
 -11   0   6 15285.6 2580.43   6
 -10   0   6 1544.16 748.013   6
  -9   0   6 46683.2 3966.56   6
  -8   0   6 15290.8 2147.47   6
  -7   0   6 4114.41 1054.56   6
  -6   0   6 12130.7 1721.92   6
  -5   0   6 36934.5 2896.09   6
  -4   0   6 165829. 5935.38   6
   4   0  -6 168308. 4957.92   8
  -3   0   6 192354. 6274.98   6
   3   0  -6 184682. 5146.60   8
   2   0  -6 36588.5 2221.09   8
  -2   0   6 34697.7 2620.50   6
  -2   0   6 30111.4 2483.32   2
  -1   0   6 65705.2 3751.14   2
  -1   0   6 66300.9 3531.98   6
   1   0  -6 68264.6 2967.59   8
   0   0   6 388220. 8247.89   6
   0   0   6 381155. 9195.13   2
   0   0  -6 367553. 6747.02   8
   1   0   6 77165.2 4231.79   2
   1   0   6 84318.3 3790.27   4
   2   0   6 217045. 6364.77   4
   3   0   6 42710.7 2961.30   4
   4   0   6 3869.28 906.213   5
   5   0   6 100416. 4908.70   5
   6   0   6 7007.26 1371.23   5
   7   0   6 5719.63 1330.05   5
   8   0   6 10065.5 1900.63   5
   9   0   6 437.090 421.502   5
  10   0   6-139.206 466.911  18
  10   0   6 2655.21 1088.48   5
  11   0   6 2861.36 1098.66   5
  11   0   6 117.053 123.202  18
  11   0   6 3014.24 1013.70  16
  12   0   6-177.748 495.849  18
  12   0   6 4280.37 1257.31  16
  13   0   6-104.608 41.7055  18
  13   0   6 2038.34 788.308  16
  14   0   6-101.064 338.728  18
  14   0   6 43.8338 106.983  16
  15   0   6-165.784 287.263  18
  15   0   6 221.188 261.395  16
  16   0   6-91.9924 218.943  18
  19   1  -6-189.969 278.528   9
  19  -1  -6-13.3778 88.1887  14
  18   1  -6 234.678 237.049   9
  18  -1  -6-86.8715 228.985   9
  18   1  -6 36.7001 168.130  14
  18  -1  -6 10.9934 100.639  14
  17   1  -6 416.409 369.461   9
  17  -1  -6 100.979 79.7367   9
  17   1  -6 209.909 254.576  14
  17  -1  -6 291.258 288.672  14
  16   1  -6 181.651 443.745  14
  16   1  -6-149.686 307.059   9
  16  -1  -6 176.532 265.021  14
  15  -1  -6 28.7802 92.4385  19
  15   1  -6 2081.54 817.273  14
 -14   1   6 6062.90 1911.67   6
  14   1  -6 7533.52 1608.54  14
  14  -1  -6-44.8249 118.795  19
 -13   1   6 66.3180 339.077   6
  13  -1  -6-469.656 387.951  19
 -12   1   6 3249.02 1263.56   6
  12   1  -6 2390.72 828.848   3
 -11  -1   6 724.064 598.040   6
 -11   1   6 738.434 546.718   6
 -10  -1   6 18499.4 2677.09   6
 -10   1   6 19946.6 2788.55   6
  -9   1   6 8381.66 1691.30   6
  -9  -1   6 8017.29 1666.63   6
  -8  -1   6 8605.87 1625.90   6
  -8   1   6 7944.12 1558.17   6
  -7   1   6 49123.7 3643.85   6
   7  -1  -6 52296.7 3203.26   8
  -7  -1   6 49670.6 3735.72   6
  -6   1   6 165438. 6445.63   6
  -6  -1   6 173946. 6736.49   6
   6  -1  -6 178723. 5666.45   8
  -5  -1   6 16717.0 2011.70   6
  -5   1   6 16864.5 1950.04   6
   5  -1  -6 17545.3 1667.08   8
  -4  -1   6 52551.1 3450.70   6
  -4   1   6 52511.0 3375.86   6
   4  -1  -6 53478.3 2774.26   8
  -3   1   6 7587.49 1268.75   6
  -3  -1   6 6845.46 1210.83   6
   3  -1  -6 7145.06 996.348   8
  -2  -1   6 387.569 306.886   6
  -2   1   6 498.000 354.973   6
   2  -1  -6 289.241 178.166   8
  -1  -1   6 172890. 5622.56   6
  -1   1   6 172308. 5847.49   6
  -1  -1   6 168270. 6074.48   2
   1  -1  -6 175200. 4764.64   8
   0  -1   6 366.181 244.386   2
   0   1   6 578.060 309.369   6
   0  -1  -6 764.562 307.216   8
   0  -1   6 492.211 278.449   6
   1  -1   6 3004.47 790.158   2
  -1  -1  -6 3214.32 616.519   8
   1  -1   6 3515.94 755.102   4
   1   1   6 3092.56 737.661   6
   2  -1   6 1106.86 467.853   2
   2   1   6 1549.30 558.218   4
   2  -1   6 1293.00 461.908   4
   3   1   6 14591.1 1576.60   5
   3   1   6 15553.1 1824.69   4
   4   1   6 19759.8 1992.63   5
   4   1   6 21326.5 2247.56   4
   5  -1   6 3223.54 875.868   5
   5   1   6 2995.49 804.605   5
   6  -1   6 1445.69 604.619   5
   6   1   6 1373.92 572.009   5
   7   1   6 1351.68 627.131   5
   7  -1   6 1008.20 552.448   5
   8   1   6 184.510 297.349   5
   8  -1   6 245.952 266.953   5
   9   1   6 1089.83 634.552   5
   9  -1   6 603.302 476.118   5
  10   1   6 252.202 331.494   5
  10   1   6 151.200 138.359  18
  10   1   6 51.7630 203.346   9
  10  -1   6 483.530 302.726   5
  10   1   6 168.547 307.391  16
  10  -1   6 334.235 323.538  16
  11   1   6 46.8141 341.623  18
  11  -1   6 168.918 338.015  18
  11  -1   6 1394.63 822.762   5
  11   1   6 1469.48 796.083   9
  11   1   6 861.379 668.023  16
  11  -1   6 1570.68 708.101  16
  12   1   6-154.021 561.976  18
  12  -1   6-137.763 401.386  18
  12   1   6 332.851 505.393   9
  12   1   6 943.971 550.433  16
  12  -1   6 908.029 479.283  16
  13   1   6-36.4381 321.943  16
  13   1   6 101.182 53.0585  18
  13  -1   6-217.851 405.060  18
  13  -1   6 86.3408 203.873  16
  14   1   6 232.057 318.928  16
  14  -1   6 15.8196 223.810  18
  14  -1   6-31.1572 35.0946  16
  14   1   6-89.0193 295.668  18
  15   1   6-194.641 317.645  18
  15  -1   6-14.4983 184.142  18
  15  -1   6-21.6696 161.584  16
  16   1   6 44.9295 145.246  18
  16  -1   6 251.966 320.999  18
  19   2  -6 159.210 206.350   9
  19  -2  -6-42.8600 193.605  14
  18   2  -6 276.590 237.491   9
  18  -2  -6 95.2171 156.761  14
  17   2  -6 205.063 249.517   9
  17  -2  -6 50.0043 252.651  14
  16  -2  -6-133.256 183.266  19
  16   2  -6 356.273 319.306  14
  16   2  -6 326.117 370.582   9
  15  -2  -6 96.7983 167.432  19
  15   2  -6-116.251 386.214   9
  15   2  -6 243.465 273.536  14
  14  -2  -6 118.813 191.340  19
  14   2  -6 4033.05 1171.64  14
  13  -2  -6-283.427 300.247  19
 -13   2   6 769.041 558.958   6
  13   2  -6 629.112 464.221  14
  12   2  -6 1310.78 666.389   3
 -12   2   6 1954.26 977.206   6
 -11   2   6 1871.23 897.885   6
 -10   2   6 562.112 491.537   6
  -9   2   6 2055.25 867.771   6
  -8  -2   6 222.939 229.773   6
  -8   2   6 276.334 337.515   6
   8  -2  -6 40.7506 65.1541   8
  -7  -2   6 6730.66 1413.53   6
  -7   2   6 7733.26 1512.24   6
   7  -2  -6 7653.13 1249.86   8
  -6  -2   6 13938.4 1963.57   6
  -6   2   6 15208.4 2034.73   6
   6  -2  -6 14796.7 1662.84   8
  -5  -2   6 66786.2 4126.49   6
  -5   2   6 68590.2 4141.29   6
   5  -2  -6 71047.0 3523.43   8
  -4   2   6 33639.4 2810.64   6
   4  -2  -6 32888.0 2307.10   8
  -4  -2   6 33978.6 2805.96   6
  -3   2   6 816.714 452.967   6
  -3  -2   6 930.381 432.732   6
   3  -2  -6 624.304 292.137   8
  -2  -2   6 14385.9 1697.82   6
   2  -2  -6 13171.1 1404.58   8
  -2   2   6 13097.5 1677.54   6
  -1   2   6 16255.0 1799.46   6
   1  -2  -6 17782.4 1640.81   8
  -1  -2   6 17424.3 1834.40   6
   0  -2  -6 99455.7 3840.95   8
   0   2   6 92368.2 4150.49   6
  -1  -2  -6 940.731 373.319   8
  -2  -2  -6 22883.8 1874.12   8
   2   2   6 26424.2 2438.31   4
   3   2   6 34524.3 2874.70   4
   4   2   6 9297.80 1556.47   4
   5  -2   6 13343.1 1883.84   5
   6  -2   6 2019.31 784.994   5
   7  -2   6 871.571 537.585   5
   8  -2   6 49.7857 228.301   5
   9  -2   6 180.020 265.010   5
  10   2   6-688.625 633.846  18
  10   2   6 531.011 851.330   9
  10  -2   6 2115.72 979.633   5
  10   2   6 1503.53 664.068  16
  10  -2   6 1884.22 765.201  16
  11   2   6-99.5805 226.038  18
  11   2   6 135.027 358.793   9
  11   2   6 347.463 302.574  16
  11  -2   6 227.764 59.5343  16
  12   2   6 605.815 483.383  16
  12   2   6-157.776 544.433  18
  12   2   6 984.912 678.231   9
  12  -2   6 899.931 556.444  16
  13   2   6-97.1324 264.354  18
  13  -2   6 323.062 499.784  18
  13   2   6 831.812 624.374  16
  13  -2   6 1876.95 737.732  16
  14   2   6 14.7039 252.606  18
  14  -2   6 282.770 377.807  18
  14  -2   6 88.3586 126.801  16
  15   2   6-373.423 372.663  18
  15  -2   6-223.740 282.759  18
  15  -2   6 1020.58 463.344  16
  19   3  -6 303.344 258.967   9
  19  -3  -6 166.516 137.203  14
  18   3  -6-10.6951 33.1004   9
  18  -3  -6 74.4098 121.737  14
  17   3  -6 401.934 392.768   9
  16  -3  -6 229.617 230.482  19
  16   3  -6 40.8748 159.158   9
  15  -3  -6-213.996 240.613  19
  15   3  -6 413.876 439.390   9
  14  -3  -6-109.798 180.110  19
  14   3  -6 14.5694 235.236   9
 -13   3   6 13822.6 2952.85   6
  13  -3  -6-35.6784 104.436  19
  13   3  -6 12399.5 2186.41  14
  12  -3  -6-34.7056 103.609  19
 -12   3   6 3023.74 1283.78   6
  12   3  -6 3363.28 1101.62  14
 -11   3   6 775.026 626.501   6
 -10   3   6 7705.98 1893.30   6
  -9   3   6 10751.6 2104.87   6
   9  -3  -6 10605.5 1679.29   8
  -8   3   6 12574.2 2169.97   6
   8  -3  -6 13273.9 1788.91   8
  -7   3   6 20573.7 2628.74   6
   7  -3  -6 20853.3 2166.80   8
  -6   3   6 8537.78 1621.83   6
   6  -3  -6 8475.05 1354.97   8
  -5   3   6 3604.60 1005.34   6
   5  -3  -6 3893.97 852.986   8
  -4   3   6 11201.6 1715.48   6
   4  -3  -6 11955.2 1506.60   8
  -3  -3   6 1431.76 560.182   6
  -3   3   6 933.694 457.985   6
   3  -3  -6 1119.58 439.121   8
   2  -3  -6 57101.1 3229.47   8
   1  -3  -6 22711.3 2047.20   8
   0  -3  -6 14428.3 1663.01   8
  -1  -3  -6 6624.98 1146.77   8
   1   3   6 5701.82 1165.98   4
  -2  -3  -6 26446.9 2322.98   8
   2   3   6 29014.7 2724.35   4
  -3  -3  -6 291.930 210.510   8
   3   3   6 456.690 337.068   4
   4   3   6 5280.00 1226.40   4
   5  -3   6 7561.22 1493.48   5
   6  -3   6-91.0611 246.639   5
   7  -3   6 1624.29 736.588   5
   8  -3   6 7631.74 1773.99   5
   9   3   6 1611.38 1083.39   9
  -9  -3  -6 3764.20 1070.90  12
   9  -3   6 4577.81 1430.84   5
  10   3   6 1220.12 897.001  18
  10   3   6 2485.93 956.085   9
 -10  -3  -6 2578.80 922.608  12
  10  -3   6 2006.85 756.273  16
  11   3   6 520.884 487.504  18
  11  -3   6 1023.76 597.563  16
  11   3   6 1320.02 666.045   9
 -11  -3  -6 1740.27 800.823  12
  12   3   6-319.032 344.955  18
  12  -3   6 2772.93 902.255  16
 -12  -3  -6 3146.23 1011.92  12
  13   3   6 289.239 458.863  18
  13  -3   6-188.848 311.312  18
  13  -3   6 91.9467 115.784  16
  14  -3   6-296.132 459.983  18
  14  -3   6 168.823 192.094  16
  15  -3   6 40.2243 204.550  18
  18   4  -6 175.282 213.326   9
  18  -4  -6 210.583 191.979  14
  17   4  -6-42.3622 150.126   9
  16  -4  -6 41.7766 90.1186  19
  16   4  -6 358.034 311.008   9
  15  -4  -6 236.908 237.009  19
  15   4  -6 84.7640 162.656   9
  14  -4  -6-189.002 225.521  19
  14   4  -6 426.586 445.335   9
  13  -4  -6-249.258 267.837  19
  13   4  -6 318.442 257.116   9
  12  -4  -6-311.085 302.124  19
 -12   4   6 481.770 719.701   6
  11  -4  -6 26.6625 90.2144  19
  11   4  -6 1218.67 667.269  10
 -11   4   6 1870.81 1069.14   6
  10  -4  -6-123.492 195.060  19
 -10   4   6 1662.13 913.906   6
  -9   4   6 1028.54 688.814   6
  -8   4   6 18061.9 2786.64   6
   8  -4  -6 17119.0 2156.55   8
  -7   4   6 157.277 311.387   6
   7  -4  -6 139.426 183.734   8
   6  -4  -6 18336.4 2161.24   8
   5  -4  -6 1127.31 529.557   8
   4  -4  -6 4320.23 1000.03   8
   3  -4  -6 44170.2 3184.21   8
   2  -4  -6 4161.64 953.320   8
   2   4  -6 3782.49 1002.40   7
   1  -4  -6 6980.42 1259.93   8
   0  -4  -6 41561.0 3212.98   8
  -1  -4  -6 13266.6 1831.96   8
   1   4   6 13214.3 1892.65   4
   2   4   6 647.862 441.859   4
  -2  -4  -6 509.105 352.599   8
  -3  -4  -6 10425.2 1680.77   8
   3   4   6 9152.15 1658.18   4
   4  -4   6 2887.53 910.241   5
  -4  -4  -6 2470.83 831.046   8
   5  -4   6 7896.59 1617.33   5
   6  -4   6 323.888 433.283   5
   7  -4   6 2746.65 1059.23   5
  -8  -4  -6 1993.33 784.428  12
   8  -4   6 2212.65 970.926   5
  -9  -4  -6 3923.79 1146.45  12
 -10  -4  -6-58.5325 62.0060  12
 -11  -4  -6-70.8366 145.958  12
 -12  -4  -6 146.533 95.0972  12
  13  -4   6-134.195 166.755  18
 -13  -4  -6 575.080 356.432  12
  14  -4   6 190.506 180.157  18
 -14  -4  -6 168.213 109.348  12
  16  -5  -6-101.319 120.281  19
  15  -5  -6-99.4379 136.444  19
  14  -5  -6-506.216 337.417  19
  13  -5  -6 156.279 199.745  19
  12  -5  -6-415.505 341.253  19
  11  -5  -6 73.2006 147.040  19
  11   5  -6 746.983 494.896  13
  10  -5  -6-168.636 226.604  19
  10   5  -6 314.169 283.177   7
  10   5  -6 329.991 399.919  13
   9  -5  -6 8.29739 50.6688  19
   9   5  -6 6841.42 1843.75  13
   9   5  -6 11703.7 2373.96   7
   8  -5  -6-322.424 313.666  19
   8   5  -6 3267.39 1205.81   7
   7  -5  -6 5025.85 1257.61   8
   7   5  -6 5795.41 1557.22   7
   6   5  -6 2956.68 1084.38   7
   6  -5  -6 2927.85 927.978   8
   5  -5  -6 12392.1 1907.10   8
   5   5  -6 13555.5 2321.51   7
   4  -5  -6 5506.39 1304.76   8
   4   5  -6 6190.66 1536.93   7
   3  -5  -6 4961.33 1194.28   8
   3   5  -6 4677.03 1335.11   7
   2  -5  -6 3697.13 1006.60   8
   2   5  -6 3042.91 1095.58   7
   1  -5  -6 2746.28 892.241   8
   0  -5  -6 3991.73 1112.15   8
  -1  -5  -6 3596.71 1080.77   8
  -2  -5  -6 5746.43 1368.72   8
  -3  -5  -6 375.088 325.175   8
  -4  -5  -6 15695.1 2357.77   8
   6   5   6 3.51150 34.3257  11
  -6  -5  -6 6400.16 1393.24  12
   7   5   6-2.97879 31.5859  11
  -7  -5  -6 112.719 144.355  12
  -8  -5  -6 49.0853 112.091  12
  -9  -5  -6 5602.51 1299.10  12
 -10  -5  -6 5856.92 1353.25  12
 -11  -5  -6 393.724 331.704  12
 -12  -5  -6 731.985 390.558  12
  13  -5   6 111.116 137.400  18
 -13  -5  -6 286.716 286.672  12
 -14  -5  -6 117.883 153.588  12
  15  -6  -6-80.2750 99.4064  19
  14  -6  -6 38.3812 79.6181  19
  13  -6  -6-167.027 184.253  19
  12  -6  -6 181.500 206.623  19
  11  -6  -6-115.450 173.194  19
  11   6  -6 2905.28 951.829  13
  10  -6  -6 172.692 219.403  19
  10   6  -6 1962.73 878.313  13
   9  -6  -6-252.905 270.903  19
   9   6  -6 295.287 351.599  13
   8  -6  -6-263.729 278.847  19
   8   6  -6 453.014 443.967  13
   7   6  -6 470.288 365.438   7
   7   6  -6 587.519 555.279  13
   6  -6  -6 491.360 429.112   8
   6   6  -6 120.152 303.639  13
   6   6  -6 44.6233 183.550   7
   5  -6  -6 35.8412 29.0958   8
   5   6  -6-72.2337 241.176   7
   4  -6  -6 12289.8 2092.51   8
   4   6  -6 11675.3 2360.70   7
   3  -6  -6 14329.0 2230.42   8
   3   6  -6 10142.6 2342.56   7
   2  -6  -6 12957.6 2120.81   8
   1  -6  -6 388.840 296.883   8
   0  -6  -6 1359.42 691.937   8
  -1  -6  -6 611.276 483.267   8
  -2   6  -6 3860.36 1663.47  20
  -2  -6  -6 8904.25 1869.36   8
  -3  -6  -6 1977.43 883.302   8
  -3   6  -6 12391.2 3152.96  20
   4   6   6-4.42447 38.2087  11
  -4  -6  -6 7436.20 1688.64   8
  -4  -6  -6 7764.96 1478.95  12
   5   6   6-14.9629 70.5574  11
  -5  -6  -6 6179.46 1361.74  12
   6   6   6-11.1718 60.5634  11
  -6  -6  -6 284.377 308.278  12
   7   6   6 9.01837 53.7041  11
  -7  -6  -6 1447.68 621.469  12
   7   6   6-373.466 344.000  21
  -8  -6  -6 6201.66 1342.30  12
  -9  -6  -6 261.795 278.004  12
 -10  -6  -6 109.369 183.462  12
 -11  -6  -6 163.853 196.876  12
 -12  -6  -6-11.2537 136.289  12
 -13  -6  -6 422.217 279.860  12
  13  -7  -6 23.5000 54.7973  19
  12  -7  -6-79.2868 113.464  19
  11  -7  -6-352.217 259.737  19
  11   7  -6 217.403 132.713  13
  10  -7  -6 69.4789 122.468  19
  10   7  -6 273.932 299.595  13
   9  -7  -6-58.6697 117.037  19
   9   7  -6 272.750 280.048  13
   8   7  -6-6.75584 46.3839  11
   8   7  -6 160.644 301.783  13
   7   7  -6-49.6947 76.8226  20
   7   7  -6-4.13769 37.3418  11
   7   7  -6 95.4067 117.158  13
   6   7  -6 2322.96 1511.10  20
   6   7  -6 254.171 310.226  13
   5   7  -6 4133.56 1813.86  20
   5   7  -6 1172.97 692.131  13
   4   7  -6 1846.63 1397.17  20
   4   7  -6 1715.39 711.911  13
   3   7  -6 3499.35 1622.30  20
   3   7  -6 349.288 281.634  13
   2   7  -6 322.929 514.898  20
   2   7  -6 1643.00 801.662  13
   1   7  -6 177.094 261.037  13
   1   7  -6 15147.1 3583.25  20
   0   7  -6 5684.19 2133.28  20
   0   7  -6 5342.64 1466.67  13
  -1   7  -6 697.904 696.846  20
  -2   7  -6 283.996 656.133  20
  -3   7  -6 2569.45 1480.20  20
   4   7   6 10.8127 58.2547  11
   5   7   6 8.97037 52.4825  11
  -5  -7  -6 181.335 243.439  12
   6   7   6-1.38650 20.2192  11
   6   7   6 217.058 257.275  21
  -6  -7  -6 901.842 488.784  12
   7   7   6 3.49785 30.8742  21
  -7  -7  -6 1063.76 521.676  12
  -8  -7  -6 791.040 462.203  12
  -9  -7  -6 152.883 175.223  12
 -10  -7  -6 416.014 253.043  12
 -11  -7  -6 49.3313 71.0520  12
  10   8  -6-113.587 43.7032  13
   9   8  -6 1.54616 18.7300  11
   9   8  -6-1.84486 113.199  13
   8   8  -6-2.79141 26.8850  11
   8   8  -6 1672.23 672.812  13
   7   8  -6 2448.49 1324.82  20
   7   8  -6-4.76054 36.8111  11
   7   8  -6 766.525 441.262  13
   6   8  -6 12.0398 60.7427  11
   6   8  -6-108.935 646.290  20
   6   8  -6 3656.13 1051.10  13
   5   8  -6 59.8371 572.478  20
   5   8  -6-36.9625 217.856  13
   4   8  -6-241.889 542.157  20
   4   8  -6 534.947 328.961  13
   3   8  -6 49.5336 312.892  20
   3   8  -6 215.073 268.453  13
   2   8  -6-17.4218 660.154  20
   2   8  -6-211.203 329.300  13
   1   8  -6 667.903 706.429  20
   0   8  -6 258.755 379.699  20
  -1   8  -6-323.472 739.033  20
  -2   8  -6 397.472 707.853  20
  -3   8  -6 475.345 771.104  20
  -4   8  -6-15.0746 711.180  20
   4   8   6-146.171 205.150  21
   4   8   6 19.2218 69.6169  11
   5   8   6-5.56773 36.6181  11
   5   8   6 189.141 225.393  21
   6   8   6 238.574 239.624  21
   7   8   6 63.5450 113.250  21
  -7  -8  -6 1010.18 406.434  12
  -8  -8  -6 115.750 175.757  12
  -9  -8  -6-13.5586 87.7093  12
   8   9  -6-2.06800 18.6270  11
   7   9  -6 14.8955 54.2382  11
   6   9  -6-405.134 575.654  20
   6   9  -6 2.51776 23.6532  11
   5   9  -6 433.777 593.623  20
   5   9  -6-3.52036 29.1693  11
   4   9  -6 0.84550 14.7274  11
   4   9  -6-760.838 628.020  20
   3   9  -6-1508.37 1158.35  20
   2   9  -6 317.481 310.304  20
  -2   9   6-112.964 168.875  21
  -1   9   6 231.658 245.393  21
   1   9  -6-124.011 509.936  20
   0   9  -6-226.159 472.526  20
   0   9   6-357.194 304.536  21
  -1   9  -6-362.350 535.903  20
   1   9   6-587.857 385.639  21
  -2   9  -6-373.996 572.538  20
   2   9   6 267.781 253.550  21
   3   9   6-154.816 185.098  21
   4   9   6 69.8260 119.137  21
   5   9   6 90.2863 127.347  21
   6   9   6-124.110 134.950  21
   3  10  -6 0.52446 9.00343  11
   2  10  -6-5.10957 28.6574  11
   1  10  -6-9.68796 39.7055  11
   0  10  -6-7.04112 33.7751  11
  19   0  -7 34.6087 151.129   9
  19   0  -7-88.9735 153.275  14
  18   0  -7-283.547 207.006   9
  18   0  -7 91.0939 144.094  14
  17   0  -7-208.478 350.480   9
  17   0  -7-7.71537 199.844  14
  16   0  -7-48.3333 169.605  14
  15   0  -7 42.5295 267.214  14
 -14   0   7-65.1220 187.427   6
  14   0  -7 22.8422 127.223  14
 -13   0   7-88.7872 219.533   6
  13   0  -7-39.5572 246.395  14
 -12   0   7 187.514 180.610   6
 -11   0   7 176.931 91.0257   6
 -10   0   7 242.173 277.267   6
  -9   0   7 16.6139 201.915   6
  -8   0   7 1.29802 63.0752   6
  -7   0   7-9.49535 59.1997   6
  -6   0   7 59.5903 116.811   6
  -5   0   7-24.6198 133.846   6
  -4   0   7-3.82995 126.630   6
  -3   0   7-59.0472 51.6951   6
   3   0  -7 44.3501 141.017   8
  -2   0   7-34.9700 75.7217   6
   2   0  -7 73.9128 143.233   8
  -1   0   7-50.0437 178.483   6
   1   0  -7 48.9774 133.438   8
   0   0   7 29.1661 164.304   6
   0   0  -7 61.6906 142.480   8
   1   0   7-81.4675 197.149   4
   2   0   7 69.5396 122.822   4
   3   0   7 15.5842 80.1634   4
   4   0   7-60.7468 149.029   5
   5   0   7 53.4463 145.777   5
   6   0   7 150.494 272.606   5
   7   0   7 247.833 386.951   5
   8   0   7 16.0163 93.1204   5
   9   0   7 54.1496 41.5066   5
  10   0   7 547.164 603.949  18
  10   0   7-82.6903 192.688   5
  10   0   7-316.448 323.470  16
  11   0   7-154.775 364.465  18
  11   0   7-346.168 335.864  16
  12   0   7 219.057 149.948  18
  12   0   7 130.466 265.386  16
  13   0   7 135.709 266.100  18
  13   0   7 88.5535 241.471  16
  14   0   7-8.10263 257.820  18
  14   0   7 148.231 245.702  16
  15   0   7-102.453 70.8819  18
  15   0   7 208.435 285.046  16
  19   1  -7 175.693 239.517   9
  19  -1  -7-121.507 218.066   9
  19  -1  -7-121.813 150.626  14
  18   1  -7 462.799 355.724   9
  18  -1  -7 700.644 424.313   9
  18   1  -7 512.292 375.002  14
  18  -1  -7 675.694 391.368  14
  17   1  -7-98.5938 275.132   9
  17  -1  -7-217.198 260.964   9
  17   1  -7 44.5887 137.043  14
  17  -1  -7 75.8735 145.588  14
  16   1  -7 908.298 522.093  14
  16  -1  -7 751.784 425.392  14
  15   1  -7 189.294 200.105  14
  15  -1  -7-29.2933 317.048  14
  14  -1  -7 29.4424 96.1369  19
  14   1  -7 1931.78 805.941  14
  13  -1  -7-225.897 269.547  19
 -13   1   7-94.1827 448.825   6
  13   1  -7 214.712 263.097  14
 -12  -1   7 479.202 560.273   6
 -12   1   7 473.440 337.755   6
 -11  -1   7 3065.90 1194.61   6
 -11   1   7 3435.58 1265.00   6
 -10  -1   7 1681.83 810.886   6
 -10   1   7 1643.62 840.208   6
  -9   1   7 3182.10 1100.93   6
  -9  -1   7 3057.05 1102.66   6
  -8   1   7 1587.16 740.981   6
  -8  -1   7 1605.14 708.856   6
  -7  -1   7 6095.87 1404.52   6
  -7   1   7 5399.79 1291.55   6
   7  -1  -7 6574.19 1176.33   8
  -6  -1   7 8146.76 1562.97   6
  -6   1   7 8157.13 1528.58   6
   6  -1  -7 8629.35 1295.23   8
  -5  -1   7 28855.9 2865.04   6
   5  -1  -7 30825.3 2414.20   8
  -5   1   7 31090.7 2899.95   6
  -4  -1   7 60155.3 4011.70   6
  -4   1   7 63352.4 4069.97   6
   4  -1  -7 61063.0 3204.73   8
  -3  -1   7 101348. 4967.71   6
  -3   1   7 98482.4 4970.23   6
   3  -1  -7 97204.7 3971.16   8
  -2   1   7 11846.6 1663.94   6
  -2  -1   7 12170.0 1676.62   6
   2  -1  -7 11774.2 1351.44   8
  -1  -1   7 70730.4 3925.27   6
  -1   1   7 69942.0 3975.45   6
   1  -1  -7 70947.8 3354.44   8
   0   1   7 2839.43 777.427   6
   0  -1  -7 2561.26 619.273   8
   0  -1   7 2699.64 693.561   4
  -1  -1  -7 12591.9 1372.04   8
   1  -1   7 13915.1 1654.84   4
   1   1   7 12708.4 1647.15   4
   2  -1   7 3626.21 857.518   4
   2   1   7 3487.54 891.045   4
   3   1   7 4402.19 938.785   5
   3   1   7 5140.98 1115.73   4
   4   1   7 107362. 5022.33   5
   4   1   7 119936. 5747.10   4
   5   1   7 356.321 278.215   5
   5  -1   7 498.274 330.761   5
   6  -1   7 71366.0 4802.65   5
   6   1   7 67147.9 4440.68   5
   7   1   7 8027.08 1632.19   5
   7  -1   7 10071.3 1889.85   5
   8  -1   7 431.341 392.478   5
   9  -1   7 2159.73 987.720   5
  10   1   7 558.001 727.473  18
  10  -1   7-73.4506 182.836   5
  10   1   7-2.82291 147.836  16
  10  -1   7 92.6700 252.108  16
  11   1   7 1383.53 762.111  16
  11   1   7 61.4974 324.656  18
  11  -1   7 123.282 128.220  18
  11  -1   7 1752.91 721.881  16
  12   1   7 169.468 159.397  18
  12  -1   7-35.1591 236.553  18
  12   1   7 1933.07 824.081  16
  12  -1   7 1799.09 742.584  16
  13   1   7-175.608 432.660  18
  13  -1   7 440.492 569.427  18
  13   1   7 623.681 392.682  16
  13  -1   7 646.620 427.673  16
  14   1   7-59.7296 204.830  18
  14   1   7 537.902 337.666  16
  14  -1   7-106.460 208.665  18
  14  -1   7 261.066 276.854  16
  15   1   7-70.3630 213.995  18
  15  -1   7 86.0524 183.785  18
  15  -1   7 11.3131 80.8298  16
  19   2  -7 346.032 273.329   9
  19  -2  -7 462.373 305.375  14
  18   2  -7 129.097 194.489   9
  18  -2  -7 210.689 203.396  14
  17   2  -7 233.289 319.768   9
  17  -2  -7 71.3394 120.071  14
  16   2  -7 103.808 253.037   9
  16   2  -7-100.643 188.569  14
  15  -2  -7-1.14433 18.1052  19
  15   2  -7 2473.27 915.475  14
  14  -2  -7-405.520 351.054  19
  14   2  -7 53.3129 132.113  14
  13  -2  -7-218.109 261.479  19
 -13   2   7 441.975 490.370   6
  13   2  -7 362.617 410.668  14
  12  -2  -7 112.843 187.667  19
 -12   2   7 82.7417 61.7747   6
 -11   2   7 19.1322 219.042   6
 -10   2   7 45.5083 80.1812   6
  -9   2   7 1007.72 643.009   6
  -8   2   7 1613.59 762.694   6
   8  -2  -7 1482.22 625.167   8
  -8  -2   7 1659.33 791.078   6
  -7  -2   7 7064.26 1539.26   6
  -7   2   7 7449.70 1597.30   6
   7  -2  -7 7919.20 1346.61   8
  -6   2   7 33888.2 3267.59   6
  -6  -2   7 32247.1 3164.82   6
   6  -2  -7 32640.0 2613.14   8
  -5  -2   7-19.6982 160.159   6
  -5   2   7 223.279 204.335   6
   5  -2  -7 91.4765 82.7946   8
  -4  -2   7 34.7133 52.8725   6
  -4   2   7-85.4249 247.892   6
   4  -2  -7 200.971 183.992   8
  -3  -2   7 3899.45 980.975   6
  -3   2   7 3755.15 1001.92   6
   3  -2  -7 3842.91 831.610   8
  -2  -2   7 3145.26 832.453   6
  -2   2   7 2741.65 820.725   6
   2  -2  -7 2885.31 706.920   8
  -1   2   7 89742.7 4579.46   6
   1  -2  -7 91401.1 3944.82   8
   0   2   7 10811.9 1514.63   6
   0  -2  -7 11370.1 1386.87   8
  -1  -2  -7 99575.7 4148.29   8
   2   2   7 31064.7 2873.80   4
   3   2   7 57715.9 3990.50   4
   4   2   7 1043.03 550.098   4
   5  -2   7 19772.7 2440.16   5
   6  -2   7 15170.9 2273.04   5
   7  -2   7 316.378 354.965   5
   8  -2   7 21593.0 2962.55   5
   9  -2   7 5321.49 1339.24  16
   9   2   7 3581.11 1273.08  16
   9  -2   7 5588.10 1580.22   5
  10   2   7 83.0641 251.128  16
  10  -2   7 127.608 149.661  16
  11   2   7-1051.55 800.892  18
  11  -2   7-81.3963 211.379  16
  11   2   7-40.5069 275.644  16
  12   2   7-123.517 316.198  18
  12  -2   7 2.56169 199.751  18
  12   2   7 177.073 221.841  16
  12  -2   7 514.400 455.139  16
  13   2   7 170.448 273.842  18
  13  -2   7-203.509 460.530  18
  13   2   7 131.651 260.891  16
  13  -2   7 232.394 299.791  16
  14  -2   7 81.7544 300.065  18
  14  -2   7 54.0819 142.175  16
  14   2   7 66.1751 261.524  18
  15  -2   7 287.285 304.938  18
  19   3  -7 41.9798 49.8500   9
  19  -3  -7-64.0902 127.514  14
  18   3  -7-81.3748 114.476   9
  18  -3  -7 0.24410 102.532  14
  17   3  -7-146.272 266.567   9
  17  -3  -7 27.1105 165.577  14
  16  -3  -7 105.777 155.062  19
  16   3  -7-33.7027 52.7724   9
  15  -3  -7-12.7237 58.0031  19
  15   3  -7 533.727 533.528   9
  14  -3  -7 82.6186 154.537  19
  14   3  -7 80.7421 260.888   9
  13  -3  -7-26.4003 88.6120  19
  13   3  -7 1570.72 864.823  14
  12  -3  -7 426.639 359.200  19
  12   3  -7 3530.99 1096.12  10
 -12   3   7 4629.37 1689.49   6
  12   3  -7 3696.21 1200.42  14
 -11   3   7 2634.40 1202.50   6
  11  -3  -7 232.148 266.503  19
 -10   3   7 1031.14 707.695   6
  -9   3   7 624.831 499.685   6
   9  -3  -7 603.265 427.618   8
  -8   3   7 4300.46 1308.67   6
   8  -3  -7 5157.28 1174.89   8
  -7   3   7 3329.44 1124.51   6
   7  -3  -7 3674.33 952.472   8
  -6   3   7 7077.34 1555.12   6
   6  -3  -7 7365.37 1334.85   8
  -5   3   7 32610.3 3261.61   6
   5  -3  -7 33075.1 2721.48   8
  -4   3   7 57252.5 4211.28   6
  -4  -3   7 59853.7 3922.11   6
   4  -3  -7 61816.8 3601.04   8
  -3   3   7 19486.7 2368.98   6
   3  -3  -7 21542.3 2101.29   8
   2  -3  -7 57170.9 3426.75   8
   1  -3  -7 483.084 304.302   8
   0  -3  -7 49670.3 3196.18   8
  -1  -3  -7 13706.1 1692.74   8
   1   3   7 14363.9 1978.01   4
   2   3   7 180.338 278.849   4
  -2  -3  -7 355.305 218.318   8
   3   3   7 78229.8 4917.24   4
   4   3   7 1018.03 535.346   4
   5  -3   7 54.2480 143.656   5
   6  -3   7 2596.00 959.255   5
   7  -3   7 562.872 525.090   5
   8  -3   7 1952.11 887.169   5
  -8  -3  -7 1570.62 668.573  12
   9  -3   7 441.781 272.455  16
   9  -3   7 754.905 574.554   5
  -9  -3  -7 938.625 600.919  12
 -10  -3  -7 849.160 543.067  12
  10  -3   7 566.463 434.876  16
  11  -3   7 2472.44 878.116  16
 -11  -3  -7 2888.72 947.015  12
  12  -3   7 33.4434 60.9993  16
  13  -3   7 107.197 275.897  18
  13  -3   7 529.924 289.192  16
  14  -3   7 169.362 269.421  18
  14  -3   7 103.080 58.8484  16
  18   4  -7-102.336 140.986   9
  18  -4  -7-5.82149 36.5263  14
  17   4  -7 373.461 337.261   9
  16  -4  -7 412.665 278.583  19
  16   4  -7-35.9981 108.399   9
  15   4  -7 271.203 320.295   9
  15  -4  -7 172.656 198.916  19
  14  -4  -7-178.325 215.224  19
  14   4  -7 22.9949 198.392   9
  13  -4  -7-138.577 197.121  19
  13   4  -7 91.3596 449.178   9
  12  -4  -7-262.564 278.083  19
  12   4  -7 247.124 405.052  10
  11  -4  -7 103.976 178.356  19
  11   4  -7 12760.2 2077.68  10
 -11   4   7 12884.1 2793.60   6
  10  -4  -7 28.4116 93.9090  19
 -10   4   7 810.635 706.342   6
  -9   4   7 8040.61 2025.05   6
   9  -4  -7 8289.75 1619.12   8
   8  -4  -7 2866.46 913.818   8
  -8   4   7 1839.97 883.153   6
  -7   4   7 1431.07 765.839   6
   7  -4  -7 1231.10 614.671   8
   6  -4  -7 10621.2 1713.64   8
   5  -4  -7 2489.10 813.038   8
   4  -4  -7 32770.8 2854.71   8
   3  -4  -7 21318.5 2310.31   8
   2  -4  -7 2313.36 762.957   8
   1  -4  -7 880.631 457.957   8
   0  -4  -7 46429.0 3461.02   8
  -1  -4  -7 29782.6 2798.72   8
   1   4   7 28611.9 2990.11   4
  -2  -4  -7 536.641 352.626   8
   2   4   7 686.454 497.652   4
  -3  -4  -7 134.166 121.159   8
   3   4   7 161.476 188.203   4
   4  -4   7 662.131 487.254   5
   5  -4   7 2752.49 980.899   5
   6  -4   7 1505.95 786.246   5
  -7  -4  -7 4307.31 1148.54  12
   7  -4   7 3776.71 1286.23   5
  -8  -4  -7 2440.68 866.627  12
  -9  -4  -7-79.6050 228.683  12
 -10  -4  -7 2217.39 842.800  12
 -11  -4  -7 554.870 384.883  12
 -12  -4  -7 114.698 93.5879  12
  13  -4   7-134.432 209.484  18
 -13  -4  -7 645.991 384.890  12
  17  -5  -7-60.3485 131.721  14
  16  -5  -7 174.756 154.052  19
  15  -5  -7-120.087 145.967  19
  14  -5  -7-128.076 166.467  19
  13  -5  -7-441.101 331.180  19
  12  -5  -7-296.320 285.129  19
  12   5  -7-46.6750 283.399  13
  11  -5  -7-370.161 328.255  19
  11   5  -7-115.938 231.135  13
  10  -5  -7 267.220 282.869  19
  10   5  -7 284.607 417.217  13
   9   5  -7 193.202 406.750   7
   9  -5  -7 92.6831 168.118  19
   8  -5  -7 237.128 267.325  19
   8   5  -7-108.078 308.447   7
   8  -5  -7 101.006 25.1443   8
   7   5  -7 2573.26 1099.53   7
   7  -5  -7 3207.80 1019.73   8
   6   5  -7 276.356 252.729   7
   6  -5  -7 410.639 345.271   8
   5   5  -7 450.981 426.856   7
   5  -5  -7 355.174 299.264   8
   4  -5  -7 12436.4 1951.88   8
   4   5  -7 11355.2 2090.81   7
   3  -5  -7 1275.66 578.847   8
   2  -5  -7 8812.69 1622.47   8
   1  -5  -7-136.633 280.337   8
   0  -5  -7 7408.18 1506.01   8
  -1  -5  -7 242.977 320.702   8
  -2  -5  -7 1849.39 735.008   8
   3  -5   7 1748.21 773.436   5
  -3  -5  -7 1979.02 799.817   8
   4  -5   7 1431.61 701.005   5
   5   5   7-4.61101 38.7458  11
   5   5   7-30.2040 101.562  21
   5  -5   7 367.259 320.409   5
   6   5   7-350.775 343.305  21
  -6  -5  -7 7590.92 1538.04  12
   6  -5   7 6244.60 1633.55   5
  -7  -5  -7 1952.64 746.745  12
  -8  -5  -7 1105.49 565.470  12
  -9  -5  -7 48.5790 83.2203  12
 -10  -5  -7 25.4385 184.365  12
 -11  -5  -7 899.613 457.066  12
 -12  -5  -7 250.554 216.769  12
 -13  -5  -7 113.127 112.162  12
  14  -6  -7 173.429 164.704  19
  13  -6  -7-55.7519 103.614  19
  12  -6  -7 24.3019 73.7307  19
  12   6  -7-66.9314 182.495  13
  11  -6  -7-42.3077 102.267  19
  11   6  -7 398.236 575.449  13
  10  -6  -7-29.7274 88.9725  19
  10   6  -7 147.583 270.784  13
   9  -6  -7-1.32968 19.2423  19
   9   6  -7 1182.19 654.129  13
   8   6  -7 388.301 322.534  13
   7   6  -7 117.741 157.528   7
   7   6  -7 322.888 560.032  20
   7  -6  -7 29.5320 204.961   8
   7   6  -7-146.126 363.090  13
   6  -6  -7 75.3527 97.7427   8
   6   6  -7 7748.39 2401.89  20
   6   6  -7 161.872 316.969  13
   6   6  -7 114.351 224.202   7
   5  -6  -7 4596.08 1271.16   8
   5   6  -7 2612.49 1208.16  20
   5   6  -7 4577.65 1280.39  13
   5   6  -7 2396.70 1102.18   7
   4   6  -7 6725.52 2348.76  20
   4  -6  -7 1209.67 692.911   8
   4   6  -7 1443.48 646.652  13
   4   6  -7 376.551 273.114   7
   3  -6  -7 4777.59 1302.87   8
   2  -6  -7 268.754 307.078   8
   1  -6  -7 36.2376 181.922   8
   1   6  -7 13993.4 3377.32  20
   0   6  -7 3187.95 1524.96  20
   0  -6  -7 7737.71 1691.36   8
  -1   6  -7 6190.13 2270.73  20
  -1  -6  -7 1814.28 836.487   8
  -2  -6  -7 3301.65 1119.17   8
  -2   6  -7 9955.42 2936.35  20
  -3  -6  -7 4031.11 1232.88   8
  -3  -6  -7 4453.50 1116.67  12
   4   6   7-12.3981 62.9671  11
  -4  -6  -7 105.894 176.666  12
   5   6   7-6.62502 46.0156  11
  -5  -6  -7 1408.29 634.366  12
   5   6   7-119.733 201.465  21
  -6  -6  -7 325.303 311.020  12
   6   6   7 168.589 234.481  21
   7   6   7-329.124 314.499  21
  -7  -6  -7 120.018 245.424  12
  -8  -6  -7-70.1899 187.991  12
  -9  -6  -7 276.645 271.361  12
 -10  -6  -7 204.178 117.606  12
 -11  -6  -7 4.92872 57.9880  12
 -12  -6  -7 24.2592 46.0868  12
  12  -7  -7-5.00311 27.0543  19
  12   7  -7 149.283 225.743  13
  11  -7  -7 147.588 160.118  19
  11   7  -7 19.7538 89.2361  13
  10  -7  -7-190.717 193.554  19
  10   7  -7 452.337 371.584  13
   9   7  -7 54.3334 153.451  13
   8   7  -7 540.100 473.046  13
   7   7  -7 244.468 644.818  20
   7   7  -7 144.773 166.412  13
   6   7  -7 1253.36 891.482  20
   6   7  -7 139.411 151.598  13
   5   7  -7 1247.18 667.048  13
   5   7  -7 1593.90 926.919  20
   4   7  -7 16687.8 3713.55  20
   4   7  -7 1594.41 729.663  13
  -3   7   7-517.008 426.637  21
   3   7  -7 10008.5 1861.58  13
   3   7  -7 32665.6 5163.71  20
   2   7  -7 19130.1 2584.79  13
   2   7  -7 23215.9 4368.67  20
   1   7  -7 851.705 798.040  20
   1   7  -7 11546.4 2011.16  13
   0   7  -7 546.773 724.777  20
  -1   7  -7-300.825 118.607  20
  -2   7  -7 6865.96 2731.92  20
  -3   7  -7 1720.71 1619.39  20
   3   7   7-170.049 237.535  21
   4   7   7-432.037 375.030  21
  -4  -7  -7 1049.13 484.421  12
   5   7   7-180.024 236.435  21
  -5  -7  -7 2635.03 832.484  12
   5   7   7 7.86074 46.9588  11
  -6  -7  -7 4584.49 1064.36  12
   6   7   7-506.588 379.284  21
   7   7   7-233.706 241.210  21
  -7  -7  -7 1388.88 568.152  12
  -8  -7  -7-64.3493 125.267  12
  -9  -7  -7 361.337 249.888  12
 -10  -7  -7-97.9715 130.441  12
  11   8  -7 241.825 201.189  13
  10   8  -7 7.60191 62.5179  13
   9   8  -7 35.2986 93.5130  13
   8   8  -7 13.5288 56.5210  11
   8   8  -7 690.908 431.309  13
   7   8  -7 7.31606 43.9867  11
   7   8  -7-408.550 838.609  20
   7   8  -7 35.5504 98.5705  13
   6   8  -7 86.7399 343.863  20
   6   8  -7-7.69068 46.9852  11
   6   8  -7 77.3615 190.937  13
   5   8  -7 335.422 631.361  20
   5   8  -7 92.3858 214.265  13
   4   8  -7 375.375 405.025  20
   4   8  -7 2430.13 858.402  13
   3   8  -7-361.195 625.871  20
   3   8  -7 1593.38 741.297  13
   2   8  -7-306.335 666.155  20
  -2   8   7 436.802 374.343  21
   2   8  -7 335.738 327.002  13
   1   8  -7 259.376 411.561  20
  -1   8   7-181.083 241.842  21
   0   8  -7-817.726 944.519  20
   0   8   7 68.1783 147.618  21
  -1   8  -7-15.3346 148.525  20
   1   8   7-312.147 311.588  21
  -2   8  -7 383.282 638.176  20
   2   8   7-83.5150 157.586  21
  -3   8  -7 187.454 547.823  20
   3   8   7 22.1683 79.3676  21
   4   8   7-130.639 187.369  21
   5   8   7 34.1059 91.5450  21
   6   8   7-291.462 249.498  21
   7   8   7 147.494 159.068  21
  -7  -8  -7 50.2100 39.4330  12
  -8  -8  -7 247.874 200.424  12
   8   9  -7-0.29658 6.46131  11
   7   9  -7-1.78016 17.5665  11
   6   9  -7-251.272 100.176  20
   6   9  -7-4.70168 30.6037  11
   5   9  -7-9.70135 46.2095  11
   5   9  -7-157.612 303.766  20
   4   9  -7 4.54024 32.7315  11
   4   9  -7 109.943 302.388  20
   3   9  -7-928.743 935.440  20
   2   9  -7-915.200 938.906  20
  -2   9   7 276.221 254.295  21
   1   9  -7-250.040 399.007  20
  -1   9   7 473.596 337.630  21
   0   9  -7 168.467 563.476  20
   0   9   7 14.0293 57.9571  21
  -1   9  -7-292.343 511.207  20
   1   9   7-93.2762 146.905  21
   2   9   7-79.1707 131.095  21
   3   9   7 128.217 159.401  21
   4   9   7-69.4189 111.571  21
   5   9   7-405.675 248.546  21
  19   0  -8 286.187 233.344   9
  19   0  -8 452.617 271.342  14
  18   0  -8 306.981 301.532   9
  18   0  -8 400.800 320.339  14
  17   0  -8 325.173 352.455  14
  16   0  -8 386.175 311.718  14
  15   0  -8 20023.2 2585.87  14
  14   0  -8 7623.38 1594.61  14
 -13   0   8 8111.92 2225.49   6
  13   0  -8 9143.92 1744.75  14
 -12   0   8 13670.5 2780.00   6
 -11   0   8 934.546 742.234   6
 -10   0   8 1378.85 792.645   6
  -9   0   8 194.744 376.124   6
  -8   0   8 57799.8 4745.51   6
  -7   0   8 20531.6 2718.40   6
  -6   0   8 28.1999 67.1981   6
  -5   0   8 18932.0 2429.25   6
  -4   0   8 10183.6 1739.15   6
  -3   0   8 45610.0 3565.75   6
  -2   0   8 1223.11 554.883   6
   2   0  -8 1072.32 439.185   8
  -1   0   8 5714.04 1182.37   6
   1   0  -8 6867.30 1094.59   8
   0   0   8 203695. 7096.12   6
   1   0   8 216045. 7279.98   4
   2   0   8 70129.2 4259.48   4
   3   0   8 2417.38 813.364   4
   4   0   8 12377.7 1827.90   5
   5   0   8 3177.09 976.782   5
   6   0   8 7851.10 1635.89   5
   7   0   8 29254.1 3327.75   5
   8   0   8 27162.8 3409.15   5
   9   0   8 5.08226 224.664   5
   9   0   8 126.477 268.375  16
  10   0   8 147.042 560.895  16
  11   0   8-94.3179 446.965  18
  11   0   8 7920.53 1635.65  16
  12   0   8-337.646 505.480  18
  12   0   8 239.547 356.426  16
  13   0   8 11.4422 276.608  18
  13   0   8 629.534 443.530  16
  14   0   8-192.564 252.922  18
  14   0   8 156.722 101.298  16
  19   1  -8 65.8594 157.378   9
  19  -1  -8 103.369 165.195   9
  19  -1  -8 80.6806 87.9789  14
  18   1  -8-49.9596 179.004   9
  18  -1  -8-120.163 185.625   9
  18   1  -8 19.2477 151.761  14
  18  -1  -8 214.496 299.332  14
  17   1  -8 341.414 343.978   9
  17   1  -8 822.135 476.439  14
  17  -1  -8 888.049 510.546  14
  16   1  -8 764.139 445.548  14
  16  -1  -8 775.402 490.635  14
  15   1  -8 8207.69 1664.29  14
  15  -1  -8 8689.01 1694.44  14
  14  -1  -8-43.1331 115.308  19
  14   1  -8 862.711 551.412  14
  13  -1  -8-162.446 227.192  19
 -13   1   8 2550.02 1193.07   6
  13   1  -8 3250.79 1066.18  14
  12  -1  -8 13.7620 65.8969  19
 -12  -1   8 333.422 278.974   6
 -12   1   8 284.477 316.532   6
 -11  -1   8 3272.81 1255.89   6
 -11   1   8 3483.55 1310.71   6
 -10  -1   8 2794.41 1122.54   6
 -10   1   8 3567.72 1245.38   6
  -9  -1   8 19468.5 2909.28   6
  -9   1   8 21406.8 2983.59   6
  -8  -1   8 1170.30 607.886   6
  -8   1   8 1210.41 666.885   6
  -7  -1   8 263.823 303.409   6
  -7   1   8 149.238 283.875   6
  -6  -1   8 464.418 341.095   6
  -6   1   8 390.718 326.031   6
   6  -1  -8 237.892 263.706   8
  -5  -1   8 10520.2 1820.52   6
   5  -1  -8 11696.0 1555.00   8
  -5   1   8 11531.1 1937.43   6
  -4  -1   8 76.8308 69.6450   6
  -4   1   8 314.869 308.159   6
   4  -1  -8 175.155 183.385   8
  -3   1   8 26084.8 2767.20   6
  -3  -1   8 27586.4 2750.76   6
   3  -1  -8 26674.8 2279.53   8
  -2  -1   8 4923.70 1120.59   6
  -2   1   8 5178.18 1188.63   6
   2  -1  -8 5390.67 983.102   8
  -1   1   8 48382.6 3588.76   6
   1  -1  -8 48363.0 2940.84   8
  -1  -1   8 50458.1 3548.70   6
   0   1   8 12361.2 1752.06   6
   0  -1  -8 13399.6 1526.04   8
   0  -1   8 13116.6 1692.22   4
   1  -1   8 4964.18 1079.87   4
   1   1   8 4905.22 1109.98   4
   2   1   8 321.941 302.722   4
   2  -1   8 228.371 267.161   4
   3   1   8 13102.9 1930.82   4
   4   1   8 16015.9 2247.42   4
   5  -1   8 8529.12 1630.77   5
   6  -1   8 7636.02 1623.20   5
   7  -1   8 5024.82 1386.76   5
   8  -1   8 6310.81 1644.40   5
   9  -1   8 4.91483 265.800   5
   9   1   8 130.373 80.8696  16
   9  -1   8 178.488 225.216  16
  10  -1   8 182.738 210.265  18
  10  -1   8 497.101 437.760  16
  10   1   8 455.872 321.367  16
  11  -1   8-305.611 560.344  18
  11   1   8 233.086 278.437  16
  11  -1   8 580.912 384.321  16
  12   1   8 246.991 510.575  18
  12   1   8-4.82549 298.767  16
  12  -1   8 1.73525 387.057  18
  12  -1   8 161.206 286.580  16
  13   1   8-113.096 341.159  18
  13  -1   8-52.9335 92.9980  18
  13   1   8 184.505 239.153  16
  13  -1   8 163.423 51.5721  16
  14  -1   8-160.422 268.292  18
  14   1   8 1016.09 482.749  16
  14  -1   8 944.446 427.467  16
  14   1   8-105.460 128.095  18
  19   2  -8 2.61773 84.2307   9
  19  -2  -8-47.7936 37.3043  14
  18   2  -8 31.3021 174.219   9
  18  -2  -8-59.6215 119.810  14
  17   2  -8-203.739 308.814   9
  17  -2  -8 120.403 111.752  14
  16   2  -8-156.583 357.809  14
  16  -2  -8-0.18387 158.477  14
  16   2  -8 57.9719 322.533   9
  15  -2  -8 53.9383 122.726  19
  15   2  -8 33.4342 264.925  14
  14  -2  -8-35.2697 102.490  19
  14   2  -8 3124.00 973.002  10
  14   2  -8 3168.28 1046.09  14
  13  -2  -8-257.380 280.750  19
  13   2  -8 1035.90 609.629  10
 -13   2   8 1003.82 790.199   6
  13   2  -8 885.193 642.918  14
 -12   2   8 404.727 507.628   6
  12  -2  -8-127.222 197.642  19
  12   2  -8 448.850 314.408  10
  12   2  -8 709.591 541.170  14
 -11   2   8 12300.0 2576.28   6
 -10   2   8 1618.09 848.377   6
  -9  -2   8 4588.02 1410.43   6
  -9   2   8 4723.66 1464.67   6
  -8  -2   8 6815.64 1637.55   6
  -8   2   8 6807.03 1700.08   6
   8  -2  -8 6968.16 1390.16   8
  -7  -2   8 238.921 344.034   6
  -7   2   8 93.5536 78.7110   6
   7  -2  -8 313.410 302.737   8
  -6  -2   8 21490.9 2718.41   6
  -6   2   8 22072.6 2815.49   6
   6  -2  -8 22172.1 2288.62   8
  -5   2   8 8362.24 1703.62   6
   5  -2  -8 8591.35 1357.25   8
  -5  -2   8 9444.90 1727.43   6
  -4  -2   8 33842.6 3176.07   6
   4  -2  -8 33485.3 2673.35   8
  -4   2   8 33317.6 3290.01   6
  -3  -2   8 4592.44 1137.02   6
  -3   2   8 4257.57 1145.45   6
   3  -2  -8 5514.95 1069.87   8
  -2   2   8 3086.88 931.013   6
   2  -2  -8 3036.25 758.618   8
  -2  -2   8 2990.46 880.697   6
  -1   2   8 29976.1 2857.96   6
   1  -2  -8 29976.8 2447.05   8
   0   2   8 3037.64 872.668   6
   0  -2  -8 3248.97 782.777   8
  -1  -2  -8 4792.25 959.749   8
   1   2   8 5599.07 1260.70   4
   2   2   8 2687.78 886.310   4
   3   2   8 158.663 219.478   4
   4   2   8 11373.7 1974.09   4
   5  -2   8 323.403 389.921   5
   6  -2   8 11315.9 2039.88   5
   7  -2   8 12601.6 2271.93   5
   8  -2   8 9242.26 1777.27  16
   8  -2   8 10234.4 2138.96   5
   9  -2   8 4166.65 1222.50  16
   9   2   8 2750.65 1044.24  16
  10   2   8 731.696 432.789  16
  10  -2   8 771.569 486.955  16
  11  -2   8 46.6380 265.388  18
  11   2   8-118.199 270.860  16
  11  -2   8-18.5956 273.410  16
  12  -2   8-191.953 499.744  18
  12   2   8 102.935 82.9753  16
  12  -2   8 55.6785 154.632  16
  13  -2   8-122.959 277.650  18
  13   2   8 240.912 250.562  16
  13  -2   8 509.071 372.685  16
  14  -2   8 65.1003 199.129  18
  14  -2   8 28.6486 12.4494  16
  18   3  -8 16.4975 97.5598   9
  18  -3  -8 351.301 271.819  14
  17   3  -8 7.91541 135.104   9
  17  -3  -8-15.5912 95.5768  14
  16   3  -8-26.0386 27.3625   9
  15  -3  -8-427.959 330.027  19
  15   3  -8 1572.45 818.057   9
  14  -3  -8-166.561 215.771  19
  13  -3  -8-70.9821 143.333  19
  13   3  -8 2465.52 863.240  10
  12  -3  -8-173.572 229.211  19
  12   3  -8 9106.36 1739.52  10
 -12   3   8 8373.03 2287.85   6
  11  -3  -8 181.541 237.140  19
  11   3  -8 2630.78 913.875  10
 -11   3   8 2426.10 1195.17   6
  11   3  -8 2097.92 861.077  14
 -10   3   8 1567.79 903.167   6
  -9   3   8 1827.48 924.331   6
   9  -3  -8 1750.91 742.040   8
  -8   3   8 5098.35 1562.83   6
   8  -3  -8 6078.22 1333.88   8
  -7   3   8 27687.4 3427.88   6
   7  -3  -8 28155.6 2781.02   8
  -6   3   8 4802.56 1367.74   6
   6  -3  -8 5941.16 1245.87   8
  -5  -3   8 45371.9 3763.22   6
  -5   3   8 46843.7 4169.98   6
   5  -3  -8 50752.1 3563.83   8
  -4   3   8 38553.0 3656.89   6
   4  -3  -8 40923.2 3116.13   8
  -4  -3   8 39348.6 3423.41   6
   3  -3  -8 1831.12 646.608   8
   2  -3  -8 2208.73 709.569   8
   1  -3  -8 5507.88 1106.02   8
   0  -3  -8 1151.05 502.105   8
  -1  -3  -8 3313.25 861.294   8
   1   3   8 4187.52 1146.96   4
   2   3   8 6093.69 1432.69   4
   3   3   8 20765.6 2733.57   4
   4   3   8 9604.49 1907.15   4
   5  -3   8 851.712 546.978   5
   6  -3   8 10895.2 2097.38   5
   7  -3   8 3745.97 1196.42  17
   7  -3   8 3618.12 1124.51  16
   7  -3   8 4218.47 1336.92   5
   8  -3   8 2037.87 975.714   5
   8  -3   8 1889.73 751.444  16
  -8  -3  -8 2133.17 820.213  12
   9  -3   8 274.739 267.104  16
  -9  -3  -8 164.676 268.481  12
  10  -3   8 4879.85 1265.47  16
 -10  -3  -8 5089.46 1277.33  12
  11  -3   8 288.637 332.517  16
 -11  -3  -8 635.824 414.604  12
  12  -3   8-218.179 180.841  18
  12  -3   8 2351.99 797.159  16
  13  -3   8-14.9773 135.017  18
  13  -3   8 287.227 249.877  16
  14  -3   8 641.547 332.277  16
  18  -4  -8-30.5031 97.6122  14
  17   4  -8 25.6259 136.939   9
  17  -4  -8 5.59005 77.1170  14
  16  -4  -8 208.525 192.399  19
  16   4  -8-129.697 197.918   9
  15  -4  -8-279.476 246.365  19
  15   4  -8 117.351 263.213   9
  14  -4  -8 19.5816 69.8005  19
  14   4  -8 266.032 444.825   9
  13  -4  -8-415.233 338.469  19
  13   4  -8 381.672 388.007  10
  12  -4  -8-82.0516 155.011  19
  12   4  -8-106.828 349.348  10
  11  -4  -8 290.651 296.841  19
  11   4  -8 93.0715 156.834  10
 -11   4   8 254.892 464.571   6
  10  -4  -8-114.446 188.245  19
  10   4  -8 252.674 245.662  10
 -10   4   8 663.208 597.344   6
   9  -4  -8-303.683 305.085  19
  -9   4   8 942.412 740.866   6
   9  -4  -8 903.688 562.601   8
  -8   4   8 1765.91 893.926   6
   8  -4  -8 2396.42 867.136   8
   7  -4  -8 10078.1 1757.42   8
   6  -4  -8 9389.76 1698.15   8
   5  -4  -8 5153.88 1213.84   8
   4  -4  -8 1245.35 577.114   8
   3  -4  -8 14988.7 2017.88   8
   2  -4  -8 14349.0 1962.39   8
   1  -4  -8 237.829 281.877   8
   0   4   8 1648.96 728.598   4
   0  -4  -8 1937.73 720.703   8
  -1  -4  -8 18393.5 2269.13   8
   1   4   8 18393.5 2588.48   4
  -2  -4  -8 2041.54 753.215   8
   2   4   8 2314.66 908.362   4
   3   4   8-5.78248 130.808   4
   4  -4   8 534.362 412.964   5
   5  -4   8 125.190 202.273   5
   6  -4   8 200.526 170.517   5
  -7  -4  -8 3595.51 1050.24  12
  -8  -4  -8 1122.93 584.003  12
  -9  -4  -8 212.866 48.6464  12
 -10  -4  -8 1741.51 704.485  12
 -11  -4  -8-30.4953 32.2043  12
  12  -4   8 267.631 329.243  18
 -12  -4  -8-11.1876 198.452  12
  13  -4   8 252.380 238.428  18
 -13  -4  -8 192.617 160.619  12
  17  -5  -8-75.5111 138.040  14
  15  -5  -8 112.485 136.946  19
  14  -5  -8-321.492 257.240  19
  13  -5  -8 293.048 264.140  19
  13   5  -8-106.426 127.720  13
  12  -5  -8-226.924 244.554  19
  12   5  -8 169.983 531.235  13
  11  -5  -8-619.831 418.111  19
  11   5  -8 292.128 322.441  13
  10  -5  -8-452.005 363.771  19
   9  -5  -8 88.2457 161.997  19
   9   5  -8 1296.37 823.225   7
   8  -5  -8 1349.74 687.628   8
   8   5  -8 613.278 570.473   7
   7  -5  -8 6964.74 1581.20   8
   7   5  -8 5259.73 1607.11   7
   6   5  -8 360.238 415.588   7
   6  -5  -8 924.340 536.566   8
   5  -5  -8 29014.7 3096.22   8
   5   5  -8 27430.7 3438.40   7
   4  -5  -8 4086.86 1161.41   8
   3  -5  -8 108.291 130.961   8
   2  -5  -8 22930.5 2731.66   8
   1  -5  -8 5560.50 1365.08   8
   0  -5  -8 2041.38 804.579   8
  -1  -5  -8 93.0386 160.438   8
  -2  -5  -8 431.807 394.821   8
   3  -5   8 538.518 485.176   5
   3   5   8-620.647 464.411  21
   4  -5   8 15728.0 2576.45   5
   4   5   8-760.015 515.520  21
   5  -5   8 774.522 590.948   5
   5   5   8-245.530 290.842  21
   6   5   8 593.171 444.767  21
  -6  -5  -8 46.2264 155.211  12
  -7  -5  -8-26.3450 59.2410  12
  -8  -5  -8-87.8685 261.060  12
  -9  -5  -8 628.916 408.280  12
 -10  -5  -8-31.9801 171.724  12
 -11  -5  -8 36.7813 60.3661  12
 -12  -5  -8-141.874 201.211  12
  14  -6  -8-119.727 130.802  19
  13  -6  -8-126.233 149.473  19
  13   6  -8-114.955 84.6191  13
  12  -6  -8-227.045 216.999  19
  12   6  -8 278.971 298.763  13
  11  -6  -8 53.0560 110.710  19
  11   6  -8 434.052 540.649  13
  10  -6  -8 80.7602 141.503  19
  10   6  -8 5.59536 127.829  13
   9   6  -8-75.5797 62.3408  13
   8   6  -8 136.297 498.695  20
   8   6  -8-57.7202 181.630  13
   7   6  -8 968.796 640.005  20
   7   6  -8 147.277 284.622  13
   6   6  -8 2761.80 1455.79  20
   6   6  -8 32.7052 111.035  13
   5   6  -8 29537.8 4871.43  20
   5  -6  -8 726.617 492.376   8
   5   6  -8 1077.33 614.046  13
   4   6  -8 32016.4 5025.73  20
   4  -6  -8 17691.7 2558.19   8
   4   6  -8 18105.9 2517.14  13
  -3   6   8-1172.19 642.786  21
   3  -6  -8 15376.6 2395.21   8
   3   6  -8 16361.3 2404.34  13
   3   6  -8 12667.6 3215.07  20
   2   6  -8 2022.74 1188.77  20
   2  -6  -8 4877.42 1347.05   8
   2   6  -8 5417.44 1383.31  13
  -2   6   8-660.973 485.873  21
   1  -6  -8 792.977 566.088   8
  -1   6   8-345.958 351.456  21
   1   6  -8 21652.7 4263.41  20
   0   6  -8 1893.05 1123.95  20
   0   6   8-1353.97 690.364  21
   0  -6  -8 8728.14 1851.26   8
   1   6   8-93.5179 179.394  21
  -1  -6  -8 1110.44 670.950   8
  -1   6  -8 6882.04 2460.65  20
  -2   6  -8 243.867 756.144  20
   2   6   8-540.714 431.083  21
   3   6   8-507.573 418.273  21
  -3  -6  -8 134.556 194.387  12
   4   6   8-188.957 253.304  21
  -4  -6  -8 619.160 405.124  12
   5   6   8-362.547 346.341  21
  -5  -6  -8 3402.94 1000.48  12
  -6  -6  -8 60.6291 145.508  12
   6   6   8 67.1820 144.350  21
  -7  -6  -8 4827.80 1172.20  12
  -8  -6  -8 139.805 179.070  12
  -9  -6  -8 497.577 334.950  12
 -10  -6  -8 1278.42 527.861  12
 -11  -6  -8 176.173 161.356  12
  13   7  -8 72.3093 97.9307  13
  12   7  -8 382.531 280.618  13
  11  -7  -8-6.14981 30.3321  19
  11   7  -8 53.2956 74.3787  13
  10   7  -8 439.919 375.173  13
   9   7  -8 1113.29 653.624  13
   8   7  -8-564.069 896.249  20
   8   7  -8-27.1807 166.899  13
   7   7  -8 1206.84 968.900  20
   7   7  -8 54.1402 191.932  13
   6   7  -8 808.436 629.595  20
   6   7  -8 1163.21 588.714  13
   5   7  -8 742.300 737.796  20
   5   7  -8 691.716 481.884  13
   4   7  -8 215.144 291.379  13
   4   7  -8 22597.7 4304.78  20
   3   7  -8 1476.01 1025.83  20
   3   7  -8 16650.5 2390.19  13
  -3   7   8 154.150 231.749  21
  -2   7   8-143.089 224.138  21
   2   7  -8 2598.84 1501.29  20
   2   7  -8 1044.14 590.975  13
   1   7  -8 1127.34 978.990  20
  -1   7   8-25.8716 95.0835  21
   0   7   8-251.170 294.048  21
   0   7  -8-42.1963 443.323  20
  -1   7  -8 269.749 927.877  20
   1   7   8-349.022 342.283  21
  -2   7  -8 331.963 656.628  20
   2   7   8 355.345 340.380  21
   3   7   8-532.474 414.028  21
  -4  -7  -8 602.683 417.697  12
   4   7   8-337.195 323.247  21
  -5  -7  -8 510.525 399.415  12
   5   7   8-292.360 290.448  21
   6   7   8-125.722 180.349  21
  -6  -7  -8-121.915 168.079  12
  -7  -7  -8 107.394 203.437  12
   7   7   8-146.498 178.672  21
  -8  -7  -8 61.8214 36.2138  12
  -9  -7  -8 134.151 124.153  12
 -10  -7  -8 222.893 204.992  12
  11   8  -8 861.171 375.333  13
  10   8  -8 40.8699 100.352  13
   9   8  -8 232.712 252.828  13
   8   8  -8 328.570 261.871  13
   7   8  -8 19.0382 407.487  20
   7   8  -8 6.64433 39.6905  11
   7   8  -8 1602.75 599.576  13
   6   8  -8-685.321 667.733  20
   6   8  -8 10.2832 51.9354  11
   6   8  -8 4304.67 1063.13  13
   5   8  -8-625.290 811.543  20
   5   8  -8 289.011 269.196  13
   4   8  -8-797.516 873.615  20
   4   8  -8 3966.58 1077.39  13
   3   8  -8-598.343 923.589  20
   3   8  -8 2913.50 903.317  13
  -3   8   8-24.6258 85.2230  21
   2   8  -8 236.824 200.771  20
  -2   8   8 474.288 379.632  21
   2   8  -8 1193.94 571.321  13
   1   8  -8-605.642 463.311  20
  -1   8   8 239.241 270.272  21
   0   8  -8-35.2811 315.816  20
   0   8   8-203.853 247.760  21
  -1   8  -8 108.920 333.971  20
   1   8   8-146.189 206.459  21
  -2   8  -8-214.303 648.120  20
   2   8   8 94.5402 161.773  21
  -3   8  -8-22.6352 529.348  20
   3   8   8-461.786 348.261  21
   4   8   8 198.424 219.860  21
   5   8   8-340.351 271.712  21
   6   8   8-109.127 140.759  21
   7   9  -8-115.342 285.027  20
   6   9  -8-39.2734 217.631  20
   6   9  -8 2.32905 19.8600  11
   5   9  -8 302.438 544.788  20
   5   9  -8 0.90874 13.1960  11
   4   9  -8-300.047 407.885  20
   4   9  -8-1.11942 15.2799  11
   3   9  -8-281.967 448.548  20
   2   9  -8-313.528 375.698  20
  -2   9   8 99.3043 144.748  21
   1   9  -8 253.816 230.411  20
  -1   9   8-215.077 215.833  21
   0   9  -8 132.545 363.850  20
   0   9   8-340.252 270.031  21
  -1   9  -8 338.628 370.707  20
   1   9   8-0.54693 10.6020  21
   2   9   8-156.785 172.980  21
   3   9   8 227.751 197.933  21
   4   9   8-144.962 147.422  21
  19   0  -9 100.551 200.012   9
 -19   0   9 165.573 248.280  17
  19   0  -9-156.361 184.134  14
  18   0  -9-99.5483 32.1824   9
  18   0  -9-44.2224 106.947  14
  17   0  -9-62.7252 53.8426  14
  16   0  -9-159.668 323.867  14
  15   0  -9 38.4373 129.216  14
  14   0  -9 222.742 314.072  14
 -13   0   9-70.5411 254.195   6
  13   0  -9-118.774 297.207  14
 -12   0   9-133.855 447.274   6
 -11   0   9 164.335 90.6906   6
 -10   0   9-12.9695 143.185   6
  -9   0   9-80.1337 278.944   6
  -8   0   9-78.0594 198.622   6
  -7   0   9 54.6510 220.927   6
  -6   0   9-10.5716 109.819   6
  -5   0   9-172.953 325.432   6
  -4   0   9-123.767 265.143   6
  -3   0   9-12.5061 126.675   6
  -2   0   9-148.944 205.210   6
  -1   0   9 175.673 227.216   6
   0   0   9 3.97158 104.942   4
   1   0   9 147.006 234.111   4
   2   0   9-12.8930 176.096   4
   3   0   9-14.5081 27.9198   4
   4   0   9-73.3880 235.156   5
   5   0   9-114.845 260.549   5
   6   0   9 112.529 95.9153   5
   7   0   9 131.964 131.686   5
   8   0   9 69.8661 269.648   5
   8   0   9-33.8767 208.388  16
   9   0   9-117.327 322.110  16
  10   0   9 113.003 249.507  16
  11   0   9 128.671 163.882  16
  12   0   9-13.1303 63.2653  16
  13   0   9-51.4462 216.620  16
  14   0   9 48.8779 32.7742  16
  19   1  -9 92.0941 151.235   9
  19  -1  -9-114.203 163.109   9
  19  -1  -9 118.485 56.2184  14
  18   1  -9 130.584 171.935   9
  18  -1  -9 35.8266 163.253   9
  18   1  -9 104.998 162.080  14
  18  -1  -9-20.0296 104.882  14
  17   1  -9-28.3256 161.249   9
  17   1  -9 116.583 189.484  14
  17  -1  -9-127.109 284.204  14
  16   1  -9 2393.37 857.914  14
  16  -1  -9 2479.95 848.611  14
  15   1  -9 3332.59 991.135  10
  15  -1  -9 4009.59 1117.91  14
  15   1  -9 3197.32 972.812  14
  14   1  -9 2141.76 825.591  14
  14  -1  -9 1958.51 809.875  14
  13  -1  -9 36.6200 106.622  19
 -13   1   9 2842.72 1333.56   6
  13   1  -9 2708.73 914.209  14
  13  -1  -9 2245.02 877.177  14
  12  -1  -9 32.1611 100.053  19
 -12  -1   9 1762.63 1001.66   6
 -12   1   9 2832.26 1325.62   6
  12   1  -9 2370.20 900.523  14
 -11  -1   9-20.8655 306.898   6
 -11   1   9 23.4561 283.037   6
 -10   1   9 5147.39 1635.77   6
 -10  -1   9 6157.55 1788.41   6
  -9  -1   9 170.369 336.426   6
  -9   1   9 81.3834 115.938   6
  -8  -1   9 13388.8 2418.62   6
  -8   1   9 12067.6 2329.33   6
  -7   1   9 25893.6 3246.06   6
  -7  -1   9 26207.4 3304.22   6
  -6  -1   9 1572.81 723.981   6
   6  -1  -9 1383.78 590.726   8
  -6   1   9 1421.99 741.660   6
  -5  -1   9 2853.65 1004.32   6
  -5   1   9 2999.46 1041.45   6
   5  -1  -9 3542.50 908.428   8
  -4  -1   9 12177.2 2041.14   6
  -4   1   9 12252.5 2094.86   6
   4  -1  -9 11826.3 1663.83   8
  -3  -1   9 252.368 141.419   6
  -3   1   9 544.625 400.197   6
   3  -1  -9 688.928 399.067   8
  -2  -1   9 41481.3 3504.47   6
  -2   1   9 42675.4 3691.07   6
   2  -1  -9 42605.0 3039.77   8
  -1   1   9 72533.4 4638.94   6
   1  -1  -9 76432.6 4042.78   8
  -1  -1   9 78608.0 4759.10   6
   0   1   9 714.658 470.493   6
   0  -1   9 600.459 364.355   4
   1  -1   9 9072.25 1571.45   4
   1   1   9 9767.83 1706.40   4
   2  -1   9 4107.06 1095.14   4
   2   1   9 3347.96 1043.53   4
   3   1   9 7162.31 1526.53   4
   4  -1   9 19157.5 2505.64   5
   4   1   9 21329.8 2808.39   4
   5  -1   9 1672.91 742.540   5
   6  -1   9 25315.1 3226.98   5
   7  -1   9 11661.3 2228.50   5
   8  -1   9 741.767 399.049  17
   8  -1   9 910.073 614.079   5
   8   1   9 792.671 530.831  16
   8  -1   9 1034.15 635.317  16
   9   1   9 3625.27 1135.74  16
   9  -1   9 3324.50 1040.99  16
  10   1   9 126.946 331.644  16
  10  -1   9 59.3152 134.925  16
  11   1   9 10085.7 1788.81  16
  11  -1   9 10782.8 1807.57  16
  12  -1   9-127.898 376.904  18
  12   1   9 929.134 440.625  16
  12  -1   9 912.759 524.018  16
  13  -1   9-100.067 274.855  18
  13   1   9 558.712 318.670  16
  13  -1   9 285.534 159.039  16
  14  -1   9-22.8228 104.235  16
  19   2  -9 81.0296 156.536   9
  19  -2  -9-110.616 111.470  14
  18   2  -9 158.685 295.492   9
  18  -2  -9 954.642 414.075  14
  17   2  -9 166.994 255.366   9
  17  -2  -9 284.992 288.539  14
  16  -2  -9-69.5552 164.319  14
  15   2  -9 493.186 363.435  10
  15   2  -9 1104.52 573.850  14
  15  -2  -9 1403.90 639.655  14
  14  -2  -9-212.488 247.615  19
  14   2  -9 1218.47 586.157  10
  14   2  -9 1203.26 599.206  14
  13  -2  -9-46.7655 117.531  19
  13   2  -9 4669.34 1231.22  10
  13   2  -9 4257.40 1162.10  14
  12  -2  -9-131.957 201.042  19
  12   2  -9 789.264 474.139  10
 -12   2   9 1182.69 887.100   6
  12   2  -9 852.853 617.047  14
  11  -2  -9-78.1657 155.975  19
 -11   2   9 27947.9 4046.47   6
 -10   2   9 131.630 243.781   6
  -9   2   9 7008.57 1857.74   6
  -9  -2   9 6535.10 1806.59   6
  -8  -2   9 69.6488 99.4478   6
  -8   2   9 117.379 375.953   6
   8  -2  -9 41.2305 126.245   8
  -7  -2   9 5341.15 1450.22   6
  -7   2   9 4660.15 1453.04   6
   7  -2  -9 4918.44 1171.27   8
  -6  -2   9 5714.46 1475.68   6
  -6   2   9 5864.15 1535.67   6
   6  -2  -9 5940.75 1263.90   8
  -5  -2   9-14.0678 179.130   6
  -5   2   9 274.566 342.336   6
   5  -2  -9 232.257 239.811   8
  -4  -2   9 10876.6 1929.85   6
  -4   2   9 10137.0 1930.47   6
   4  -2  -9 11033.1 1618.77   8
  -3  -2   9 9045.78 1656.93   6
   3  -2  -9 8848.71 1429.77   8
  -3   2   9 8231.78 1676.68   6
  -2   2   9 3004.65 938.016   6
   2  -2  -9 2905.86 806.206   8
  -1   2   9 187.433 277.038   6
   1  -2  -9 213.332 197.421   8
   0  -2  -9 1126.46 500.735   8
   0   2   9 938.065 442.513   6
   1   2   9 9073.34 1698.55   4
   2   2   9 696.063 504.886   4
   3   2   9 59.1920 67.5592   4
   4  -2   9 1357.28 690.788   5
   4   2   9 957.150 585.567   4
   5  -2   9 456.341 394.191   5
   6  -2   9 4432.98 1357.54   5
   7  -2   9 909.646 614.678  17
   7  -2   9 2011.40 933.457   5
   7  -2   9 1472.24 680.502  16
   8   2   9 6564.21 1515.17  16
   8  -2   9 8121.48 1703.02  16
   9   2   9 2177.20 847.485  16
   9  -2   9 2441.45 901.352  16
  10  -2   9-92.5317 396.318  18
  10   2   9 3249.46 1090.00  16
  10  -2   9 5082.31 1312.73  16
  11  -2   9-120.135 328.472  18
  11   2   9 219.905 260.002  16
  11  -2   9 262.140 277.258  16
  12  -2   9 101.848 307.606  18
  12   2   9 62.8779 96.2424  16
  12  -2   9 218.094 265.470  16
  13  -2   9 97.1866 242.737  18
  13   2   9 22.3031 112.331  16
  13  -2   9 31.2870 84.1335  16
  14  -2   9 53.5533 104.014  16
  18   3  -9 49.9513 68.3921   9
  18  -3  -9-100.334 182.625  14
  17   3  -9-127.142 225.275   9
  17  -3  -9 8.43419 40.6652  14
  16   3  -9 63.3091 168.549   9
  16  -3  -9-105.330 259.906  14
  15   3  -9-2.75668 93.5970  10
  15   3  -9 20.5837 88.8152   9
  15  -3  -9-152.518 191.757  19
  14  -3  -9-7.37758 44.3944  19
  14   3  -9 753.869 504.462  10
  13  -3  -9-222.066 252.861  19
  13   3  -9 830.443 504.746  10
  12  -3  -9-332.631 315.957  19
  12   3  -9 1993.41 865.797  10
  11  -3  -9-316.791 313.454  19
  11   3  -9-212.767 324.774  10
 -11   3   9 88.8054 190.104   6
  10  -3  -9 235.159 271.027  19
 -10   3   9 85.4176 254.933   6
  -9   3   9 5028.39 1660.03   6
   9  -3  -9 4941.80 1319.38   8
   8  -3  -9 2583.26 934.046   8
  -8   3   9 2752.97 1199.11   6
  -7   3   9 3989.64 1344.50   6
   7  -3  -9 3988.06 1093.92   8
  -6   3   9 307.453 283.071   6
   6  -3  -9 595.605 389.494   8
  -5   3   9 12772.4 2284.20   6
   5  -3  -9 14126.2 1932.09   8
  -5  -3   9 13066.3 2126.89   6
  -4   3   9 5423.91 1432.58   6
   4  -3  -9 6124.54 1255.23   8
   3  -3  -9 1393.32 585.177   8
   2  -3  -9 11198.9 1679.69   8
   1  -3  -9 451.846 269.885   8
   0   3   9-55.6183 290.595   4
   0  -3  -9 76.8499 98.7809   8
   1   3   9 287.705 377.833   4
  -1  -3  -9-21.1600 173.338   8
   2   3   9 5147.44 1409.43   4
   3   3   9 2039.04 878.438   4
   4  -3   9 5748.00 1456.31   5
   4   3   9 5339.82 1505.01   4
   5  -3   9 1081.15 628.947   5
   6  -3   9 2984.04 1008.12  17
   6  -3   9 3798.47 1262.39   5
   6  -3   9 3012.31 1012.02  16
   7  -3   9 1741.58 759.651  17
   7  -3   9 1049.99 666.097   5
   7  -3   9 1476.01 673.464  16
   8  -3   9 526.155 395.483  16
  -8  -3  -9 800.644 523.585  12
  -9  -3  -9 966.763 575.102  12
   9  -3   9 441.209 384.878  16
  10  -3   9 224.820 270.838  16
 -10  -3  -9-119.296 368.293  12
  11  -3   9-197.200 315.439  18
  11  -3   9-118.364 248.045  16
 -11  -3  -9 52.7580 145.319  12
  12  -3   9 151.615 279.419  18
  12  -3   9 66.2226 153.215  16
  13  -3   9-167.530 228.981  16
  17   4  -9 206.268 196.458   9
  17  -4  -9 238.692 236.737  14
  16   4  -9 98.7691 152.534   9
  16  -4  -9 6.81780 163.381  14
  15  -4  -9 140.888 169.239  19
  15   4  -9-51.2181 39.4420   9
  14  -4  -9 297.779 266.355  19
  13  -4  -9-371.530 314.495  19
  13   4  -9 418.627 420.394  10
  12  -4  -9 237.196 260.461  19
  12   4  -9 47.7855 161.408  10
  11  -4  -9-47.8834 119.259  19
  11   4  -9 6226.78 1474.86  10
  10  -4  -9-560.561 412.924  19
  10   4  -9 2470.45 890.195  10
  10  -4  -9 2059.97 822.174   8
 -10   4   9 2010.20 1056.13   6
   9  -4  -9-563.288 413.268  19
  -9   4   9 6267.10 1904.31   6
   9   4  -9 6378.50 1459.06  10
   9  -4  -9 6269.32 1506.17   8
   8  -4  -9 4621.09 1283.23   8
   7  -4  -9 1119.41 598.373   8
   6  -4  -9 3133.21 1004.81   8
   5  -4  -9 4666.46 1211.41   8
   4  -4  -9 27080.6 2853.95   8
   3  -4  -9 3964.17 1078.35   8
   2  -4  -9-37.2576 253.639   8
   1  -4  -9 498.571 345.858   8
   0   4   9 1089.66 640.676   4
   0  -4  -9 963.299 554.625   8
  -1  -4  -9 4172.25 1110.96   8
   1   4   9 4010.40 1233.89   4
   2   4   9 6669.06 1641.68   4
   3   4   9 2791.60 1103.09   4
   4  -4   9 366.918 361.752   5
   4   4   9-145.316 224.119  21
   5  -4   9-0.50616 108.779  17
   5  -4   9-130.934 158.240   5
   5   4   9 233.222 282.102  21
  -7  -4  -9 1161.09 588.820  12
  -8  -4  -9 6501.60 1418.87  12
  -9  -4  -9-2.49633 175.380  12
 -10  -4  -9 661.507 435.879  12
  11  -4   9 58.7595 299.531  18
 -11  -4  -9 137.204 152.752  12
  12  -4   9-10.9829 196.091  18
 -12  -4  -9 78.4932 100.497  12
  16  -5  -9 69.5790 4.12612  14
  14  -5  -9 34.5557 81.1337  19
  14   5  -9 16.9563 180.193  13
  13  -5  -9 40.0867 94.4766  19
  13   5  -9 229.959 343.102  13
  12  -5  -9-313.627 278.333  19
  12   5  -9 405.167 495.912  13
  11  -5  -9-658.200 419.518  19
  11   5  -9 53.3507 151.805  13
  10  -5  -9-110.992 176.304  19
   9  -5  -9-193.700 235.285  19
   8   5  -9 618.336 578.448  20
   8  -5  -9 354.644 286.660   8
   8   5  -9-25.0077 346.846   7
   7   5  -9 20684.6 4026.64  20
   7   5  -9 228.450 221.408   7
   7  -5  -9 820.892 557.974   8
   6  -5  -9 14445.5 2326.40   8
   6   5  -9 11041.4 2265.69   7
   5  -5  -9 15277.5 2341.65   8
   4  -5  -9 17046.4 2415.43   8
   3  -5  -9 2416.86 916.501   8
   2  -5  -9 722.372 387.802   8
   1  -5  -9 5036.89 1292.92   8
   0   5  -9 867.752 824.099  20
   0  -5  -9 12896.3 2132.94   8
  -1   5  -9 571.994 709.818  20
   1   5   9-319.456 330.086  21
  -1  -5  -9 366.658 322.292   8
   2   5   9-307.569 327.329  21
   3  -5   9 1770.15 835.756   5
   3   5   9-631.220 471.235  21
   4   5   9-807.783 531.067  21
   5   5   9-40.5203 117.140  21
   6   5   9 136.711 209.500  21
  -6  -5  -9 753.411 477.507  12
  -7  -5  -9-12.0954 128.444  12
  -8  -5  -9-101.647 133.011  12
  -9  -5  -9 1864.44 706.550  12
 -10  -5  -9 340.854 298.747  12
 -11  -5  -9 352.357 228.396  12
 -12  -5  -9-11.6722 85.3602  12
  14   6  -9 118.701 275.040  13
  13  -6  -9 75.8235 109.188  19
  13   6  -9-47.1259 148.296  13
  12  -6  -9 23.2201 65.6263  19
  12   6  -9 46.5816 149.910  13
  11  -6  -9-108.318 150.353  19
  11   6  -9 33.3256 202.907  13
  10   6  -9 92.0571 214.519  13
   9   6  -9 48.4588 218.313  13
   8   6  -9 1094.43 821.579  20
   8   6  -9-137.531 226.092  13
   7   6  -9 1447.21 1043.27  20
   7   6  -9 765.056 558.546  13
   6   6  -9 1214.08 636.067  20
   6   6  -9 652.182 500.539  13
   5   6  -9 860.325 563.275  13
   5   6  -9 8974.98 2701.63  20
   4   6  -9 191.013 109.542  20
   4   6  -9 6288.11 1486.27  13
   3   6  -9 121.546 332.695  13
  -3   6   9-454.781 403.587  21
   3   6  -9 10731.1 2892.37  20
   2   6  -9 5423.24 2014.63  20
  -2   6   9-371.465 365.869  21
   1   6  -9 1927.58 1297.60  20
  -1   6   9-624.641 472.522  21
   0   6   9-715.943 501.095  21
   0   6  -9 2398.89 1481.58  20
  -1   6  -9 3798.24 1863.73  20
   1   6   9 80.6245 165.620  21
  -2   6  -9 1233.52 1126.80  20
   2   6   9-265.189 299.739  21
   3   6   9 114.977 197.139  21
  -3  -6  -9 898.788 469.291  12
   4   6   9-23.8721 88.9334  21
  -4  -6  -9 1722.14 708.023  12
  -5  -6  -9 2959.11 911.680  12
   5   6   9-444.641 373.729  21
   6   6   9-655.056 431.585  21
  -6  -6  -9 760.647 427.951  12
  -7  -6  -9-174.508 228.508  12
  -8  -6  -9 152.633 203.354  12
  -9  -6  -9 204.803 187.225  12
 -10  -6  -9 226.515 176.052  12
  13   7  -9 458.607 288.058  13
  12   7  -9 135.282 138.321  13
  11   7  -9 179.617 197.846  13
  10   7  -9 291.612 273.545  13
   9   7  -9 103.267 170.030  13
   8   7  -9 204.959 530.310  20
   8   7  -9 354.964 269.280  13
   7   7  -9 153.376 258.667  13
   7   7  -9 445.775 379.524  20
   6   7  -9-9.33086 120.346  20
   6   7  -9 1178.55 596.464  13
   5   7  -9 1504.45 1063.65  20
   5   7  -9 62.0392 143.190  13
   4   7  -9 2342.69 1385.18  20
   4   7  -9 2812.66 939.563  13
   3   7  -9 552.752 918.022  20
   3   7  -9 3671.73 1057.00  13
  -3   7   9-756.135 506.878  21
   2   7  -9 482.174 546.375  20
  -2   7   9-397.835 369.320  21
   2   7  -9 131.807 165.877  13
   1   7  -9-145.328 454.673  20
  -1   7   9 86.4772 171.687  21
   0   7  -9 2000.90 1265.43  20
   0   7   9-160.371 231.660  21
  -1   7  -9-188.869 452.282  20
   1   7   9 63.0783 143.001  21
  -2   7  -9 1647.18 1678.29  20
   2   7   9 79.9734 158.307  21
   3   7   9-109.454 182.344  21
  -4  -7  -9 3126.93 841.021  12
   4   7   9-105.263 173.555  21
  -5  -7  -9 119.744 90.1423  12
   5   7   9-291.731 276.261  21
   6   7   9 17.0531 62.1174  21
  -6  -7  -9 378.135 266.358  12
  -7  -7  -9 59.1385 135.467  12
   7   7   9-39.9282 84.7476  21
  -8  -7  -9 249.561 206.246  12
  -9  -7  -9 290.931 186.199  12
  11   8  -9-37.0842 46.8489  13
  10   8  -9-79.8952 162.504  13
   9   8  -9 471.200 294.667  13
   8   8  -9 239.299 367.011  20
   8   8  -9 8.70252 19.1118  13
   7   8  -9 94.0670 247.559  20
   7   8  -9-89.8504 187.406  13
   6   8  -9-15.5756 59.7694  11
   6   8  -9-60.9799 281.058  20
   6   8  -9-45.0968 134.902  13
   5   8  -9-355.040 422.058  20
   5   8  -9-86.7700 184.617  13
   4   8  -9-1187.54 1025.03  20
   4   8  -9 1375.81 611.992  13
   3   8  -9-42.0789 161.527  20
   3   8  -9 603.169 426.189  13
  -3   8   9-0.75299 14.4147  21
   2   8  -9-553.638 800.870  20
  -2   8   9 37.1394 102.636  21
   1   8  -9-101.215 265.793  20
  -1   8   9-94.1553 163.539  21
   0   8  -9 267.219 488.638  20
   0   8   9-265.044 271.873  21
  -1   8  -9 580.396 732.064  20
   1   8   9 53.2765 119.422  21
  -2   8  -9-186.664 302.901  20
   2   8   9-320.445 283.443  21
   3   8   9 66.6946 125.126  21
   4   8   9-58.6496 111.607  21
   5   8   9-161.430 172.015  21
   7   9  -9-51.4029 210.863  20
   6   9  -9-191.387 186.527  20
   5   9  -9 33.8429 362.718  20
   5   9  -9-5.70430 29.7193  11
   4   9  -9-278.892 338.786  20
   4   9  -9 2.97090 22.7160  11
   3   9  -9 54.0321 357.785  20
   2   9  -9 64.3730 136.358  20
  -2   9   9 271.613 222.972  21
   1   9  -9-66.7973 307.899  20
  -1   9   9 205.190 196.838  21
   0   9  -9-205.053 448.702  20
   0   9   9-70.2521 114.339  21
   1   9   9-111.697 140.325  21
   2   9   9-152.728 156.482  21
  19   0 -10-72.8250 143.489   9
  18   0 -10 82.8272 128.691   9
  18   0 -10 846.311 414.536  14
  17   0 -10 671.350 369.278  14
  16   0 -10 7999.17 1519.00  14
  15   0 -10 119.155 229.429  14
  14   0 -10 3836.71 1112.76  14
  13   0 -10-130.119 283.674  14
 -12   0  10-88.3149 375.070   6
  12   0 -10 432.156 360.832  14
 -11   0  10 7151.28 2060.84   6
 -10   0  10 5480.83 1705.26   6
  -9   0  10 16615.3 2941.02   6
  -8   0  10 1490.44 890.854   6
  -7   0  10 21956.7 3157.38   6
  -6   0  10 18397.4 2813.00   6
  -5   0  10 77888.3 5584.10   6
  -4   0  10 12565.5 2159.71   6
  -3   0  10 212.460 278.347   6
  -2   0  10 23895.4 2825.49   6
  -1   0  10 890.971 559.177   6
   0   0  10 3792.80 1078.07   4
   1   0  10 5314.55 1349.00   4
   2   0  10 107191. 6139.01   4
   3   0  10 30499.4 3138.94   5
   3   0  10 37313.4 3760.63   4
   4   0  10 34030.0 3459.00   5
   5   0  10 26994.0 3234.91   5
   6   0  10 2481.42 995.628   5
   7   0  10 16.0795 74.6804  17
   7   0  10 217.766 155.035   5
   7   0  10 351.856 302.420  16
   8   0  10 27.0477 228.499  16
   9   0  10 10001.4 1842.18  16
  10   0  10 59.3894 93.2294  16
  11   0  10 570.912 389.835  16
  12   0  10 419.030 303.664  16
  13   0  10 2478.80 715.486  16
  14   0  10 28.6141 91.9948  16
  19   1 -10-124.153 160.818   9
 -19   1  10 149.041 203.949  17
  19  -1 -10 16.0826 115.078  14
  18   1 -10-143.236 201.456   9
  18  -1 -10-78.0863 96.9152   9
  18  -1 -10 109.131 236.081  14
  17   1 -10 193.665 266.539  14
  17  -1 -10 243.923 263.490  14
  16   1 -10 113.793 97.2509  10
  16   1 -10 547.404 403.119  14
  16  -1 -10 214.353 159.420  14
  15   1 -10 800.626 485.451  10
  15   1 -10 773.729 459.483  14
  15  -1 -10 845.255 495.326  14
  14   1 -10 7134.94 1551.86  14
  14  -1 -10 8275.61 1657.36  14
  13   1 -10 16402.5 2408.60  14
  13  -1 -10 16876.8 2399.98  14
 -12  -1  10 207.965 187.181   6
 -12   1  10 226.634 401.390   6
  12   1 -10 84.1845 270.785  14
  12  -1 -10 66.5192 262.919  14
 -11  -1  10 613.676 439.952   6
 -11   1  10 1683.68 988.300   6
 -10  -1  10 609.408 640.840   6
 -10   1  10 782.474 559.860   6
  -9  -1  10 472.680 511.084   6
  -9   1  10 347.396 147.648   6
  -8  -1  10 7752.63 1946.38   6
  -8   1  10 6287.97 1762.29   6
  -7  -1  10 52346.7 4903.33   6
  -7   1  10 54550.5 5026.92   6
  -6  -1  10 38094.0 4001.96   6
  -6   1  10 32356.5 3823.16   6
  -5  -1  10 5426.78 1459.83   6
  -5   1  10 4962.95 1457.78   6
   5  -1 -10 5482.91 1218.29   8
  -4  -1  10 809.111 520.383   6
  -4   1  10 1449.04 699.626   6
   4  -1 -10 1174.10 551.634   8
  -3  -1  10 2820.74 987.424   6
  -3   1  10 2293.31 870.715   6
   3  -1 -10 2249.63 739.645   8
  -2   1  10 31143.2 3261.37   6
   2  -1 -10 32074.8 2801.87   8
  -2  -1  10 32351.2 3259.54   6
  -1  -1  10 1883.32 738.908   4
  -1   1  10 1358.02 650.213   6
   1  -1 -10 1878.77 656.836   8
   0   1  10 156.236 272.149   4
   0  -1  10 53.0817 152.387   4
   1  -1  10 5928.69 1358.26   4
   1   1  10 6116.05 1464.05   4
   2  -1  10 180.674 155.383   4
   2   1  10 429.453 446.440   4
   3   1  10 733.881 478.471   4
   4  -1  10 20572.3 2775.89   5
   5  -1  10 11513.4 2165.39   5
   6  -1  10 11452.1 2256.67   5
   6  -1  10 10496.9 2014.18  17
   6   1  10 11309.8 1997.03  16
   6  -1  10 12918.3 2091.41  16
   7  -1  10 644.607 557.597  17
   7  -1  10-193.010 434.797   5
   7   1  10 215.558 336.981  16
   7  -1  10 267.676 372.877  16
   8   1  10 271.691 326.320  16
   8  -1  10 199.772 187.058  16
   9   1  10-87.0468 385.463  16
   9  -1  10 95.0694 252.348  16
  10   1  10 565.013 407.975  16
  10  -1  10 514.924 374.760  16
  11   1  10 1132.66 563.494  16
  11  -1  10 1777.90 698.697  16
  12   1  10-34.3284 141.172  16
  12  -1  10-147.501 134.983  16
  13   1  10-48.9253 109.571  16
  13  -1  10-44.7564 170.359  16
  14  -1  10 98.5223 16.6364  16
 -19   2  10-26.6291 139.162  17
  18   2 -10 74.4973 170.744   9
  18  -2 -10 637.027 346.237  14
  17   2 -10 110.537 65.5778   9
  17  -2 -10 1041.38 484.758  14
  16   2 -10 16.9849 92.2087  10
  16  -2 -10 886.739 483.155  14
  15   2 -10 328.421 324.228  10
  15  -2 -10 1072.94 571.699  14
  14   2 -10 1753.99 738.423  10
  14   2 -10 1872.26 768.759  14
  14  -2 -10 2070.74 798.175  14
  13  -2 -10 69.6436 142.572  19
  13   2 -10 258.079 250.842  10
  13   2 -10 380.734 210.829  14
  12  -2 -10 14.3759 66.2280  19
  12   2 -10-75.5131 109.339  10
  12   2 -10-45.0761 196.707  14
  11  -2 -10-221.536 263.453  19
 -11   2  10 647.741 520.180   6
  11   2 -10 859.632 623.915  14
  10  -2 -10-91.0884 169.283  19
 -10   2  10 9.65639 332.925   6
  -9  -2  10 705.898 686.375   6
  -9   2  10 367.533 698.596   6
  -8  -2  10 15059.6 2690.42   6
  -8   2  10 14741.0 2772.27   6
  -7  -2  10 10003.3 2064.04   6
  -7   2  10 9514.05 2164.65   6
   7  -2 -10 9530.88 1711.63   8
  -6  -2  10 6774.85 1660.54   6
  -6   2  10 5449.59 1596.56   6
   6  -2 -10 6893.33 1407.07   8
  -5  -2  10 12906.8 2239.89   6
  -5   2  10 12609.2 2377.17   6
   5  -2 -10 14381.0 2047.12   8
  -4  -2  10 3177.18 1091.99   6
  -4   2  10 2223.75 962.693   6
   4  -2 -10 2802.82 857.137   8
  -3   2  10 39586.8 3923.21   6
   3  -2 -10 42700.1 3381.02   8
  -3  -2  10 47920.5 4136.61   6
  -2   2  10 920.233 526.723   6
   2  -2 -10 1231.51 553.605   8
   1  -2 -10 9146.08 1523.14   8
  -1   2  10 9807.64 1776.12   6
   0   2  10 1529.63 709.568   4
   1   2  10 4151.12 1242.82   4
   2   2  10 20536.2 2827.43   4
   3   2  10 3046.45 1071.27   4
   4  -2  10 3515.90 1154.62   5
   5  -2  10 3968.34 1332.46   5
   6  -2  10 253.278 335.453  17
   6  -2  10 395.299 455.295   5
   6  -2  10 389.473 436.612  16
   7  -2  10-74.7106 311.108  17
   7  -2  10 424.410 457.930  16
   8  -2  10 30.3090 126.156  16
   9   2  10 57.0681 195.730  16
   9  -2  10 153.395 171.673  16
  10   2  10-58.0412 175.211  16
  10  -2  10 162.177 227.374  16
  11   2  10-9.86180 67.8142  16
  11  -2  10 64.7580 169.207  16
  12   2  10 4.77508 55.8687  16
  12  -2  10-42.3383 186.467  16
  13  -2  10 427.194 273.300  16
  18   3 -10 50.8867 68.1832   9
  18  -3 -10-9.36244 8.29541  14
  17   3 -10-58.6441 158.143   9
  17  -3 -10 50.3903 51.7769  14
  16   3 -10 37.8257 196.730   9
  16  -3 -10 41.5611 115.551  14
  15   3 -10 337.888 357.437  10
  15   3 -10 1.83980 155.822   9
  15  -3 -10 1704.32 662.606  14
  14  -3 -10 182.584 216.458  19
  14   3 -10 269.539 315.676  10
  13  -3 -10-190.530 231.269  19
  13   3 -10 1527.41 705.038  10
  12  -3 -10 253.434 273.580  19
  12   3 -10 1009.08 579.284  10
  11  -3 -10-41.0870 112.048  19
  11   3 -10 3507.82 1065.56  10
 -11   3  10 3800.07 1614.52   6
  10  -3 -10-132.517 202.541  19
  10   3 -10-13.2491 188.159  10
 -10   3  10 18.2611 491.227   6
   9  -3 -10-149.260 213.184  19
  -9   3  10 9141.33 2329.68   6
   9  -3 -10 9656.27 1852.47   8
  -8   3  10 1649.34 935.171   6
   8  -3 -10 2043.22 854.355   8
  -7   3  10 22500.6 3443.79   6
   7  -3 -10 25074.5 2935.56   8
  -6  -3  10 555.770 439.154   6
  -6   3  10 564.259 487.090   6
   6  -3 -10 657.592 464.094   8
  -5   3  10 61579.2 5326.61   6
   5  -3 -10 64568.4 4423.51   8
  -5  -3  10 64706.1 5081.64   6
   4  -3 -10 54763.3 3985.52   8
   3  -3 -10 8940.72 1630.18   8
   2  -3 -10 43867.7 3591.77   8
   1  -3 -10 2024.20 756.927   8
   0  -3 -10 17049.7 2208.10   8
   0   3  10 20295.2 2845.64   4
   1   3  10 4867.06 1419.90   4
   2   3  10 10616.4 2129.45   4
   3   3  10 6482.60 1694.78   4
   4  -3  10 2432.48 1030.64   5
   5  -3  10 5305.00 1525.49   5
   5  -3  10 3278.56 1085.66  17
   6  -3  10 14367.3 2361.30  17
   6  -3  10 14537.4 2295.61  16
   7  -3  10 682.040 531.837  16
   8  -3  10 46.3088 68.6052  16
  -8  -3 -10 48.1348 184.313  12
   9  -3  10-4.17129 140.039  16
  -9  -3 -10 90.0480 76.5513  12
  10  -3  10 1236.44 597.206  16
 -10  -3 -10 1621.86 650.017  12
  11  -3  10 49.2880 204.299  16
  12  -3  10 285.673 208.999  16
  17  -4 -10-118.602 110.910  14
  16  -4 -10 149.743 154.143  14
  15  -4 -10 713.160 464.978  14
  15   4 -10 14.2379 63.5833  13
  14  -4 -10 591.994 363.127  19
  13  -4 -10 217.481 233.332  19
  13   4 -10 4.23678 227.812  10
  12  -4 -10 329.803 299.858  19
  12   4 -10 633.724 485.537  10
  11  -4 -10 221.104 251.946  19
  11   4 -10 726.560 467.522  10
  10  -4 -10-371.083 330.364  19
  10   4 -10 377.368 401.678  10
   9   4 -10 3671.65 1580.64  20
   9  -4 -10 34.5359 101.052  19
   9   4 -10 179.464 216.235  10
   9  -4 -10 20.5205 282.162   8
   8   4 -10 6520.75 1521.77  10
   8  -4 -10 6736.95 1602.45   8
   7  -4 -10 279.532 288.180   8
   6  -4 -10 15341.5 2282.40   8
   5  -4 -10 13579.2 2132.68   8
   4  -4 -10 862.956 546.356   8
   3  -4 -10 1149.99 569.355   8
   2  -4 -10 233.167 249.644   8
   1  -4 -10 13053.0 2053.40   8
  -1   4  10 13919.6 2462.82   4
   0  -4 -10 10723.1 1867.04   8
   0   4  10 11696.8 2252.04   4
   1   4  10 19.7439 293.148   4
   2   4  10 1188.70 700.566   4
   3  -4  10 705.640 488.478  17
   3   4  10 1172.43 623.581   4
   3   4  10 180.498 253.150  21
   4  -4  10 7095.28 1797.10   5
   4  -4  10 6823.77 1641.09  17
   4   4  10 5.08873 42.2138  21
   5  -4  10 1045.23 628.228  17
   5   4  10-527.109 423.567  21
   5  -4  10 1270.79 693.895  16
   6  -4  10 1082.47 576.670  16
   7  -4  10 1793.94 721.357  16
  -7  -4 -10 1828.04 727.348  12
   8  -4  10 408.387 351.319  16
  -8  -4 -10 328.232 288.321  12
   9  -4  10 310.543 283.380  16
  -9  -4 -10 376.691 291.958  12
  10  -4  10-237.135 371.004  18
 -10  -4 -10 95.7918 189.124  12
 -11  -4 -10 115.414 181.057  12
  15  -5 -10 284.250 260.554  14
  14   5 -10-70.5956 194.661  13
  13  -5 -10 125.434 159.105  19
  13   5 -10 76.4804 247.181  13
  12  -5 -10-24.6676 74.8306  19
  12   5 -10 166.464 484.409  13
  11  -5 -10-328.577 283.965  19
  11   5 -10 293.512 352.337  13
  10  -5 -10-223.329 240.721  19
   9   5 -10-39.3081 522.117  20
   8   5 -10-297.263 777.142  20
   7   5 -10-647.222 879.276  20
   6   5 -10 7514.72 2468.68  20
   6  -5 -10-158.882 334.179   8
   5   5 -10 2371.10 1361.51  20
   5  -5 -10 6048.28 1468.74   8
   4   5 -10 12077.6 3047.52  20
   4  -5 -10 1753.15 773.630   8
   4   5 -10 1406.23 698.839  13
   3   5 -10 1405.24 1085.29  20
   3  -5 -10 5499.37 1420.01   8
  -3   5  10-419.552 387.264  21
   2   5 -10 1270.37 984.798  20
   2  -5 -10 1078.05 630.307   8
  -2   5  10-254.892 302.632  21
   1   5 -10 793.398 416.009  20
   1  -5 -10 508.381 386.342   8
  -1   5  10-9.05063 56.7001  21
   0   5 -10 6012.84 2191.32  20
   0   5  10-83.0967 170.175  21
   0  -5 -10 288.842 349.231   8
   1   5  10 245.059 291.193  21
  -1   5 -10 10973.5 3015.42  20
   2   5  10-359.355 354.355  21
   3   5  10 175.150 246.718  21
   4   5  10-389.038 363.608  21
   5   5  10 81.7272 162.991  21
   6   5  10-155.085 214.512  21
  -6  -5 -10 912.571 481.052  12
  -7  -5 -10 1066.41 543.575  12
  -8  -5 -10 1195.35 532.252  12
  -9  -5 -10 1638.78 620.117  12
 -10  -5 -10 304.355 254.932  12
 -11  -5 -10 16.7468 52.9383  12
  14   6 -10-29.1971 52.8256  13
  13   6 -10 214.527 249.319  13
  12  -6 -10-111.952 132.706  19
  12   6 -10 30.0810 66.9453  13
  11   6 -10 357.705 287.113  13
  10   6 -10 129.467 252.908  13
   9   6 -10 312.628 515.863  20
   9   6 -10 1613.39 798.442  13
   8   6 -10 266.110 444.112  20
   8   6 -10 146.825 196.032  13
   7   6 -10 4537.22 1876.86  20
   7   6 -10 278.704 349.879  13
   6   6 -10 3466.21 1101.38  13
   6   6 -10 7545.47 2358.53  20
   5   6 -10 54.9097 192.141  20
   5   6 -10 5206.15 1380.06  13
   4   6 -10 1526.24 1045.02  20
   4   6 -10 138.510 177.201  13
  -4   6  10-777.460 522.512  21
   3   6 -10 415.738 585.274  20
   3   6 -10 1031.40 557.195  13
  -3   6  10-397.137 375.867  21
  -2   6  10 145.967 227.816  21
   2   6 -10 11174.1 3034.96  20
   1   6 -10 4486.64 1982.92  20
  -1   6  10 18.3975 80.3303  21
   0   6 -10 1311.24 1304.26  20
   0   6  10-237.787 285.178  21
  -1   6 -10 6441.86 2630.34  20
   1   6  10 17.8833 77.0755  21
   2   6  10 56.6618 137.297  21
   3   6  10 43.2966 118.962  21
  -3  -6 -10-98.0298 275.480  12
   4   6  10 549.733 414.333  21
  -4  -6 -10 274.842 243.555  12
   5   6  10-382.258 330.973  21
  -5  -6 -10 2346.07 773.248  12
   6   6  10-9.90038 49.9804  21
  -6  -6 -10 512.718 356.196  12
  -7  -6 -10 2257.24 708.663  12
  -8  -6 -10 42.2441 120.194  12
  -9  -6 -10-10.9185 49.3295  12
 -10  -6 -10 162.393 110.989  12
  13   7 -10 87.9450 86.6606  13
  12   7 -10 102.709 69.3247  13
  11   7 -10-7.30584 89.3053  13
  10   7 -10-16.6952 92.9509  13
   9   7 -10 472.876 570.346  20
   9   7 -10 130.838 188.846  13
   8   7 -10 59.9534 145.972  20
   8   7 -10 203.880 249.545  13
   7   7 -10 80.0143 300.682  20
   7   7 -10 134.732 290.520  13
   6   7 -10 466.984 578.098  20
   6   7 -10 2379.65 864.426  13
   5   7 -10 330.989 748.478  20
   5   7 -10 3313.27 1000.07  13
   4   7 -10-366.296 558.912  20
   4   7 -10 258.655 296.579  13
   3   7 -10-103.851 284.407  20
   3   7 -10-25.0720 119.239  13
  -3   7  10-279.486 300.795  21
   2   7 -10-224.885 791.249  20
  -2   7  10-97.7526 178.710  21
   1   7 -10 384.571 554.329  20
  -1   7  10 451.498 382.614  21
   0   7 -10-687.355 789.600  20
   0   7  10-261.651 287.878  21
  -1   7 -10-1409.60 1149.00  20
   1   7  10 473.277 379.427  21
   2   7  10-100.017 170.776  21
  -3  -7 -10 491.679 332.566  12
   3   7  10 566.364 396.682  21
   4   7  10-230.801 243.421  21
  -4  -7 -10 108.669 100.567  12
  -5  -7 -10-9.07795 135.817  12
   5   7  10 58.2634 114.963  21
  -6  -7 -10 88.6214 112.750  12
   6   7  10-191.581 189.088  21
  -7  -7 -10 69.3031 33.5507  12
  10   8 -10 73.9301 89.4059  13
   9   8 -10 30.4561 90.1548  13
   8   8 -10 186.085 291.698  20
   8   8 -10-65.2060 32.4642  13
   7   8 -10-197.625 246.734  20
   7   8 -10 420.339 316.528  13
   6   8 -10-79.4563 147.845  20
   6   8 -10 1563.15 599.744  13
   5   8 -10-130.865 299.799  20
   5   8 -10 733.347 397.290  13
   4   8 -10-262.072 168.514  20
   4   8 -10 138.731 17.1733  13
   3   8 -10-192.455 273.613  20
   3   8 -10 634.339 357.859  13
  -3   8  10 21.6634 73.6092  21
   2   8 -10-173.894 235.882  20
  -2   8  10-305.970 280.607  21
   1   8 -10 72.7385 175.051  20
  -1   8  10-51.8957 115.470  21
   0   8 -10 555.396 481.256  20
   0   8  10 60.9504 123.484  21
  -1   8 -10-273.387 393.587  20
   1   8  10-166.323 198.630  21
   2   8  10-389.268 291.860  21
   3   8  10-84.0668 129.943  21
   4   8  10 128.364 150.681  21
   5   8  10-232.235 182.453  21
   5   9 -10-136.596 338.520  20
   4   9 -10 48.4901 136.252  20
   3   9 -10-220.326 359.097  20
   2   9 -10-198.620 279.953  20
 -18   0  11-15.5710 137.252  17
  18   0 -11-112.736 156.415   9
  18   0 -11-110.300 155.684  14
  17   0 -11 93.0962 24.8548  10
 -17   0  11-94.4409 240.120  17
  17   0 -11-105.429 145.737  14
  16   0 -11-78.6962 131.261  10
  16   0 -11-24.0749 129.655  14
  15   0 -11 47.8177 85.3194  14
  14   0 -11 27.6458 180.098  14
  13   0 -11 14.9465 20.6458  14
  12   0 -11-75.3626 383.579  14
 -11   0  11 40.1200 263.573   6
  11   0 -11 40.4210 262.375  14
 -10   0  11-11.4283 183.938   6
  -9   0  11-76.4880 295.038   6
  -8   0  11 184.510 245.528   6
  -7   0  11-123.557 185.129   6
  -6   0  11-193.533 302.724   6
  -5   0  11 29.2190 307.526   6
  -4   0  11-47.3404 196.072   6
  -3   0  11 40.7312 165.259   6
  -2   0  11 81.9895 169.346   6
  -1   0  11 102.702 308.100   4
   0   0  11-148.002 260.150   4
   1   0  11 102.425 255.108   4
   2   0  11-207.831 370.476   4
   3   0  11 33.3538 144.907   5
   4   0  11 9.06859 270.363   5
   5   0  11 32.8015 83.1724  17
   5   0  11 77.7665 178.017  16
   6   0  11 163.672 260.311  17
   6   0  11 5.00641 266.343  16
   7   0  11 164.818 138.250  17
   7   0  11-26.7361 315.723  16
   8   0  11-21.6383 169.126  16
   9   0  11 10.1295 117.610  16
  10   0  11 2.43224 146.407  16
  11   0  11 147.214 218.221  16
  12   0  11 35.6230 98.7187  16
  13   0  11-18.6773 26.3647  16
  18   1 -11 22.5861 126.943   9
 -18   1  11-14.4773 105.002  17
  18  -1 -11-65.1429 154.231   9
  18  -1 -11-237.072 256.957  14
  17   1 -11-49.3934 74.1104  10
  17  -1 -11 19.7541 158.462  10
  17  -1 -11 205.780 197.488  14
  16   1 -11 85.1298 139.602  10
 -16  -1  11-373.962 466.342  17
  16   1 -11-18.7962 28.2798  14
  16  -1 -11-125.042 133.643  14
  15   1 -11 743.684 469.757  10
 -15  -1  11 993.983 652.510  17
  15   1 -11 1302.65 609.595  14
  15  -1 -11 1389.92 615.883  14
  14   1 -11 680.271 453.042  14
  14  -1 -11 876.231 470.423  14
  13   1 -11 1598.55 689.193  14
  13  -1 -11 2228.61 876.930  14
  12   1 -11 3855.43 1155.29  14
  12  -1 -11 3465.92 1052.24  14
 -11  -1  11 10725.9 2596.34   6
 -11   1  11 11354.1 2690.57   6
  11   1 -11 11471.6 1996.64  14
 -10  -1  11 2786.13 1287.08   6
 -10   1  11 2426.95 1134.67   6
  -9  -1  11 5455.76 1715.72   6
  -9   1  11 5572.92 1810.25   6
  -8  -1  11 10279.8 2332.44   6
  -8   1  11 9984.37 2316.45   6
  -7  -1  11 14896.3 2701.75   6
  -7   1  11 15028.2 2761.62   6
  -6  -1  11 10558.1 2208.97   6
  -6   1  11 10173.8 2196.41   6
  -5  -1  11 16516.2 2692.43   6
  -5   1  11 15846.6 2699.27   6
  -4  -1  11 20994.7 2910.87   6
  -4   1  11 20266.5 2967.12   6
  -3  -1  11 65.5029 52.1309   6
  -3   1  11-26.9225 186.930   6
   3  -1 -11 326.553 364.051   8
  -2   1  11 51667.2 4488.76   6
   2  -1 -11 49721.1 3757.21   8
  -2  -1  11 49773.0 4053.76   4
  -1  -1  11 23805.8 2854.38   4
  -1   1  11 26038.0 3104.85   6
   0  -1  11 14307.8 2218.62   4
   0   1  11 15027.7 2439.38   4
   1  -1  11 4235.12 1221.10   4
   1   1  11 4455.25 1329.63   4
   2   1  11 8590.77 1879.99   4
   3   1  11 24083.7 3221.12   4
   4  -1  11 362.639 319.080   5
   5  -1  11 16555.3 2706.61   5
   5  -1  11 13197.6 2267.06  17
   5   1  11 14140.8 2243.29  16
   6  -1  11 15075.7 2445.26  17
   6   1  11 15723.8 2359.15  16
   6  -1  11 18061.1 2495.77  16
   6  -1  11 14756.7 2601.95   5
   7  -1  11 3116.59 1078.48  17
   7   1  11 3464.66 1089.38  16
   7  -1  11 3683.83 1134.25  16
   8   1  11 220.351 254.421  16
   8  -1  11 343.680 353.797  16
   9   1  11 650.212 434.797  16
   9  -1  11 562.267 315.355  16
  10   1  11 95.2451 86.1203  16
  10  -1  11 227.226 302.054  16
  11   1  11 1588.89 613.669  16
  11  -1  11 1585.77 626.408  16
  12   1  11 114.920 187.497  16
  12  -1  11 171.653 181.331  16
  13  -1  11 574.008 289.079  16
  18   2 -11-10.3070 141.946   9
 -18   2  11-50.3104 204.295  17
  18  -2 -11 208.976 200.527  14
  17   2 -11-66.6901 165.314   9
  17  -2 -11 126.100 180.220  14
  16   2 -11-9.41480 57.4122  10
  16  -2 -11 1020.86 480.585  14
  15   2 -11 165.359 227.992  10
  15  -2 -11-12.3454 168.710  14
  14   2 -11 32.7533 164.535  10
  14  -2 -11-113.070 195.839  14
  13   2 -11 13775.7 2084.72  10
  13  -2 -11 13262.6 2036.09  14
  12   2 -11 3792.37 1110.60  10
 -11   2  11 18137.0 3493.06   6
  11   2 -11 20575.5 2594.86  10
  10  -2 -11 665.907 456.671  19
 -10  -2  11 2195.82 1073.60   6
 -10   2  11 2098.56 1137.81   6
  -9  -2  11 18608.1 3105.51   6
  -9   2  11 18115.7 3349.91   6
  -8  -2  11 8873.30 2120.79   6
  -8   2  11 8506.05 2185.83   6
  -7  -2  11 4573.78 1448.38   6
  -7   2  11 3679.69 1433.94   6
   7  -2 -11 3838.07 1118.77   8
  -6  -2  11 36978.1 4106.70   6
  -6   2  11 34228.5 4231.53   6
   6  -2 -11 34698.2 3365.81   8
  -5  -2  11 25050.6 3250.19   6
  -5   2  11 22042.0 3248.52   6
   5  -2 -11 26261.0 2848.82   8
  -4   2  11 9252.23 2031.58   6
   4  -2 -11 11254.7 1877.27   8
  -4  -2  11 10496.9 2106.97   6
  -3   2  11 10297.3 2013.68   6
   3  -2 -11 12158.7 1930.86   8
  -2   2  11 257.651 239.889   6
   2  -2 -11 220.938 149.390   8
   1  -2 -11 1187.06 582.301   8
   0   2  11 7051.22 1692.69   4
   1   2  11 6573.06 1662.80   4
   2   2  11 29155.4 3561.79   4
   3   2  11 2803.58 1091.80   4
   4  -2  11 7101.43 1754.19   5
   4  -2  11 5969.89 1482.08  17
   5  -2  11 1357.07 797.132  17
   5  -2  11 1197.40 730.393   5
   6  -2  11 943.404 585.732  17
   6  -2  11 1000.76 584.966  16
   7  -2  11 135.802 229.032  17
   7  -2  11 57.2649 234.923  16
   8  -2  11 1729.77 780.207  16
   9  -2  11 2970.91 943.169  16
  10   2  11 1196.69 519.519  16
  10  -2  11 2051.87 737.843  16
  11   2  11 92.5472 163.380  16
  11  -2  11 244.525 195.034  16
  12  -2  11 205.575 139.074  16
 -18   3  11 270.550 248.488  17
  17   3 -11-196.337 211.427   9
  17  -3 -11 445.927 287.085  14
  16   3 -11-155.617 246.124   9
  16  -3 -11 172.970 90.3166  14
  15   3 -11 178.595 231.640  10
  15  -3 -11-54.7474 107.057  14
  14   3 -11 677.441 446.828  10
  14  -3 -11 1002.38 511.064  14
  13   3 -11-94.9149 157.165  10
  12  -3 -11-156.335 211.022  19
  12   3 -11 520.912 375.857  10
  11  -3 -11-231.692 261.673  19
  11   3 -11 442.185 383.592  10
  10  -3 -11-15.4326 68.2397  19
  10   3 -11 1147.71 575.350  10
 -10   3  11 1368.94 943.137   6
   9  -3 -11-429.268 358.804  19
   9   3 -11 4070.53 1167.46  10
  -9   3  11 4177.06 1558.08   6
  -8   3  11 7688.96 2125.63   6
   8   3 -11 7260.82 1597.50  10
   8  -3 -11 8973.71 1814.66   8
  -7   3  11 424.789 467.864   6
   7  -3 -11 363.432 400.788   8
  -6   3  11 1602.94 965.746   6
   6  -3 -11 1758.62 770.770   8
  -6  -3  11 1593.47 842.072   6
   5  -3 -11 616.656 477.274   8
   4  -3 -11 287.532 288.770   8
   3  -3 -11 8308.17 1628.46   8
   2  -3 -11 34.1222 166.203   8
  -1   3  11 424.409 384.620   4
   1  -3 -11 164.650 224.669   8
   0   3  11 4517.00 1411.89   4
   1   3  11-56.3274 273.581   4
   2   3  11 3003.05 1209.04   4
   3   3  11-98.2036 186.659  21
   3  -3  11 425.018 410.809  17
   3   3  11 640.113 532.467   4
   4  -3  11 407.526 302.074  17
   4   3  11-170.676 243.844  21
   4  -3  11 203.318 438.698   5
   5  -3  11 463.624 396.162  17
   5  -3  11-120.645 201.543  16
   6  -3  11 294.282 361.375  17
   6  -3  11 370.082 425.921  16
   7  -3  11-51.0257 367.187  16
   8  -3  11 1752.37 776.213  16
  -8  -3 -11 1394.82 610.797  12
   9  -3  11 54.8730 195.509  16
  -9  -3 -11 27.3297 125.507  12
  10  -3  11-116.559 242.309  16
 -10  -3 -11-8.05533 128.266  12
  11  -3  11 5.61126 108.286  16
 -17   4  11 422.664 328.813  17
 -16   4  11 145.252 231.511  17
  16  -4 -11-67.7754 196.183  14
  15  -4 -11 127.647 150.751  14
  15   4 -11-168.943 231.493  13
  13   4 -11 591.628 426.393  10
  12  -4 -11-171.794 208.016  19
  12   4 -11 220.530 275.244  10
  11  -4 -11-171.311 214.615  19
  11   4 -11 1023.29 584.875  10
  10  -4 -11-556.925 393.927  19
  10   4 -11 1372.89 674.150  10
   9   4 -11 9377.17 2642.01  20
   9   4 -11 1027.33 579.928  10
   8   4 -11 159.796 436.961  20
   8   4 -11 7884.77 1670.57  10
   8  -4 -11 8434.30 1812.79   8
   7   4 -11 351.514 407.630  10
   7  -4 -11 3.56498 179.532   8
   6   4 -11 10717.1 1940.46  10
   6  -4 -11 11444.1 2070.40   8
   5   4 -11 8595.12 1722.55  10
   5  -4 -11 10435.7 1926.73   8
   4  -4 -11 6724.81 1526.14   8
   3  -4 -11 19179.7 2599.94   8
   2  -4 -11 207.448 8.91419   8
   2   4 -11 11547.1 3300.44  20
   1   4 -11 6322.43 2300.85  20
  -1   4  11-259.964 302.070  21
   1  -4 -11 9796.12 1859.35   8
  -1   4  11 11397.8 2332.53   4
   0   4 -11 2849.15 1271.51  20
   0   4  11 4470.02 1465.37   4
   0   4  11-310.596 327.058  21
   1  -4  11 1662.71 780.753  17
   1   4  11 4375.24 1407.32   4
   1   4  11 216.112 275.709  21
   2  -4  11 18909.6 2705.06  17
   2   4  11 20450.3 3168.87   4
   2   4  11-96.1036 184.728  21
   3  -4  11 1107.45 628.721  17
   3   4  11-346.429 349.639  21
   4  -4  11 1022.32 661.488  17
   5  -4  11 380.331 365.940  17
   5  -4  11 450.222 420.077  16
   5   4  11-76.5447 158.071  21
   6  -4  11-511.018 394.905  16
   7  -4  11 187.067 195.162  16
  -7  -4 -11 395.161 258.194  12
   8  -4  11-12.3789 95.1971  16
  -8  -4 -11-41.7088 147.709  12
   9  -4  11-72.3544 78.7669  16
  -9  -4 -11-139.700 270.143  12
 -10  -4 -11-1.40831 104.611  12
 -11  -4 -11 145.747 177.565  12
  15   5 -11 16.4170 80.2201  13
  14   5 -11 97.8585 133.557  13
  13   5 -11-41.1589 81.4858  13
  12   5 -11 142.290 243.241  13
  11  -5 -11 139.793 174.641  19
  11   5 -11 192.167 217.689  13
   9   5 -11 344.217 650.368  20
   8   5 -11 588.341 411.787  20
   7   5 -11 3529.88 1631.35  20
   6   5 -11 32535.6 5128.16  20
   5   5 -11 15647.5 2463.10  13
   5   5 -11 9286.39 2715.05  20
   4   5 -11 4675.44 1252.92  13
  -4   5  11-258.093 304.003  21
   4   5 -11 7958.02 2522.21  20
  -3   5  11-118.493 207.015  21
   3   5 -11 29582.6 4929.13  20
  -2   5  11-1080.99 624.069  21
   2   5 -11 16089.8 3690.97  20
  -1   5  11-151.213 231.551  21
   1   5 -11 16732.4 3727.84  20
   0   5 -11 317.767 708.654  20
   0   5  11-581.032 447.875  21
   1   5  11-325.578 333.526  21
   2   5  11 30.7481 102.397  21
   3   5  11 315.073 325.989  21
   4   5  11-356.199 339.724  21
  -5  -5 -11 5279.20 1191.91  12
   6   5  11-537.972 375.074  21
  -6  -5 -11 326.133 299.908  12
  -7  -5 -11 843.771 435.231  12
  -8  -5 -11 181.094 210.684  12
  -9  -5 -11 507.631 322.088  12
 -10  -5 -11-112.022 130.226  12
  14   6 -11-126.012 185.166  13
  13   6 -11-3.74212 84.9041  13
  12   6 -11 59.2742 191.634  13
  11   6 -11 141.693 127.257  13
  10   6 -11-112.477 244.961  13
   9   6 -11-123.184 365.599  20
   9   6 -11 12.8804 55.8477  13
   8   6 -11 131.829 342.442  20
   8   6 -11 134.676 259.980  13
   7   6 -11-89.1892 478.799  20
   7   6 -11-47.2077 133.571  13
   6   6 -11 5229.80 1887.72  20
   6   6 -11 433.668 327.631  13
   5   6 -11 1252.11 1052.24  20
   5   6 -11 5071.63 1283.83  13
   4   6 -11 742.967 764.958  20
   4   6 -11 856.837 526.300  13
  -4   6  11 239.444 286.201  21
   3   6 -11 959.272 906.999  20
  -3   6  11-574.466 446.203  21
   2   6 -11-377.551 529.894  20
  -2   6  11-430.526 385.940  21
   1   6 -11 587.948 736.814  20
  -1   6  11-66.5701 150.745  21
   0   6 -11 524.756 713.004  20
   0   6  11 151.348 224.448  21
  -1   6 -11 612.950 879.809  20
   1   6  11 161.791 228.226  21
   2   6  11-246.966 279.672  21
  -2  -6 -11 1320.61 563.399  12
   3   6  11 166.838 225.110  21
  -3  -6 -11 1958.72 682.662  12
   4   6  11 40.5929 107.060  21
  -4  -6 -11 18.9615 145.834  12
   5   6  11-290.193 270.663  21
  -5  -6 -11 152.165 163.991  12
   6   6  11-87.3546 135.872  21
  -6  -6 -11 70.3019 106.442  12
  -7  -6 -11-94.6495 162.224  12
  -8  -6 -11 85.9409 109.035  12
  12   7 -11 170.850 203.367  13
  11   7 -11-94.0976 153.794  13
  10   7 -11 71.6632 119.642  13
   9   7 -11 589.857 690.172  20
   9   7 -11-3.83242 135.038  13
   8   7 -11 467.526 717.376  20
   8   7 -11 545.335 312.362  13
   7   7 -11-202.100 531.761  20
   7   7 -11 359.554 306.264  13
   6   7 -11 48.5195 317.764  20
   6   7 -11 670.264 446.529  13
   5   7 -11-679.697 882.857  20
   5   7 -11 175.651 76.7008  13
   4   7 -11-90.3313 234.039  20
   4   7 -11 1742.30 662.579  13
  -4   7  11-64.9620 137.031  21
   3   7 -11-268.591 379.411  20
  -3   7  11 60.2184 134.157  21
   2   7 -11-604.889 795.489  20
  -2   7  11-122.958 192.588  21
   1   7 -11-880.208 823.238  20
  -1   7  11 166.512 222.986  21
   0   7 -11-276.039 465.488  20
   0   7  11 7.63018 47.0585  21
  -1   7 -11-287.374 431.663  20
   1   7  11-314.378 294.777  21
   2   7  11 315.163 287.706  21
   3   7  11 1.61080 19.8552  21
  -3  -7 -11 401.188 227.996  12
  -4  -7 -11 682.214 336.858  12
   5   7  11 76.2708 118.832  21
  -5  -7 -11-135.913 197.178  12
  -6  -7 -11 537.957 277.938  12
   9   8 -11 154.352 156.619  13
   8   8 -11-373.955 561.738  20
   8   8 -11-27.3915 76.7112  13
   7   8 -11-355.116 387.483  20
   7   8 -11 181.726 194.135  13
   6   8 -11 88.6273 402.028  20
   6   8 -11 433.581 310.934  13
   5   8 -11 297.867 506.860  20
   5   8 -11-44.5197 132.024  13
   4   8 -11 225.512 319.495  20
   4   8 -11 406.642 266.276  13
   3   8 -11 100.783 355.878  20
  -3   8  11-229.322 223.139  21
   2   8 -11 72.3683 423.420  20
   1   8 -11-296.254 448.124  20
  -1   8  11 48.7802 104.278  21
   0   8 -11 54.9991 215.818  20
   0   8  11-24.0969 71.9565  21
  -1   8 -11-145.206 253.219  20
   1   8  11-195.575 198.266  21
   3   8  11 50.9221 91.1923  21
 -18   0  12 369.126 316.810  17
  18   0 -12 35.2780 181.716   9
  17   0 -12-54.8655 135.632  10
 -17   0  12 605.723 513.210  17
  17   0 -12 351.775 286.615  14
  16   0 -12 133.544 230.293  10
 -16   0  12 1685.45 809.727  17
  16   0 -12 1815.45 653.882  14
 -15   0  12 267.023 307.659  17
  15   0 -12 182.682 277.276  14
 -14   0  12 5385.00 1677.26  17
  14   0 -12 7584.62 1481.98  14
 -13   0  12 789.327 627.307  17
  13   0 -12 1333.43 655.934  14
 -12   0  12 210.539 362.636  17
  12   0 -12 1.97205 132.143  14
 -11   0  12 25645.3 3543.83  17
 -10   0  12 12512.7 2840.09   6
 -10   0  12 10641.2 2246.67  17
  10   0 -12 9809.92 1697.68  15
  -9   0  12 6002.63 1875.25   6
  -9   0  12 6003.28 1627.20  17
   9   0 -12 6025.30 1375.41  15
  -8   0  12 44.5414 42.4395   6
  -7   0  12 5623.83 1719.48   6
  -6   0  12 21392.6 3291.84   6
  -5   0  12 22467.8 3312.50   6
  -4   0  12 58277.1 5139.11   6
  -3   0  12 17376.7 2770.63   6
  -2   0  12 1670.77 835.393   4
  -1   0  12 2219.79 949.066   4
   0   0  12 2728.63 1081.80   4
   1   0  12 3261.24 1158.96   4
   2   0  12 1819.95 880.426   4
   3   0  12 315.014 272.730  17
   4   0  12 11959.8 2163.28  17
   5   0  12 16377.8 2548.42  17
   5   0  12 17396.3 2548.08  16
   6   0  12 2165.04 925.812  17
   6   0  12 2302.40 908.793  16
   7   0  12 2029.24 840.985  17
   7   0  12 2930.25 975.806  16
   8   0  12 561.316 387.926  16
   9   0  12 3801.45 1049.53  16
  10   0  12 3570.20 949.072  16
  11   0  12 593.069 332.096  16
  12   0  12-5.75156 22.4098  16
 -18   1  12 161.821 167.402  17
  18   1 -12-49.8410 93.4410   9
  18  -1 -12-7.42890 100.445   9
  18  -1 -12 13.0360 50.0296  14
  17   1 -12-130.821 151.438  10
  17  -1 -12 221.903 182.747  10
 -17  -1  12 3.34803 131.154  17
 -17   1  12-23.4977 183.951  17
  17  -1 -12-150.425 223.600  14
  16   1 -12-8.78921 70.8630  10
 -16  -1  12 2.83354 195.504  17
 -16   1  12-149.198 246.618  17
  16  -1 -12 183.027 256.207  14
  15   1 -12 186.568 233.356  10
 -15  -1  12 350.403 217.338  17
  15  -1 -12 442.631 338.371  14
  14   1 -12 1731.59 718.229  10
 -14  -1  12 1220.53 818.560  17
  14   1 -12 2045.93 784.305  14
  14  -1 -12 2349.47 806.533  14
 -13  -1  12 2626.92 1071.49  17
  13   1 -12 4100.07 1170.92  14
  13  -1 -12 3825.51 1041.24  14
 -12  -1  12 1826.49 930.118  17
  12   1 -12 1904.70 734.435  14
 -11  -1  12 1888.23 977.894  17
  11   1 -12 1627.28 658.619  14
 -10  -1  12 152.910 453.378   6
 -10  -1  12 285.849 492.201  17
 -10   1  12 127.579 230.750   6
  10   1 -12 415.734 350.140  15
  10  -1 -12 142.025 329.448  15
  -9  -1  12 741.986 657.342   6
  -9  -1  12 1240.72 665.335  17
  -9   1  12 949.680 898.094   6
  -9   1  12 1254.92 712.069  17
   9   1 -12 979.455 470.486  15
  -8  -1  12 5006.69 1698.92   6
  -8   1  12 5160.59 1710.54   6
  -7  -1  12 13773.5 2724.46   6
  -7   1  12 10819.5 2456.47   6
  -6  -1  12 1358.90 769.418   6
  -6   1  12 1570.62 885.444   6
  -5  -1  12 880.615 716.410   6
  -5   1  12 419.178 423.641   6
  -4  -1  12-11.9704 121.450   6
  -4   1  12-73.8096 247.440   6
  -3   1  12 4801.88 1489.95   6
  -3  -1  12 5750.24 1510.78   6
  -2   1  12 12740.4 2310.88   6
  -1   1  12 970.973 627.530   4
   0   1  12 1980.23 895.592   4
   1   1  12 343.093 304.461   4
   2   1  12 538.087 502.804   4
   3  -1  12 512.592 433.548  17
   3  -1  12 242.376 388.399   5
   4  -1  12 669.267 535.199  17
   4  -1  12 435.074 379.435   5
   4   1  12 477.916 335.504  16
   5  -1  12 259.461 358.879  17
   5   1  12 3.11188 236.119  16
   5  -1  12 171.910 246.163  16
   6  -1  12 2522.88 957.818  17
   6   1  12 2890.56 966.972  16
   6  -1  12 3670.55 1108.85  16
   7  -1  12 15.9242 141.798  17
   7   1  12-50.0058 255.155  16
   7  -1  12-35.5388 143.339  16
   8   1  12 1893.21 784.539  16
   8  -1  12 2264.14 829.007  16
   9   1  12 250.657 190.924  16
   9  -1  12 502.748 331.133  16
  10   1  12 55.3527 94.0733  16
  10  -1  12 131.472 185.061  16
  11   1  12 648.513 349.461  16
  11  -1  12 720.264 382.725  16
  12  -1  12 128.273 123.199  16
 -18   2  12-13.6307 77.1621  17
  17   2 -12-87.3874 77.3498  10
 -17   2  12 223.221 155.915  17
  17   2 -12-11.8388 75.4027   9
  17  -2 -12 503.059 312.057  14
  16   2 -12-55.8217 94.4737  10
 -16   2  12 18.5267 227.567  17
  16  -2 -12-100.281 210.704  14
  15   2 -12-35.4644 97.6642  10
  15  -2 -12-4.68981 85.1287  14
  14   2 -12 346.854 388.720  10
  14  -2 -12-2.26418 127.724  14
  13   2 -12 220.268 225.881  10
  12   2 -12 2664.00 940.916  10
 -12  -2  12 1869.21 851.111  17
  11   2 -12 307.206 333.172  10
 -11  -2  12 61.8203 209.490  17
  10   2 -12 242.848 309.692  10
 -10  -2  12 363.739 440.945  17
   9   2 -12 407.813 419.786  10
  -9  -2  12 262.095 261.849   6
  -9  -2  12 234.833 193.150  17
  -9   2  12 119.165 193.974   6
  -9   2  12 268.247 218.433  17
   8   2 -12 1448.51 719.867  10
  -8  -2  12 1643.35 957.409   6
  -8  -2  12 1183.54 716.963  17
  -8   2  12 1872.89 984.156   6
  -8   2  12 1556.01 864.806  17
  -7  -2  12 3419.69 1326.06   6
  -7   2  12 2489.45 1185.58   6
  -6  -2  12 830.573 686.859   6
  -6   2  12 859.765 609.675   6
  -5   2  12 10463.6 2283.11   6
   5  -2 -12 10517.9 1935.59   8
  -5  -2  12 10205.0 2235.01   6
  -4   2  12 1782.47 910.792   6
   4  -2 -12 1696.47 786.957   8
  -3   2  12 24415.6 3296.46   6
   3  -2 -12 26073.7 2952.36   8
   2  -2 -12 1354.20 652.777   8
  -2   2  12 1199.07 635.250   6
  -1   2  12 682.379 524.951   4
   0   2  12 1727.04 878.230   4
   1   2  12 175.735 313.822   4
   2  -2  12 5787.71 1428.06  17
   2   2  12 5361.95 1546.00   4
   3  -2  12 1239.57 652.678  17
   3  -2  12 2073.93 965.855   5
   3   2  12 2539.62 1125.57   4
   4  -2  12 2408.39 925.104  17
   5  -2  12 1291.18 637.727  17
   5  -2  12 913.123 573.618  16
   6  -2  12-111.259 234.591  17
   6  -2  12 5.42014 145.936  16
   7  -2  12 1150.90 638.138  16
   8  -2  12-54.9870 277.431  16
  -8  -2 -12-134.889 321.749  12
   9  -2  12 763.249 425.227  16
  10  -2  12 124.937 85.3903  16
  11  -2  12 204.384 232.970  16
 -17   3  12 195.065 248.369  17
  16   3 -12 254.847 267.949   9
 -16   3  12 352.644 391.112  17
  16  -3 -12-143.335 186.577  14
  15   3 -12 362.727 300.520  10
  15   3 -12 153.492 187.688   9
  15  -3 -12 1112.39 472.379  14
  14   3 -12 152.915 218.594  10
  13   3 -12 2624.06 867.453  10
  12   3 -12-2.08522 196.616  10
  11   3 -12-99.3370 268.942  10
  10   3 -12 368.128 404.263  10
 -10   3  12 355.765 384.336  17
   9   3 -12 2090.88 838.240  10
  -9   3  12 1767.75 946.350  17
   8   3 -12-180.913 363.295  10
  -8   3  12-227.981 606.726   6
  -8   3  12 38.6500 257.944  17
   7   3 -12 4220.95 1214.18  10
  -7   3  12 4329.13 1599.31   6
   7  -3 -12 4573.29 1318.23   8
   6   3 -12 2154.96 869.851  10
   6  -3 -12 3165.80 1067.18   8
   5  -3 -12 8625.20 1783.21   8
   4  -3 -12 18212.1 2592.00   8
   3  -3 -12 14.9927 34.0997   8
   2  -3 -12 41091.7 3842.64   8
  -2   3  12 45907.0 4716.06   4
  -1   3  12-10.6311 40.0395   4
  -1   3  12-108.327 194.372  21
   0  -3  12 30548.8 3503.24  17
   0   3  12-1333.03 684.457  21
   0   3  12 31104.4 3882.60   4
   1  -3  12 4286.58 1293.15  17
   1   3  12 3908.22 1394.53   4
   1   3  12-23.2413 91.0973  21
   2  -3  12 2447.73 1007.68  17
   2   3  12 3702.75 1351.11   4
   2   3  12-210.992 274.994  21
   3  -3  12 3193.67 1100.61  17
   3   3  12-241.707 291.828  21
   4  -3  12 4661.80 1336.38  17
   5  -3  12 3512.77 1141.80  17
   5  -3  12 4398.13 1231.11  16
   6  -3  12 1938.85 834.286  17
   6  -3  12 1268.05 630.644  16
   7  -3  12 1932.48 712.473  16
   8  -3  12 117.395 169.109  16
  -8  -3 -12 81.9866 44.8130  12
   9  -3  12-42.0541 113.581  16
  -9  -3 -12 26.8241 56.1330  12
  10  -3  12 249.455 262.314  16
  11  -3  12 177.190 168.459  16
 -16   4  12-525.671 417.994  17
  16   4 -12-48.7361 94.1064  13
 -15   4  12 473.357 402.633  17
  15   4 -12-68.8162 114.350  13
 -14   4  12 395.677 396.573  17
 -13   4  12-125.812 338.077  17
  12   4 -12 20.3072 106.697  10
 -12   4  12-180.170 348.781  17
  11   4 -12 53.1196 162.095  10
  10   4 -12 4180.75 1664.55  20
  10   4 -12 191.560 309.347  10
   9   4 -12 1488.68 1133.31  20
   9   4 -12 2546.46 927.491  10
   8   4 -12 2014.08 1255.25  20
   8   4 -12 493.978 331.341  10
   7   4 -12 998.226 578.185  10
   5   4 -12 178.406 634.946  20
   5  -4 -12 17501.2 2638.96   8
  -5   4  12-1197.20 652.314  21
   4   4 -12 3428.89 1624.69  20
   4  -4 -12-180.761 362.178   8
  -4   4  12 86.0290 176.368  21
   3   4 -12 516.486 390.536  20
   3  -4 -12 570.240 504.236   8
  -3   4  12 42.1414 123.790  21
  -2   4  12 646.431 565.505   4
   2  -4 -12 214.744 120.606   8
   2   4 -12 20888.5 4189.81  20
   1   4 -12 8964.35 2647.03  20
  -1   4  12 9827.18 2237.06   4
   0   4 -12 9531.33 2653.84  20
   0  -4  12 4475.20 1244.68  17
   1  -4  12 4160.09 1258.32  17
   2  -4  12 15386.2 2466.14  17
   2   4  12-499.648 416.186  21
   3  -4  12 206.709 339.851  17
   3   4  12-256.401 295.518  21
   4  -4  12 1846.87 804.637  17
   4  -4  12 1488.06 720.712  16
   4   4  12-82.1424 163.502  21
   5  -4  12-78.3662 266.881  17
   5  -4  12 60.6323 247.336  16
   6  -4  12 172.384 185.073  16
   7  -4  12 1109.16 511.392  16
  -7  -4 -12 1129.06 551.664  12
   8  -4  12 95.8718 170.619  16
  -8  -4 -12-45.6161 99.7150  12
   9  -4  12 213.099 177.453  16
  -9  -4 -12 557.935 340.383  12
 -10  -4 -12 43.3791 37.0645  12
  15   5 -12-32.5660 47.3058  13
  14   5 -12-58.3736 128.432  13
  13   5 -12-76.7868 115.158  13
  12   5 -12 242.865 276.546  13
  11   5 -12-5.37094 64.8815  13
  10   5 -12 775.891 748.401  20
  10   5 -12 1280.12 738.633  13
   9   5 -12 4446.18 1728.99  20
   8   5 -12 2967.74 1474.04  20
   7   5 -12 3027.36 1508.11  20
   6   5 -12 1724.66 948.468  20
   6   5 -12 1370.17 751.600  13
   5   5 -12 1013.08 932.284  20
   5   5 -12 910.490 572.980  13
   4   5 -12 865.223 844.946  20
  -4   5  12-252.250 298.364  21
   3   5 -12 2343.25 1391.99  20
   2   5 -12 4608.39 2080.58  20
  -2   5  12-444.564 394.891  21
   1   5 -12 228.504 144.200  20
  -1   5  12-504.782 416.843  21
   0   5 -12 605.037 953.967  20
   0   5  12-352.666 343.742  21
   1   5  12 280.732 305.804  21
   3   5  12-531.061 409.999  21
   4   5  12-620.333 426.909  21
  -5  -5 -12 1545.97 604.518  12
  -6  -5 -12 167.777 143.830  12
  -7  -5 -12 274.587 227.941  12
  -8  -5 -12 39.3302 143.732  12
  -9  -5 -12 487.514 271.721  12
  13   6 -12-58.9949 181.021  13
  12   6 -12-3.02695 118.684  13
  11   6 -12 117.986 174.324  13
  10   6 -12 113.074 239.283  20
  10   6 -12 81.8739 177.338  13
   9   6 -12-368.950 503.872  20
   9   6 -12 1030.53 642.207  13
   8   6 -12 372.165 534.060  20
   8   6 -12-35.5073 28.8821  13
   7   6 -12 1274.30 945.394  20
   7   6 -12 761.114 506.499  13
   6   6 -12 110.755 161.817  20
   6   6 -12 2465.10 886.791  13
   5   6 -12-66.7430 619.950  20
   5   6 -12 1673.81 689.875  13
   4   6 -12 30.9087 362.636  20
  -4   6  12-53.2076 131.129  21
   3   6 -12-448.125 892.926  20
   2   6 -12 1.95699 523.605  20
  -2   6  12-172.702 237.951  21
   1   6 -12-369.388 492.043  20
  -1   6  12 190.834 248.043  21
   0   6 -12-964.536 782.253  20
   0   6  12-240.246 273.757  21
   1   6  12-155.935 216.153  21
  -2  -6 -12 4152.00 989.654  12
   3   6  12 54.0499 120.970  21
  -3  -6 -12 873.139 426.841  12
   4   6  12 95.3644 152.856  21
  -4  -6 -12 119.734 148.864  12
  -5  -6 -12 273.549 207.023  12
  -6  -6 -12 133.175 185.744  12
  -7  -6 -12 1403.95 456.894  12
  11   7 -12 4.12934 39.7846  13
  10   7 -12-45.9694 130.786  13
   9   7 -12-22.9178 88.5804  20
   9   7 -12 172.641 171.245  13
   8   7 -12 54.3374 194.101  20
   8   7 -12 478.803 316.047  13
   7   7 -12-386.389 544.239  20
   7   7 -12-145.815 237.489  13
   6   7 -12-201.200 397.550  20
   6   7 -12 766.835 394.114  13
   5   7 -12-65.3885 406.585  20
   5   7 -12 41.7527 122.514  13
   4   7 -12 20.2692 260.628  20
  -4   7  12-294.205 276.661  21
   3   7 -12-920.294 849.221  20
  -3   7  12-124.591 183.317  21
   2   7 -12 23.6127 314.646  20
   1   7 -12 432.318 648.838  20
   0   7 -12 759.169 788.363  20
   2   7  12-142.696 179.301  21
  -3  -7 -12 459.734 269.577  12
   3   7  12 76.1790 124.556  21
  -4  -7 -12 64.3321 119.333  12
   8   8 -12 76.9538 205.780  20
   7   8 -12 241.486 49.2170  20
   6   8 -12-190.214 199.945  20
   6   8 -12 923.852 370.121  13
   5   8 -12 129.814 53.1561  20
   4   8 -12-756.445 691.070  20
   3   8 -12-314.004 391.755  20
   2   8 -12 89.3823 175.122  20
  -2   8  12 0.50666 9.70707  21
   1   8 -12-116.965 124.774  20
  -1   8  12-93.7516 131.569  21
   0   8  12-254.875 211.858  21
   1   8  12-10.9710 42.0847  21
  17   0 -13 156.098 174.643  10
 -17   0  13-15.6119 115.970  17
  16   0 -13 81.6041 75.1185  10
 -16   0  13-73.1834 205.570  17
  15   0 -13 117.824 204.112  10
 -15   0  13 148.202 220.164  17
  15   0 -13-59.3591 199.701  14
 -14   0  13 72.1259 124.181  17
  14   0 -13-94.8810 232.425  14
 -13   0  13 257.962 210.213  17
  13   0 -13 71.4753 181.649  14
 -12   0  13 357.083 445.971  17
 -11   0  13 124.439 101.086  17
  11   0 -13 33.3577 107.694  15
 -10   0  13 83.9646 42.9201  17
  10   0 -13-86.7798 72.7609  15
  -9   0  13-162.674 328.934   6
  -9   0  13-227.463 492.045  17
   9   0 -13 31.8454 177.168  15
  -8   0  13-50.9824 289.033   6
  -8   0  13-226.938 484.471  17
   8   0 -13 124.436 136.390  15
  -7   0  13-351.517 551.952   6
  -7   0  13-16.0284 158.179  17
   7   0 -13 115.660 367.828  15
  -6   0  13 200.527 494.665   6
  -5   0  13 169.052 297.148   6
  -4   0  13-165.055 340.055   6
  -3   0  13 218.526 469.351   4
  -2   0  13 89.1986 135.680   4
  -1   0  13-133.425 347.782   4
   0   0  13 14.3386 55.1914  17
   0   0  13-63.7951 84.4657   4
   1   0  13-15.8675 176.005  17
   1   0  13 13.9315 263.075   4
   2   0  13-147.657 404.924  17
   3   0  13 9.33132 270.370  17
   4   0  13-29.2205 94.0180  17
   4   0  13 31.6562 58.8507  16
   5   0  13 156.960 163.419  17
   5   0  13 236.815 364.362  16
   6   0  13-285.433 390.781  17
   6   0  13-155.696 386.581  16
   7   0  13 82.7600 203.110  16
   8   0  13-12.3169 129.199  16
   9   0  13-29.6449 125.899  16
  10   0  13-29.0029 165.147  16
  11   0  13-56.9133 103.045  16
  17   1 -13 17.6917 84.9629  10
  17  -1 -13 116.175 137.675  10
 -17  -1  13 42.1893 102.313  17
 -17   1  13 136.454 19.3417  17
  16   1 -13-85.8973 169.455  10
 -16  -1  13 165.017 264.452  17
 -16   1  13 155.113 246.933  17
  16  -1 -13-80.1018 126.324  14
  15   1 -13-73.3065 142.014  10
 -15  -1  13 300.049 339.022  17
 -15   1  13 209.307 325.341  17
  15  -1 -13-25.0188 120.707  14
  14   1 -13-150.678 246.098  10
 -14  -1  13 43.8951 37.7157  17
 -14   1  13 44.3828 282.042  17
  13   1 -13 1279.71 613.777  10
 -13  -1  13 1018.53 693.674  17
 -13   1  13 700.371 514.832  17
 -12  -1  13 778.625 640.893  17
 -12   1  13 1045.50 664.384  17
 -11  -1  13 195.231 168.734  17
 -11   1  13 178.552 298.988  17
  11  -1 -13-137.277 302.788  15
 -10  -1  13 215.096 89.9405  17
 -10   1  13 944.606 615.888  17
  10   1 -13 856.630 526.377  15
  10  -1 -13 568.138 386.493  15
  -9  -1  13 8266.34 2287.75   6
  -9   1  13 6621.89 2060.91   6
  -9  -1  13 8248.89 1904.16  17
  -9   1  13 7401.75 1824.99  17
   9   1 -13 7690.78 1560.82  15
   9  -1 -13 8225.84 1613.41  15
  -8  -1  13 6796.36 1921.46   6
  -8   1  13 5629.90 1884.46   6
  -8  -1  13 6672.92 1699.92  17
  -8   1  13 5774.21 1628.26  17
   8   1 -13 5536.73 1364.43  15
   8  -1 -13 5765.62 1370.69  15
  -7  -1  13 6375.91 1833.42   6
  -7   1  13 6305.38 1909.31   6
  -7  -1  13 6795.06 1701.18  17
  -7   1  13 7536.01 1800.20  17
   7   1 -13 6968.01 1505.88  15
   7  -1 -13 7213.13 1524.45  15
  -6  -1  13 13288.9 2612.71   6
  -6   1  13 13625.9 2730.42   6
  -6  -1  13 12570.3 2338.89  17
  -6   1  13 11290.5 2215.99  17
   6   1 -13 12391.2 2005.43  15
  -5  -1  13 1244.76 738.923   6
  -5   1  13 701.423 670.524   6
  -4   1  13 3168.54 1199.80   6
  -4  -1  13 2839.08 1103.66   6
  -3   1  13 2300.99 1019.00   6
  -2   1  13 2762.86 1119.26   4
  -1  -1  13 487.832 358.218  17
  -1   1  13 600.446 583.208   4
   0  -1  13 331.684 181.947  17
   0   1  13 458.633 475.675  17
   0   1  13 827.920 650.405   4
   1  -1  13 10123.6 1998.83  17
   1   1  13 8531.92 1784.84  17
   1   1  13 10029.0 2173.27   4
   2  -1  13 1188.18 705.189  17
   2   1  13 958.060 564.548  17
   2  -1  13 665.855 572.711   5
   2   1  13 1053.73 652.561   4
   3  -1  13 4990.09 1439.79  17
   3   1  13 5462.85 1391.74  16
   4  -1  13 8163.94 1753.19  17
   4   1  13 8666.06 1764.77  16
   5  -1  13 350.220 461.297  17
   5   1  13 149.387 266.078  16
   5  -1  13 450.229 386.843  16
   6  -1  13 305.018 292.373  17
   6   1  13 314.349 343.730  16
   6  -1  13 610.381 395.674  16
   7   1  13 874.152 443.684  16
   7  -1  13 908.501 520.680  16
   8   1  13 916.831 510.364  16
   8  -1  13 1103.38 548.585  16
   9   1  13 398.999 338.842  16
   9  -1  13 445.902 396.495  16
  10   1  13 84.4548 194.087  16
  10  -1  13 141.913 125.118  16
  11  -1  13 1465.31 472.814  16
  17  -2 -13-63.2276 47.3937  10
 -17   2  13 296.314 285.825  17
  17   2 -13-65.6026 205.296   9
  16   2 -13-21.0282 156.602  10
 -16   2  13-172.020 251.056  17
  16  -2 -13-111.374 143.576  14
  15   2 -13 90.7436 189.758  10
 -15   2  13 5.54373 99.1784  17
  14   2 -13 282.621 237.649  10
 -14   2  13 601.523 489.821  17
  13   2 -13 482.557 354.208  10
 -13  -2  13 804.664 603.985  17
 -13   2  13 467.947 488.614  17
  12   2 -13 1318.60 613.201  10
 -12  -2  13 1061.32 690.783  17
 -12   2  13 1511.82 887.279  17
  11   2 -13 3953.41 1106.02  10
 -11  -2  13 3791.54 1316.40  17
 -11   2  13 3260.78 1241.53  17
  11  -2 -13 4153.65 1077.95  15
  10   2 -13 1468.67 714.844  10
 -10  -2  13 1458.41 773.192  17
 -10   2  13 886.319 676.080  17
   9   2 -13 5659.07 1416.80  10
  -9  -2  13 5351.60 1521.55  17
  -9   2  13 5618.59 1655.60  17
   8   2 -13 553.244 418.233  10
  -8  -2  13 676.035 619.874   6
  -8  -2  13 589.551 518.651  17
  -8   2  13 397.343 445.912   6
  -8   2  13 696.382 556.034  17
  -7   2  13 9734.55 2386.92   6
   7   2 -13 8739.49 1727.33  10
  -7  -2  13 9607.58 2043.09  17
  -7   2  13 10288.4 2148.77  17
  -7  -2  13 9088.43 2200.42   6
  -6   2  13 24854.4 3728.89   6
  -6  -2  13 28237.2 3483.93  17
  -6   2  13 25213.8 3322.02  17
  -6  -2  13 28816.7 3876.71   6
  -5   2  13 421.901 534.476   6
  -5  -2  13 742.422 490.020  17
  -5   2  13 328.565 67.4467  17
  -4   2  13 21616.9 3274.91   6
  -4  -2  13 25349.4 3276.39  17
  -3  -2  13 2441.78 943.266  17
  -3   2  13 2051.92 939.664   6
  -2   2  13 623.801 536.435   4
  -2  -2  13 404.805 333.651  17
  -1  -2  13 454.796 425.126  17
  -1   2  13 163.333 414.898   4
   0  -2  13-267.794 385.521  17
   0   2  13-33.8400 145.994   4
   1  -2  13 2473.77 995.297  17
   1   2  13 2037.72 956.127   4
   2  -2  13 7061.71 1608.06  17
   3  -2  13 34.2403 192.194  17
   4  -2  13 13179.2 2221.31  17
   5  -2  13 4073.20 1222.17  17
   5  -2  13 4164.24 1264.67  16
   6  -2  13-215.962 348.073  17
   6  -2  13-5.65658 89.4332  16
   7  -2  13 467.758 357.015  16
   8  -2  13 823.666 493.303  16
   9  -2  13 661.542 387.722  16
  10  -2  13 58.6577 112.928  16
 -16   3  13 174.904 264.262  17
  15   3 -13 6.83479 45.7224  10
 -15   3  13-129.630 216.657  17
  14   3 -13 266.022 284.021  10
 -14   3  13 1005.36 636.752  17
  13   3 -13 274.155 298.158  10
 -13   3  13-7.51710 286.422  17
  12   3 -13-52.1191 71.4421  10
 -12   3  13 105.310 358.288  17
  12  -3 -13-108.060 185.099  15
  11   3 -13 291.635 299.746  10
 -11   3  13 456.276 485.358  17
  10   3 -13 270.475 195.331  10
 -10   3  13 332.925 494.617  17
   9   3 -13 151.538 238.941  10
  -9   3  13-258.704 463.097  17
   8   3 -13 10877.8 1921.15  10
  -8   3  13 9857.15 2133.56  17
   7   3 -13 8532.07 1694.53  10
  -6  -3  13 228.181 302.247  17
  -5  -3  13 14495.7 2400.40  17
   5  -3 -13 13432.5 2300.44   8
  -4  -3  13 5323.95 1438.00  17
   4  -3 -13 4365.74 1292.77   8
  -3  -3  13 6794.20 1636.91  17
   3  -3 -13 4430.26 1301.37   8
  -2   3  13-56.3027 179.226   4
  -2  -3  13 90.0815 345.073  17
   1   3 -13 638.529 761.664  20
  -1  -3  13 15221.0 2494.79  17
  -1   3  13 11755.7 2505.81   4
   0  -3  13 1699.39 833.875  17
   1  -3  13 2225.20 897.997  17
   2  -3  13 26.8263 148.498  17
   3  -3  13 1859.27 914.486  17
   4  -3  13 497.365 445.091  17
   5  -3  13 397.933 316.806  17
   5  -3  13 72.1980 199.226  16
   6  -3  13 133.825 201.311  16
   7  -3  13-65.5996 81.2095  16
  -7  -3 -13-78.3413 91.9063  12
   8  -3  13-24.5499 133.940  16
  -8  -3 -13 103.657 220.308  12
   9  -3  13 514.619 303.851  16
  -9  -3 -13 343.128 199.102  12
  10  -3  13-37.5784 91.0605  16
 -15   4  13 448.719 374.797  17
  15   4 -13 43.2398 45.7825  13
 -14   4  13 170.697 210.029  17
 -13   4  13 653.652 466.776  17
 -12   4  13-108.379 422.693  17
  11   4 -13 66.8634 384.567  20
  10   4 -13 1705.12 956.470  20
  10   4 -13 118.954 202.687  10
   9   4 -13-75.6400 268.275  20
   9   4 -13 1095.04 603.587  10
   8   4 -13 1883.78 1152.09  20
   7   4 -13 14690.8 3401.32  20
   6   4 -13 8593.03 2707.07  20
   5   4 -13 1232.50 1077.25  20
   4   4 -13 12692.8 3309.95  20
   3   4 -13 175.485 312.005  20
  -3   4  13-499.642 422.350  21
   2   4 -13-261.322 492.860  20
  -2   4  13 134.798 217.805  21
   1   4 -13 5395.72 1955.46  20
  -1  -4  13 15.4182 362.146  17
  -1   4  13 43.0423 121.438  21
   0  -4  13 2971.26 1033.96  17
   0   4  13 98.5049 182.220  21
   1  -4  13 1655.06 780.998  17
   1   4  13-535.153 425.402  21
   2  -4  13 11946.3 2093.97  17
   3  -4  13 214.361 236.745  17
   4  -4  13 3261.60 1071.20  17
   4  -4  13 2671.04 936.773  16
   5  -4  13 793.146 401.658  16
   6  -4  13-53.0353 206.146  16
  -6  -4 -13-43.4804 79.2678  12
   7  -4  13 1260.20 515.287  16
  -7  -4 -13 1294.36 530.267  12
   8  -4  13 99.4312 108.249  16
  -8  -4 -13 155.750 147.910  12
  -9  -4 -13-36.3430 75.4720  12
  14   5 -13-52.1330 8.70479  13
  13   5 -13-119.934 161.332  13
  12   5 -13 66.8561 170.574  13
  11   5 -13 12.9947 155.914  13
  10   5 -13 44.0296 103.766  20
  10   5 -13 28.9248 104.794  13
   9   5 -13 816.349 820.020  20
   9   5 -13 28.8812 180.804  13
   8   5 -13 1877.36 1070.77  20
   8   5 -13 58.7926 371.225  13
   7   5 -13 832.412 552.637  20
   7   5 -13 588.478 526.365  13
   6   5 -13-248.918 568.805  20
   6   5 -13 763.308 545.445  13
   5   5 -13-82.7413 447.246  20
   4   5 -13 713.501 814.358  20
  -4   5  13-276.605 306.159  21
   3   5 -13 259.489 255.033  20
  -3   5  13 323.580 331.943  21
   2   5 -13 796.694 906.156  20
  -2   5  13 83.0663 167.480  21
   1   5 -13 2280.64 1524.57  20
  -1   5  13-278.235 303.170  21
   0   5 -13 973.733 1159.54  20
   0   5  13-62.3747 141.013  21
   1   5  13 316.982 315.030  21
   2   5  13-327.844 314.318  21
  -4  -5 -13 551.831 366.612  12
  -5  -5 -13 1620.27 577.576  12
  -6  -5 -13 399.812 276.773  12
  -7  -5 -13 279.947 198.347  12
  -8  -5 -13 60.3401 67.2621  12
  13   6 -13 25.8919 36.0592  13
  12   6 -13-19.5729 21.8686  13
  11   6 -13 216.407 230.899  13
  10   6 -13 80.4996 292.521  20
  10   6 -13-21.0225 56.0521  13
   9   6 -13-222.362 619.769  20
   9   6 -13 56.6218 159.092  13
   8   6 -13 415.342 531.134  20
   8   6 -13 420.771 271.509  13
   7   6 -13-1.61896 206.350  20
   7   6 -13-133.759 237.083  13
   6   6 -13 8.75216 184.812  20
   6   6 -13 172.906 229.252  13
   5   6 -13-137.389 420.555  20
   4   6 -13 188.943 397.283  20
  -4   6  13 66.9817 140.133  21
   3   6 -13-204.196 354.579  20
  -3   6  13 124.736 192.965  21
   2   6 -13-116.156 452.664  20
  -2   6  13-438.017 361.154  21
   1   6 -13 324.062 656.236  20
  -1   6  13-383.339 334.274  21
   0   6 -13-522.117 751.541  20
   0   6  13-14.3176 63.3049  21
   1   6  13 107.985 169.664  21
  -1  -6 -13 62.0177 145.227  12
   2   6  13 363.591 302.377  21
  -2  -6 -13 229.544 206.889  12
  -3  -6 -13 19.9771 125.250  12
  -4  -6 -13 208.799 222.186  12
  -5  -6 -13 2.32791 90.5304  12
  -6  -6 -13 546.058 252.241  12
  10   7 -13 89.3781 110.759  13
   9   7 -13-365.862 403.743  20
   9   7 -13-13.8297 42.8337  13
   8   7 -13 6.77022 45.5133  20
   8   7 -13 1777.43 582.961  13
   7   7 -13 40.3132 327.648  20
   7   7 -13 1447.16 517.438  13
   6   7 -13-386.790 461.545  20
   6   7 -13 131.940 120.235  13
   5   7 -13-5.71794 207.356  20
   4   7 -13-366.550 510.889  20
   3   7 -13 327.470 369.672  20
   2   7 -13-218.344 394.314  20
  -2   7  13 22.5447 72.5022  21
   1   7 -13-467.840 522.023  20
  -1   7  13-128.821 171.268  21
   0   7 -13 214.729 326.208  20
   0   7  13-257.653 235.869  21
   5   8 -13-159.599 348.751  20
   4   8 -13 10.9369 209.205  20
 -17   0  14-104.010 266.328  17
  16   0 -14 23.9710 85.0643  10
 -16   0  14-74.7965 50.8474  17
  15   0 -14 86.6603 129.044  10
 -15   0  14 1194.02 661.675  17
 -14   0  14 1778.20 828.719  17
 -13   0  14 3593.13 1200.76  17
 -12   0  14 504.138 429.580  17
 -11   0  14 5842.34 1621.57  17
  11   0 -14 5989.21 1320.93  15
 -10   0  14 4608.00 1409.32  17
  10   0 -14 3904.24 1091.65  15
  -9   0  14 409.583 343.123  17
   9   0 -14 507.541 396.594  15
  -8   0  14 4816.86 1384.89  17
   8   0 -14 5338.78 1299.53  15
  -7   0  14 11627.6 2247.71  17
   7   0 -14 10559.1 1842.91  15
  -6   0  14 9615.64 2255.61   6
  -6   0  14 11004.4 2187.12  17
   6   0 -14 11285.4 1899.93  15
  -5   0  14 1731.36 908.900   6
  -5   0  14 2438.53 977.571  17
   5   0 -14 2161.10 796.470  15
  -4   0  14 9997.02 2029.25  17
   4   0 -14 9902.74 1787.22  15
  -4   0  14 8230.46 1961.09   4
  -3   0  14 2441.72 1074.17   4
  -3   0  14 3939.96 1279.75  17
   3   0 -14 3448.67 1046.84  15
  -2   0  14 6516.66 1610.48  17
   2   0 -14 5214.86 1316.25  15
  -2   0  14 5312.48 1581.01   4
  -1   0  14 9308.62 1926.34  17
  -1   0  14 6728.87 1774.26   4
   0   0  14 605.735 440.936  17
   1   0  14 19490.1 2796.90  17
   2   0  14 1427.02 702.168  17
   3   0  14 2756.14 1007.43  17
   4   0  14 1898.08 855.965  17
   4   0  14 2542.64 917.081  16
   5   0  14 408.595 290.245  17
   5   0  14 694.234 501.746  16
   6   0  14 211.349 210.012  17
   6   0  14-30.8485 135.605  16
   7   0  14 313.687 272.304  16
   8   0  14 326.996 230.812  16
   9   0  14 232.754 187.111  16
  10   0  14 255.565 178.241  16
 -17   1  14-229.995 207.258  17
  16   1 -14-4.22013 108.722  10
  16  -1 -14-2.99459 111.543  10
 -16  -1  14 6.30899 90.1865  17
 -16   1  14-72.0076 127.874  17
  15   1 -14-48.1993 80.5481  10
 -15  -1  14 1074.99 554.588  17
 -15   1  14 1419.15 685.406  17
  14   1 -14 180.108 289.497  10
 -14  -1  14-128.015 155.142  17
 -14   1  14-27.7235 284.908  17
  13   1 -14 133.639 151.234  10
 -13  -1  14 332.116 322.003  17
 -13   1  14 13.4259 345.600  17
  12   1 -14 122.067 167.184  10
 -12  -1  14 446.744 415.109  17
 -12   1  14-74.5466 329.955  17
  12  -1 -14 69.7187 69.2812  15
  11   1 -14-47.2477 190.653  10
 -11  -1  14 218.419 342.744  17
 -11   1  14 46.9677 145.086  17
  11  -1 -14 98.0503 72.5067  15
 -10  -1  14 2363.19 1069.42  17
 -10   1  14 2235.01 1027.80  17
  10   1 -14 2070.15 799.052  15
  10  -1 -14 2025.11 766.171  15
  -9  -1  14 411.968 454.660  17
  -9   1  14 221.459 207.068  17
   9   1 -14 16.6711 285.357  15
   9  -1 -14 216.619 289.444  15
  -8  -1  14 11830.8 2287.68  17
  -8   1  14 12989.3 2416.28  17
   8   1 -14 12072.1 1960.39  15
   8  -1 -14 13623.9 2063.53  15
  -7  -1  14 1205.93 749.029  17
  -7   1  14 962.364 619.206  17
   7   1 -14 955.717 559.167  15
   7  -1 -14 1125.12 632.275  15
  -6  -1  14 583.749 549.660   6
  -6   1  14 403.487 434.622   6
  -6  -1  14 457.962 482.814  17
  -6   1  14 535.849 571.910  17
   6   1 -14 391.119 207.199  15
   6  -1 -14 510.014 373.675  15
  -5   1  14 606.745 575.613   6
  -5  -1  14 518.487 349.976  17
  -5   1  14 179.788 391.407  17
   5   1 -14 224.412 183.489  15
   5  -1 -14 296.213 95.1312  15
  -4  -1  14 461.904 378.229  17
  -4   1  14 79.6114 267.905  17
   4   1 -14 209.183 148.342  15
   4  -1 -14 145.350 314.947  15
  -4   1  14 235.658 331.515   6
  -3  -1  14 6769.89 1632.65  17
  -3   1  14 6304.68 1613.88  17
   3   1 -14 5504.84 1347.56  15
   3  -1 -14 6107.27 1401.19  15
  -3   1  14 5798.79 1685.99   4
  -2  -1  14 1504.49 721.237  17
  -2   1  14 1681.55 766.242  17
   2  -1 -14 1852.73 765.728  15
  -2   1  14 1554.80 870.835   4
  -1  -1  14 3278.44 1156.03  17
  -1   1  14 3235.84 1119.29  17
   0  -1  14 2023.96 905.000  17
   0   1  14 2156.68 859.327  17
   1  -1  14 389.437 306.919  17
   1   1  14 347.112 176.125  17
   2  -1  14 1637.03 740.339  17
   2   1  14 1151.33 552.500  17
   3  -1  14-25.9020 229.808  17
   3   1  14 299.271 263.873  16
   4  -1  14 1749.81 805.017  17
   4   1  14 1377.23 656.663  16
   4  -1  14 1960.68 801.085  16
   5  -1  14 348.991 456.020  17
   5   1  14 239.755 151.068  16
   5  -1  14 513.889 375.834  16
   6  -1  14-112.503 260.025  17
   6   1  14 142.576 136.386  16
   6  -1  14-94.1924 161.022  16
   7   1  14 146.492 188.697  16
   7  -1  14 38.6231 177.077  16
   8   1  14-39.0709 167.786  16
   8  -1  14 88.6951 218.189  16
   9   1  14 9.90637 64.7407  16
   9  -1  14-17.7897 38.0798  16
  10  -1  14-84.4432 141.986  16
 -17   2  14 107.553 194.522  17
  16   2 -14 98.1848 110.755  10
 -16   2  14 103.993 124.905  17
  16   2 -14 88.9768 174.775   9
  15   2 -14 182.573 244.270  10
 -15   2  14 73.1704 148.766  17
  14   2 -14 224.901 211.644  10
 -14   2  14 417.427 356.377  17
  13   2 -14 370.920 236.205  10
 -13  -2  14 383.514 286.691  17
 -13   2  14 612.962 476.589  17
  12   2 -14 325.836 279.630  10
 -12  -2  14 508.468 393.254  17
 -12   2  14 508.433 405.864  17
  12  -2 -14 463.381 330.377  15
  11   2 -14 623.754 394.355  10
 -11  -2  14 456.379 384.955  17
 -11   2  14 654.294 534.301  17
  11  -2 -14 820.766 456.750  15
  10   2 -14 167.157 241.705  10
 -10  -2  14 25.7119 70.4570  17
 -10   2  14 23.8683 241.597  17
  10  -2 -14 317.317 280.142  15
   9   2 -14 33.5727 223.637  10
  -9  -2  14-236.835 372.181  17
  -9   2  14-67.6425 128.218  17
   9  -2 -14 246.093 215.497  15
   8   2 -14 2236.19 846.965  10
  -8  -2  14 3300.88 1153.90  17
  -8   2  14 2859.87 1105.80  17
  -7  -2  14 292.198 166.572  17
  -7   2  14 359.143 409.097  17
  -6  -2  14 1671.67 740.975  17
  -6   2  14 1382.66 748.185  17
  -5  -2  14 10928.7 2113.41  17
  -5   2  14 10321.4 2064.89  17
  -4  -2  14 768.010 536.650  17
  -4   2  14 998.078 537.606  17
  -3  -2  14 2392.85 945.381  17
  -3   2  14 2552.74 1006.50  17
   3  -2 -14 2628.85 918.350  15
  -2  -2  14 541.667 405.730  17
   2  -2 -14 420.018 392.575  15
  -1  -2  14 2357.50 900.912  17
   0  -2  14 2988.63 1069.95  17
   1  -2  14 2051.21 886.175  17
   2  -2  14 11065.8 2061.43  17
   3  -2  14 190.841 267.238  17
   4  -2  14 480.322 446.232  17
   4  -2  14 360.103 350.694  16
   5  -2  14 488.788 425.885  17
   5  -2  14 593.492 477.978  16
   6  -2  14 319.399 258.248  16
   7  -2  14 2862.39 843.785  16
  -7  -2 -14 2859.76 760.511  12
   8  -2  14 107.704 215.258  16
   9  -2  14 637.855 348.649  16
 -16   3  14 121.864 174.993  17
  16   3 -14-24.0685 18.0117  13
 -15   3  14 1506.33 644.324  17
  14   3 -14 35.4792 76.2370  10
 -14   3  14 277.240 362.528  17
  13   3 -14 1152.32 560.759  10
 -13   3  14 1410.29 683.254  17
  12   3 -14 16.1696 141.865  10
 -12   3  14 20.0013 261.038  17
  12  -3 -14 135.918 104.584  15
  11   3 -14 1193.99 621.620  10
 -11   3  14 1542.41 681.819  17
  11  -3 -14 1903.90 684.547  15
  10   3 -14 1615.88 668.022  10
 -10   3  14 1276.74 694.038  17
   9   3 -14-163.319 301.169  10
  -9   3  14-41.0802 322.692  17
   8   3 -14 2897.18 954.383  10
  -8  -3  14 3813.43 1164.18  17
  -8   3  14 2898.08 1052.02  17
   7   3 -14 1520.23 690.320  10
  -7  -3  14 2706.51 1052.64  17
  -6  -3  14 49.0756 296.700  17
  -5  -3  14 950.510 651.605  17
  -4  -3  14 2988.14 1046.58  17
  -3  -3  14 1115.46 666.748  17
   2   3 -14 1508.19 934.902  20
  -2  -3  14 18761.7 2692.95  17
  -1  -3  14 328.966 380.207  17
   1   3 -14 17912.2 3596.58  20
   0  -3  14 12498.7 2173.24  17
   1  -3  14 557.073 568.527  17
   2  -3  14 208.211 331.923  17
   3  -3  14 1186.11 652.720  17
   4  -3  14 1029.89 605.580  17
   4  -3  14 1064.93 558.033  16
   5  -3  14 2736.99 904.466  17
   5  -3  14 3519.59 989.827  16
   6  -3  14 301.139 311.814  16
   7  -3  14 368.777 319.778  16
  -7  -3 -14 305.836 218.495  12
   8  -3  14 397.579 264.700  16
  -8  -3 -14 232.890 180.462  12
  15   4 -14 73.8210 109.076  13
 -14   4  14 200.009 60.3162  17
  14   4 -14-88.3128 188.643  13
 -13   4  14 65.9004 248.718  17
  12  -4 -14 177.845 154.812  15
  11   4 -14 7722.45 2068.24  20
  10   4 -14 412.495 172.968  20
   9   4 -14 6883.04 2240.92  20
   8   4 -14 1919.49 1111.36  20
   7   4 -14 636.110 730.411  20
   6   4 -14 292.437 546.161  20
   5   4 -14 1263.28 944.434  20
   4   4 -14 1631.06 1175.87  20
   3   4 -14 293.653 329.298  20
   2   4 -14 3364.19 1660.24  20
  -2  -4  14 18.1456 143.469  17
   1   4 -14 812.525 790.859  20
  -1  -4  14 1630.04 736.285  17
   0  -4  14 170.534 209.862  17
   1  -4  14 584.353 433.771  17
   2  -4  14 551.925 450.439  17
   3  -4  14 4823.01 1244.35  17
   3  -4  14 3168.59 980.045  16
   4  -4  14 484.939 354.027  16
   5  -4  14 128.307 250.184  16
  -5  -4 -14 107.887 144.835  12
   6  -4  14-85.3700 217.651  16
  -6  -4 -14 189.684 155.754  12
   7  -4  14 63.3017 190.609  16
  -7  -4 -14 225.411 194.803  12
  14   5 -14-78.8773 69.0747  13
  13   5 -14-26.0448 104.862  13
  12  -5 -14 1031.13 421.101  15
  12   5 -14-52.6236 186.502  13
  11   5 -14 611.706 484.569  20
  11   5 -14-41.4003 185.317  13
  10   5 -14 653.124 593.195  20
  10   5 -14 214.937 234.617  13
   9   5 -14-262.806 575.288  20
   9   5 -14 115.441 283.175  13
   8   5 -14 455.352 474.065  20
   8   5 -14-186.883 302.811  13
   7   5 -14-371.632 550.443  20
   7   5 -14 1199.44 622.274  13
   6   5 -14 2345.11 1265.27  20
   6   5 -14 142.021 251.467  13
   5   5 -14 2423.80 1265.93  20
   4   5 -14 222.694 142.405  20
   3   5 -14 322.834 507.386  20
   2   5 -14-647.041 680.040  20
   1   5 -14 254.493 380.090  20
   2  -5  14-32.6219 202.883  16
  -4  -5 -14 1058.71 422.025  12
  -5  -5 -14 38.6254 41.0448  12
  -6  -5 -14 1286.73 442.945  12
  12   6 -14-89.2702 165.058  13
  11   6 -14 48.7798 105.798  13
  10   6 -14-109.189 226.243  20
  10   6 -14 428.560 316.134  13
   9   6 -14-146.257 333.869  20
   9   6 -14 325.539 287.046  13
   8   6 -14 47.7791 231.115  20
   8   6 -14 137.217 168.392  13
   7   6 -14-2.12981 126.875  20
   7   6 -14 53.7205 114.631  13
   6   6 -14-10.2355 255.728  20
   5   6 -14-205.141 568.633  20
   4   6 -14-856.797 690.281  20
   3   6 -14-176.019 337.850  20
   2   6 -14-283.736 462.588  20
   1   6 -14-462.554 441.000  20
   0  -6 -14 37.9973 134.471  12
  -1  -6 -14-13.2634 34.2987  12
  -2  -6 -14 423.385 249.779  12
  -3  -6 -14-7.01298 84.5155  12
  -4  -6 -14 312.421 180.493  12
   9   7 -14 25.7534 119.572  20
   8   7 -14-185.331 190.845  20
   7   7 -14-62.6817 134.367  20
   6   7 -14 4.09461 284.814  20
   5   7 -14-224.675 293.344  20
   4   7 -14 171.600 238.923  20
   3   7 -14-199.473 331.323  20
   2   7 -14 382.317 365.676  20
  16   0 -15-40.3027 109.509  10
 -16   0  15-163.422 229.609  17
  15   0 -15 59.8585 71.8752  10
 -15   0  15 35.3455 136.456  17
  14   0 -15-32.2293 120.838  10
 -14   0  15 116.669 234.475  17
  13   0 -15-121.089 225.483  10
 -13   0  15 94.9808 347.448  17
 -12   0  15-21.2759 48.6404  17
 -11   0  15 0.25640 206.547  17
  11   0 -15-121.242 37.6059  15
 -10   0  15 80.6358 185.261  17
  10   0 -15-196.091 246.173  15
  -9   0  15-226.270 403.285  17
   9   0 -15 2.91048 168.310  15
  -8   0  15 112.432 112.333  17
   8   0 -15-146.381 192.290  15
  -7   0  15-241.461 261.724  17
   7   0 -15-16.1143 152.017  15
  -6   0  15-191.212 403.428  17
   6   0 -15-29.5438 83.0380  15
  -5   0  15-346.323 443.990  17
   5   0 -15 12.6760 113.262  15
  -4   0  15 0.26537 219.051  17
   4   0 -15 172.924 333.487  15
  -3   0  15 93.9610 311.724  17
   3   0 -15 106.316 217.880  15
  -2   0  15-317.883 319.099  17
   2   0 -15 301.369 413.998  15
  -1   0  15 112.554 307.385  17
   0   0  15 222.939 295.677  17
   1   0  15 269.929 353.140  17
   2   0  15 45.9919 179.093  17
   3   0  15-107.947 305.025  17
   3   0  15 298.312 324.555  16
   4   0  15-56.6443 107.614  17
   4   0  15-79.9334 185.597  16
   5   0  15-120.088 209.757  17
   5   0  15 18.3138 120.167  16
   6   0  15-57.7349 152.970  16
   7   0  15 119.885 176.741  16
   8   0  15-19.1479 25.8484  16
  16   1 -15 64.1893 87.9008  10
  16  -1 -15-11.3613 73.0869  10
 -16   1  15 1167.06 544.540  17
  15   1 -15 123.480 164.789  10
  15  -1 -15 40.9862 14.0503  10
 -15  -1  15 2269.26 734.083  17
 -15   1  15 2099.70 761.865  17
  14   1 -15-177.542 201.738  10
 -14  -1  15 178.122 299.819  17
 -14   1  15 16.0751 199.430  17
  13   1 -15 493.927 388.030  10
 -13  -1  15 1368.42 691.976  17
 -13   1  15 1467.90 700.839  17
  12   1 -15 122.722 204.358  10
 -12  -1  15 248.770 380.319  17
 -12   1  15 69.0254 282.509  17
  12  -1 -15 154.128 162.908  15
  11   1 -15 1107.48 594.642  10
 -11  -1  15 1758.24 835.237  17
 -11   1  15 1600.74 817.975  17
  11  -1 -15 1799.95 683.802  15
  10   1 -15 255.141 281.621  10
 -10  -1  15 891.500 535.103  17
 -10   1  15 586.172 469.440  17
  10  -1 -15 919.211 519.119  15
   9   1 -15-20.5201 89.1732  10
  -9  -1  15-266.046 400.063  17
  -9   1  15-41.7453 89.3298  17
   9  -1 -15 167.601 180.643  15
  -8  -1  15 19814.7 2890.51  17
  -8   1  15 18469.5 2799.58  17
   8   1 -15 18203.9 2378.49  15
   8  -1 -15 18987.9 2438.57  15
  -7  -1  15 20062.1 2897.75  17
  -7   1  15 20349.7 2965.80  17
   7   1 -15 18987.3 2444.56  15
   7  -1 -15 19714.0 2419.89  15
  -6  -1  15 732.835 468.269  17
  -6   1  15 367.032 136.787  17
   6   1 -15 1008.24 596.082  15
   6  -1 -15 755.041 466.353  15
  -5  -1  15 5646.73 1454.04  17
  -5   1  15 4762.51 1360.31  17
   5   1 -15 4872.48 1239.41  15
   5  -1 -15 4904.60 1260.51  15
  -4  -1  15 941.973 548.377  17
  -4   1  15 916.888 579.830  17
   4  -1 -15 952.699 556.072  15
  -3  -1  15 1422.69 732.435  17
  -3   1  15 1528.16 803.719  17
   3  -1 -15 1387.23 629.262  15
  -2  -1  15 19.1357 187.112  17
  -2   1  15-188.943 288.423  17
   2  -1 -15 73.6059 205.119  15
  -1  -1  15 7782.35 1704.97  17
  -1   1  15 7031.24 1630.29  17
   0  -1  15 1521.73 759.401  17
   0   1  15 1513.13 692.466  17
   1  -1  15 82.3233 277.691  17
   1   1  15 142.566 256.355  17
   2  -1  15 553.554 456.646  17
   2   1  15 257.707 229.683  17
   3  -1  15 847.068 500.208  17
   3   1  15 803.978 429.770  16
   3  -1  15 707.880 498.164  16
   4  -1  15 832.957 545.738  17
   4   1  15 527.661 364.352  16
   4  -1  15 805.434 476.589  16
   5  -1  15 126.981 211.221  17
   5   1  15 222.194 209.638  16
   5  -1  15-49.9120 122.858  16
   6   1  15-85.1442 244.659  16
   6  -1  15 40.4592 110.290  16
   7   1  15-33.7734 122.625  16
   7  -1  15 106.447 132.364  16
   8  -1  15-69.5527 151.747  16
 -16   2  15-9.36252 106.118  17
  15   2 -15-16.6978 64.6922  10
 -15   2  15 50.3755 110.456  17
  14   2 -15 139.338 151.959  10
 -14   2  15 1063.73 599.822  17
  13   2 -15 41.1569 107.779  10
 -13  -2  15 209.433 242.516  17
 -13   2  15 134.525 24.1053  17
  12   2 -15 79.7683 162.901  10
 -12  -2  15 205.271 212.239  17
 -12   2  15 133.921 145.975  17
  12  -2 -15 282.229 304.266  15
  11   2 -15 2108.03 763.145  10
 -11  -2  15 2529.66 908.995  17
 -11   2  15 1913.02 833.981  17
  11  -2 -15 2836.31 814.628  15
  10   2 -15 704.407 477.209  10
 -10  -2  15 1364.83 704.819  17
 -10   2  15 674.412 443.302  17
  10  -2 -15 1076.65 541.119  15
   9   2 -15 1834.99 754.717  10
  -9  -2  15 2505.40 954.705  17
  -9   2  15 2581.60 1033.61  17
   9  -2 -15 3311.77 987.675  15
   8   2 -15 78.9645 46.8016  10
  -8  -2  15 322.287 356.263  17
  -8   2  15 156.894 261.764  17
   8  -2 -15 319.930 296.982  15
  -7  -2  15 2172.35 929.496  17
  -7   2  15 2045.27 894.569  17
   7  -2 -15 2509.24 833.069  15
  -6  -2  15 9118.82 1893.01  17
  -6   2  15 7490.05 1752.54  17
   6  -2 -15 8747.25 1640.36  15
  -5  -2  15 1977.83 877.656  17
  -5   2  15 2017.49 878.276  17
   5  -2 -15 1548.30 676.639  15
  -4  -2  15 28046.5 3298.00  17
  -4   2  15 24306.2 3077.79  17
   4  -2 -15 25261.3 2881.50  15
  -3  -2  15 3635.72 1158.68  17
  -3   2  15 2709.18 981.559  17
   3  -2 -15 3348.61 1064.78  15
  -2  -2  15 8879.64 1859.62  17
   2  -2 -15 8454.38 1617.61  15
  -1  -2  15 98.1795 189.388  17
   0  -2  15 635.495 446.691  17
   1  -2  15 1026.56 584.014  17
   2  -2  15 176.245 227.382  17
   3  -2  15 510.932 405.839  17
   3  -2  15 360.464 234.079  16
   4  -2  15 109.551 163.631  17
   4  -2  15-88.4884 135.310  16
   5  -2  15 62.7120 79.3707  17
   5  -2  15 60.7594 138.365  16
   6  -2  15-47.3526 182.815  16
  -6  -2 -15 85.9877 112.417  12
   7  -2  15 104.150 16.9498  16
   8  -2  15 278.631 211.092  16
 -15   3  15 365.436 288.388  17
 -14   3  15-121.712 141.844  17
  13   3 -15 120.752 164.407  10
 -13   3  15 647.444 464.715  17
  12   3 -15-239.054 341.063  20
  12   3 -15 6.78733 105.412  10
 -12   3  15 611.439 387.110  17
  12  -3 -15 252.187 209.442  15
  11   3 -15 266.769 451.565  20
  11   3 -15 310.591 283.809  10
 -11   3  15 689.024 474.653  17
  11  -3 -15 546.001 351.995  15
  10   3 -15 329.395 288.968  10
 -10   3  15 647.283 493.515  17
  10  -3 -15 604.132 391.425  15
   9   3 -15-90.8236 144.954  10
  -9   3  15-275.032 331.806  17
   9  -3 -15-139.790 179.338  15
   8   3 -15-43.4661 66.3724  10
  -8  -3  15 150.568 323.216  17
  -8   3  15 35.6806 165.671  17
  -7  -3  15 193.811 178.217  17
  -6  -3  15 181.253 191.340  17
  -5  -3  15-96.5720 284.612  17
  -4  -3  15 4482.16 1256.36  17
   4  -3 -15 3792.80 1048.01  15
   3   3 -15 1079.04 915.061  20
  -3  -3  15 546.556 360.551  17
   3  -3 -15 637.021 390.339  15
   2   3 -15 4990.98 1847.58  20
  -2  -3  15 170.064 187.450  17
  -1  -3  15 3640.39 1102.72  17
   0  -3  15 98.5031 261.927  17
   1  -3  15 1056.14 551.489  17
   2  -3  15-52.9089 168.502  17
   3  -3  15 1903.96 768.924  17
   3  -3  15 1550.91 608.670  16
   4  -3  15-66.7057 159.175  17
   4  -3  15 94.7026 80.0378  16
   5  -3  15-25.5266 47.6554  16
   6  -3  15 49.9151 112.937  16
  -6  -3 -15-10.0508 42.8432  12
   7  -3  15 104.009 27.0066  16
  -7  -3 -15-32.6156 60.4118  12
  14   4 -15-113.503 146.351  13
  13   4 -15-0.10728 29.7693  13
  12  -4 -15 790.644 361.915  15
  11   4 -15-230.880 390.081  20
  11  -4 -15 1051.86 462.846  15
  10   4 -15 1266.45 844.289  20
  10  -4 -15-21.1623 136.523  15
   9   4 -15 1062.17 664.684  20
   8   4 -15 1317.38 880.613  20
   7   4 -15 4898.37 1744.69  20
   6   4 -15 187.607 217.153  20
   5   4 -15 825.460 715.102  20
   4   4 -15 348.437 576.059  20
   3   4 -15 1163.08 916.812  20
  -3  -4  15-9.19417 124.236  17
   2   4 -15 1650.61 1121.42  20
  -2  -4  15 640.156 416.953  17
   1   4 -15 757.529 715.049  20
  -1  -4  15 859.445 525.932  17
   0  -4  15 247.585 254.558  17
   1  -4  15 625.941 410.107  17
   2  -4  15 2567.14 849.094  17
   2  -4  15 1074.45 513.776  16
   3  -4  15 132.361 189.160  17
   3  -4  15 62.9891 183.755  16
   4  -4  15 341.331 264.648  16
   5  -4  15 36.9719 91.4479  16
  -5  -4 -15-102.009 148.052  12
   6  -4  15 281.039 196.216  16
  -6  -4 -15 353.547 206.348  12
  13   5 -15-13.8795 75.8365  13
  12  -5 -15 512.122 225.521  15
  12   5 -15 9.55751 32.9600  13
  11   5 -15 410.759 352.680  20
  11  -5 -15 731.432 331.658  15
  11   5 -15 79.2294 68.1086  13
  10   5 -15-255.215 220.395  20
  10  -5 -15 1822.52 560.906  15
  10   5 -15-29.7218 83.5544  13
   9   5 -15-167.529 429.772  20
   9   5 -15-264.497 262.499  13
   8   5 -15-574.481 525.741  20
   8   5 -15 294.397 284.109  13
   7   5 -15 137.595 337.786  20
   7   5 -15 234.158 269.850  13
   6   5 -15-106.713 464.570  20
   5   5 -15-124.415 466.025  20
   4   5 -15-24.0996 171.246  20
   3   5 -15-87.7880 327.938  20
   2   5 -15-1203.60 820.713  20
   1   5 -15 16.1235 225.659  20
   1  -5  15 37.9003 80.0322  16
   2  -5  15-169.330 198.930  16
  -3  -5 -15 547.495 287.669  12
  -4  -5 -15 295.086 207.649  12
  10   6 -15-294.656 328.944  20
  10  -6 -15 188.168 162.641  15
  10   6 -15-56.3836 102.502  13
   9   6 -15-94.1591 278.269  20
   9   6 -15 175.319 184.265  13
   8   6 -15-156.493 209.815  20
   8   6 -15 815.321 365.231  13
   7   6 -15 9.98583 68.5384  20
   6   6 -15-80.3039 40.7160  20
   5   6 -15-328.490 326.546  20
   4   6 -15-618.270 692.271  20
   3   6 -15 275.879 280.098  20
   2   6 -15-298.643 448.114  20
   1   6 -15-34.8545 72.6966  20
   0  -6 -15-18.2699 76.2186  12
  -1  -6 -15 25.6785 18.7409  12
  15   0 -16 239.545 209.060  10
 -15   0  16-86.3013 186.710  17
  14   0 -16-30.8170 31.7171  10
 -14   0  16 284.973 321.258  17
  13   0 -16-30.0194 107.355  10
 -13   0  16 305.531 291.913  17
  12   0 -16-53.7454 58.1926  10
 -12   0  16 1781.81 810.872  17
  11   0 -16-83.0884 159.907  10
 -11   0  16 251.319 283.172  17
  10   0 -16 349.350 356.320  10
 -10   0  16 1557.20 780.975  17
  10   0 -16 1596.89 654.263  15
  -9   0  16 2620.29 980.823  17
   9   0 -16 2512.82 819.162  15
  -8   0  16 284.100 282.494  17
   8   0 -16 229.053 284.184  15
  -7   0  16 3893.83 1208.49  17
   7   0 -16 3685.66 1012.77  15
  -6   0  16 2161.09 933.634  17
   6   0 -16 1575.93 636.610  15
  -5   0  16 89.3215 280.720  17
   5   0 -16 72.6373 191.291  15
  -4   0  16 2185.65 880.616  17
   4   0 -16 1985.19 779.113  15
  -3   0  16 181.841 310.809  17
   3   0 -16 122.807 24.6515  15
  -2   0  16 78.0416 176.747  17
  -1   0  16 4736.15 1330.42  17
   0   0  16 63.2993 110.763  17
   1   0  16 915.453 554.422  17
   2   0  16 137.408 239.600  17
   2   0  16 204.693 248.169  16
   3   0  16 163.216 139.233  17
   3   0  16 511.646 390.013  16
   4   0  16-40.7593 162.068  17
   4   0  16-90.1182 176.680  16
   5   0  16 166.057 76.9757  16
   6   0  16-75.7038 171.759  16
   7   0  16-103.041 142.563  16
  15   1 -16-56.5321 78.3430  10
  15  -1 -16 25.4778 65.2478  10
 -15  -1  16 218.088 132.268  17
 -15   1  16 257.901 241.953  17
  14   1 -16 23.7861 110.902  10
  14  -1 -16 56.4676 119.378  10
 -14  -1  16 108.327 167.593  17
 -14   1  16 234.436 295.791  17
  13   1 -16 178.764 224.069  10
  13  -1 -16 40.1357 147.337  10
 -13  -1  16-147.477 135.841  17
 -13   1  16-123.999 269.335  17
  12   1 -16 92.2818 166.754  10
 -12  -1  16 6.70077 117.472  17
 -12   1  16 225.161 132.976  17
  12  -1 -16 198.552 248.483  15
  11   1 -16 43.9338 108.017  10
 -11  -1  16 1.31146 127.821  17
 -11   1  16-160.484 251.425  17
  11  -1 -16-45.1940 129.319  15
  10   1 -16-130.044 199.205  10
 -10  -1  16 1.14976 184.998  17
 -10   1  16 287.071 315.015  17
  10  -1 -16 48.7510 84.6198  15
   9   1 -16 217.821 281.656  10
  -9  -1  16 104.743 151.825  17
  -9   1  16 119.920 91.1606  17
   9  -1 -16 90.9022 155.922  15
  -8  -1  16 7547.03 1699.28  17
  -8   1  16 7008.28 1664.30  17
   8  -1 -16 6789.05 1387.09  15
  -7  -1  16 1593.47 750.963  17
  -7   1  16 1983.02 854.040  17
   7  -1 -16 2111.29 758.336  15
  -6  -1  16 186.523 218.733  17
  -6   1  16 134.352 148.109  17
   6  -1 -16 133.690 186.452  15
  -5  -1  16 367.421 284.716  17
  -5   1  16 10.8462 78.1248  17
   5  -1 -16 346.083 277.630  15
  -4  -1  16-239.254 395.159  17
  -4   1  16-51.7502 293.772  17
   4  -1 -16-89.1886 240.039  15
  -3  -1  16 367.639 369.563  17
  -3   1  16 400.596 343.913  17
   3  -1 -16 563.909 418.631  15
  -2  -1  16 1231.02 660.256  17
  -2   1  16 1227.72 655.243  17
   2  -1 -16 831.547 476.783  15
  -1  -1  16 4818.86 1313.45  17
  -1   1  16 4963.42 1291.96  17
   0  -1  16 1590.68 747.709  17
   0   1  16 1255.70 659.367  17
   1  -1  16-275.839 339.304  17
   1   1  16-50.9269 195.141  17
   2   1  16 856.590 511.204  17
   2  -1  16 645.807 480.968  17
   2  -1  16 1328.89 667.567  16
   3  -1  16 551.407 447.988  17
   3  -1  16 414.862 383.254  16
   4  -1  16 21.1778 193.557  17
   4  -1  16 312.622 302.312  16
   5  -1  16 92.5284 193.967  16
   6  -1  16 425.525 360.764  16
   7  -1  16 79.7542 94.3789  16
 -15   2  16 180.155 157.243  17
  14   2 -16 70.6704 100.560  10
 -14   2  16 94.7138 140.473  17
  13   2 -16 46.5223 92.8369  10
 -13  -2  16 11.2779 21.1928  17
 -13   2  16 30.0798 170.295  17
  12   2 -16-73.5182 125.680  10
 -12  -2  16-8.38382 111.374  17
 -12   2  16 404.943 361.917  17
  12  -2 -16 57.6883 119.688  15
  11   2 -16 361.210 326.494  10
 -11  -2  16 1681.51 696.064  17
 -11   2  16 1204.33 643.313  17
  11  -2 -16 1405.68 535.787  15
  10   2 -16 41.3715 90.5797  10
 -10  -2  16 1077.95 599.913  17
 -10   2  16 775.302 721.292  17
  10  -2 -16 592.793 364.918  15
   9   2 -16 10.9189 19.7814  10
  -9  -2  16 1112.93 622.966  17
  -9   2  16 689.796 437.314  17
   9  -2 -16 807.859 438.352  15
  -8  -2  16 2393.57 877.790  17
  -8   2  16 2007.72 869.507  17
   8  -2 -16 2473.58 792.303  15
  -7  -2  16 1759.57 766.198  17
  -7   2  16 1503.90 780.163  17
   7  -2 -16 1134.86 554.044  15
  -6  -2  16 1694.27 779.967  17
  -6   2  16 1289.45 669.221  17
   6  -2 -16 1557.58 652.573  15
  -5  -2  16 939.022 553.665  17
  -5   2  16 502.252 371.181  17
   5  -2 -16 680.341 443.054  15
  -4  -2  16-88.0230 338.299  17
  -4   2  16 51.7407 210.753  17
   4  -2 -16-129.043 138.493  15
  -3  -2  16 950.054 582.794  17
  -3   2  16 519.113 175.615  17
   3  -2 -16 798.923 464.020  15
  -2  -2  16-22.1326 142.780  17
  -1  -2  16-58.3446 151.326  17
   0  -2  16-187.886 160.716  17
   1  -2  16 113.231 173.183  17
   2  -2  16 903.885 553.837  17
   3  -2  16 666.726 513.959  17
   3  -2  16 874.129 472.704  16
   4  -2  16 124.954 163.537  17
   4  -2  16-16.4812 101.377  16
   5  -2  16 122.503 156.376  16
   6  -2  16-157.084 221.493  16
 -13   3  16 218.196 249.980  17
  13  -3 -16 207.498 165.300  15
  12   3 -16 1503.78 805.897  20
 -12   3  16 151.401 41.0179  17
  12  -3 -16 54.0989 96.5965  15
  11   3 -16 1351.43 860.495  20
 -11   3  16 1251.56 559.912  17
  11  -3 -16 1347.52 498.894  15
  10   3 -16 632.128 713.446  20
 -10   3  16 924.539 527.739  17
  10  -3 -16 979.151 444.977  15
  -9  -3  16 814.026 468.847  17
  -9   3  16 378.818 238.937  17
   9  -3 -16 460.615 343.655  15
  -8  -3  16 10139.1 1746.04  17
   8  -3 -16 9789.06 1547.28  15
  -7  -3  16 3671.23 1029.66  17
   7  -3 -16 3694.65 979.320  15
  -6  -3  16 1437.31 637.090  17
   6  -3 -16 1637.19 639.174  15
   5   3 -16 392.550 553.082  20
  -5  -3  16 529.493 418.857  17
   5  -3 -16 817.635 480.313  15
   4   3 -16 316.729 298.390  20
  -4  -3  16 281.624 278.138  17
   4  -3 -16 83.6190 273.792  15
   3   3 -16 809.867 695.641  20
  -3  -3  16 180.481 326.786  17
   3  -3 -16 249.196 231.159  15
   2   3 -16 2211.45 1158.57  20
  -2  -3  16 151.852 94.9518  17
  -1  -3  16 867.320 420.237  17
   0  -3  16 3123.80 996.348  17
   1  -3  16 21.3133 98.0350  17
   2  -3  16 1052.94 573.088  17
   2  -3  16 242.795 214.453  16
   3  -3  16 965.284 521.647  17
   3  -3  16 595.064 335.306  16
   4  -3  16 69.1800 56.7231  16
   5  -3  16 117.630 144.049  16
  -5  -3 -16 253.969 200.377  12
   6  -3  16 38.3259 115.289  16
  13   4 -16 99.5130 121.741  13
  12   4 -16-290.000 348.477  20
  12  -4 -16-81.5187 128.457  15
  12   4 -16-9.00119 76.9685  13
  11   4 -16-50.8168 257.210  20
  11  -4 -16-15.2781 85.5292  15
  11   4 -16 24.9067 171.163  13
  10   4 -16 301.822 467.221  20
  10  -4 -16 112.327 53.5016  15
  10   4 -16 8.95627 69.6746  13
   9   4 -16 31.2306 67.4143  20
   9  -4 -16 472.777 292.081  15
   9   4 -16 0.66150 77.7488  13
   8   4 -16 526.695 620.316  20
   8  -4 -16 269.213 258.373  15
   8   4 -16-48.7639 177.537  13
   7   4 -16 244.232 478.156  20
   7  -4 -16 283.290 236.732  15
   6   4 -16 906.291 953.021  20
   6  -4 -16-115.922 222.734  15
   5   4 -16 335.023 418.028  20
   5  -4 -16 1449.27 601.771  15
   4   4 -16 557.987 446.042  20
  -4  -4  16 218.254 146.138  17
   4  -4 -16 362.442 309.105  15
   3   4 -16 36.5766 554.954  20
  -3  -4  16 718.795 443.237  17
   3  -4 -16 1611.52 584.508  15
   2   4 -16 397.096 468.965  20
  -2  -4  16 127.273 100.830  17
  -1  -4  16-61.7145 166.012  17
   0  -4  16-26.5417 173.014  17
   1  -4  16-294.145 245.432  17
   2  -4  16 25.1143 128.515  17
   2  -4  16 111.736 110.969  16
   3  -4  16 126.899 72.5868  16
   4  -4  16 192.039 223.071  16
  -4  -4 -16 394.731 244.617  12
  11   5 -16 352.275 374.273  20
  11   5 -16-140.411 166.549  13
  10   5 -16 181.246 292.788  20
  10  -5 -16 1272.65 431.132  15
  10   5 -16 64.5167 147.220  13
   9   5 -16-47.3517 201.820  20
   9  -5 -16-24.3944 61.7379  15
   9   5 -16-9.46253 115.994  13
   8   5 -16 285.795 458.119  20
   8  -5 -16 456.546 260.845  15
   8   5 -16 300.601 252.398  13
   7   5 -16 247.338 216.629  20
   7  -5 -16 178.226 183.621  15
   6   5 -16-998.149 736.535  20
   6  -5 -16 215.586 168.746  15
   5   5 -16-199.240 346.333  20
   5  -5 -16 1669.34 589.405  15
   4   5 -16 131.742 356.998  20
   4  -5 -16 432.870 287.920  15
   3   5 -16 43.8025 91.7593  20
   2   5 -16-403.418 378.843  20
   0  -5  16-102.971 225.225  16
   1  -5  16 66.8882 107.219  16
  -1  -5 -16-87.2474 102.364  12
  -2  -5 -16 52.5931 86.6649  12
   8   6 -16 129.077 194.595  20
   7   6 -16-195.966 169.646  20
   7  -6 -16 10.3118 80.4979  15
   6   6 -16-195.846 123.961  20
   6  -6 -16 527.550 256.954  15
   5   6 -16-181.222 321.304  20
   5  -6 -16 59.0883 82.3166  15
   4   6 -16-154.616 358.797  20
 -14   0  17-49.0615 70.1635  17
  13   0 -17-19.6251 56.4237  10
 -13   0  17-24.0469 156.159  17
  12   0 -17 126.240 202.150  10
 -12   0  17-231.635 149.400  17
  11   0 -17-28.3518 81.9820  10
 -11   0  17-117.651 235.021  17
 -10   0  17-200.412 314.611  17
  -9   0  17-125.071 320.277  17
  -8   0  17 181.205 272.881  17
   8   0 -17-1.12009 187.377  15
  -7   0  17-112.266 120.930  17
   7   0 -17 157.268 147.294  15
  -6   0  17-308.800 327.472  17
   6   0 -17 94.4884 261.499  15
  -5   0  17-352.697 359.146  17
  -4   0  17 280.972 358.611  17
  -3   0  17 85.4228 265.130  17
  -2   0  17-48.5876 188.195  17
  -1   0  17 63.0150 63.0407  17
   0   0  17 226.628 260.150  17
   1   0  17-33.8165 64.1013  17
   1   0  17-44.5114 153.390  16
   2   0  17 89.5667 239.545  17
   2   0  17 13.6437 25.2062  16
   3   0  17-77.2916 38.6965  17
   3   0  17 4.57820 70.6972  16
   4   0  17 56.5966 160.459  16
   5   0  17 35.1839 68.6026  16
 -14   1  17 41.1287 160.480  17
  13   1 -17 2.26395 45.2304  10
  13  -1 -17 81.5577 96.7493  10
 -13  -1  17 160.120 91.9106  17
 -13   1  17 167.887 272.645  17
  12   1 -17-44.2105 48.3658  10
  12  -1 -17-96.9706 123.607  10
 -12  -1  17 116.037 183.408  17
 -12   1  17 66.7727 72.4410  17
  11   1 -17-5.86368 117.675  10
  11  -1 -17 86.3287 173.857  10
 -11  -1  17-83.2479 180.167  17
 -11   1  17-54.0840 184.212  17
  11  -1 -17-14.0907 146.521  15
 -10  -1  17 139.229 80.1098  17
 -10   1  17-44.2308 187.992  17
  10  -1 -17 440.236 330.011  15
  -9  -1  17 1497.41 678.672  17
  -9   1  17 1858.61 797.948  17
   9  -1 -17 1240.71 541.437  15
  -8  -1  17 3726.16 1091.08  17
  -8   1  17 3858.36 1142.72  17
   8  -1 -17 3635.54 948.362  15
  -7  -1  17 3966.97 1142.66  17
  -7   1  17 3796.44 1143.67  17
   7  -1 -17 2853.57 851.535  15
  -6  -1  17 687.497 453.445  17
  -6   1  17 829.472 537.129  17
   6  -1 -17 494.921 392.588  15
  -5  -1  17 1065.14 592.221  17
  -5   1  17 1336.00 614.792  17
   5  -1 -17 985.644 520.621  15
  -4  -1  17 115.942 300.401  17
  -4   1  17 3.46839 208.470  17
   4  -1 -17-239.362 317.314  15
  -3  -1  17 981.559 514.866  17
  -3   1  17 557.768 340.468  17
   3  -1 -17 573.118 346.545  15
  -2  -1  17 701.830 439.459  17
  -2   1  17 374.951 376.420  17
  -1  -1  17 361.616 284.100  17
  -1   1  17 484.693 352.277  17
   0  -1  17 1126.28 668.538  17
   0   1  17 740.230 514.842  17
   1   1  17 557.184 390.927  17
   1  -1  17 716.419 493.900  17
   1  -1  17 727.797 495.097  16
   2  -1  17 26.5931 172.055  17
   2  -1  17-164.101 164.478  16
   3  -1  17 626.590 394.243  17
   3  -1  17 454.380 313.633  16
   4  -1  17-14.3917 113.550  16
   5  -1  17 666.965 339.443  16
 -13   2  17 65.8595 77.9026  17
  12   2 -17 313.004 392.952  20
  12  -2 -17-37.5752 56.9061  10
 -12  -2  17 368.533 291.294  17
 -12   2  17 406.309 335.836  17
  12  -2 -17 333.349 237.523  15
  11   2 -17-29.1144 36.8757  10
  11  -2 -17 45.2191 112.614  10
 -11  -2  17 327.851 265.084  17
 -11   2  17 219.040 224.779  17
  11  -2 -17 204.227 227.041  15
  10   2 -17-105.117 131.605  10
 -10  -2  17-6.33775 227.106  17
 -10   2  17-46.9274 82.2599  17
  10  -2 -17-56.6303 29.6940  15
  -9  -2  17 2626.24 850.666  17
  -9   2  17 1808.81 761.985  17
   9  -2 -17 2294.39 692.195  15
  -8  -2  17 981.027 528.265  17
  -8   2  17 559.369 414.638  17
   8  -2 -17 668.461 401.450  15
  -7  -2  17 512.797 426.296  17
  -7   2  17-155.828 232.216  17
   7  -2 -17 178.539 221.263  15
  -6  -2  17 327.604 323.590  17
  -6   2  17 367.479 237.756  17
   6  -2 -17 748.378 464.583  15
  -5  -2  17 127.312 140.598  17
  -5   2  17 117.977 281.122  17
   5  -2 -17 165.264 171.590  15
  -4  -2  17 958.686 495.140  17
  -4   2  17 868.921 486.797  17
   4  -2 -17 1016.38 504.046  15
   3   2 -17 2974.21 1251.67  20
  -3  -2  17 849.317 438.821  17
   3  -2 -17 980.391 440.088  15
  -2  -2  17 2782.32 928.380  17
  -1  -2  17 184.239 208.974  17
   0  -2  17 367.346 308.371  17
   1  -2  17 19.7200 143.501  17
   2  -2  17-152.908 154.083  17
   2  -2  17-61.2854 206.815  16
   3  -2  17 46.4131 177.010  17
   3  -2  17-53.3016 133.123  16
   4  -2  17-143.806 181.284  16
   5  -2  17-53.3060 58.4808  16
  12   3 -17-301.212 446.009  20
 -12   3  17 213.169 212.696  17
  12  -3 -17-5.00316 71.1567  15
  11   3 -17 531.190 477.645  20
 -11   3  17-145.333 192.861  17
  11  -3 -17-97.1022 116.033  15
  10   3 -17 1044.32 635.442  20
 -10   3  17 171.710 196.556  17
  10  -3 -17 87.2834 58.3394  15
   9   3 -17 121.948 207.193  20
  -9  -3  17 845.163 435.020  17
   9  -3 -17 950.059 436.402  15
   8   3 -17 1303.30 801.337  20
  -8  -3  17 42.3771 192.739  17
   8  -3 -17-101.917 129.013  15
   7   3 -17-202.716 181.545  20
  -7  -3  17 1654.64 619.251  17
   7  -3 -17 1480.45 580.991  15
   6   3 -17 60.4793 96.3283  20
  -6  -3  17-121.615 112.736  17
   6  -3 -17 86.6298 104.194  15
   5   3 -17-28.7270 190.460  20
  -5  -3  17 260.581 213.098  17
   5  -3 -17 286.256 282.863  15
   4   3 -17 581.110 636.292  20
  -4  -3  17-2.59183 152.233  17
   4  -3 -17-155.960 276.499  15
   3   3 -17-59.0440 319.760  20
  -3  -3  17 24.1395 86.8600  17
   3  -3 -17 376.984 268.457  15
  -2  -3  17 96.3919 122.226  17
  -1  -3  17-23.0019 155.712  17
   0  -3  17 8.93491 85.6427  17
   1  -3  17 1126.68 506.517  17
   1  -3  17 183.976 131.783  16
   2  -3  17 95.1163 92.3042  17
   2  -3  17 53.0581 143.634  16
   3  -3  17-5.41185 87.7684  16
   4  -3  17-54.9421 80.3274  16
  11   4 -17 69.2310 82.8806  20
  11  -4 -17 404.883 247.654  15
  11   4 -17-78.7769 113.897  13
  10   4 -17-235.785 385.167  20
  10  -4 -17 181.890 171.961  15
  10   4 -17-53.0607 104.717  13
   9   4 -17 203.086 401.097  20
   9  -4 -17 76.8655 82.5232  15
   9   4 -17 6.22526 131.404  13
   8   4 -17-321.775 520.877  20
   8  -4 -17 398.429 289.657  15
   7   4 -17 375.393 442.634  20
   7  -4 -17-26.6565 145.053  15
   6   4 -17 320.338 412.221  20
   6  -4 -17 2686.01 717.082  15
   5   4 -17 209.566 496.414  20
   5  -4 -17 120.041 87.2023  15
   4   4 -17-208.468 338.402  20
  -4  -4  17 329.886 302.817  17
   4  -4 -17 1019.44 448.706  15
   3   4 -17 645.374 578.252  20
  -3  -4  17 52.2742 177.710  17
  -2  -4  17 476.468 321.416  17
  -1  -4  17 587.460 310.000  17
   0  -4  17 35.2947 103.834  17
   0  -4  17 49.4257 70.3989  16
   1  -4  17-94.0713 168.107  16
   2  -4  17 467.213 281.365  16
  -2  -4 -17 1373.34 427.292  12
   9   5 -17 81.4162 150.968  20
   8   5 -17-12.3232 254.005  20
   8  -5 -17 323.538 225.405  15
   7   5 -17-26.0241 197.008  20
   7  -5 -17 75.3302 27.8734  15
   6   5 -17-694.603 477.950  20
   6  -5 -17 609.899 281.259  15
   5   5 -17-128.948 299.512  20
   5  -5 -17 264.349 163.937  15
   4   5 -17-308.991 367.512  20
 -12   0  18-234.010 249.695  17
 -11   0  18 192.093 169.461  17
 -10   0  18 1576.78 607.767  17
  -9   0  18 7708.37 1416.81  17
  -8   0  18 4494.98 1097.86  17
  -7   0  18 865.160 465.941  17
  -6   0  18-8.96090 185.231  17
  -5   0  18 624.679 439.135  17
  -4   0  18 488.983 341.316  17
  -3   0  18 128.318 186.581  17
  -2   0  18 2009.71 739.508  17
  -1   0  18 925.805 538.470  17
  -1   0  18 261.216 301.324  16
   0   0  18 226.236 263.859  17
   0   0  18 265.559 243.758  16
   1   0  18 232.231 182.997  17
   1   0  18 220.044 174.407  16
   2   0  18 216.050 204.510  17
   2   0  18 268.440 232.218  16
 -12  -1  18 140.627 145.754  17
 -12   1  18 404.976 316.829  17
 -11  -1  18-152.247 250.333  17
 -11   1  18 202.011 147.739  17
 -10  -1  18 407.069 284.502  17
 -10   1  18 121.476 138.243  17
  -9  -1  18 298.764 290.258  17
  -9   1  18 54.2517 116.544  17
  -8  -1  18-45.5639 216.547  17
  -8   1  18-56.8622 254.240  17
   8  -1 -18-6.07022 94.2497  15
  -7  -1  18 785.828 481.709  17
  -7   1  18 408.407 310.831  17
   7  -1 -18 248.733 253.543  15
  -6  -1  18 202.728 285.509  17
  -6   1  18-17.5601 134.104  17
   6  -1 -18-52.4752 128.230  15
  -5  -1  18 594.074 420.862  17
  -5   1  18 473.528 335.120  17
  -4  -1  18 93.4504 75.3816  17
  -4   1  18 325.469 264.983  17
  -3  -1  18 169.732 146.683  17
  -3   1  18 43.6907 128.313  17
  -2  -1  18 825.612 449.588  17
  -2   1  18 671.479 430.516  17
  -1   1  18 60.3300 43.8331  17
  -1  -1  18 238.745 242.582  17
   0   1  18 240.787 216.617  17
   0  -1  18 369.778 306.446  17
   0  -1  18-29.8756 141.369  16
   1  -1  18 15.5188 73.1835  17
   1  -1  18 98.3726 153.867  16
   2  -1  18 0.87931 88.9813  17
   2  -1  18-132.757 157.698  16
   3  -1  18 158.634 195.308  16
  12   2 -18 161.863 140.499  20
  11   2 -18 495.393 471.529  20
 -11  -2  18 373.428 270.217  17
 -11   2  18 139.872 169.704  17
  10   2 -18 2423.52 1074.16  20
 -10  -2  18 807.799 417.955  17
 -10   2  18 422.780 281.726  17
  10  -2 -18 656.880 313.570  15
  -9  -2  18 2265.44 706.565  17
  -9   2  18 2030.48 673.093  17
   9  -2 -18 2123.42 600.472  15
  -8  -2  18 1068.47 529.393  17
  -8   2  18 1028.90 456.130  17
   8  -2 -18 956.281 436.325  15
  -7  -2  18 64.0307 114.088  17
  -7   2  18-382.029 343.154  17
   7  -2 -18 57.9923 87.0982  15
  -6  -2  18 28.2395 139.700  17
  -6   2  18 140.913 202.491  17
   6  -2 -18-69.8284 192.580  15
   5   2 -18-95.6001 310.897  20
  -5  -2  18 33.8311 82.7634  17
  -5   2  18-111.182 100.121  17
   5  -2 -18 111.883 203.947  15
   4   2 -18-151.594 150.945  20
  -4  -2  18 105.004 191.241  17
   4  -2 -18 25.8019 110.690  15
   3   2 -18 145.996 314.137  20
  -3  -2  18-25.1441 153.570  17
  -2  -2  18 179.672 213.301  17
  -1  -2  18 853.789 494.564  17
   0  -2  18-152.352 180.855  17
   0  -2  18-43.2056 79.4854  16
   1  -2  18 252.036 209.356  17
   1  -2  18 202.972 201.860  16
   2  -2  18-20.2582 154.867  17
   2  -2  18 171.315 207.564  16
   3  -2  18 81.8505 127.099  16
  11   3 -18 49.1980 164.138  20
  10   3 -18-180.997 97.4395  20
  10  -3 -18-58.7980 98.4898  15
   9   3 -18 198.143 97.4492  20
   9  -3 -18 28.9878 81.6971  15
   8   3 -18 520.800 506.745  20
  -8  -3  18 419.372 262.071  17
   8  -3 -18 82.0380 48.2243  15
   7   3 -18-49.9575 260.421  20
  -7  -3  18 674.894 362.317  17
   7  -3 -18 432.396 283.094  15
   6   3 -18 519.046 548.317  20
  -6  -3  18 80.5420 55.8454  17
   6  -3 -18 60.2588 85.8313  15
   5   3 -18 277.392 367.499  20
  -5  -3  18 491.104 320.666  17
   5  -3 -18 451.021 292.138  15
   4   3 -18-105.739 288.341  20
  -4  -3  18 174.282 272.481  17
   4  -3 -18 203.891 108.294  15
   3   3 -18-354.631 452.177  20
  -3  -3  18 141.048 124.713  17
  -2  -3  18 188.721 210.867  17
  -1  -3  18 237.075 154.371  17
   0  -3  18 364.665 275.004  17
   0  -3  18 0.24079 72.4033  16
   1  -3  18 235.649 246.643  17
   1  -3  18 33.3975 125.206  16
   9   4 -18 259.725 263.585  20
   8   4 -18 58.5452 111.315  20
   8  -4 -18 105.147 107.126  15
   7   4 -18-370.366 384.126  20
   7  -4 -18-95.7108 101.158  15
   6   4 -18-174.773 447.225  20
   6  -4 -18 270.288 177.486  15
   5   4 -18-65.0290 121.739  20
   5  -4 -18 139.624 115.881  15
   4   4 -18-62.8247 65.5759  20
  -1  -4  18-49.4043 155.181  16
 -10   0  19-5.67197 62.9250  17
  -9   0  19 58.7035 108.002  17
  -8   0  19 182.280 191.923  17
  -7   0  19 222.066 233.241  17
  -6   0  19 213.546 188.617  17
  -5   0  19-108.316 153.570  17
  -4   0  19-51.1484 196.906  17
  -3   0  19-29.8612 131.452  17
  -2   0  19-60.6334 131.051  17
  -1   0  19 55.0976 136.997  17
   0   0  19-129.498 171.897  17
  11   1 -19 104.348 251.179  20
 -10  -1  19 215.567 101.784  17
 -10   1  19 529.843 278.031  17
  -9  -1  19 60.0592 48.6663  17
  -9   1  19 228.326 232.076  17
  -8  -1  19 278.550 261.144  17
  -8   1  19 21.6289 43.9119  17
  -7  -1  19 57.7278 148.137  17
  -7   1  19-116.736 230.530  17
  -6  -1  19 212.331 209.550  17
  -6   1  19 354.331 277.735  17
   5   1 -19-176.237 147.231  20
  -5  -1  19 499.123 326.838  17
  -5   1  19 209.918 240.405  17
   4   1 -19-136.259 300.533  20
  -4  -1  19 24.5543 150.029  17
  -4   1  19 346.364 288.981  17
  -3  -1  19 299.606 264.474  17
  -3   1  19 159.786 190.926  17
  -2   1  19-197.989 227.323  17
  -2  -1  19-15.3765 57.9653  17
  -1  -1  19 170.866 169.153  17
  -1  -1  19 31.5042 62.6258  16
   0  -1  19 72.6595 149.112  17
   0  -1  19 10.2874 115.311  16
  10   2 -19 1960.10 821.632  20
   9   2 -19 458.396 333.831  20
   8   2 -19 659.344 477.437  20
  -8  -2  19 248.584 201.586  17
   7   2 -19-79.2461 316.001  20
  -7  -2  19 651.253 350.865  17
   6   2 -19-53.2496 159.126  20
  -6  -2  19 19.9057 74.7665  17
   5   2 -19-6.52712 151.474  20
  -5  -2  19 58.7453 62.8147  17
  -4  -2  19 242.687 244.354  17
  -3  -2  19-52.6264 111.234  17
  -2  -2  19 109.569 170.886  17
  -1  -2  19 29.1781 42.1037  17
  -1  -2  19-76.4534 104.784  16
   0  -2  19 117.573 130.087  16
   8   3 -19-111.765 240.608  20
   7   3 -19 88.7422 213.805  20
   6   3 -19-227.523 251.319  20
  -2  -3  19-30.8585 141.509  16
   0   0   0    0.00    0.00   0
TITL heyt0615 in P2(1)/c
REM P2(1)/c (#14 in standard setting)
CELL 1.54184  16.421498   8.611842  16.299132  90.0000 104.9012  90.0000
ZERR   10.00   0.002309   0.001154   0.002361   0.0000   0.0146   0.0000
LATT  1
SYMM -x, y+1/2,-z+1/2
SFAC C H N O
UNIT 110.00 100.00 10.00 10.00
TREF
HKLF 4
END
;
_shelx_hkl_checksum              39490
_olex2_submission_special_instructions 'No special instructions were received'
#END Tags that were not found in dictionaries
loop_
_space_group_symop_operation_xyz
'x, y, z'
'-x, y+1/2, -z+1/2'
'-x, -y, -z'
'x, -y-1/2, z-1/2'
loop_
_atom_site_label
_atom_site_type_symbol
_atom_site_fract_x
_atom_site_fract_y
_atom_site_fract_z
_atom_site_U_iso_or_equiv
_atom_site_adp_type
_atom_site_occupancy
_atom_site_site_symmetry_order
_atom_site_calc_flag
_atom_site_refinement_flags_posn
S1 S 0.19039(13) 0.9266(3) 0.26224(10) 0.1196(10) Uani 1 1 d .
F1 F 0.0863(3) 0.4387(8) -0.0090(4) 0.193(3) Uani 1 1 d .
F2 F 0.0966(3) 0.6046(8) 0.0895(4) 0.174(2) Uani 1 1 d .
F3 F 0.1454(4) 0.3764(10) 0.1168(5) 0.191(3) Uani 1 1 d .
O1 O 0.2208(4) 0.8855(8) 0.0866(3) 0.134(2) Uani 1 1 d .
O2 O 0.2246(3) 1.0721(7) 0.2412(4) 0.139(2) Uani 1 1 d .
O3 O 0.2026(3) 0.8809(8) 0.3484(3) 0.142(2) Uani 1 1 d .
N1 N 0.2339(3) 0.7863(8) 0.2190(3) 0.1074(18) Uani 1 1 d .
N2 N 0.3501(4) 0.3781(11) 0.3227(4) 0.129(2) Uani 1 1 d .
N3 N 0.3849(4) 0.2533(13) 0.3495(4) 0.136(3) Uani 1 1 d .
N4 N 0.4146(6) 0.1482(15) 0.3845(5) 0.183(4) Uani 1 1 d .
C1 C 0.3574(5) 0.2097(12) 0.1352(5) 0.126(3) Uani 1 1 d .
H1 H 0.3016 0.1827 0.1307 0.152 Uiso 1 1 calc R
C2 C 0.4042(7) 0.1274(13) 0.0886(6) 0.151(3) Uani 1 1 d .
H2 H 0.3790 0.0480 0.0522 0.181 Uiso 1 1 calc R
C3 C 0.4876(7) 0.1642(15) 0.0968(6) 0.148(3) Uani 1 1 d .
H3 H 0.5190 0.1106 0.0660 0.177 Uiso 1 1 calc R
C4 C 0.5235(5) 0.2812(14) 0.1511(6) 0.144(3) Uani 1 1 d .
H4 H 0.5797 0.3068 0.1571 0.173 Uiso 1 1 calc R
C5 C 0.4780(5) 0.3606(12) 0.1964(5) 0.130(3) Uani 1 1 d .
H5 H 0.5043 0.4371 0.2343 0.156 Uiso 1 1 calc R
C6 C 0.3934(4) 0.3296(11) 0.1872(4) 0.113(2) Uani 1 1 d .
C7 C 0.3439(5) 0.4218(11) 0.2350(4) 0.111(2) Uani 1 1 d .
C8 C 0.2960(4) 0.5500(11) 0.2070(4) 0.113(3) Uani 1 1 d .
C9 C 0.2527(4) 0.6317(10) 0.2621(4) 0.116(2) Uani 1 1 d .
H9A H 0.2887 0.6427 0.3191 0.139 Uiso 1 1 calc R
H9B H 0.2013 0.5784 0.2645 0.139 Uiso 1 1 calc R
C10 C 0.2405(5) 0.7851(13) 0.1376(5) 0.122(3) Uani 1 1 d .
C11 C 0.2806(4) 0.6264(12) 0.1220(4) 0.117(3) Uani 1 1 d .
C12 C 0.3602(5) 0.6645(12) 0.0918(5) 0.138(3) Uani 1 1 d .
H12A H 0.4017 0.7118 0.1374 0.208 Uiso 1 1 calc GR
H12B H 0.3457 0.7349 0.0446 0.208 Uiso 1 1 calc GR
H12C H 0.3827 0.5706 0.0746 0.208 Uiso 1 1 calc GR
C13 C 0.2204(5) 0.5439(12) 0.0488(5) 0.136(3) Uani 1 1 d .
H13A H 0.2096 0.6126 0.0000 0.164 Uiso 1 1 calc R
H13B H 0.2493 0.4534 0.0347 0.164 Uiso 1 1 calc R
C14 C 0.1387(7) 0.4925(18) 0.0601(6) 0.153(4) Uani 1 1 d .
C15 C 0.0829(4) 0.9202(9) 0.2109(4) 0.1006(19) Uani 1 1 d .
C16 C 0.0297(5) 0.8254(10) 0.2435(4) 0.120(2) Uani 1 1 d .
H16 H 0.0508 0.7671 0.2924 0.144 Uiso 1 1 calc R
C17 C -0.0539(5) 0.8199(10) 0.2021(5) 0.123(2) Uani 1 1 d .
H17 H -0.0899 0.7612 0.2253 0.147 Uiso 1 1 calc R
C18 C -0.0868(5) 0.8983(9) 0.1272(4) 0.108(2) Uani 1 1 d .
C19 C -0.0344(5) 0.9941(10) 0.0977(4) 0.112(2) Uani 1 1 d .
H19 H -0.0565 1.0544 0.0498 0.134 Uiso 1 1 calc R
C20 C 0.0500(4) 1.0035(9) 0.1370(4) 0.106(2) Uani 1 1 d .
H20 H 0.0851 1.0656 0.1142 0.127 Uiso 1 1 calc R
C21 C -0.1798(5) 0.8847(13) 0.0803(5) 0.142(3) Uani 1 1 d .
H21A H -0.1948 0.9676 0.0399 0.213 Uiso 1 1 calc GR
H21B H -0.2135 0.8912 0.1204 0.213 Uiso 1 1 calc GR
H21C H -0.1896 0.7868 0.0513 0.213 Uiso 1 1 calc GR
loop_
_atom_site_aniso_label
_atom_site_aniso_U_11
_atom_site_aniso_U_22
_atom_site_aniso_U_33
_atom_site_aniso_U_23
_atom_site_aniso_U_13
_atom_site_aniso_U_12
S1 0.1181(16) 0.160(2) 0.0819(11) -0.0168(11) 0.0288(9) -0.0009(12)
F1 0.137(4) 0.259(8) 0.158(4) -0.079(5) -0.009(3) -0.002(4)
F2 0.119(3) 0.216(6) 0.186(5) -0.074(5) 0.041(3) -0.009(3)
F3 0.171(5) 0.230(7) 0.166(5) 0.001(5) 0.034(4) -0.051(5)
O1 0.158(5) 0.159(5) 0.091(3) 0.005(4) 0.046(3) 0.010(4)
O2 0.131(4) 0.145(5) 0.147(5) -0.022(4) 0.046(4) -0.029(3)
O3 0.141(4) 0.207(7) 0.073(2) -0.020(3) 0.019(2) 0.022(4)
N1 0.110(4) 0.138(5) 0.077(3) 0.001(3) 0.027(3) 0.020(3)
N2 0.119(5) 0.175(7) 0.095(4) 0.011(5) 0.030(3) 0.016(5)
N3 0.105(4) 0.201(9) 0.100(4) 0.018(5) 0.024(3) 0.025(5)
N4 0.179(8) 0.237(11) 0.126(6) 0.021(7) 0.026(5) 0.070(7)
C1 0.121(5) 0.163(8) 0.095(4) -0.007(5) 0.026(4) 0.002(5)
C2 0.164(9) 0.167(9) 0.126(7) -0.020(7) 0.042(6) -0.016(7)
C3 0.142(8) 0.193(11) 0.112(6) -0.008(7) 0.037(5) 0.021(7)
C4 0.106(5) 0.193(10) 0.146(7) -0.002(7) 0.054(5) 0.014(6)
C5 0.099(5) 0.173(8) 0.114(5) -0.002(6) 0.021(4) 0.004(5)
C6 0.096(4) 0.158(7) 0.080(3) 0.005(4) 0.017(3) 0.002(4)
C7 0.102(5) 0.154(7) 0.077(3) -0.021(4) 0.023(3) -0.026(4)
C8 0.089(4) 0.168(8) 0.083(4) 0.009(5) 0.021(3) 0.002(4)
C9 0.097(4) 0.169(8) 0.083(3) -0.009(5) 0.027(3) 0.004(4)
C10 0.108(5) 0.183(9) 0.083(4) -0.014(5) 0.037(3) 0.001(5)
C11 0.100(4) 0.175(8) 0.078(3) -0.009(5) 0.025(3) -0.011(5)
C12 0.139(6) 0.176(9) 0.117(5) 0.014(6) 0.063(5) -0.008(6)
C13 0.140(7) 0.187(9) 0.081(4) -0.004(5) 0.026(4) 0.012(6)
C14 0.142(8) 0.210(12) 0.100(5) -0.041(7) 0.017(5) 0.001(8)
C15 0.115(5) 0.119(5) 0.074(3) -0.003(4) 0.035(3) 0.000(3)
C16 0.122(5) 0.148(7) 0.096(4) 0.028(5) 0.040(4) 0.004(5)
C17 0.120(5) 0.130(6) 0.128(6) 0.008(5) 0.048(5) -0.016(5)
C18 0.119(5) 0.134(6) 0.075(3) -0.008(4) 0.033(3) 0.006(4)
C19 0.116(5) 0.146(7) 0.082(4) 0.014(4) 0.041(3) 0.009(5)
C20 0.120(5) 0.127(5) 0.081(3) 0.001(4) 0.044(3) -0.003(4)
C21 0.118(6) 0.196(10) 0.111(5) -0.013(6) 0.027(4) 0.000(6)
loop_
_atom_type_symbol
_atom_type_description
_atom_type_scat_dispersion_real
_atom_type_scat_dispersion_imag
_atom_type_scat_source
C C 0.0181 0.0091 'International Tables Vol C Tables 4.2.6.8 and 6.1.1.4'
H H 0.0000 0.0000 'International Tables Vol C Tables 4.2.6.8 and 6.1.1.4'
F F 0.0727 0.0534 'International Tables Vol C Tables 4.2.6.8 and 6.1.1.4'
N N 0.0311 0.0180 'International Tables Vol C Tables 4.2.6.8 and 6.1.1.4'
O O 0.0492 0.0322 'International Tables Vol C Tables 4.2.6.8 and 6.1.1.4'
S S 0.3331 0.5567 'International Tables Vol C Tables 4.2.6.8 and 6.1.1.4'
loop_
_geom_angle_atom_site_label_1
_geom_angle_atom_site_label_2
_geom_angle_atom_site_label_3
_geom_angle
O2 S1 N1 107.2(3)
O2 S1 C15 108.6(4)
O3 S1 O2 120.5(4)
O3 S1 N1 104.6(3)
O3 S1 C15 109.4(3)
N1 S1 C15 105.5(3)
C9 N1 S1 120.6(4)
C10 N1 S1 125.1(7)
C10 N1 C9 113.0(7)
N3 N2 C7 118.6(8)
N4 N3 N2 169.9(9)
C2 C1 H1 119.8
C6 C1 H1 119.8
C6 C1 C2 120.4(8)
C1 C2 H2 120.0
C3 C2 C1 120.0(9)
C3 C2 H2 120.0
C2 C3 H3 120.6
C4 C3 C2 118.8(9)
C4 C3 H3 120.6
C3 C4 H4 119.5
C5 C4 C3 121.1(9)
C5 C4 H4 119.5
C4 C5 H5 119.4
C4 C5 C6 121.2(9)
C6 C5 H5 119.4
C1 C6 C5 118.3(8)
C1 C6 C7 121.2(6)
C5 C6 C7 120.5(8)
N2 C7 C6 117.7(8)
C8 C7 N2 115.3(7)
C8 C7 C6 126.9(6)
C7 C8 C9 120.9(6)
C7 C8 C11 127.7(7)
C9 C8 C11 111.3(7)
N1 C9 H9A 111.3
N1 C9 H9B 111.3
C8 C9 N1 102.4(6)
C8 C9 H9A 111.3
C8 C9 H9B 111.3
H9A C9 H9B 109.2
O1 C10 N1 127.1(9)
O1 C10 C11 125.0(6)
N1 C10 C11 108.0(8)
C8 C11 C10 102.2(6)
C8 C11 C12 115.6(6)
C8 C11 C13 116.4(8)
C12 C11 C10 106.9(7)
C13 C11 C10 108.7(6)
C13 C11 C12 106.4(6)
C11 C12 H12A 109.5
C11 C12 H12B 109.5
C11 C12 H12C 109.5
H12A C12 H12B 109.5
H12A C12 H12C 109.5
H12B C12 H12C 109.5
C11 C13 H13A 107.7
C11 C13 H13B 107.7
H13A C13 H13B 107.1
C14 C13 C11 118.3(6)
C14 C13 H13A 107.7
C14 C13 H13B 107.7
F1 C14 F2 105.9(9)
F1 C14 F3 104.2(11)
F1 C14 C13 114.7(8)
F2 C14 F3 104.2(9)
F2 C14 C13 113.5(11)
F3 C14 C13 113.2(9)
C16 C15 S1 119.3(5)
C20 C15 S1 121.3(5)
C20 C15 C16 119.4(7)
C15 C16 H16 120.7
C17 C16 C15 118.7(7)
C17 C16 H16 120.7
C16 C17 H17 118.8
C16 C17 C18 122.4(7)
C18 C17 H17 118.8
C17 C18 C21 121.3(7)
C19 C18 C17 118.0(7)
C19 C18 C21 120.7(7)
C18 C19 H19 119.2
C18 C19 C20 121.6(7)
C20 C19 H19 119.2
C15 C20 H20 120.1
C19 C20 C15 119.7(6)
C19 C20 H20 120.1
C18 C21 H21A 109.5
C18 C21 H21B 109.5
C18 C21 H21C 109.5
H21A C21 H21B 109.5
H21A C21 H21C 109.5
H21B C21 H21C 109.5
loop_
_geom_bond_atom_site_label_1
_geom_bond_atom_site_label_2
_geom_bond_distance
S1 O2 1.450(6)
S1 O3 1.421(5)
S1 N1 1.651(6)
S1 C15 1.749(7)
F1 C14 1.313(9)
F2 C14 1.347(12)
F3 C14 1.347(13)
O1 C10 1.185(10)
N1 C9 1.500(9)
N1 C10 1.359(8)
N2 N3 1.243(10)
N2 C7 1.455(9)
N3 N4 1.113(12)
C1 H1 0.9300
C1 C2 1.403(11)
C1 C6 1.369(11)
C2 H2 0.9300
C2 C3 1.379(12)
C3 H3 0.9300
C3 C4 1.370(13)
C4 H4 0.9300
C4 C5 1.361(11)
C5 H5 0.9300
C5 C6 1.384(10)
C6 C7 1.493(10)
C7 C8 1.364(11)
C8 C9 1.461(9)
C8 C11 1.496(10)
C9 H9A 0.9700
C9 H9B 0.9700
C10 C11 1.566(12)
C11 C12 1.546(9)
C11 C13 1.515(10)
C12 H12A 0.9600
C12 H12B 0.9600
C12 H12C 0.9600
C13 H13A 0.9700
C13 H13B 0.9700
C13 C14 1.469(13)
C15 C16 1.396(9)
C15 C20 1.386(9)
C16 H16 0.9300
C16 C17 1.366(9)
C17 H17 0.9300
C17 C18 1.378(10)
C18 C19 1.365(9)
C18 C21 1.527(9)
C19 H19 0.9300
C19 C20 1.373(8)
C20 H20 0.9300
C21 H21A 0.9600
C21 H21B 0.9600
C21 H21C 0.9600
loop_
_geom_torsion_atom_site_label_1
_geom_torsion_atom_site_label_2
_geom_torsion_atom_site_label_3
_geom_torsion_atom_site_label_4
_geom_torsion
S1 N1 C9 C8 -175.5(5)
S1 N1 C10 O1 4.2(13)
S1 N1 C10 C11 -176.5(5)
S1 C15 C16 C17 -179.1(6)
S1 C15 C20 C19 179.0(6)
O1 C10 C11 C8 177.4(8)
O1 C10 C11 C12 55.5(10)
O1 C10 C11 C13 -59.0(10)
O2 S1 N1 C9 146.0(5)
O2 S1 N1 C10 -47.6(7)
O2 S1 C15 C16 -156.4(6)
O2 S1 C15 C20 25.7(7)
O3 S1 N1 C9 17.0(6)
O3 S1 N1 C10 -176.7(6)
O3 S1 C15 C16 -23.0(7)
O3 S1 C15 C20 159.1(6)
N1 S1 C15 C16 89.0(6)
N1 S1 C15 C20 -88.9(6)
N1 C10 C11 C8 -1.9(8)
N1 C10 C11 C12 -123.8(6)
N1 C10 C11 C13 121.7(7)
N2 C7 C8 C9 -2.0(11)
N2 C7 C8 C11 177.4(7)
N3 N2 C7 C6 -11.2(11)
N3 N2 C7 C8 172.3(7)
C1 C2 C3 C4 0.3(15)
C1 C6 C7 N2 96.2(9)
C1 C6 C7 C8 -87.7(11)
C2 C1 C6 C5 -3.9(12)
C2 C1 C6 C7 178.0(8)
C2 C3 C4 C5 -0.1(16)
C3 C4 C5 C6 -2.2(15)
C4 C5 C6 C1 4.2(12)
C4 C5 C6 C7 -177.8(8)
C5 C6 C7 N2 -81.8(10)
C5 C6 C7 C8 94.3(10)
C6 C1 C2 C3 1.8(14)
C6 C7 C8 C9 -178.1(7)
C6 C7 C8 C11 1.3(13)
C7 N2 N3 N4 175(6)
C7 C8 C9 N1 162.0(7)
C7 C8 C11 C10 -166.9(8)
C7 C8 C11 C12 -51.1(12)
C7 C8 C11 C13 74.9(10)
C8 C11 C13 C14 49.1(13)
C9 N1 C10 O1 171.5(8)
C9 N1 C10 C11 -9.3(8)
C9 C8 C11 C10 12.6(8)
C9 C8 C11 C12 128.3(8)
C9 C8 C11 C13 -105.7(9)
C10 N1 C9 C8 16.6(8)
C10 C11 C13 C14 -65.5(11)
C11 C8 C9 N1 -17.5(8)
C11 C13 C14 F1 172.3(10)
C11 C13 C14 F2 50.3(14)
C11 C13 C14 F3 -68.2(13)
C12 C11 C13 C14 179.6(10)
C15 S1 N1 C9 -98.4(5)
C15 S1 N1 C10 67.9(7)
C15 C16 C17 C18 3.4(12)
C16 C15 C20 C19 1.1(11)
C16 C17 C18 C19 -5.4(12)
C16 C17 C18 C21 177.4(8)
C17 C18 C19 C20 5.3(11)
C18 C19 C20 C15 -3.3(11)
C20 C15 C16 C17 -1.2(11)
C21 C18 C19 C20 -177.5(7)
