#------------------------------------------------------------------------------
#$Date: 2016-02-18 17:37:37 +0200 (Thu, 18 Feb 2016) $
#$Revision: 176729 $
#$URL: svn://www.crystallography.net/cod/cif/1/51/82/1518235.cif $
#------------------------------------------------------------------------------
#
# This file is available in the Crystallography Open Database (COD),
# http://www.crystallography.net/
#
# All data on this site have been placed in the public domain by the
# contributors.
#
data_1518235
loop_
_publ_author_name
'Maolanon, Alex R.'
'Villadsen, Jesper S.'
'Christensen, Niels J.'
'Hoeck, Casper'
'Friis, Tina'
'Harris, Pernille'
'Gotfredsen, Charlotte H.'
'Fristrup, Peter'
'Olsen, Christian A.'
_publ_section_title
;
 Methyl effect in azumamides provides insight into histone deacetylase
 inhibition by macrocycles.
;
_journal_issue                   22
_journal_name_full               'Journal of medicinal chemistry'
_journal_page_first              9644
_journal_page_last               9657
_journal_paper_doi               10.1021/jm501399d
_journal_volume                  57
_journal_year                    2014
_chemical_absolute_configuration ad
_chemical_formula_moiety         'C15 H31 N O4 S, H2 O'
_chemical_formula_sum            'C15 H33 N O5 S'
_chemical_formula_weight         339.48
_chemical_name_systematic
;
 ?
;
_space_group_crystal_system      monoclinic
_space_group_IT_number           5
_space_group_name_Hall           'C 2y'
_space_group_name_H-M_alt        'C 1 2 1'
_symmetry_space_group_name_Hall  'C 2y'
_symmetry_space_group_name_H-M   'C 1 2 1'
_atom_sites_solution_hydrogens   mixed
_audit_creation_date             2014-07-04
_audit_creation_method
;
Olex2 1.2
(compiled 2014.03.12 svn.r2899 for OlexSys, GUI svn.r4796)
;
_cell_angle_alpha                90
_cell_angle_beta                 102.833(2)
_cell_angle_gamma                90
_cell_formula_units_Z            4
_cell_length_a                   17.9092(13)
_cell_length_b                   6.1043(5)
_cell_length_c                   17.9815(13)
_cell_measurement_reflns_used    3095
_cell_measurement_temperature    120(2)
_cell_measurement_theta_max      25.418
_cell_measurement_theta_min      2.333
_cell_volume                     1916.7(3)
_computing_data_reduction        'SAINT v6.45A (Bruker, 2003)'
_computing_molecular_graphics    'Olex2 (Dolomanov et al., 2009)'
_computing_publication_material  'Olex2 (Dolomanov et al., 2009)'
_computing_structure_refinement  'ShelXL (Sheldrick, 2008)'
_diffrn_ambient_temperature      120(2)
_diffrn_measured_fraction_theta_full 0.993
_diffrn_measured_fraction_theta_max 0.994
_diffrn_measurement_device_type  'Bruker P4'
_diffrn_measurement_method       '\w scans'
_diffrn_radiation_monochromator  graphite
_diffrn_radiation_type           MoK\a
_diffrn_radiation_wavelength     0.71073
_diffrn_reflns_av_R_equivalents  0.0414
_diffrn_reflns_av_unetI/netI     0.0678
_diffrn_reflns_Laue_measured_fraction_full 0.993
_diffrn_reflns_Laue_measured_fraction_max 0.994
_diffrn_reflns_limit_h_max       23
_diffrn_reflns_limit_h_min       -23
_diffrn_reflns_limit_k_max       8
_diffrn_reflns_limit_k_min       -8
_diffrn_reflns_limit_l_max       23
_diffrn_reflns_limit_l_min       -23
_diffrn_reflns_number            11996
_diffrn_reflns_point_group_measured_fraction_full 0.973
_diffrn_reflns_point_group_measured_fraction_max 0.973
_diffrn_reflns_theta_full        25.242
_diffrn_reflns_theta_max         28.340
_diffrn_reflns_theta_min         2.323
_diffrn_source_current           30.0
_diffrn_source_power             1.5
_diffrn_source_voltage           50.0
_exptl_absorpt_coefficient_mu    0.189
_exptl_absorpt_correction_T_max  1
_exptl_absorpt_correction_T_min  0.838952
_exptl_absorpt_correction_type   multi-scan
_exptl_absorpt_process_details
;
SADABS v.2.10 (Bruker,2003) was used for absorption correction.
R(int) was 0.0698 before and 0.0344 after correction.
The Ratio of minimum to maximum transmission is 0.8390.
The \l/2 correction factor is 0.0015.
;
_exptl_crystal_colour            'clear light colourless'
_exptl_crystal_colour_lustre     clear
_exptl_crystal_colour_modifier   light
_exptl_crystal_colour_primary    colourless
_exptl_crystal_density_diffrn    1.176
_exptl_crystal_description       needle
_exptl_crystal_F_000             744
_exptl_crystal_size_max          0.46
_exptl_crystal_size_mid          0.07
_exptl_crystal_size_min          0.05
_refine_diff_density_max         0.532
_refine_diff_density_min         -0.561
_refine_diff_density_rms         0.090
_refine_ls_abs_structure_details
;
 Flack x determined using 1332 quotients [(I+)-(I-)]/[(I+)+(I-)]
 (Parsons and Flack (2004), Acta Cryst. A60, s61).
;
_refine_ls_abs_structure_Flack   0.08(4)
_refine_ls_extinction_method     none
_refine_ls_goodness_of_fit_ref   1.186
_refine_ls_hydrogen_treatment    mixed
_refine_ls_matrix_type           full
_refine_ls_number_parameters     214
_refine_ls_number_reflns         4659
_refine_ls_number_restraints     1
_refine_ls_restrained_S_all      1.186
_refine_ls_R_factor_all          0.0784
_refine_ls_R_factor_gt           0.0479
_refine_ls_shift/su_max          0.000
_refine_ls_shift/su_mean         0.000
_refine_ls_structure_factor_coef Fsqd
_refine_ls_weighting_details
;
 w=1/[\s^2^(Fo^2^)+3.7854P]
 where P=(Fo^2^+2Fc^2^)/3
;
_refine_ls_weighting_scheme      calc
_refine_ls_wR_factor_gt          0.0760
_refine_ls_wR_factor_ref         0.1118
_reflns_Friedel_coverage         0.793
_reflns_Friedel_fraction_full    0.948
_reflns_Friedel_fraction_max     0.947
_reflns_number_gt                3636
_reflns_number_total             4659
_reflns_threshold_expression     'I > 2\s(I)'
_cod_data_source_file            jm501399d_si_002.cif
_cod_data_source_block           cpd18
_cod_depositor_comments
'Adding full bibliography for 1518235--1518236.cif.'
_cod_database_code               1518235
#BEGIN Tags that were not found in dictionaries:
_shelxl_version_number           2013-2
_shelx_space_group_comment
;
The symmetry employed for this shelxl refinement is uniquely defined
by the following loop, which should always be used as a source of
symmetry information in preference to the above space-group names.
They are only intended as comments.
;
_olex2_refinement_description
;
1. Fixed Uiso
 At 1.2 times of:
  All C(H) groups, All C(H,H) groups, All N(H) groups
 At 1.5 times of:
  All C(H,H,H) groups, All O(H) groups, All O(H,H) groups
2.a Free rotating group:
 O1(H1A,H1B)
2.b Ternary CH refined with riding coordinates:
 C8(H8)
2.c Secondary CH2 refined with riding coordinates:
 C7(H7A,H7B), C16(H16A,H16B)
2.d Idealised Me refined as rotating group:
 C10(H10A,H10B,H10C), C12(H12A,H12B,H12C), C14(H14A,H14B,H14C), C15(H15A,H15B,
 H15C), C17(H17A,H17B,H17C), C19(H19A,H19B,H19C), C20(H20A,H20B,H20C), C21(H21A,
 H21B,H21C)
2.e Idealised tetrahedral OH refined as rotating group:
 O5(H5)
;
_shelx_res_file
;
TITL jv34m_sad in C2
CELL 0.71073 17.9092 6.1043 17.9815 90 102.833 90
ZERR 4 0.0013 0.0005 0.0013 0 0.002 0
LATT -7
SYMM -X,+Y,-Z

SFAC C H N O S
UNIT 60 132 4 20 4

L.S. 4
PLAN  20
TEMP -153.15
BOND $H
MORE -1
CONF
fmap 2
acta
REM <HKL>U:/Documents/smart/christian/jv34_sad/jv34m_sad.hkl</HKL>

WGHT    0.000000    3.785400
FVAR       0.48044
S1    5   -0.363223   -0.353501   -0.155287    11.00000    0.01888    0.01693 =
         0.02393   -0.00108    0.00575   -0.00052
AFIX   6
O1    4   -0.260107   -0.308496    0.069499    11.00000    0.02871    0.01945 =
         0.02993   -0.00139    0.00606   -0.00450
H1A   2   -0.279736   -0.349634    0.022898    11.00000   -1.50000
H1B   2   -0.228811   -0.198106    0.073140    11.00000   -1.50000
AFIX   0

O2    4   -0.180302    0.002184   -0.372935    11.00000    0.03911    0.01799 =
         0.02806    0.00004    0.01754   -0.00087
O3    4   -0.325276   -0.442598   -0.077437    11.00000    0.02373    0.02003 =
         0.01803    0.00109    0.00204    0.00366
O4    4   -0.209308   -0.355162   -0.361618    11.00000    0.05467    0.02135 =
         0.04041   -0.00597    0.02717   -0.00516
O5    4   -0.145629   -0.529162   -0.133696    11.00000    0.03381    0.02356 =
         0.04163    0.00363    0.01771    0.00673
AFIX 147
H5    2   -0.175735   -0.606476   -0.115084    11.00000   -1.50000
AFIX   0
N6    3   -0.314123   -0.152298   -0.180842    11.00000    0.02279    0.01469 =
         0.02558   -0.00302    0.00929   -0.00376
H6    2   -0.298977   -0.054511   -0.147858    11.00000   -1.20000
C7    1   -0.175736   -0.162810   -0.181218    11.00000    0.02037    0.02150 =
         0.02346    0.00135    0.00686   -0.00029
AFIX  23
H7A   2   -0.139652   -0.184878   -0.215036    11.00000   -1.20000
H7B   2   -0.172263   -0.007370   -0.165107    11.00000   -1.20000
AFIX   0
C8    1   -0.257069   -0.208360   -0.226676    11.00000    0.02172    0.01661 =
         0.01583    0.00091    0.00445    0.00214
AFIX  13
H8    2   -0.261275   -0.368959   -0.237790    11.00000   -1.20000
AFIX   0
C9    1   -0.218303   -0.163880   -0.348560    11.00000    0.03955    0.02110 =
         0.02061   -0.00344    0.01135   -0.00471
C10   1   -0.275352    0.164876   -0.291956    11.00000    0.04411    0.02293 =
         0.02400    0.00152    0.01328    0.00504
AFIX 137
H10A  2   -0.312818    0.203994   -0.261901    11.00000   -1.50000
H10B  2   -0.288560    0.238677   -0.341548    11.00000   -1.50000
H10C  2   -0.224154    0.210918   -0.264689    11.00000   -1.50000
AFIX   0
C11   1   -0.276173   -0.084659   -0.304091    11.00000    0.03133    0.01980 =
         0.01981   -0.00091    0.00633    0.00145
C12   1   -0.490822   -0.110103   -0.212549    11.00000    0.02609    0.04324 =
         0.03104    0.00363    0.00301    0.01209
AFIX 137
H12A  2   -0.461818    0.013038   -0.226854    11.00000   -1.50000
H12B  2   -0.541093   -0.058523   -0.206920    11.00000   -1.50000
H12C  2   -0.497584   -0.222733   -0.252323    11.00000   -1.50000
AFIX   0
C13   1   -0.121429   -0.039875   -0.417002    11.00000    0.03588    0.02327 =
         0.02003    0.00466    0.01314    0.00089
C14   1   -0.155874   -0.152596   -0.491388    11.00000    0.03986    0.03571 =
         0.02750   -0.00431    0.01259   -0.00379
AFIX 137
H14A  2   -0.170370   -0.302582   -0.481192    11.00000   -1.50000
H14B  2   -0.118232   -0.156415   -0.523464    11.00000   -1.50000
H14C  2   -0.201393   -0.072005   -0.517824    11.00000   -1.50000
AFIX   0
C15   1   -0.096893    0.192407   -0.431529    11.00000    0.04298    0.03609 =
         0.03373    0.00035    0.01862   -0.00859
AFIX 137
H15A  2   -0.140348    0.271283   -0.462880    11.00000   -1.50000
H15B  2   -0.054863    0.186715   -0.458296    11.00000   -1.50000
H15C  2   -0.079692    0.268584   -0.382751    11.00000   -1.50000
AFIX   0
C16   1   -0.150911   -0.305936   -0.111128    11.00000    0.02054    0.02521 =
         0.02645    0.00024    0.00609   -0.00117
AFIX  23
H16A  2   -0.100534   -0.256029   -0.081252    11.00000   -1.20000
H16B  2   -0.188493   -0.293617   -0.078432    11.00000   -1.20000
AFIX   0
C17   1   -0.355076   -0.156520   -0.350115    11.00000    0.04126    0.03766 =
         0.02382   -0.00018    0.00671    0.00457
AFIX 137
H17A  2   -0.355975   -0.316179   -0.355956    11.00000   -1.50000
H17B  2   -0.365079   -0.087459   -0.400560    11.00000   -1.50000
H17C  2   -0.394566   -0.111816   -0.323223    11.00000   -1.50000
AFIX   0
C18   1   -0.447548   -0.205975   -0.137738    11.00000    0.01834    0.01858 =
         0.02353   -0.00087    0.00480    0.00194
C19   1   -0.425004   -0.032975   -0.076891    11.00000    0.02444    0.03254 =
         0.03749   -0.00343    0.01309    0.00540
AFIX 137
H19A  2   -0.393049   -0.099155   -0.031059    11.00000   -1.50000
H19B  2   -0.471176    0.029383   -0.064484    11.00000   -1.50000
H19C  2   -0.396151    0.083150   -0.095632    11.00000   -1.50000
AFIX   0
C20   1   -0.494406   -0.388287   -0.110642    11.00000    0.02134    0.03409 =
         0.05071    0.00229    0.01459   -0.00073
AFIX 137
H20A  2   -0.505606   -0.503479   -0.149490    11.00000   -1.50000
H20B  2   -0.542520   -0.327258   -0.102366    11.00000   -1.50000
H20C  2   -0.464972   -0.450380   -0.062791    11.00000   -1.50000
AFIX   0
C21   1   -0.055250   -0.167441   -0.368395    11.00000    0.03917    0.03548 =
         0.03750    0.00478    0.00624    0.00255
AFIX 137
H21A  2   -0.037580   -0.092795   -0.319390    11.00000   -1.50000
H21B  2   -0.013116   -0.176041   -0.394958    11.00000   -1.50000
H21C  2   -0.072427   -0.315656   -0.359530    11.00000   -1.50000
AFIX   0
HKLF 4

REM  jv34m_sad in C2
REM R1 =  0.0479 for    3636 Fo > 4sig(Fo)  and  0.0784 for all    4659 data
REM    214 parameters refined using      1 restraints

END

WGHT      0.0000      3.7854

REM Highest difference peak  0.532,  deepest hole -0.561,  1-sigma level  0.090
Q1    1  -0.4061 -0.4509 -0.1732  11.00000  0.05    0.53
Q2    1  -0.3431 -0.4290 -0.1990  11.00000  0.05    0.52
Q3    1  -0.3523 -0.2195 -0.1928  11.00000  0.05    0.52
Q4    1  -0.3372 -0.3570 -0.0976  11.00000  0.05    0.49
Q5    1  -0.3588 -0.3484 -0.2524  11.00000  0.05    0.45
Q6    1  -0.3874 -0.2555 -0.1181  11.00000  0.05    0.45
Q7    1  -0.3904 -0.5033 -0.1786  11.00000  0.05    0.45
Q8    1  -0.3066 -0.2902 -0.0499  11.00000  0.05    0.44
Q9    1  -0.4209 -0.3163 -0.1592  11.00000  0.05    0.44
Q10   1  -0.3293 -0.4690 -0.1363  11.00000  0.05    0.44
Q11   1  -0.3982 -0.4477 -0.2329  11.00000  0.05    0.44
Q12   1  -0.3834 -0.3574 -0.0205  11.00000  0.05    0.41
Q13   1  -0.4088 -0.2589 -0.1698  11.00000  0.05    0.40
Q14   1  -0.3868 -0.4699 -0.1154  11.00000  0.05    0.39
Q15   1  -0.3264 -0.2401 -0.1401  11.00000  0.05    0.38
Q16   1  -0.2090 -0.3773  0.0149  11.00000  0.05    0.38
Q17   1  -0.4081 -0.1027 -0.1044  11.00000  0.05    0.38
Q18   1  -0.3098 -0.5591 -0.0896  11.00000  0.05    0.37
Q19   1  -0.4202 -0.5757 -0.2224  11.00000  0.05    0.37
Q20   1  -0.3082 -0.3681 -0.1539  11.00000  0.05    0.36
;
_shelx_res_checksum              37773
_shelx_hkl_file
;
   2   0   0 5037.72   52.76
  -2   0   0 4990.10   50.70
  -2   0   0 5003.59   54.11
   2   0   0 4920.90   52.76
   4   0   0  157.51    8.18
   4   0   0  154.07    5.96
  -4   0   0  162.99    8.52
  -4   0   0  128.99    7.35
   6   0   0 1305.31   29.40
   6   0   0 1336.39   22.34
  -6   0   0 1303.75   27.20
  -6   0   0 1331.06   28.27
  -8   0   0  121.99   11.11
  -8   0   0  118.38   10.81
   8   0   0  114.88   10.11
   8   0   0  121.40    7.35
 -10   0   0  400.23   20.15
 -10   0   0  392.61   19.62
  10   0   0  383.51   20.12
  10   0   0  404.83   14.76
  12   0   0   15.32    6.36
 -12   0   0   12.15    8.48
 -12   0   0   14.18    8.38
  12   0   0   20.15    4.97
 -14   0   0  175.32   18.24
  14   0   0  171.82   11.80
  14   0   0  193.69   17.43
 -14   0   0  178.98   17.76
  16   0   0   73.81    9.43
 -16   0   0   71.90   14.16
 -16   0   0   55.80   13.46
  16   0   0   65.98   13.45
  18   0   0    8.43    5.58
 -18   0   0    9.43    7.53
 -18   0   0    4.71    8.43
  20   0   0    3.83    5.87
 -20   0   0    6.03    8.43
  22   0   0  170.14   25.03
 -22   0   0  159.74   24.18
  -1   1   0 1137.38   17.89
   1   1   0 1161.47   18.36
   1   1   0 1181.85   19.86
  -1   1   0 1167.62   22.33
   1   1   0 1195.25   20.78
   1  -1   0 1159.27   17.46
   1  -1   0 1166.22   20.11
   1   1   0 1156.04   19.49
  -3   1   0  394.64   11.09
   3   1   0  378.94   13.13
   3  -1   0  394.86   10.61
   3   1   0  394.69    9.29
  -3   1   0  401.25   14.50
  -3  -1   0  411.32   11.08
   3  -1   0  400.96   12.30
  -5   1   0  158.28    9.87
   5  -1   0  166.61    8.86
   5  -1   0  162.97    8.96
  -5  -1   0  167.14    8.92
   5   1   0  169.74    6.50
  -5   1   0  154.07   10.84
  -5  -1   0  154.26   10.92
  -7  -1   0  779.36   21.72
  -7   1   0  765.04   22.31
   7   1   0  790.94   16.24
   7  -1   0  773.92   21.13
   7   1   0  757.91   25.65
   7  -1   0  759.32   22.53
  -7  -1   0  748.44   23.61
  -7   1   0  784.33   26.09
  -9  -1   0  107.36   11.44
   9  -1   0   93.57    9.37
   9   1   0  110.80   11.26
  -9   1   0  106.96   12.27
  -9   1   0  113.13   11.24
   9   1   0  105.00    6.83
   9  -1   0  106.68    8.53
  11  -1   0   74.58    7.81
 -11   1   0   69.51   11.58
  11   1   0   88.93   13.01
  11  -1   0   78.43   10.71
 -11   1   0   69.38   11.05
  11   1   0   83.10    7.01
 -11  -1   0   80.39   12.12
 -13  -1   0   92.44   14.22
  13   1   0   80.35    7.62
 -13   1   0   75.58   13.26
  13   1   0   69.17   12.40
 -13   1   0   84.16   13.10
  13  -1   0   67.14   11.48
  13  -1   0   79.09    9.49
 -13  -1   0   85.09   13.59
  15  -1   0   59.76    9.22
  15  -1   0   54.78   11.40
  15   1   0   55.64   12.55
 -15   1   0   68.32   13.61
 -15  -1   0   79.23   14.92
 -15   1   0   54.41   12.33
 -15  -1   0   64.80   14.00
  17  -1   0   84.70   15.38
  17   1   0   95.30   17.34
  17  -1   0   85.82   11.47
 -17   1   0  105.69   16.87
 -17   1   0  108.60   15.91
 -17  -1   0   81.35   14.95
 -19   1   0  129.53   18.37
  19   1   0  147.94   22.03
 -19   1   0  149.36   20.95
  19  -1   0  120.60   19.05
 -21   1   0  169.60   21.63
  21   1   0  148.07   24.06
  21  -1   0  175.00   23.70
 -21  -1   0  178.41   25.15
 -23  -1   0   66.59   17.62
  23   1   0   61.85   16.75
  23  -1   0   55.13   14.57
   0   2   0  380.23   14.29
   0   2   0  395.61   12.69
   0   2   0  395.19   13.58
   2  -2   0  316.15   10.74
  -2   2   0  325.26   15.60
   2  -2   0  305.72   13.49
   2   2   0  336.44   13.65
   2   2   0  323.72   14.06
   2   2   0  315.38   13.26
  -2   2   0  323.92   11.93
   2   2   0  319.25   12.30
  -4   2   0  286.00   16.06
  -4   2   0  284.93   11.79
   4   2   0  291.83   13.94
   4  -2   0  312.35   11.56
  -4  -2   0  285.20   11.59
   4   2   0  302.65   14.77
  -4  -2   0  301.57   12.98
   4   2   0  300.11   11.58
  -6   2   0  585.82   18.38
   6   2   0  556.94   22.32
  -6  -2   0  561.12   18.18
   6   2   0  548.36   15.22
  -6   2   0  548.82   23.75
   6  -2   0  578.26   17.95
   6  -2   0  560.41   20.61
   8   2   0  423.40   13.39
  -8  -2   0  399.75   17.19
   8  -2   0  437.67   18.14
   8  -2   0  424.96   18.99
  -8   2   0  402.83   22.11
  -8  -2   0  425.72   20.84
   8   2   0  432.17   22.12
  -8   2   0  427.60   17.30
 -10  -2   0  127.01   14.24
 -10   2   0  139.76   15.88
  10  -2   0  144.55   11.85
  10  -2   0  134.95   11.34
 -10  -2   0  141.64   13.01
  10   2   0  141.44    8.38
 -10   2   0  147.16   12.24
 -12   2   0   42.18    9.02
 -12   2   0   28.28    9.24
  12  -2   0   40.67    8.15
  12   2   0   34.97    5.22
  12  -2   0   24.87    6.97
 -12  -2   0   29.13   10.45
 -12  -2   0   33.80   10.42
  14   2   0   68.01   13.71
 -14  -2   0   55.40   12.94
 -14   2   0   75.00   11.75
 -14  -2   0   57.72   13.91
  14  -2   0   70.72   11.88
  14  -2   0   63.83   10.42
 -14   2   0   62.07   13.06
  16   2   0    0.23    4.26
 -16   2   0   -8.98    4.29
  16  -2   0    0.89    3.87
 -16   2   0    7.00    5.35
 -16  -2   0   -2.36    5.15
  16  -2   0    0.09    4.16
 -18   2   0  100.32   14.49
  18  -2   0   96.80   13.63
  18   2   0   83.89   17.12
 -18   2   0   96.68   18.02
  18  -2   0   89.89   15.56
 -20   2   0   78.55   17.87
  20  -2   0   72.58   15.02
  20   2   0   61.54   15.40
  22   2   0   23.73   10.34
  22  -2   0   56.83   14.84
 -22  -2   0    4.18    7.48
   1   3   0  396.19   17.54
   1  -3   0  382.82   14.39
   1   3   0  381.51   18.85
   1   3   0  386.37   15.85
  -1   3   0  374.10   15.50
   1   3   0  366.42   16.32
   1  -3   0  359.22   17.29
  -3   3   0  177.62   10.84
   3  -3   0  195.33   13.09
  -3   3   0  180.08   14.37
   3   3   0  174.52   12.02
   3   3   0  180.29   12.29
   3   3   0  174.36   11.25
   3  -3   0  172.98    9.52
   3   3   0  195.44   13.43
  -5  -3   0  657.82   21.58
  -5   3   0  725.09   22.15
  -5   3   0  686.43   29.69
   5  -3   0  704.38   20.51
   5   3   0  679.48   25.52
   5   3   0  700.22   26.26
  -5  -3   0  688.23   23.79
   5   3   0  728.25   22.04
  -7   3   0  374.22   23.07
   7   3   0  378.17   20.94
   7   3   0  395.83   20.89
   7  -3   0  412.74   20.75
  -7   3   0  416.08   17.50
   7   3   0  400.00   16.02
  -7  -3   0  396.36   18.25
   7  -3   0  419.05   17.09
   9  -3   0   25.12    6.04
  -9  -3   0   27.58    9.18
  -9   3   0   25.11    8.22
   9   3   0   27.72    5.09
  -9  -3   0   26.58    6.96
   9   3   0   19.10    6.33
   9  -3   0   27.76    7.74
  -9   3   0   24.07    6.04
  11  -3   0  289.11   17.33
  11  -3   0  267.28   18.88
 -11   3   0  315.11   23.69
 -11  -3   0  291.57   18.32
  11   3   0  289.86   13.36
 -11  -3   0  258.33   20.48
 -11   3   0  276.95   17.02
  11   3   0  300.79   21.82
 -13  -3   0  171.46   19.51
  13  -3   0  199.39   16.52
 -13   3   0  163.60   14.23
 -13  -3   0  171.12   16.67
 -13   3   0  167.92   20.63
  13  -3   0  197.36   16.12
  15  -3   0   87.97   13.66
 -15   3   0   66.77   11.20
 -15   3   0   63.17   15.00
  15  -3   0   81.26   13.14
  17  -3   0   39.29   10.08
  17  -3   0   33.38    9.57
 -17   3   0   52.79   13.99
  19  -3   0   36.03   10.63
  19   3   0   13.08    6.48
 -19   3   0   26.88   11.28
 -19  -3   0   -5.28    5.08
 -21   3   0    3.90    8.46
 -21  -3   0  -10.07    5.91
  21   3   0    8.57    7.95
   0  -4   0  593.05   25.15
   0  -4   0  594.16   21.75
   0   4   0  612.62   28.12
   0   4   0  587.85   23.14
   2  -4   0   66.78    7.06
   2   4   0   79.43   10.50
   2   4   0   88.00   10.33
   2  -4   0   57.48    9.65
   2   4   0   76.36   11.40
  -2   4   0   62.90    8.18
   2   4   0   71.00    9.52
  -4   4   0   56.63   11.55
   4   4   0   56.90    9.60
   4   4   0   47.02    8.96
   4   4   0   66.70    9.38
  -4   4   0   60.89    8.24
   4   4   0   58.40   10.01
   4  -4   0   60.57   10.37
   4  -4   0   54.15    6.85
  -6  -4   0  213.55   15.82
   6   4   0  197.20   15.89
   6   4   0  228.61   14.43
   6  -4   0  218.39   12.72
  -6   4   0  221.25   13.96
   6  -4   0  216.35   16.76
   6   4   0  203.66   16.20
  -6  -4   0  213.38   14.38
  -6   4   0  202.62   18.70
  -8   4   0  470.24   20.99
   8  -4   0  445.09   25.03
  -8  -4   0  455.97   22.59
  -8   4   0  467.10   29.24
   8  -4   0  478.55   20.22
   8   4   0  482.77   20.40
   8   4   0  479.25   25.86
   8   4   0  466.16   26.02
 -10   4   0   10.06    7.07
  10   4   0    4.03    4.47
 -10  -4   0    9.07    5.68
 -10  -4   0    4.57    7.23
 -10   4   0    6.15    4.25
  10  -4   0    9.10    4.46
  10  -4   0    3.52    4.06
 -12  -4   0   73.90   12.21
 -12  -4   0   72.57   14.71
 -12   4   0   65.34   15.12
 -16  -4   0   38.60   13.83
 -16   4   0   18.07    9.78
  16  -4   0   24.88    9.15
 -18   4   0   70.67   17.87
  18  -4   0   59.53   14.08
 -18  -4   0   54.06   15.98
  20  -4   0   -2.19    5.77
  20   4   0   -3.69    5.70
 -20  -4   0   -2.85    6.70
 -20   4   0   -1.96    7.99
  -1  -5   0    0.95    2.87
  -1  -5   0    1.92    2.97
   1  -5   0    5.02    3.18
   1   5   0    3.02    3.55
   1   5   0   -0.13    3.82
  -1   5   0    2.68    3.82
   1  -5   0    0.79    3.31
  -1   5   0    4.96    4.13
   3   5   0    7.71    4.98
  -3   5   0   -2.77    2.85
   3  -5   0    8.39    5.53
   3   5   0   11.40    5.33
  -3  -5   0    5.66    4.46
  -3   5   0    9.18    4.65
   3   5   0   16.70    7.06
   3  -5   0   13.61    4.45
   5   5   0  178.98   15.59
   5   5   0  199.48   15.70
  -5   5   0  198.77   14.57
   5  -5   0  190.51   17.19
   5   5   0  189.76   16.85
   7   5   0  400.62   24.87
   7  -5   0  432.76   26.72
  -7  -5   0  380.01   22.93
   7   5   0  385.81   21.38
   7   5   0  390.49   24.48
  -7  -5   0  427.31   22.65
  -9  -5   0   65.51   12.01
  -9   5   0   89.63   18.09
   9   5   0   70.04   13.56
  11   5   0   53.56   12.96
 -11  -5   0   39.24    9.93
 -11   5   0   46.04   13.92
 -11  -5   0   48.07   11.92
 -13   5   0   42.46   13.64
 -13  -5   0   36.91   12.63
 -15   5   0  174.61   26.61
 -15  -5   0  155.92   22.80
 -17   5   0   32.00   12.59
 -17  -5   0   22.14   12.89
  17  -5   0   22.16    9.30
   0   6   0  758.27   31.94
   0  -6   0  733.68   34.23
   2   6   0  148.17   15.42
  -2  -6   0  156.64   13.93
  -2  -6   0  141.70   14.67
   2  -6   0  165.53   16.92
   2   6   0  134.52   18.78
   4   6   0  101.03   14.99
   4  -6   0   94.68   15.39
  -4  -6   0  115.67   15.03
   4   6   0  115.24   17.09
   6   6   0   37.79   10.72
  -6  -6   0   44.05   10.61
   6  -6   0   47.20   12.23
   6   6   0   34.58    9.35
  -6  -6   0   33.04    8.78
  -6  -6   0   40.99    9.81
   8   6   0   47.63   12.19
   8  -6   0   66.39   14.77
  -8  -6   0   62.43   12.16
  -8  -6   0   55.68   12.31
   8   6   0   46.07   11.70
  10   6   0   77.69   15.79
 -10  -6   0   84.87   16.51
 -10   6   0   92.75   20.40
 -12   6   0   95.35   20.68
 -12  -6   0   82.74   16.95
  12   6   0   70.03   15.34
 -14  -6   0  105.87   20.55
  14   6   0  119.63   21.37
 -14   6   0  119.25   24.46
   1   7   0   54.27   14.38
  -1  -7   0   48.80   12.01
   1  -7   0   51.60   12.58
   3   7   0   27.18   10.11
  -3  -7   0   24.52    9.45
   3  -7   0   18.33    8.71
   3   7   0   28.04    9.42
  -5  -7   0   48.33   11.42
   5  -7   0   39.52   12.26
   5   7   0   35.08   10.24
  -5  -7   0   54.23   12.90
  -7  -7   0   53.26   13.43
   7  -7   0   60.13   14.91
  -7  -7   0   59.16   13.43
   9  -7   0   26.74   10.84
  -9  -7   0   36.32   12.39
  11   7   0   82.98   17.74
 -11  -7   0   86.79   18.48
 -11   7   0   78.25   19.93
   0  -8   0    5.35    6.15
   0   8   0    4.06    9.36
   2   8   0   10.49    9.25
   2  -8   0    4.73    7.21
  -2  -8   0   18.05    8.21
  -2   8   0   -2.15    7.72
  -4   8   0   -5.25    6.30
   4  -8   0   27.14   11.65
  -4  -8   0   39.91   11.35
  -4  -8   0   21.57    8.47
  22   0  -1   -2.84    5.49
 -22   0   1    8.14    9.77
  20   0  -1   80.76   16.22
 -20   0   1   94.42   18.32
  18   0  -1  232.92   22.10
 -18   0   1  219.26   21.64
 -16   0   1    3.62    6.91
  16   0  -1    3.10    3.21
 -16   0   1    2.20    7.59
  16   0  -1   -3.09    3.50
  14   0  -1   16.65    6.66
  14   0  -1   10.82    4.66
 -14   0   1   21.28    9.68
 -14   0   1    6.63    7.46
  12   0  -1  380.61   16.18
 -12   0   1  396.76   21.47
 -12   0   1  389.74   22.61
  12   0  -1  382.10   22.28
  10   0  -1 1022.65   25.00
  10   0  -1 1017.59   32.76
 -10   0   1 1039.92   30.17
 -10   0   1 1001.65   31.11
  -8   0   1   50.12    7.46
  -8   0   1   45.82    7.79
   8   0  -1   59.00    8.18
   8   0  -1   53.14    5.36
   6   0  -1  395.43   15.41
  -6   0   1  383.90   14.30
   6   0  -1  389.32   12.02
   4   0  -1   13.82    2.51
   4   0  -1   16.92    3.42
  -4   0   1   12.78    3.17
   2   0  -1    2.83    1.62
  -2   0   1    3.48    1.87
   2   0  -1    2.95    1.33
  -2   0   1    3.30    1.19
  -2   0  -1  152.17    4.24
   2   0   1  151.65    5.30
   2   0   1  152.00    4.24
  -2   0  -1  150.11    6.54
   2   0   1  157.91    6.36
   4   0   1  107.36    7.28
  -4   0  -1  113.88    7.24
   4   0   1  105.81    4.78
  -4   0  -1  115.73    9.35
  -6   0  -1  101.43    8.78
   6   0   1  105.40    5.80
   6   0   1   99.30    8.69
  -6   0  -1  110.09   11.54
  -8   0  -1  139.88   12.99
  -8   0  -1  155.72   11.74
   8   0   1  145.74   11.61
   8   0   1  145.50    7.58
 -10   0  -1    3.18    6.96
  10   0   1    4.03    2.25
  10   0   1    4.38    3.78
 -10   0  -1    3.45    5.75
 -12   0  -1   18.74    9.80
  12   0   1   24.43    4.93
  12   0   1   18.77    6.79
 -12   0  -1   33.46    9.67
  14   0   1    0.07    2.61
 -14   0  -1    6.97    8.79
  14   0   1    1.00    3.72
 -14   0  -1    2.63    7.37
 -16   0  -1  312.28   24.33
 -16   0  -1  287.45   22.78
  16   0   1  282.48   23.21
  18   0   1    6.53    5.22
 -18   0  -1   -1.92    6.00
 -18   0  -1    7.63    8.36
 -20   0  -1   44.59   13.76
  20   0   1   41.12   12.45
  22   0   1   42.97   13.17
 -22   0  -1   66.63   17.37
 -23  -1   1   30.36   15.48
  23  -1  -1   31.94   11.62
 -23   1   1   38.61   12.20
  23   1  -1   30.32   10.82
  21   1  -1   33.09   11.47
 -21   1   1   31.03   10.65
  21  -1  -1   23.80    9.87
 -19   1   1   45.24   12.45
  19   1  -1   24.52    9.37
 -19   1   1   38.30   10.93
  19  -1  -1   27.47    9.33
 -17   1   1    5.67    6.77
 -17   1   1   11.96    7.74
  17  -1  -1    7.92    5.53
 -17  -1   1   -0.37    7.17
  17  -1  -1   10.85    5.25
  17   1  -1    1.94    5.57
 -15  -1   1   70.84   14.31
 -15  -1   1   83.86   13.51
  15  -1  -1   87.39   10.88
 -15   1   1   81.82   14.08
  15   1  -1   67.03   13.25
 -15   1   1   58.37   12.42
  15   1  -1   85.44    8.63
  15  -1  -1   77.20   13.13
  13   1  -1  299.08   21.59
  13   1  -1  294.41   14.25
 -13  -1   1  304.87   19.89
 -13   1   1  282.91   20.00
 -13   1   1  286.16   20.22
  13  -1  -1  291.31   16.19
  13  -1  -1  320.06   20.09
 -11   1   1   99.62   12.48
 -11   1   1  106.93   12.80
  11  -1  -1   92.20    8.64
 -11  -1   1   88.52   11.65
  11  -1  -1   96.63   10.36
  11   1  -1  101.14   13.37
  11   1  -1  102.19    8.05
   9   1  -1  126.50    7.95
   9  -1  -1  122.29   10.20
  -9  -1   1  123.16   11.16
  -9  -1   1  131.01   12.47
  -9   1   1  127.70   12.14
  -9   1   1  121.54   11.58
   9   1  -1  113.11   11.32
   9  -1  -1  119.03    8.97
   7   1  -1  562.46   14.83
  -7   1   1  583.26   20.18
  -7  -1   1  578.06   20.68
  -7   1   1  582.90   21.70
  -7  -1   1  590.07   17.44
   7   1  -1  587.88   22.16
   7  -1  -1  620.41   19.06
   7  -1  -1  603.35   19.11
   5   1  -1 3646.21   41.39
   5  -1  -1 3644.84   45.96
  -5   1   1 3601.04   47.71
   5   1  -1 3348.80   52.70
  -5  -1   1 3597.29   42.66
   5  -1  -1 3696.87   48.30
  -5  -1   1 3581.30   49.61
  -5   1   1 3757.07   54.04
  -3   1   1  343.97   12.88
  -3   1   1  357.58   11.43
  -3  -1   1  335.76    9.05
  -3  -1   1  336.16    8.36
   3  -1  -1  351.42    8.75
   3   1  -1  353.26    9.83
  -3  -1   1  340.66   11.85
   1  -1  -1 1072.02   15.73
   1   1  -1 1056.16   16.96
   1   1  -1 1111.77   18.82
  -1   1   1 1058.74   19.22
   1   1  -1 1087.39   19.76
   1  -1  -1 1082.00   18.65
   1  -1  -1 1089.63   16.33
   1   1  -1 1083.75   19.17
  -1   1   1 1152.70   22.17
   3  -1   1  235.38    9.46
   3   1   1  245.60   10.73
  -3   1  -1  237.29   11.94
   3  -1   1  242.06    9.83
   3   1   1  241.66   10.43
  -3  -1  -1  229.91    9.66
   3   1   1  247.69    6.47
   5  -1   1  149.80    8.63
   5   1   1  142.76    9.58
  -5   1  -1  138.97   11.01
   5   1   1  146.61    5.23
  -5   1  -1  142.21    9.26
   5  -1   1  147.36    9.05
  -5  -1  -1  162.08    9.99
   7   1   1   67.67    8.97
   7  -1   1  100.98    7.68
   7  -1   1   96.95    8.80
   7   1   1  101.55    5.26
  -7  -1  -1   92.52    9.89
  -7   1  -1   92.04   10.72
  -7   1  -1   92.21    9.18
   9   1   1  582.73   14.30
  -9   1  -1  577.44   25.56
  -9   1  -1  597.09   21.83
  -9  -1  -1  577.89   23.06
   9  -1   1  561.27   19.09
   9  -1   1  600.16   23.58
   9   1   1  578.82   25.52
  11   1   1  244.14   10.37
  11   1   1  231.15   17.80
 -11   1  -1  238.92   18.75
  11  -1   1  233.00   13.18
 -11  -1  -1  222.04   18.81
  11  -1   1  222.55   16.04
 -11   1  -1  200.08   15.89
 -11  -1  -1  216.40   17.28
  13   1   1   82.11    7.24
 -13   1  -1   99.30   13.51
  13  -1   1   92.84   13.24
  13   1   1   90.61   14.57
 -13  -1  -1  108.51   14.99
  13  -1   1  112.95    9.80
 -13  -1  -1  120.29   16.68
 -13   1  -1  108.99   15.64
 -15  -1  -1   73.39   14.46
 -15   1  -1   75.18   13.34
 -15   1  -1   76.31   14.79
  15  -1   1   60.84   12.46
  15  -1   1   59.91    8.92
 -15  -1  -1   65.82   14.59
  15   1   1   59.68   13.12
 -17   1  -1  185.12   21.61
 -17  -1  -1  188.24   20.35
  17   1   1  166.26   21.96
  17  -1   1  164.81   17.91
  17  -1   1  157.89   13.24
 -17   1  -1  167.11   18.77
  19   1   1  112.40   20.03
 -19   1  -1   93.02   17.49
  19  -1   1   91.19   16.82
 -19   1  -1  101.31   16.48
  21  -1   1    0.06    6.07
 -21   1  -1   15.84    8.13
  21   1   1    8.34    6.86
 -21  -1  -1   13.59   11.68
  22   2  -1   44.64   14.27
 -22  -2   1   -2.84    6.69
 -20   2   1   61.08   12.40
  20   2  -1   54.48   14.14
  20  -2  -1   44.12   11.67
 -20   2   1   58.57   15.45
  18   2  -1   29.33   10.24
  18  -2  -1   19.00    7.34
  18  -2  -1   22.77    8.58
 -18   2   1   32.01    9.69
 -18   2   1   13.46    8.56
  16   2  -1   25.02    8.87
 -16   2   1   24.35    9.61
 -16  -2   1    0.87    5.75
  16  -2  -1   31.60    8.51
  16  -2  -1   17.00    6.72
 -16   2   1   41.05    9.75
  14  -2  -1  130.10   13.39
  14  -2  -1  122.99   12.67
 -14  -2   1  118.42   16.75
 -14  -2   1  117.71   15.51
 -14   2   1  135.38   14.88
 -14   2   1  118.80   16.82
  14   2  -1  113.17   16.93
  12   2  -1   61.75    7.07
 -12  -2   1   59.99   12.37
  12  -2  -1   64.63    9.88
 -12   2   1   54.94    9.90
  12   2  -1   62.04   12.20
  12  -2  -1   66.57   10.15
 -12   2   1   43.58   10.96
 -12  -2   1   64.88   11.19
  10   2  -1  491.50   16.59
 -10  -2   1  505.09   20.33
 -10  -2   1  487.75   24.61
  10  -2  -1  482.06   20.72
 -10   2   1  476.28   21.31
  10  -2  -1  462.93   20.99
 -10   2   1  443.63   24.49
  -8   2   1   58.58    9.98
   8   2  -1   61.89    9.91
  -8   2   1   56.85    7.94
  -8  -2   1   56.36    9.45
  -8  -2   1   63.65    7.37
   8  -2  -1   61.09    7.23
   8  -2  -1   61.55    8.59
   8   2  -1   56.09    5.74
   6   2  -1  945.21   29.61
   6   2  -1  954.83   21.77
  -6  -2   1  996.33   22.92
  -6   2   1  990.06   25.71
  -6   2   1  960.36   31.21
   6  -2  -1 1025.26   22.62
  -6  -2   1  982.91   28.19
   6  -2  -1 1026.90   27.84
   4   2  -1  388.24   13.48
   4   2  -1  366.76   15.08
   4  -2  -1  274.61   13.49
   4  -2  -1  380.41   11.10
  -4   2   1  343.90   17.19
  -4   2   1  373.41   14.44
   4   2  -1  344.43   15.91
   2   2  -1  867.43   22.73
   2   2  -1  866.00   22.58
   2   2  -1  861.34   21.49
   2  -2  -1  858.33   16.41
   2  -2  -1  831.36   21.98
  -2   2   1  874.64   25.55
   2   2  -1  857.94   21.01
  -2   2   1  825.43   20.95
   0  -2  -1 1052.79   23.24
   0   2   1 1050.13   24.37
   0   2  -1 1083.99   25.26
   0   2  -1 1075.00   27.07
   0   2  -1 1073.31   21.06
   0   2   1 1100.80   21.05
   0  -2   1 1092.06   23.74
   2   2   1   80.10    6.77
  -2   2  -1   72.79    7.04
  -2   2  -1   75.17    8.59
  -2   2  -1   74.95    5.56
   2   2   1   75.76    5.99
   2   2   1   71.30    7.10
   2  -2   1   79.03    6.20
   2   2   1   77.77    7.32
  -4   2  -1   82.03    6.00
  -4  -2  -1   71.67    7.15
   4   2   1   85.38    5.92
   4   2   1   81.16    7.90
  -4  -2  -1   83.62    6.96
   4  -2   1   83.28    7.63
   4  -2   1   80.43    6.66
  -4   2  -1   87.20   10.14
   6   2   1  172.69    7.86
  -6  -2  -1  167.26   10.79
   6  -2   1  172.57   10.63
  -6   2  -1  160.96    9.36
   6  -2   1  172.59   11.56
   6   2   1  166.92   12.48
   6   2   1  167.36   12.40
  -6   2  -1  156.96   13.35
   8  -2   1 1240.49   32.30
  -8   2  -1 1285.73   29.63
  -8  -2  -1 1266.41   32.18
   8   2   1 1257.66   38.36
   8  -2   1 1281.65   33.78
  -8   2  -1 1287.85   40.49
   8   2   1 1291.01   22.58
  10   2   1   96.76   13.64
  10   2   1   85.81    6.05
  10  -2   1   89.54   10.98
 -10   2  -1   95.17   14.02
 -10   2  -1   90.75   10.10
  10  -2   1   97.69    9.75
 -10  -2  -1   92.38   11.82
 -10  -2  -1  106.17   13.55
 -12   2  -1  127.63   16.73
  12  -2   1  108.58   13.20
 -12  -2  -1  110.58   14.84
 -12   2  -1  119.55   12.68
 -12  -2  -1  101.91   14.56
  12  -2   1  109.86   10.67
  14  -2   1  145.58   14.93
  14   2   1   78.12   14.72
 -14  -2  -1  141.20   17.96
  14  -2   1  146.27   13.22
 -14   2  -1  142.67   14.74
 -14   2  -1  152.45   19.41
 -16   2  -1   70.26   15.65
  16  -2   1   73.34   13.55
 -16  -2  -1   50.98   15.13
 -16   2  -1   71.64   11.93
  16   2   1   72.02   15.46
  16  -2   1   61.52   11.01
 -18   2  -1    2.68    6.27
  18  -2   1    0.00    4.28
  18   2   1    0.07    5.20
 -18   2  -1   -1.90    5.02
 -18  -2  -1    1.31    4.92
  18  -2   1    2.04    4.35
 -20   2  -1   28.55   12.29
  20   2   1   22.55    9.84
  20  -2   1   23.15    9.27
  22  -2   1   23.50   10.02
 -22  -2  -1   -0.74    7.11
  22   2   1   15.38    8.17
  21   3  -1   18.60   10.63
  21  -3  -1   31.74   10.50
 -21   3   1   42.70   14.55
  19   3  -1   65.57   15.99
 -19   3   1   65.18   16.34
  19  -3  -1   64.38   12.94
 -17   3   1   83.86   17.19
  17  -3  -1   54.49   11.62
  15   3  -1    0.27    3.23
  15  -3  -1    6.56    4.79
 -15   3   1    4.66    4.56
 -15  -3   1    3.27    8.26
  15  -3  -1    5.56    4.54
 -15   3   1    2.62    5.47
  13  -3  -1  139.06   13.39
 -13  -3   1  171.09   19.53
 -13  -3   1  144.43   15.09
  13  -3  -1  145.41   14.30
 -13   3   1  129.79   13.20
 -13   3   1  142.87   19.22
  11  -3  -1  198.76   15.75
  11   3  -1  209.18   18.34
 -11   3   1  212.25   15.48
 -11   3   1  207.82   19.23
  11  -3  -1  225.63   14.81
  11   3  -1  203.33   12.00
 -11  -3   1  207.32   15.16
 -11  -3   1  179.11   18.33
   9  -3  -1   34.70    6.70
  -9  -3   1   41.94    7.46
  -9  -3   1   31.30    9.77
   9   3  -1   35.63    8.50
   9  -3  -1   41.79    8.78
  -9   3   1   39.33    7.52
  -9   3   1   29.95    8.73
   9   3  -1   39.89    6.14
  -7   3   1  181.96   16.22
  -7   3   1  205.36   13.10
  -7  -3   1  181.52   11.83
   7   3  -1  191.46   15.21
   7   3  -1  209.88   12.08
   7  -3  -1  206.80   14.65
   7  -3  -1  210.06   11.17
   5   3  -1  371.48   16.35
   5  -3  -1  407.61   19.63
  -5   3   1  379.67   21.67
   5   3  -1  361.45   19.29
  -5   3   1  384.41   16.98
   5  -3  -1  405.26   13.99
   5   3  -1  392.24   18.71
   3   3  -1  851.25   25.42
  -3   3   1  815.98   24.61
   3   3  -1  849.13   25.46
  -3   3   1  800.08   29.77
   3  -3  -1  865.69   19.95
   3  -3  -1  844.66   27.08
   3   3  -1  855.72   27.45
   3   3  -1  866.15   27.34
   1  -3  -1  311.91   12.29
   1   3  -1  309.69   14.25
   1   3  -1  319.83   16.04
   1  -3  -1  286.90   14.82
   1   3  -1  309.72   14.85
   1   3  -1  319.70   17.37
  -1   3   1  310.41   15.11
   1  -3   1 1194.64   27.86
   1   3   1 1187.77   31.07
  -1  -3  -1 1189.09   29.60
  -1   3  -1 1134.73   34.41
  -1   3  -1 1168.26   32.49
   1   3   1 1186.49   27.97
   1   3   1 1176.64   34.30
  -1   3  -1 1154.50   26.24
  -3   3  -1  311.90   18.98
   3  -3   1  318.69   14.04
   3   3   1  306.12   15.71
   3   3   1  324.62   17.28
   3   3   1  309.41   14.34
   3   3   1  295.29   16.26
  -3   3  -1  325.31   13.07
   3  -3   1  320.95   17.25
  -5  -3  -1  240.89   13.55
   5   3   1  243.36   12.21
   5   3   1  237.37   15.71
   5   3   1  245.39   15.35
  -5  -3  -1  253.08   14.85
  -5   3  -1  246.24   18.04
   5  -3   1  248.27   12.89
  -5   3  -1  253.04   12.09
   7   3   1  129.43    8.64
   7   3   1   87.44   11.48
   7   3   1  118.45   12.02
   7  -3   1  120.08    9.77
  -7  -3  -1  122.34   11.07
   7  -3   1  106.31   10.82
  -7   3  -1  123.15   15.45
  -7   3  -1  128.32    9.32
  -9   3  -1  150.04   11.08
  -9   3  -1  137.62   16.91
   9   3   1  152.42    9.30
   9   3   1  163.13   14.88
   9  -3   1  152.97   12.11
   9  -3   1  139.85   12.97
  -9  -3  -1  138.01   12.82
 -11   3  -1  113.32   16.92
  11  -3   1  129.52   12.77
  11   3   1  140.42   15.01
 -11  -3  -1  136.84   16.81
 -11   3  -1  130.59   11.68
 -11  -3  -1  119.24   13.79
  11  -3   1  122.75   12.74
 -13   3  -1   37.60    8.03
  13  -3   1   37.03    9.05
  13  -3   1   34.20    9.04
 -13   3  -1   40.37   11.79
 -13  -3  -1   45.55   11.64
  15  -3   1  200.73   17.64
 -15   3  -1  238.03   23.61
  15  -3   1  237.13   19.33
  17  -3   1   40.09   10.65
 -17   3  -1   53.34   14.24
  17  -3   1   54.82   11.42
 -19   3  -1  162.51   24.48
  19  -3   1  160.56   16.69
 -21  -3  -1   -3.21    6.76
 -21   3  -1   -0.54    8.37
  21   3   1   26.56   11.12
 -20  -4   1   -0.92    8.77
 -20   4   1   21.95   10.71
  20  -4  -1   35.30   11.81
 -18  -4   1  120.93   22.27
  18  -4  -1  102.09   17.31
 -18   4   1  110.93   21.67
 -16  -4   1   30.88   12.95
 -16   4   1   45.43   14.16
 -14  -4   1   99.78   17.86
 -14   4   1  121.49   20.66
 -12   4   1   19.39    6.99
 -12  -4   1   25.86   10.89
 -12   4   1   27.88   10.66
 -12  -4   1   20.71    7.78
  12  -4  -1    2.71    4.04
 -10   4   1  327.59   25.55
 -10   4   1  318.90   19.19
 -10  -4   1  350.01   19.49
  10   4  -1  364.86   24.77
  10   4  -1  320.19   17.20
 -10  -4   1  316.48   23.13
   8   4  -1  168.52   15.79
  -8   4   1  193.06   14.30
  -8   4   1  219.62   20.20
  -8  -4   1  198.70   18.04
   8   4  -1  199.38   13.72
  -8  -4   1  182.34   14.03
   8  -4  -1  206.10   12.36
   6   4  -1  462.27   24.46
  -6  -4   1  495.72   20.92
  -6   4   1  471.14   27.88
   6   4  -1  482.36   21.47
   6  -4  -1  500.55   17.58
  -6  -4   1  466.05   22.19
   6   4  -1  481.55   23.93
  -6   4   1  464.74   21.26
   6  -4  -1  481.47   24.64
   4   4  -1   40.12    8.61
  -4   4   1   48.74    7.89
   4  -4  -1   50.63    6.04
   4   4  -1   52.78    8.85
   4  -4  -1   42.30    8.79
   4   4  -1   39.58    8.60
   4   4  -1   43.49    8.44
  -4   4   1   32.24    8.58
   2   4  -1  207.93   14.38
   2  -4  -1  196.90   14.89
   2   4  -1  224.30   16.79
   2   4  -1  183.90   14.27
   2  -4  -1  214.23   11.38
   2   4  -1  215.29   14.02
  -2   4   1  215.08   14.12
  -2   4   1  207.75   17.23
   0   4  -1   12.87    5.42
   0   4  -1    8.19    4.97
   0   4   1   18.70    6.72
   0   4   1   13.87    4.92
   0  -4  -1    9.00    4.58
   0  -4   1   10.72    3.96
   0  -4  -1   11.00    3.72
   0   4  -1   12.03    4.38
  -2  -4  -1  438.71   20.31
   2   4   1  441.22   21.47
  -2   4  -1  425.18   17.92
   2   4   1  421.97   19.29
   2   4   1  393.60   22.55
   2  -4   1  438.50   22.47
   2  -4   1  415.76   18.19
   4   4   1  227.68   16.78
  -4   4  -1  227.11   12.86
  -4   4  -1  229.74   18.86
   4   4   1  223.54   16.00
   4   4   1  204.85   14.80
   4  -4   1  223.19   16.39
   4  -4   1  215.11   12.89
   6  -4   1   36.00    6.84
   6   4   1   26.23    7.60
  -6  -4  -1   39.02    8.95
   6   4   1   29.56    6.53
  -6  -4  -1   31.68    7.56
  -6   4  -1   33.57    9.53
   6   4   1   37.34    8.75
  -6   4  -1   34.02    6.17
   8   4   1  246.94   19.18
   8  -4   1  245.69   15.15
  -8   4  -1  239.37   14.09
  -8  -4  -1  241.38   17.29
  -8   4  -1  252.13   21.98
   8  -4   1  231.57   18.16
   8   4   1  238.47   13.71
   8   4   1  232.60   18.25
 -10  -4  -1  165.49   15.16
  10  -4   1  185.43   14.28
 -10   4  -1  191.15   19.97
  10  -4   1  173.40   16.47
  10   4   1  166.26   16.66
 -12  -4  -1   20.55    8.06
  12  -4   1   26.68    7.82
  12   4   1    5.62    4.69
  12  -4   1    3.03    3.87
 -12   4  -1   19.47    9.09
 -12  -4  -1   15.87    9.33
 -14   4  -1   76.47   16.93
 -14  -4  -1   92.34   17.06
 -16  -4  -1  224.29   25.69
  16  -4   1  231.68   20.79
 -16   4  -1  234.30   25.50
  18   4   1    4.11    5.47
 -18   4  -1   18.70   10.22
  18  -4   1    8.99    7.12
 -18  -4  -1   -0.75    5.73
  20  -4   1   59.92   14.14
 -20   4  -1   76.60   18.89
 -17  -5   1   94.23   20.21
 -17   5   1   46.18   15.08
 -15  -5   1   81.94   18.30
 -15   5   1  123.32   22.82
 -13  -5   1  108.17   18.44
 -13   5   1  128.99   22.30
 -11  -5   1   93.98   16.16
 -11   5   1   97.36   19.34
  -9  -5   1    9.16    5.35
   9   5  -1    4.55    4.38
   9  -5  -1   -0.25    2.89
   9   5  -1    4.60    4.36
  -9  -5   1   14.06    7.95
  -9   5   1    3.40    5.54
   7   5  -1   35.60    8.28
  -7   5   1   33.27    8.18
   7   5  -1   29.46    8.83
   7  -5  -1   27.66    8.89
  -7  -5   1   35.52    9.00
  -7   5   1   26.17    9.56
   7   5  -1   20.15    7.36
  -7  -5   1   28.22    7.79
   5   5  -1  406.64   23.31
  -5   5   1  363.60   20.44
   5   5  -1  394.54   22.22
   5   5  -1  361.17   22.82
   5  -5  -1  400.76   24.70
   5   5  -1  380.16   22.88
  -3   5   1   49.08   12.08
  -3   5   1   40.19    8.62
   3   5  -1   41.34    9.07
   3   5  -1   50.31   10.49
   3  -5  -1   59.73   11.15
   3   5  -1   44.15   10.22
  -1   5   1  161.73   16.62
   1   5  -1  179.40   14.30
   1  -5  -1  176.55   15.40
   1   5  -1  152.07   15.64
  -1   5   1  149.35   13.45
  -1  -5   1  161.23   14.74
  -1  -5   1  168.66   13.76
   1  -5  -1  151.16   11.07
   1   5   1  629.49   31.87
  -1   5  -1  664.27   25.84
  -1  -5  -1  677.82   28.62
   1  -5   1  688.82   31.06
  -1  -5  -1  671.22   25.35
  -1   5  -1  697.60   34.31
   1   5   1  665.01   28.75
   1  -5   1  679.15   25.83
   3   5   1   54.24    9.48
   3   5   1   71.23   13.02
   3  -5   1   73.96   12.71
   3  -5   1   72.10    9.32
   3   5   1   46.70    9.67
  -3   5  -1   80.11    9.49
  -3  -5  -1   88.29   11.80
  -5  -5  -1  139.57   13.46
   5  -5   1  129.35   16.28
  -5  -5  -1  133.04   12.65
   5   5   1  141.05   14.76
  -5  -5  -1  134.16   14.57
   5   5   1  119.56   12.83
   5  -5   1  118.95   10.58
  -7  -5  -1   33.93    8.67
   7   5   1   24.44    8.75
  -7  -5  -1   38.13    9.67
   7   5   1   29.08    8.41
   7  -5   1   38.74   10.54
  -7  -5  -1   38.03    7.91
  -9  -5  -1  182.65   16.72
  -9   5  -1  194.18   24.71
   9   5   1  157.16   16.90
 -11  -5  -1   62.18   12.51
 -11   5  -1   62.05   15.90
  11   5   1   45.72   11.44
 -11  -5  -1   64.26   13.98
 -13  -5  -1   60.73   14.88
 -13   5  -1   80.09   18.16
 -15  -5  -1   78.50   18.18
 -15   5  -1   71.34   18.56
  17   5   1    1.30    6.63
 -17   5  -1   31.51   13.64
  17  -5   1   16.32    8.89
 -17  -5  -1   -3.33    9.41
  14   6  -1   92.42   19.46
 -14  -6   1   70.30   17.75
 -14   6   1  106.00   22.48
 -12   6   1   38.52   12.55
  12   6  -1   43.07   12.22
 -12  -6   1   40.46   13.08
 -10  -6   1  122.77   18.46
  10  -6  -1  111.41   18.41
 -10   6   1  123.79   22.83
  10   6  -1  120.43   18.77
   8   6  -1   21.68    7.93
  -8  -6   1   18.64    6.96
  -8  -6   1   20.05    8.50
   8  -6  -1    5.19    5.74
  -8  -6   1    7.92    5.45
  -8   6   1   17.14    9.40
   6  -6  -1   77.31   14.82
   6   6  -1   59.76   12.30
  -6  -6   1   80.19   13.82
  -6  -6   1   73.34   12.33
   6   6  -1   90.30   15.20
  -4  -6   1  116.69   14.65
  -4  -6   1  100.74   14.61
   4   6  -1   98.83   16.04
   4  -6  -1  102.33   15.89
   4   6  -1  111.63   14.59
   2   6  -1   11.06    5.59
  -2  -6   1    7.76    5.79
  -2  -6   1    9.00    4.74
   2  -6  -1    2.76    3.96
  -2   6   1   13.26    6.03
   2   6  -1    9.22    6.82
   0   6  -1   15.40    5.56
   0  -6  -1   14.10    6.07
   0   6  -1    5.63    5.38
   0   6   1   -4.21    3.27
   0  -6   1    8.76    5.19
   0   6   1   18.50    6.71
  -2  -6  -1   93.78   13.81
   2   6   1   81.24   13.21
   2  -6   1  107.25   15.81
   4  -6   1   -0.64    3.48
   4   6   1    0.78    3.82
  -4   6  -1   -3.15    4.01
  -4  -6  -1    5.31    3.90
   4   6   1    0.87    4.63
   6   6   1  143.95   18.34
  -6  -6  -1  129.57   16.31
  -6  -6  -1  119.98   16.98
   6  -6   1  136.64   18.86
   6   6   1  117.38   16.20
   8  -6   1   93.76   16.82
   8   6   1   84.38   15.55
  -8  -6  -1   79.15   14.91
   8   6   1   88.08   15.61
  10  -6   1   -2.09    3.51
 -10  -6  -1   16.53    7.86
  10   6   1    4.02    5.03
 -10  -6  -1    3.68    6.60
 -10   6  -1   -3.98    5.89
 -12  -6  -1   81.10   16.72
 -12   6  -1   67.95   17.31
  12   6   1   88.17   17.78
 -14  -6  -1   30.52   12.66
  14   6   1   59.09   15.64
 -14   6  -1   48.72   15.77
  11   7  -1   47.19   13.95
 -11  -7   1   49.95   14.77
 -11   7   1   68.64   19.48
  11  -7  -1   45.32   14.51
   9   7  -1   80.38   16.52
   9  -7  -1   60.49   15.31
  -9  -7   1   91.36   17.29
  -7  -7   1  227.21   21.37
   7  -7  -1  207.54   22.01
  -7  -7   1  221.05   21.09
  -5  -7   1   59.73   12.65
   5  -7  -1   48.23   13.02
   5   7  -1   41.32   10.86
   3  -7  -1   56.38   13.89
  -3  -7   1   63.03   13.40
   3   7  -1   72.90   16.36
   1  -7  -1   -1.09    4.23
  -1   7   1   -3.85    4.39
   1   7  -1    4.09    5.75
  -1  -7   1   -3.80    3.91
  -1  -7  -1   67.56   13.28
   1  -7   1   73.61   14.90
  -3   7  -1   -1.59    5.47
  -3  -7  -1    8.01    5.60
   3  -7   1   15.89    7.89
   3   7   1   10.74    7.12
   3   7   1    7.26    5.26
   5  -7   1   24.97    9.80
  -5  -7  -1   25.27    9.51
  -5   7  -1    3.56    5.56
  -5  -7  -1   33.59   10.37
   5   7   1   19.55    8.86
  -7  -7  -1   13.72    8.04
  -7  -7  -1   33.34   11.93
   7   7   1   27.37   11.04
   7  -7   1   25.65    9.99
   9  -7   1  188.26   24.59
 -11   7  -1   93.03   21.47
 -11  -7  -1  101.79   19.36
   4  -8  -1   17.18    9.59
  -4   8   1   -3.17    7.16
   2   8  -1   57.51   15.56
  -2  -8   1   39.89   12.80
   2  -8  -1   56.39   14.66
   0  -8   1   12.27    6.31
   0  -8  -1   23.71   10.29
   0   8  -1   19.65   10.33
   0   8   1    6.48    9.43
   2   8   1  135.34   23.53
   2  -8   1  135.72   21.19
  -2   8  -1  145.06   25.20
   4  -8   1   60.39   15.73
  -4  -8  -1   57.09   14.10
  -4  -8  -1   49.81   13.62
 -22   0   2   16.19   11.23
  22   0  -2   27.42   10.42
 -20   0   2   15.80    9.51
  20   0  -2    6.38    5.75
  18   0  -2   53.92    9.69
  18   0  -2   60.84   13.60
  16   0  -2   66.49   13.17
  16   0  -2   90.42   10.89
 -16   0   2   97.22   13.91
 -16   0   2   76.17   14.96
 -14   0   2  118.34   14.09
 -14   0   2  125.10   16.23
  14   0  -2  115.58   15.15
  14   0  -2  127.22   10.84
  12   0  -2   14.41    5.78
 -12   0   2   11.21    6.89
 -12   0   2    9.41    8.47
  12   0  -2   15.49    4.62
 -10   0   2   20.44    6.21
  10   0  -2   20.15    5.92
 -10   0   2   23.68    8.12
  10   0  -2   23.82    5.04
   8   0  -2    0.06    2.21
  -8   0   2    0.69    3.39
   8   0  -2   -1.04    1.70
  -8   0   2    1.26    1.88
   6   0  -2 1373.13   29.26
  -6   0   2 1371.13   25.26
   6   0  -2 1419.29   25.42
   4   0  -2 2332.73   33.61
  -4   0   2 2242.32   34.30
  -4   0   2 2250.19   29.15
   4   0  -2 2264.85   30.32
  -2   0   2 1118.69   18.55
   2   0  -2 1128.85   17.68
   2   0  -2 1022.73   15.93
  -2   0   2 1106.62   16.59
   0   0  -2  554.02    9.63
   0   0   2  541.63   10.69
  -2   0  -2 5327.21   58.32
   2   0   2 5373.16   54.08
  -2   0  -2 5316.80   55.90
   4   0   2  278.48   12.16
   4   0   2  287.95   10.23
   4   0   2  298.33    7.99
  -4   0  -2  283.59   14.10
   6   0   2  343.69   10.02
  -6   0  -2  337.23   17.22
  -6   0  -2  325.72   13.47
   6   0   2  320.21   15.20
   8   0   2  131.87    7.15
  -8   0  -2  149.71   11.14
  -8   0  -2  133.26   13.46
   8   0   2  121.93   11.08
 -10   0  -2    2.45    5.72
 -10   0  -2   -1.16    7.97
  10   0   2   11.72    3.11
  10   0   2    7.85    4.33
 -12   0  -2  239.98   20.37
  12   0   2  269.51   12.41
 -12   0  -2  240.48   18.37
  12   0   2  248.58   18.57
  14   0   2  506.91   28.79
 -14   0  -2  498.53   29.52
 -14   0  -2  499.16   26.80
  14   0   2  510.25   18.85
 -16   0  -2   -3.05    7.60
 -16   0  -2    6.66    8.28
  16   0   2    0.92    4.41
  18   0   2   97.05   17.65
 -18   0  -2  126.71   18.57
 -18   0  -2  140.40   20.27
 -20   0  -2    8.57    8.88
  20   0   2    1.06    5.42
  22   0   2   52.64   15.09
 -22   0  -2   58.90   15.90
  23  -1  -2   86.51   17.72
 -23   1   2  100.38   18.97
  23   1  -2   88.91   18.50
 -23  -1   2   38.13   13.86
 -21   1   2   37.65   11.83
  21  -1  -2   16.95    8.11
  21   1  -2   29.71   10.47
 -21  -1   2    3.83    5.69
 -19   1   2   35.04   10.62
  19   1  -2   24.08    9.26
  19  -1  -2   36.98    8.96
  19  -1  -2   23.18    8.88
 -17   1   2   71.47   13.81
 -17   1   2   38.31   11.14
  17   1  -2   40.35   11.93
  17  -1  -2   47.43    9.80
  17  -1  -2   53.78   11.90
 -15  -1   2  100.38   13.59
 -15   1   2   83.28   14.23
  15  -1  -2   89.16   11.36
  15   1  -2   79.25   14.56
  15   1  -2   90.30    9.28
  15  -1  -2   87.63   13.50
 -15   1   2   83.61   13.90
 -13  -1   2  100.25   12.69
 -13  -1   2   55.52   12.20
  13  -1  -2   75.31   11.50
  13   1  -2   93.68   14.13
 -13   1   2   95.21   13.35
 -13   1   2   78.69   13.31
  13   1  -2   84.35    8.50
  13  -1  -2   91.68    9.63
 -11  -1   2   62.35    9.62
 -11  -1   2   65.03   11.55
  11   1  -2   81.52    7.66
  11  -1  -2   77.52    8.86
  11   1  -2   81.47   12.32
  11  -1  -2   76.06   10.09
 -11   1   2   80.90   11.05
 -11   1   2   65.50   11.01
  -9  -1   2  255.43   16.22
   9  -1  -2  230.22   13.25
  -9   1   2  223.96   14.61
   9   1  -2  231.23   15.76
   9   1  -2  238.29   11.37
  -9   1   2  214.73   14.95
   9  -1  -2  234.53   12.80
  -9  -1   2  235.65   13.06
   7   1  -2 1009.63   21.81
   7  -1  -2 1017.21   24.70
  -7  -1   2  999.35   20.52
  -7  -1   2 1025.84   27.57
   7  -1  -2  984.82   23.90
  -7   1   2  989.01   26.94
  -7   1   2 1026.33   27.84
   7   1  -2  984.01   28.82
   5  -1  -2 5102.29   56.26
   5   1  -2 5067.60   66.91
  -5   1   2 5034.91   64.23
  -5   1   2 5025.25   62.05
  -5  -1   2 5045.47   52.48
   5  -1  -2 5036.05   59.83
   5   1  -2 4918.82   54.70
  -5  -1   2 4858.10   60.53
   3  -1  -2 1231.66   22.78
  -3  -1   2 1186.29   22.16
  -3   1   2 1243.73   25.45
   3  -1  -2 1230.22   17.47
   3   1  -2 1184.96   21.01
  -3   1   2 1201.35   16.61
   3   1  -2 1188.70   17.95
  -3   1   2 1213.92   24.04
  -1  -1   2 1276.51   18.34
  -1   1   2 1261.71   24.11
   1   1  -2 1242.69   21.53
   1  -1  -2 1308.26   21.20
  -1  -1  -2 3710.60   45.66
   1   1   2 3666.72   46.16
  -1   1  -2 3652.60   44.78
  -1  -1  -2 3688.97   42.61
   1   1   2 3702.88   42.93
   1  -1   2 3695.15   45.48
  -1  -1  -2 3760.80   39.56
   3   1   2 1095.17   23.84
  -3   1  -2 1109.01   26.94
   3   1   2 1056.28   23.83
   3  -1   2 1092.58   23.33
  -3   1  -2 1097.05   22.66
  -3  -1  -2 1110.74   23.20
   5   1   2 1230.68   29.94
   5  -1   2 1251.82   25.86
   5   1   2 1238.16   28.25
   5  -1   2 1247.34   28.28
  -5  -1  -2 1236.93   27.96
  -5   1  -2 1268.73   32.50
  -5   1  -2 1240.72   22.43
  -7  -1  -2   65.66    9.31
  -7   1  -2   75.22    7.86
   7  -1   2   64.91    8.17
  -7   1  -2   71.86   10.43
   7   1   2   66.70    3.70
   7  -1   2   68.33    6.52
  -9   1  -2  643.26   22.06
   9  -1   2  677.79   21.61
  -9  -1  -2  670.92   26.27
  -9   1  -2  611.28   27.29
   9  -1   2  676.40   25.88
   9   1   2  667.68   13.87
   9   1   2  666.69   27.47
  -9  -1  -2  647.43   25.02
 -11   1  -2    6.20    6.91
 -11   1  -2    6.47    7.29
  11   1   2    8.49    2.74
 -11  -1  -2   -1.82    8.51
 -11  -1  -2   -4.22    6.08
  11  -1   2    9.88    4.96
  11  -1   2    3.61    2.63
  11   1   2    5.00    4.15
 -13  -1  -2   44.61   13.68
  13   1   2   26.07    8.36
 -13  -1  -2   30.85    9.87
  13  -1   2   36.60    7.04
 -13   1  -2   40.42   10.19
 -13   1  -2   39.28   11.78
  13  -1   2   39.66    9.63
  15  -1   2   73.29    9.35
 -15   1  -2   58.48   13.97
  15   1   2   65.36   13.71
 -15   1  -2   55.18   11.99
 -15  -1  -2   65.96   14.98
  15  -1   2   59.53   11.96
 -15  -1  -2   50.29   12.55
 -17   1  -2  107.58   15.94
  17   1   2  114.34   19.02
 -17  -1  -2  124.36   19.46
  17  -1   2  105.53   17.14
 -17   1  -2  135.66   19.92
  19   1   2    1.63    5.86
 -19  -1  -2    2.70    9.11
  19  -1   2    9.78    6.94
 -19   1  -2    3.83    6.92
 -19   1  -2    7.72    8.50
 -21  -1  -2   58.24   17.11
  21   1   2   61.57   15.96
  21  -1   2   40.97   13.11
  22   2  -2   27.58   11.10
 -22  -2   2    0.83    7.56
  20  -2  -2   46.21   10.37
  20   2  -2   55.47   14.46
  20  -2  -2   80.70   15.96
 -20   2   2   66.54   13.56
  18  -2  -2   87.52   14.95
  18  -2  -2   84.04   13.50
 -18   2   2   82.76   14.27
  18   2  -2   81.38   16.66
 -18   2   2   96.95   17.45
 -16   2   2  151.50   15.72
  16   2  -2  152.79   20.59
  16  -2  -2  135.73   13.63
  16  -2  -2  176.48   16.31
 -16   2   2  156.99   19.19
 -14   2   2  101.55   15.09
  14  -2  -2  115.78   12.03
  14   2  -2   97.57   16.06
  14   2  -2  100.86    9.34
 -14  -2   2   87.03   15.39
  14  -2  -2   86.43   12.09
 -14  -2   2  102.66   14.11
 -14   2   2  100.71   13.27
  12  -2  -2  261.80   16.53
  12  -2  -2  273.51   16.78
  12   2  -2  267.33   13.69
 -12   2   2  244.34   19.17
 -12   2   2  247.21   17.72
  12   2  -2  279.49   20.52
 -12  -2   2  258.84   20.57
 -12  -2   2  266.33   17.79
 -10  -2   2  124.69   11.57
 -10   2   2  123.68   13.00
  10   2  -2  117.64   12.65
  10   2  -2  129.81    9.29
  10  -2  -2  128.55   11.10
 -10   2   2  118.75   11.75
 -10  -2   2  138.43   14.71
  10  -2  -2  129.89   10.31
  -8  -2   2  250.43   16.38
  -8   2   2  240.34   14.41
  -8   2   2  224.05   15.88
   8  -2  -2  255.16   12.38
  -8  -2   2  229.46   11.43
   8  -2  -2  235.75   13.89
   8   2  -2  247.49   11.90
  -6  -2   2  683.21   22.93
   6  -2  -2  626.31   22.05
  -6   2   2  696.09   26.01
   6  -2  -2  721.75   17.16
   6   2  -2  668.18   24.78
   6   2  -2  690.07   19.36
  -6   2   2  676.60   22.22
  -6  -2   2  692.45   17.51
  -4  -2   2 2119.03   37.42
   4  -2  -2 2092.86   38.56
  -4   2   2 2025.81   37.96
   4   2  -2 2056.85   35.19
   4  -2  -2 2130.32   27.41
   4   2  -2 2061.70   34.11
  -4   2   2 2140.94   44.03
   4   2  -2 2104.89   41.64
   2   2  -2  937.95   23.30
   2  -2  -2  953.28   15.25
   2  -2  -2  947.35   23.17
  -2   2   2  913.66   26.95
   2   2  -2  901.76   24.11
  -2   2   2  915.48   23.67
   2   2  -2  967.55   23.75
   2   2  -2  905.90   20.36
   0   2  -2  517.18   18.62
   0  -2  -2  515.74   15.47
   0   2   2  548.64   19.63
   0  -2   2  538.95   17.22
   0   2   2  525.00   18.17
   0   2   2  554.99   13.96
   0   2  -2  551.55   18.33
   0   2  -2  554.66   13.34
  -2   2  -2  504.99   11.45
  -2  -2  -2  484.64   16.57
   2  -2   2  497.10   16.39
  -2  -2  -2  486.91   13.59
   2   2   2  465.41   17.67
  -2  -2  -2  479.64   17.62
   2   2   2  468.31   15.55
  -4   2  -2  273.58    9.15
   4   2   2  254.64   13.68
  -4  -2  -2  260.24   13.29
   4  -2   2  280.11   13.10
  -4   2  -2  284.23   16.82
   4  -2   2  259.87   13.80
   4   2   2  248.81    9.02
  -6  -2  -2  391.82   17.32
   6   2   2  366.25   18.59
   6  -2   2  403.98   16.95
   6   2   2  361.90   10.15
   6  -2   2  368.90   17.14
  -6   2  -2  371.30   12.83
  -6   2  -2  328.59   19.55
   6   2   2  372.84   17.98
   8  -2   2   30.63    6.58
  -8   2  -2   36.60    6.05
   8   2   2   32.84    7.85
   8   2   2   33.70    7.71
  -8   2  -2   37.94    9.86
  -8  -2  -2   36.30    7.67
   8  -2   2   43.49    7.92
   8   2   2   31.46    3.41
 -10   2  -2  245.57   15.00
  10  -2   2  260.92   15.88
  10   2   2  249.01   18.57
 -10  -2  -2  257.03   19.11
 -10  -2  -2  244.71   17.89
  10  -2   2  217.09   15.90
 -10   2  -2  243.06   19.36
  12  -2   2  131.94   11.79
 -12   2  -2  138.08   13.27
 -12   2  -2  150.34   18.14
  12  -2   2  139.42   13.75
 -12  -2  -2   91.82   13.31
 -12  -2  -2  142.74   17.08
  14  -2   2  115.58   13.10
 -14   2  -2  100.88   12.45
  14  -2   2   92.71   14.53
 -14  -2  -2   94.44   16.46
 -14   2  -2  119.04   18.23
 -16   2  -2  142.59   14.77
 -16   2  -2  163.10   22.04
  16   2   2  187.99   20.79
  16  -2   2  173.14   17.86
  16  -2   2  188.25   15.73
 -16  -2  -2  176.39   21.20
  18  -2   2   30.66    9.86
 -18   2  -2   39.10   12.81
  18   2   2   49.95   14.43
 -20  -2  -2    3.61    6.38
  20  -2   2   31.09   10.27
 -20   2  -2   38.90   13.54
  20   2   2   29.51   10.80
  22  -2   2   10.72    8.79
  22   2   2   13.98    9.82
 -22  -2  -2   10.89   13.01
  21   3  -2   24.68   10.58
 -21  -3   2    6.56    7.36
  21  -3  -2   18.69    8.72
  19  -3  -2   45.63   11.98
 -19   3   2   39.50   12.13
  19   3  -2   48.36   13.35
 -17   3   2   49.73   10.79
  17  -3  -2   46.80   11.22
  17   3  -2   49.87   12.85
 -17   3   2   40.53   12.54
 -17  -3   2   12.39    8.36
 -15  -3   2  372.82   28.02
  15  -3  -2  355.23   22.95
 -15   3   2  353.58   22.51
 -15   3   2  419.46   29.30
  13  -3  -2  498.52   23.37
 -13   3   2  501.25   25.52
  13   3  -2  512.86   20.49
 -13   3   2  532.33   31.33
  13  -3  -2  514.02   26.37
 -13  -3   2  522.00   30.08
 -11   3   2   58.79   12.38
  11  -3  -2   59.35    8.58
 -11   3   2   69.25   10.56
  11  -3  -2   64.03   10.87
  11   3  -2   61.53    7.99
  11   3  -2   53.98   11.55
 -11  -3   2   59.87    9.22
 -11  -3   2   68.51   13.20
  -9  -3   2  139.17   15.13
   9   3  -2  106.71   14.03
   9  -3  -2  130.55    9.50
  -9   3   2  123.00   15.91
  -9  -3   2  134.14   10.59
   9   3  -2  127.42    9.93
   9  -3  -2  128.16   12.39
  -9   3   2  119.27   11.72
  -7   3   2   87.30    9.32
  -7  -3   2   88.32    7.62
   7   3  -2   87.67    8.40
   7   3  -2   99.28   12.73
   7  -3  -2   92.82    6.87
  -7  -3   2   90.59   11.65
  -7  -3   2   88.36    8.48
  -7   3   2   90.16   13.00
   5  -3  -2   99.82    6.18
  -5   3   2  105.30    9.63
   5   3  -2   99.40   10.44
   5  -3  -2   99.57    9.85
   5   3  -2   85.96    8.58
   5   3  -2   91.25    8.58
  -5   3   2   93.50   12.07
   3  -3  -2  352.17   17.19
   3   3  -2  367.23   16.20
   3   3  -2  363.30   17.13
   3   3  -2  377.61   17.90
   3   3  -2  376.31   18.28
  -3   3   2  369.65   17.46
  -3   3   2  384.82   20.52
   3  -3  -2  363.26   11.20
   1  -3  -2  220.06    9.75
   1   3  -2  238.84   11.70
   1   3  -2  229.20   14.67
  -1   3   2  242.99   14.25
   1  -3  -2  225.90   13.10
   1   3  -2  217.55   13.64
  -1   3   2  229.84   15.56
  -1  -3   2  232.29   13.54
  -1   3  -2   97.21    9.69
   1  -3   2   90.85    8.24
  -1  -3  -2   88.69    7.94
   1   3   2   98.25    9.43
  -1   3  -2   97.40   10.45
  -1   3  -2  110.55    7.48
   1   3   2  102.59    7.99
   3   3   2  561.49   20.89
   3  -3   2  574.85   20.35
  -3  -3  -2  565.87   18.37
  -3  -3  -2  572.37   22.78
   3   3   2  548.02   22.68
  -3   3  -2  576.13   16.11
   5  -3   2   29.40    6.84
  -5   3  -2   26.22    4.17
  -5   3  -2   25.32    7.92
   5   3   2   24.98    6.36
  -5  -3  -2   24.99    6.66
   5   3   2   22.55    4.41
  -5  -3  -2   34.45    6.73
   5   3   2   24.35    6.22
   5  -3   2   25.38    5.69
  -7  -3  -2  538.40   23.05
  -7   3  -2  543.36   28.88
   7  -3   2  550.68   22.05
   7  -3   2  564.75   24.99
   7   3   2  541.42   16.41
   7   3   2  517.85   24.80
  -7   3  -2  570.13   17.97
   9  -3   2  392.01   21.68
  -9  -3  -2  360.92   20.19
   9   3   2  387.02   13.25
   9  -3   2  377.89   19.58
   9   3   2  385.95   23.34
   9   3   2  396.25   22.96
  -9   3  -2  381.04   25.67
  -9   3  -2  413.37   16.93
  11  -3   2   16.23    6.02
 -11   3  -2   10.74    6.64
 -11  -3  -2   12.88    8.11
  11  -3   2   12.79    5.67
  11   3   2   13.11    5.82
 -11  -3  -2    7.58    7.48
 -11   3  -2   15.53    5.04
  13  -3   2  105.42   14.23
  13  -3   2  115.50   14.70
 -13  -3  -2   90.57   15.08
 -13   3  -2  124.34   19.09
 -15  -3  -2  124.19   18.24
 -15   3  -2  141.94   21.76
  15  -3   2  148.36   16.09
  15  -3   2  110.37   14.80
  17  -3   2  107.33   15.34
 -17   3  -2  116.06   21.37
  17  -3   2  118.76   17.83
 -19   3  -2   15.33    9.69
  19   3   2   -0.38    4.99
  19  -3   2   19.16    8.98
  21   3   2   -2.13    5.97
 -21   3  -2   13.63    9.98
 -21  -3  -2    1.60    7.44
 -20  -4   2   68.05   19.77
  20  -4  -2   58.74   14.42
 -20   4   2   80.58   18.78
 -18  -4   2    9.52   11.30
  18   4  -2   -2.20    4.76
  18  -4  -2   30.68   10.38
 -18   4   2   25.46   11.75
 -16  -4   2  237.90   25.13
 -14  -4   2    0.91    7.58
 -14   4   2    4.10    6.67
  14  -4  -2   -0.57    3.16
  14   4  -2   -2.54    3.38
 -12  -4   2  143.04   18.42
 -12   4   2  120.73   14.13
 -12   4   2  138.69   20.34
  10   4  -2  255.26   21.12
 -10  -4   2  265.94   16.58
 -10   4   2  255.02   17.89
 -10   4   2  286.76   23.75
 -10  -4   2  259.82   20.95
  10   4  -2  254.38   15.94
  -8   4   2   34.26   10.29
  -8  -4   2   43.34   10.82
  -8   4   2   37.92    8.13
   8   4  -2   27.82    8.09
  -8  -4   2   38.17    7.85
  -8  -4   2   36.99    7.00
   8   4  -2   41.11    8.02
   8  -4  -2   14.12    5.54
   6   4  -2   80.80   12.59
  -6   4   2   84.07   10.59
  -6   4   2   63.59   12.56
   6  -4  -2   63.78    6.11
   6   4  -2   54.19    8.88
   6  -4  -2   77.38   11.70
   4  -4  -2   76.29    6.30
   4  -4  -2   90.71   11.79
  -4   4   2   87.45   10.76
   4   4  -2   66.22    9.63
  -4   4   2   73.21   12.53
   4   4  -2   85.80   11.01
   4   4  -2   72.67   10.57
   4   4  -2   73.11   11.00
  -2   4   2   43.47    8.09
   2   4  -2   43.40    7.22
   2   4  -2   35.26    8.15
  -2   4   2   33.88    8.77
   2  -4  -2   34.98    5.06
   2   4  -2   46.38    9.13
  -2  -4   2   38.45    7.90
   2  -4  -2   46.73    8.66
   0   4  -2  179.78   14.73
   0  -4   2  208.58   13.69
   0   4  -2  167.66   14.95
   0   4   2  189.46   14.25
   0  -4  -2  207.22   14.20
   0   4  -2  188.35   12.00
  -2   4  -2  130.95    9.51
   2   4   2  132.92   12.52
  -2  -4  -2  130.44   10.80
   2   4   2  130.49   10.85
   2  -4   2  143.07   11.05
   2   4   2  157.55   14.59
  -2   4  -2  139.70   14.40
   2  -4   2  129.59   12.51
   4  -4   2  116.02   13.59
   4   4   2   92.47   11.21
  -4  -4  -2   98.73   12.86
  -4   4  -2   86.41   13.85
   4  -4   2   91.76    9.08
   4   4   2   90.70   11.99
  -4   4  -2   97.93    7.97
  -4  -4  -2   81.78    8.65
  -4  -4  -2   89.77   11.23
   6   4   2  670.72   28.98
  -6   4  -2  712.77   21.31
   6  -4   2  663.92   25.27
  -6  -4  -2  658.61   22.33
   6   4   2  625.72   29.38
  -6  -4  -2  645.25   26.11
  -6   4  -2  682.94   34.75
  -6  -4  -2  711.46   29.28
   6  -4   2  622.23   29.05
  -8  -4  -2    8.81    5.62
   8  -4   2   16.04    5.42
   8   4   2   11.62    6.61
  -8   4  -2    8.09    6.45
   8  -4   2   11.32    5.83
   8   4   2   17.36    6.15
  10  -4   2   92.39   14.04
  10  -4   2  117.19   12.22
  10   4   2  102.11   15.97
 -10  -4  -2  118.23   14.40
 -10   4  -2  111.42   18.66
 -12  -4  -2   86.93   15.86
  12  -4   2   90.32   12.98
 -12  -4  -2   76.92   13.12
 -12   4  -2  111.76   19.50
  14  -4   2  116.13   16.43
 -14  -4  -2  147.83   18.62
 -14   4  -2  145.49   22.88
 -14  -4  -2  151.58   20.60
 -16   4  -2  223.71   28.41
  18  -4   2    5.68    6.77
  18   4   2   -2.98    5.95
 -18   4  -2   -6.95    7.10
 -18  -4  -2   -8.42    5.13
  17   5  -2   -3.30    5.42
 -17   5   2   38.76   13.47
  17  -5  -2   -0.49    4.71
 -17  -5   2   40.71   15.00
 -15   5   2   74.34   17.95
 -15  -5   2   67.27   16.58
 -13   5   2   25.83   10.45
 -13  -5   2   21.36   11.08
 -11   5   2   43.31   12.79
 -11  -5   2   41.11   11.99
  -9  -5   2   59.54   12.72
   9   5  -2   59.60   12.94
   9   5  -2   65.17   10.82
  -9  -5   2   54.07   10.43
   9  -5  -2   50.88   11.66
  -9   5   2   58.32   10.71
  -9   5   2   48.23   13.83
  -7  -5   2   36.83    8.23
  -7   5   2   57.71   13.51
   7  -5  -2   43.00   10.47
  -7   5   2   52.40    9.97
   7   5  -2   37.07    9.67
  -7  -5   2   40.05    8.90
   7   5  -2   58.18   10.51
  -7  -5   2   48.03   11.19
   5   5  -2  452.44   25.44
  -5   5   2  431.27   23.60
   5  -5  -2  396.24   24.44
   5   5  -2  408.32   22.71
   5   5  -2  417.45   24.35
   5   5  -2  427.33   23.69
  -3   5   2   28.92    9.33
   3  -5  -2   34.88    8.95
   3   5  -2   33.85    8.17
  -3  -5   2   32.00    8.28
   3   5  -2   33.77    8.81
  -3   5   2   29.84    7.72
   3   5  -2   26.95    8.15
  -1   5   2   78.93   11.62
   1   5  -2   85.46   13.48
   1   5  -2   87.83   10.40
   1  -5  -2   81.10   11.79
   1   5  -2  113.78   14.95
   1  -5  -2   72.74    7.61
  -1  -5   2   93.09   11.59
   1   5   2    4.47    4.30
  -1   5  -2    0.03    3.16
  -1   5  -2    1.57    3.70
   1  -5   2    0.53    3.75
   1  -5   2    4.24    3.00
  -1  -5  -2    5.50    3.51
   1   5   2    5.54    4.50
  -3  -5  -2  173.83   13.93
   3   5   2  163.33   13.54
  -3   5  -2  178.64   12.36
  -3   5  -2  183.12   18.50
   3  -5   2  166.24   13.11
   3  -5   2  181.21   16.58
   3   5   2  172.94   15.84
   3   5   2  156.12   15.96
  -5  -5  -2  392.92   24.53
   5   5   2  400.97   24.97
   5   5   2  380.96   22.27
  -5  -5  -2  390.54   22.57
  -5  -5  -2  394.99   20.08
   5  -5   2  386.66   20.11
   5  -5   2  374.17   24.52
  -7  -5  -2  152.20   14.57
   7   5   2  150.12   14.82
   7  -5   2  130.19   12.47
  -7  -5  -2  161.51   16.00
  11   5   2   10.07    5.89
  11  -5   2   -1.64    3.27
 -11   5  -2    2.11    5.44
 -11  -5  -2    0.07    5.47
 -13   5  -2   20.24   10.81
  13   5   2   29.02   10.20
 -13  -5  -2   32.64   11.58
  15  -5   2    5.86    5.88
 -15   5  -2    8.39    8.37
  15   5   2    3.26    5.18
 -15  -5  -2    6.94    9.53
  17  -5   2   75.45   16.27
 -17  -5  -2   89.37   20.02
 -17   5  -2  112.02   24.21
 -16  -6   2   57.78   16.39
 -16   6   2   73.02   19.76
  16   6  -2   28.15   11.77
  14   6  -2   73.35   17.47
 -14  -6   2   64.49   16.60
 -14   6   2   75.29   19.40
  12   6  -2   92.45   18.58
 -12  -6   2   78.60   16.59
 -12   6   2   97.95   20.91
 -10  -6   2   21.66   10.28
  10   6  -2   12.60    6.94
  10  -6  -2   11.00    7.64
 -10   6   2    7.70    8.15
  -8  -6   2   53.57   11.69
  -8   6   2   60.62   16.16
  -8  -6   2   45.46   10.28
   8  -6  -2   45.82   12.23
   8   6  -2   45.60   11.64
  -8  -6   2   62.17   13.14
   8   6  -2   50.17   11.28
   6  -6  -2   64.17   13.52
   6   6  -2   83.50   14.48
   6   6  -2   73.51   14.53
   4   6  -2   50.29   11.86
   4   6  -2   29.49    8.57
   4  -6  -2   36.58   10.37
  -4   6   2   33.98    9.03
  -4  -6   2   28.31    8.42
   2   6  -2   26.22    7.96
  -2  -6   2   32.63    8.31
  -2   6   2   26.85    7.87
  -2  -6   2   36.67   10.02
   2  -6  -2   34.43    9.67
   2   6  -2   47.74   12.17
   0   6  -2   38.43   10.51
   0  -6   2   52.54   12.31
   0   6   2   63.78   12.11
   0  -6  -2   62.50   11.95
   0  -6   2   73.71   11.20
   2   6   2  337.97   23.27
  -2  -6  -2  336.14   21.79
   2  -6   2  327.02   23.90
  -4  -6  -2   12.39    6.39
  -4  -6  -2    8.22    4.46
   4  -6   2    2.07    3.74
  -4   6  -2   -3.22    3.31
   4   6   2    6.74    5.83
  -4  -6  -2    1.50    4.14
  -6  -6  -2    3.59    5.47
  -6  -6  -2    3.68    6.21
   6  -6   2   10.26    5.46
   6   6   2    0.82    4.96
  -6   6  -2   -0.68    4.06
   6   6   2    5.78    5.20
  -8  -6  -2    9.09    7.28
  -8   6  -2    0.91    5.38
   8   6   2    0.50    4.27
   8  -6   2   -0.75    3.95
   8   6   2    6.10    5.13
  10   6   2  177.80   21.95
 -12   6  -2   88.67   21.51
 -12  -6  -2   93.08   17.89
  12   6   2   91.94   17.77
  14   6   2   42.07   12.55
 -14   6  -2   46.32   15.74
 -14  -6  -2   37.25   13.32
  11   7  -2   79.83   18.02
 -11  -7   2   61.98   16.56
 -11   7   2   50.38   16.16
  11  -7  -2   39.85   13.17
   9  -7  -2  223.78   23.61
  -9  -7   2  239.38   23.67
   9   7  -2  216.05   22.93
  -9   7   2  229.68   30.81
  -7  -7   2   56.19   13.37
   7  -7  -2   54.04   13.67
  -7  -7   2   76.51   14.87
   5  -7  -2   39.25   11.49
  -5  -7   2   34.62   10.04
   5   7  -2   43.37   12.39
  -3   7   2   -1.28    4.57
   3  -7  -2   12.98    7.03
  -3  -7   2   10.66    6.94
   3   7  -2    3.16    5.23
   1  -7  -2   51.21   12.41
  -1  -7   2   49.96   12.50
   1   7  -2   44.20   12.97
   1   7   2    2.14    4.92
  -1   7  -2   13.88    7.52
  -1  -7  -2   17.18    6.88
   1   7   2   13.74    7.04
   1  -7   2   16.01    7.13
   3   7   2   43.62   11.70
   3  -7   2   71.51   15.30
  -3  -7  -2   62.10   12.48
  -5   7  -2    5.30    6.44
  -5  -7  -2    1.22    5.30
  -5  -7  -2   11.10    6.83
   5  -7   2   10.01    7.32
   5   7   2   -4.51    5.31
  -7   7  -2    2.41    7.27
  -7  -7  -2   23.59   10.23
   7  -7   2   12.92    8.03
   7   7   2   14.00    8.83
  -7  -7  -2   16.22    7.70
   9  -7   2  115.89   20.51
   9   7   2  112.84   20.19
 -11  -7  -2   24.82    9.47
  11  -7   2   -8.77    4.35
 -11   7  -2    5.83    7.94
  -4  -8   2   90.73   16.82
   4  -8  -2   68.31   16.14
   4   8  -2   76.70   18.46
   2  -8  -2   53.86   13.93
  -2  -8   2   50.30   13.32
   2   8  -2   57.45   15.72
   0  -8   2   37.50   11.73
   0   8  -2   62.96   17.81
   0   8   2   54.03   16.04
   0  -8  -2   40.52   12.38
   2  -8   2   63.58   15.72
  -2   8  -2   63.78   18.07
  22   0  -3    1.36    5.01
 -22   0   3    2.33    9.36
  20   0  -3   54.00   12.96
  18   0  -3  109.30   17.59
  18   0  -3  102.86   12.66
  16   0  -3  241.25   20.37
 -16   0   3  230.63   18.16
  16   0  -3  220.59   15.32
 -16   0   3  202.08   20.89
 -14   0   3   14.12    8.78
 -14   0   3    4.61    5.60
  14   0  -3    9.03    5.13
  14   0  -3    7.80    4.33
 -12   0   3  146.97   12.30
 -12   0   3  146.57   16.10
  12   0  -3  152.63   13.74
  12   0  -3  158.48   11.40
  10   0  -3 1446.92   38.03
 -10   0   3 1471.02   32.61
  10   0  -3 1453.36   32.09
   8   0  -3 1310.46   32.50
   8   0  -3 1318.71   28.23
  -8   0   3 1307.92   26.98
  -6   0   3 1251.78   22.17
   6   0  -3 1302.60   27.79
   6   0  -3 1316.67   25.48
  -6   0   3 1323.29   30.57
  -4   0   3  721.87   13.23
  -4   0   3  729.23   19.49
   4   0  -3  730.96   17.38
   4   0  -3  721.91   16.57
   2   0  -3   -1.41    1.33
   2   0  -3   -0.57    1.41
   2   0  -3   -0.92    1.06
  -2   0   3   -2.48    1.78
   0   0   3  887.30   16.03
   0   0  -3  907.21   14.45
   0   0   3  954.14   17.37
   0   0  -3  730.78   15.64
  -2   0  -3 2737.12   39.43
  -2   0  -3 2718.46   31.03
   2   0   3 2715.75   33.97
   4   0   3 3911.35   42.08
   4   0   3 3888.68   54.47
   4   0   3 3946.26   47.31
  -4   0  -3 3906.37   55.92
   6   0   3 2442.10   31.57
  -6   0  -3 2445.31   47.34
  -6   0  -3 2412.33   39.04
   6   0   3 2399.55   46.36
  -8   0  -3   -4.68    6.53
   8   0   3   -1.22    1.17
   8   0   3    1.26    2.83
  -8   0  -3    4.13    4.38
  10   0   3   -0.42    1.48
 -10   0  -3    9.58    8.71
  10   0   3    1.06    3.41
 -10   0  -3    1.59    5.21
  12   0   3    0.05    2.89
 -12   0  -3    1.05    6.50
 -12   0  -3    1.36    9.42
  12   0   3    4.76    2.38
 -14   0  -3  112.85   17.59
  14   0   3   89.58   15.08
 -14   0  -3  111.37   14.48
  16   0   3   20.73    7.66
 -16   0  -3   25.82   10.25
 -16   0  -3   20.81   11.44
  18   0   3  112.62   19.19
 -18   0  -3  120.28   20.40
 -18   0  -3  129.13   18.23
 -20   0  -3   30.17   11.90
 -20   0  -3   35.68   12.74
  20   0   3   23.43    9.74
  22   0   3  130.12   23.43
 -22   0  -3  155.42   23.17
 -23   1   3  112.30   20.04
  23  -1  -3  103.21   19.33
  23   1  -3   92.62   19.42
  21   1  -3   36.20   11.51
 -21  -1   3    4.14    6.17
  21  -1  -3   60.08   14.11
 -21   1   3   27.12   10.49
  19   1  -3   -1.48    4.46
 -19   1   3    6.48    6.29
 -19  -1   3   -1.69    4.18
  19  -1  -3    6.10    4.87
  19  -1  -3    1.05    5.15
  17  -1  -3   40.50    9.24
 -17   1   3   39.55   10.33
 -17   1   3   29.46   10.55
  17   1  -3   38.75   10.85
  17   1  -3   55.66    9.15
  17  -1  -3   41.73   10.40
  15  -1  -3  507.56   26.95
  15   1  -3  521.40   30.01
  15  -1  -3  485.58   23.23
 -15   1   3  521.17   27.29
  15   1  -3  486.21   21.11
 -15   1   3  449.15   27.25
 -13  -1   3  407.60   25.36
  13   1  -3  384.17   23.66
  13  -1  -3  389.40   19.47
  13  -1  -3  376.56   21.25
 -13   1   3  395.04   22.26
 -13   1   3  434.05   24.95
 -13  -1   3  395.27   19.23
  13   1  -3  391.87   17.70
  11   1  -3  215.88   12.43
  11   1  -3  213.67   16.40
 -11   1   3  212.02   15.11
  11  -1  -3  217.81   14.43
 -11  -1   3  211.16   17.74
 -11  -1   3  194.64   12.61
 -11   1   3  213.15   16.71
  11  -1  -3  209.53   13.26
  -9  -1   3  556.59   16.61
  -9   1   3  555.97   23.10
  -9   1   3  526.53   21.15
   9  -1  -3  569.65   20.26
   9  -1  -3  546.43   19.97
   9   1  -3  539.46   17.96
  -9  -1   3  571.02   23.53
   9   1  -3  534.67   23.12
   7  -1  -3  466.78   15.67
   7  -1  -3  491.09   17.46
  -7   1   3  474.79   18.03
  -7   1   3  458.22   18.96
  -7  -1   3  489.58   19.59
  -7  -1   3  487.70   12.68
   7   1  -3  465.04   19.79
   7   1  -3  470.56   15.58
   5  -1  -3  607.27   14.03
  -5  -1   3  599.12   10.64
  -5  -1   3  575.04   10.43
   5   1  -3  563.71   19.53
  -5   1   3  581.27   18.98
  -5  -1   3  579.13   18.87
   5   1  -3  586.37   16.14
  -5   1   3  556.80   17.91
   3   1  -3 1532.12   26.14
  -3   1   3 1465.84   28.62
   3  -1  -3 1582.18   26.80
   3   1  -3 1571.79   30.36
  -3  -1   3 1586.27   26.71
   3   1  -3 1576.70   21.89
  -1  -1   3 1017.83   22.17
   1  -1  -3 1037.56   18.37
  -1   1   3 1018.15   21.81
  -1  -1   3 1043.27   16.93
   1   1  -3 1023.41   19.67
  -1   1   3  968.79   21.90
  -1   1   3 1036.06   15.19
   1  -1  -3 1052.74   15.02
  -1  -1  -3  673.50   12.11
  -1   1  -3  690.15   17.21
   1  -1   3  677.89   17.98
  -1   1  -3  610.66   18.08
  -1  -1  -3  667.74   17.33
   1   1   3  646.86   17.95
   1   1   3  677.82   15.27
  -3   1  -3  254.85   14.01
   3   1   3  275.37   12.55
   3   1   3  264.93   12.02
   3  -1   3  266.14   12.34
  -3   1  -3  256.09   11.00
  -3  -1  -3  260.45   12.44
  -5  -1  -3  745.07   23.14
  -5   1  -3  770.82   26.10
   5   1   3  759.79   23.96
   5   1   3  749.88   22.53
   5  -1   3  750.60   22.88
  -5   1  -3  744.49   16.22
   5  -1   3  740.37   20.04
  -7   1  -3  976.17   32.24
  -7  -1  -3  980.14   29.51
   7   1   3  945.75   27.23
   7  -1   3  979.20   24.39
   7  -1   3  920.42   28.51
  -7   1  -3  928.57   22.37
  -9   1  -3  187.86   16.95
  -9  -1  -3  158.11   13.72
   9  -1   3  159.35   10.33
  -9   1  -3  157.94   12.02
   9  -1   3  161.08   13.51
  -9  -1  -3  171.83   15.97
 -11  -1  -3  288.28   22.33
 -11   1  -3  310.78   22.85
  11   1   3  295.90    9.43
 -11   1  -3  290.41   17.46
 -11  -1  -3  315.35   20.13
  11  -1   3  306.74   19.92
  11   1   3  318.07   21.05
  11  -1   3  307.99   14.91
 -13   1  -3  106.61   16.79
 -13  -1  -3  109.77   14.44
  13  -1   3  108.93   15.19
  13   1   3  111.11   15.94
  13  -1   3  119.02    9.92
 -13  -1  -3  110.54   17.60
 -13   1  -3  103.03   13.36
  15   1   3   55.38   13.05
 -15   1  -3   57.01   14.64
 -15  -1  -3   59.78   12.92
 -15   1  -3   70.21   12.14
  15  -1   3   68.84    9.17
 -15  -1  -3   66.47   15.97
  15  -1   3   51.63   11.68
 -17   1  -3   23.59   10.38
  17  -1   3   26.27    9.19
 -17   1  -3   26.39    9.75
 -17  -1  -3   23.78   12.84
  17   1   3   15.80    7.43
 -17  -1  -3   17.14    9.69
 -19   1  -3   26.61   10.60
 -19  -1  -3   50.08   15.13
  19   1   3   19.30    9.13
 -19  -1  -3   35.67   12.70
  19  -1   3   28.98   10.52
 -19   1  -3   33.29   12.64
  21   1   3   38.90   12.68
  21  -1   3   40.55   13.13
 -21   1  -3   44.41   13.63
 -21  -1  -3   60.95   17.29
 -22   2   3   61.74   13.85
  22   2  -3   38.53   12.83
  20   2  -3   -2.30    4.73
 -20   2   3    1.22    5.30
  20  -2  -3    5.12    5.12
 -20  -2   3   -6.00    4.72
  18  -2  -3    3.92    5.30
 -18  -2   3   -0.41    4.08
  18   2  -3   13.52    6.25
 -18   2   3   14.32    6.70
 -18   2   3    5.84    6.55
  18  -2  -3    4.80    5.11
 -16   2   3   53.66   11.53
 -16   2   3   67.53   13.86
  16  -2  -3   53.92   10.85
  16   2  -3   57.17   13.15
  16  -2  -3   54.30   11.11
  14  -2  -3  464.95   23.72
  14   2  -3  481.98   29.05
 -14   2   3  458.21   27.08
 -14  -2   3  344.64   25.57
  14  -2  -3  466.10   23.85
 -14   2   3  442.65   25.20
  14   2  -3  453.29   19.45
  12  -2  -3   77.89    9.98
 -12  -2   3   56.15   10.08
 -12  -2   3   49.34   12.11
  12   2  -3   60.58    8.08
  12   2  -3   47.97   10.80
  12  -2  -3   45.57    8.79
 -12   2   3   57.03   11.39
 -12   2   3   74.91   11.59
  10   2  -3  135.13    9.90
 -10  -2   3  136.53   10.77
 -10   2   3  138.50   13.21
  10  -2  -3  134.87   11.26
 -10  -2   3  137.72   14.73
 -10   2   3  137.55   13.29
  10  -2  -3  128.87    9.76
  10   2  -3  136.54   13.64
   8  -2  -3 1337.32   27.45
   8   2  -3 1331.03   30.01
  -8  -2   3 1369.77   36.12
   8  -2  -3 1317.70   34.16
  -8   2   3 1303.17   38.09
  -8  -2   3 1346.94   25.36
  -8   2   3 1279.31   34.32
  -6  -2   3  175.86   12.60
  -6   2   3  169.16   12.87
  -6  -2   3  163.89    7.39
   6   2  -3  178.69   10.43
   6  -2  -3  186.29    7.73
  -6  -2   3  174.42    8.16
  -6   2   3  169.51   11.95
   4   2  -3  697.27   20.27
   4   2  -3  706.26   18.42
  -4   2   3  694.14   24.07
  -4   2   3  679.71   22.26
   4  -2  -3  696.93   21.66
  -4  -2   3  667.54   20.05
   4   2  -3  698.43   23.61
  -2   2   3  436.76   17.50
   2   2  -3  457.12   16.61
   2   2  -3  441.07   15.81
  -2  -2   3  432.54   13.82
   2   2  -3  442.29   17.38
   2  -2  -3  472.76   16.06
  -2   2   3  446.63   18.70
   0   2   3   90.71    8.24
   0   2   3  107.02    9.19
   0   2  -3   96.65    8.56
   0  -2  -3   86.47    6.53
   0   2   3  101.97    5.85
   0   2  -3   93.23    8.13
   0   2  -3  102.09    5.54
   0  -2   3   90.49    7.68
   2   2   3  230.10   11.13
  -2   2  -3  212.29   12.28
   2  -2   3  224.07   12.03
  -2  -2  -3  245.77   12.26
  -2  -2  -3  240.19   13.25
  -2  -2  -3  231.63    9.06
  -4  -2  -3  247.42   13.63
   4   2   3  267.49   14.82
   4  -2   3  267.33   13.79
   4   2   3  264.31   14.08
  -4  -2  -3  253.10    8.19
  -4   2  -3  260.65   14.18
  -4   2  -3  261.02   16.70
  -6   2  -3  267.68   17.98
   6   2   3  244.51   15.51
   6  -2   3  254.59   14.48
   6  -2   3  254.50   14.27
  -6  -2  -3  275.23   15.61
  -6   2  -3  269.02   10.09
   6   2   3  271.51   16.23
   8   2   3  329.56   18.89
   8  -2   3  318.43   17.59
   8   2   3  308.56   19.39
  -8   2  -3  327.73   13.81
   8  -2   3  336.75   17.11
  -8  -2  -3  315.38   18.46
  -8   2  -3  332.71   21.83
 -10   2  -3  188.31   13.21
  10  -2   3  197.38   15.19
 -10  -2  -3  211.49   17.97
 -10   2  -3  185.68   17.53
  10   2   3  187.26   16.33
  10  -2   3  190.58   13.70
  12  -2   3  207.27   17.20
 -12   2  -3  249.13   16.64
  12  -2   3  228.90   15.83
 -12   2  -3  223.19   20.76
  12   2   3  217.26   18.95
 -12  -2  -3  218.24   20.99
 -14   2  -3  242.87   22.64
 -14   2  -3  265.26   18.25
  14  -2   3  263.10   17.50
  14  -2   3  260.79   20.93
 -14  -2  -3  273.29   24.38
  16   2   3    2.33    3.53
 -16   2  -3    9.67    8.05
 -16  -2  -3   -5.38    4.14
 -16  -2  -3    4.83   11.33
  16  -2   3    9.49    6.12
  16  -2   3    8.88    4.97
  18   2   3  122.58   21.35
  18  -2   3  141.29   20.06
 -18   2  -3  134.07   22.18
 -20  -2  -3   -2.10    5.98
 -20   2  -3   24.28   11.09
  20   2   3   10.82    7.91
  20  -2   3   -1.31    6.39
 -21  -3   3    1.42    7.21
  21   3  -3    2.33    5.40
  21  -3  -3    6.92    6.75
  19  -3  -3   20.13    8.23
 -19  -3   3    4.00    5.80
 -19   3   3   29.95   11.74
 -19   3   3   16.82    6.87
  19   3  -3    7.57    7.02
  17  -3  -3   12.35    6.00
 -17   3   3   13.22    6.08
  17   3  -3    8.74    5.58
 -17   3   3    4.18    6.23
 -17  -3   3    6.94   10.26
  15   3  -3   64.75   14.75
 -15   3   3   95.40   17.05
 -15   3   3   95.15   13.81
 -15  -3   3   98.20   17.71
 -13   3   3   57.69   11.02
  13   3  -3   47.64    7.89
  13  -3  -3   56.59    8.97
 -13   3   3   52.53   12.54
 -13  -3   3   50.98   13.00
  13  -3  -3   49.15   10.26
  11   3  -3   32.89    8.47
 -11  -3   3   25.95   10.24
 -11   3   3   20.26    7.47
 -11   3   3   31.83    8.16
 -11  -3   3   28.95    7.14
  11   3  -3   30.84    6.50
  11  -3  -3   29.01    7.62
  11  -3  -3   32.94    6.38
   9  -3  -3   24.13    6.90
  -9  -3   3   22.41    5.27
   9  -3  -3   19.70    4.61
   9   3  -3   15.46    5.96
   9   3  -3   22.07    5.70
  -9   3   3   17.37    6.15
  -9  -3   3   14.15    8.15
  -9   3   3   16.16    7.01
  -7  -3   3  730.69   21.56
   7  -3  -3  709.43   27.45
   7  -3  -3  751.78   17.49
  -7  -3   3  731.06   20.08
  -7   3   3  732.89   27.12
  -7   3   3  737.09   31.31
   7   3  -3  759.41   24.45
  -7  -3   3  739.12   27.41
   7   3  -3  717.31   29.64
   5   3  -3  195.05   14.69
   5   3  -3  156.02   10.90
  -5  -3   3  158.89   12.68
  -5   3   3  173.98   12.84
   5   3  -3  161.10   11.60
  -5   3   3  162.44   14.18
   5  -3  -3  163.07   12.46
  -3   3   3 1492.67   37.80
   3   3  -3 1446.84   35.78
   3   3  -3 1510.50   36.40
  -3   3   3 1447.11   41.09
   3   3  -3 1460.21   37.95
   3  -3  -3 1511.92   22.08
   3  -3  -3 1459.97   35.46
  -1   3   3  950.78   32.25
  -1   3   3  960.45   30.01
  -1   3   3  969.67   19.97
   1   3  -3  965.62   22.61
   1   3  -3  983.07   30.53
   1  -3  -3  957.31   26.58
  -1  -3   3 1003.25   29.56
   1   3  -3  988.58   29.85
   1  -3   3   59.41    7.91
   1   3   3   64.73    9.01
  -1  -3  -3   52.75    6.68
  -1   3  -3   53.96    9.07
  -1   3  -3   57.25    5.18
   1   3   3   63.80    6.42
  -1   3  -3   59.07    9.06
  -3  -3  -3  848.33   21.86
  -3  -3  -3  891.54   29.82
   3  -3   3  851.79   26.45
   3   3   3  859.50   25.81
  -3  -3  -3  886.62   27.38
   3   3   3  862.09   29.61
  -3   3  -3  893.17   17.65
   5  -3   3   35.36    7.78
  -5   3  -3   27.43    8.23
   5  -3   3   33.64    6.80
   5   3   3   32.34    7.18
  -5  -3  -3   30.66    7.38
  -5  -3  -3   32.89    4.63
  -7  -3  -3  605.34   15.53
   7   3   3  654.72   27.88
  -7  -3  -3  627.66   26.02
  -7   3  -3  628.66   31.51
   7   3   3  604.57   27.30
   7  -3   3  621.75   26.37
   7  -3   3  641.07   24.71
  -7   3  -3  610.17   17.06
  -9   3  -3   24.08    4.77
   9   3   3   14.62    7.10
  -9  -3  -3   22.94    8.28
  -9   3  -3   13.98    7.70
   9  -3   3   19.19    6.03
   9  -3   3   17.31    6.15
   9   3   3   15.06    5.95
 -11   3  -3  161.31   20.22
 -11  -3  -3  168.79   17.50
  11  -3   3  165.79   14.95
  11   3   3  155.96   16.26
  11  -3   3  169.55   15.07
  13  -3   3   46.85   10.01
 -13  -3  -3   38.48   12.48
  13  -3   3   36.36    9.53
 -13   3  -3   50.98   13.89
 -15   3  -3  135.55   21.74
 -15  -3  -3  140.31   19.87
  15  -3   3  128.00   17.28
  15  -3   3  115.75   14.95
 -17   3  -3  190.75   26.20
  17  -3   3  188.70   17.32
  17  -3   3  194.32   20.19
  19  -3   3   76.88   16.14
 -19   3  -3   85.55   19.91
  20  -4  -3   38.40   11.70
 -20  -4   3   43.75   16.16
 -20   4   3   38.17   14.20
 -18   4   3   61.27   16.20
  18  -4  -3   49.54   12.46
 -18  -4   3   66.46   17.09
 -16  -4   3   76.75   17.52
 -16   4   3  110.17   20.20
 -14   4   3   15.17    8.44
 -14   4   3   23.06    8.08
 -14  -4   3   17.70   10.13
 -12   4   3   46.72   12.76
 -12  -4   3   50.95   13.05
 -12   4   3   37.03    8.94
  12   4  -3   40.13    8.08
  10   4  -3   84.05   10.83
 -10   4   3   87.59   15.79
 -10   4   3   87.97   12.45
 -10  -4   3   63.58   13.02
 -10  -4   3   86.35   10.11
  10   4  -3   80.15   14.28
   8   4  -3  161.06   13.24
  -8  -4   3  142.78   10.85
  -8  -4   3  161.83   15.87
   8  -4  -3  145.78   14.60
   8   4  -3  159.19   15.64
  -8  -4   3  143.65   11.96
  -8   4   3  174.93   14.71
  -8   4   3  160.15   16.74
   6   4  -3   54.84    9.43
  -6  -4   3   52.44   10.24
   6   4  -3   58.01   10.96
  -6   4   3   51.05    9.13
   6  -4  -3   52.91   10.11
   6   4  -3   60.39    9.06
  -6   4   3   53.83   11.51
   4   4  -3  269.18   17.38
   4  -4  -3  310.52   10.76
   4   4  -3  284.94   18.76
  -4   4   3  306.53   18.72
   4  -4  -3  303.75   18.43
   4   4  -3  334.44   19.20
  -4   4   3  310.33   21.51
  -2   4   3  128.22   15.42
   2   4  -3  124.32   10.48
   2  -4  -3  130.46   11.70
  -2   4   3  129.29   12.42
   2   4  -3  116.33   11.99
   2  -4  -3  123.63    7.43
   2   4  -3  133.69   13.03
  -2  -4   3  110.81   11.38
   0   4   3   57.65    6.96
   0  -4   3   69.52    9.48
   0   4   3   63.69   10.16
   0   4  -3   66.76   11.02
   0   4  -3   76.15   11.39
   0   4  -3   63.55    7.12
   0  -4  -3   66.71    9.14
   2   4   3  510.73   20.47
   2  -4   3  478.45   21.45
  -2  -4  -3  479.44   19.91
  -2   4  -3  487.75   16.34
   2   4   3  505.64   25.99
  -2   4  -3  479.00   24.83
   2   4   3  497.49   24.33
  -2   4  -3  456.83   25.93
   4  -4   3  648.92   25.10
   4   4   3  670.77   26.16
  -4  -4  -3  639.35   22.05
  -4   4  -3  682.52   18.34
  -4  -4  -3  622.32   26.27
   4   4   3  654.84   29.20
  -4  -4  -3  639.22   28.87
   6   4   3  691.40   30.78
   6  -4   3  708.86   27.41
  -6  -4  -3  668.24   21.25
  -6   4  -3  698.63   35.36
  -6  -4  -3  712.34   30.15
   6  -4   3  692.84   30.62
   6   4   3  686.68   29.10
   8   4   3  104.71   14.37
  -8  -4  -3   78.19   12.35
   8  -4   3   95.54   11.78
   8  -4   3  106.46   14.57
  -8   4  -3  102.74   17.48
 -10  -4  -3    9.54    6.60
 -10   4  -3   21.11    8.77
  10   4   3   -2.22    3.31
  10   4   3   12.66    5.35
  10  -4   3   13.10    5.52
  10  -4   3    7.56    5.49
 -12  -4  -3   31.65   11.09
  12  -4   3   21.18    8.02
 -12   4  -3   32.70   11.72
 -12  -4  -3   31.67    9.79
  14  -4   3  175.44   17.88
 -14  -4  -3  178.28   20.34
  14  -4   3  154.64   18.38
 -14   4  -3  191.30   25.77
  16  -4   3   69.68   13.70
 -16   4  -3  121.65   22.81
 -18   4  -3   83.80   19.55
  18  -4   3   84.10   15.71
 -17   5   3   23.84   10.15
  17   5  -3    0.35    5.19
 -17  -5   3   16.77   13.12
 -15  -5   3  233.77   24.83
 -13   5   3   93.84   19.38
 -13  -5   3  109.39   18.03
  11   5  -3   72.59   11.69
 -11   5   3   63.47   11.87
 -11   5   3   87.94   18.38
 -11  -5   3   64.92   14.25
  -9  -5   3  281.00   18.41
  -9  -5   3  273.79   16.56
   9   5  -3  239.17   17.66
   9  -5  -3  257.61   21.38
  -9   5   3  255.99   19.02
   9   5  -3  251.23   21.54
  -9  -5   3  252.83   20.88
  -9   5   3  267.27   24.01
  -7  -5   3   39.90    8.72
  -7  -5   3   48.13   10.83
   7  -5  -3   35.19    9.79
  -7  -5   3   42.20    8.45
   7   5  -3   28.64    9.00
  -7   5   3   26.20    9.04
   7   5  -3   43.70    9.93
  -7   5   3   35.20    8.92
   5   5  -3  128.81   16.50
   5  -5  -3  109.82   14.52
  -5   5   3  113.01   17.31
  -5  -5   3  123.81   13.73
  -5   5   3  131.02   13.46
   5   5  -3  114.23   14.27
   5   5  -3  117.03   14.62
   3   5  -3  129.11   12.58
   3   5  -3  138.54   14.25
  -3  -5   3  121.73   13.17
   3   5  -3  139.09   14.80
  -3   5   3  109.18   16.06
   3  -5  -3  128.59   13.54
  -3   5   3  132.13   13.66
   1   5  -3  158.63   15.70
  -1   5   3  147.02   15.84
   1   5  -3  176.84   16.85
  -1  -5   3  190.94   15.19
   1   5  -3  163.15   12.88
   1  -5  -3  173.60   14.93
  -1   5   3  139.34   13.98
   1   5   3   58.81   11.33
   1  -5   3   49.06    9.32
  -1  -5  -3   44.70    8.96
  -1   5  -3   52.40    7.55
  -1   5  -3   43.96   11.35
   1   5   3   54.73   12.23
   1   5   3   46.52    7.94
   3  -5   3   92.35   11.56
  -3  -5  -3   96.31   11.39
   3  -5   3  106.66   15.09
  -3  -5  -3   81.78   13.81
   3   5   3   63.76   12.12
  -3   5  -3   97.78   16.44
   3   5   3   69.64   10.43
  -5  -5  -3    8.02    5.49
   5   5   3   10.29    6.65
   5  -5   3   10.90    6.08
  -5  -5  -3   19.25    7.69
  -5   5  -3    1.52    3.78
  -5  -5  -3   11.33    4.94
   5  -5   3   13.20    5.37
   5   5   3   15.78    5.42
   7  -5   3   -2.59    2.99
  -7  -5  -3   14.15    7.12
   7  -5   3    9.09    4.88
  -7   5  -3    1.60    4.32
   7   5   3    4.73    4.83
   7   5   3   10.73    5.59
   9   5   3    1.19    4.51
   9   5   3   10.16    6.03
  -9  -5  -3   13.58    7.74
  -9   5  -3   -3.87    4.30
   9  -5   3    3.67    3.18
 -11   5  -3  123.48   22.38
 -11  -5  -3  159.38   18.90
  11   5   3  147.54   19.98
 -13   5  -3   31.35   12.74
  13   5   3   37.84   10.83
 -13  -5  -3   15.71    9.21
 -13  -5  -3   49.17   13.17
  15   5   3   23.85   10.39
 -15   5  -3   17.18   10.32
  15  -5   3   23.49    9.77
 -15  -5  -3   21.24   11.16
 -17   5  -3   14.23    9.78
  17   5   3   -4.20    5.43
 -17  -5  -3    7.43    9.91
  17  -5   3    4.51    7.30
 -16   6   3   72.52   18.97
 -16  -6   3   61.94   16.84
  14   6  -3   30.51   11.23
 -14   6   3   54.62   15.60
 -14  -6   3   49.18   15.14
 -12  -6   3   31.42   12.48
  12   6  -3   37.53   12.19
 -12   6   3   23.16   10.71
 -10   6   3  144.08   23.79
  10  -6  -3  137.02   19.82
 -10  -6   3  106.80   17.20
  10   6  -3  125.56   19.80
   8   6  -3   92.43   14.85
   8  -6  -3   77.64   15.38
  -8   6   3   76.30   17.88
   8   6  -3   84.39   16.07
  -8  -6   3   71.84   14.06
   6  -6  -3   10.94    6.57
  -6   6   3    0.11    4.65
  -6  -6   3   15.02    6.99
   6   6  -3    6.41    5.91
  -6   6   3    2.29    4.39
   6   6  -3    3.00    4.49
  -4   6   3   48.63   10.94
  -4  -6   3   39.07   10.08
   4   6  -3   73.73   14.55
   4   6  -3   58.81   12.75
   4  -6  -3   54.66   12.16
  -2   6   3   38.26    9.94
  -2  -6   3   38.56    9.07
   2   6  -3   44.13   11.78
   2  -6  -3   25.15    8.42
   0  -6  -3   87.43   13.37
   0   6  -3   93.13   16.62
   0  -6   3   95.82   13.12
   0   6   3   93.30   14.56
   0  -6   3   79.63   14.59
   2  -6   3   19.12    7.59
   2  -6   3   16.28    5.88
   2   6   3   15.76    7.04
  -2   6  -3    1.04    4.63
  -2  -6  -3   15.82    5.78
  -4  -6  -3  340.82   20.79
   4  -6   3  358.05   25.97
  -4  -6  -3  363.36   24.43
  -4  -6  -3  341.96   25.40
   4   6   3  322.35   24.18
   6   6   3  125.46   16.13
   6  -6   3  138.76   19.36
  -6  -6  -3  132.61   17.02
  -6  -6  -3   90.19   15.93
   8   6   3   70.65   13.88
  -8  -6  -3   81.93   15.94
 -10  -6  -3   87.52   16.28
  10   6   3  108.76   17.66
  12  -6   3    0.85    5.41
 -12  -6  -3    0.40    6.21
 -12   6  -3    1.52    7.51
  12   6   3   -6.17    5.40
  14   6   3   14.65    7.47
  14  -6   3   -3.02    5.71
 -14   6  -3   12.59   10.40
 -14  -6  -3   15.43   10.37
  11   7  -3   66.94   16.50
  11  -7  -3   59.17   15.33
 -11  -7   3   74.38   16.99
 -11   7   3   62.73   18.05
  -9   7   3   -1.92    8.07
   9  -7  -3    9.90    7.47
  -9  -7   3    1.68    9.10
   7  -7  -3   37.31   12.20
  -7  -7   3   26.48   10.01
  -7   7   3    4.91    5.88
  -5   7   3    3.54    5.12
   5  -7  -3   12.67    7.60
   5   7  -3   15.80    6.89
  -5  -7   3    9.00    6.14
   3   7  -3   23.44    9.21
   3  -7  -3   22.62    9.20
  -3  -7   3   18.08    8.40
  -1   7   3   44.97   11.69
   1  -7  -3   38.02   11.14
  -1  -7   3   49.55   12.31
   1   7  -3   45.00   13.79
   1   7   3   54.12   12.78
  -1  -7  -3   65.17   13.23
  -1   7  -3   58.91   15.54
   1  -7   3   44.13   12.07
   3  -7   3  120.17   19.41
  -3  -7  -3  125.89   18.39
  -3  -7  -3  116.71   19.33
   3   7   3  129.68   18.42
   5  -7   3   26.51   10.16
  -5  -7  -3   21.91    9.67
   5   7   3   17.99    8.15
  -5  -7  -3   35.02   10.83
  -5   7  -3    0.66    6.72
   7  -7   3  170.70   23.16
  -7  -7  -3  132.84   20.51
   7   7   3  147.50   21.33
  -9   7  -3   10.26    7.61
   9   7   3    4.36    9.06
  -9  -7  -3   11.02    8.99
   9  -7   3    0.72    5.64
   4  -8  -3   21.96   10.71
  -4   8   3   -1.87    6.94
  -2  -8   3   45.45   13.17
   2  -8  -3   61.59   14.88
   2   8  -3   36.44   13.81
   0   8  -3    9.28    8.69
   0  -8  -3    5.00    6.81
   0   8   3   -1.82    6.89
   0  -8   3   -0.46    4.66
  -2   8  -3    4.19    9.50
  -2  -8  -3   10.01    6.45
  -2  -8  -3   10.13    8.22
   2  -8   3   -6.99    4.10
  22   0  -4   -0.88    5.38
 -22   0   4    6.06    6.88
  20   0  -4  130.33   19.77
  18   0  -4   19.79    6.81
 -18   0   4    1.18    4.82
  18   0  -4   27.22    9.26
 -16   0   4   22.94   10.70
  16   0  -4   11.39    5.14
  16   0  -4   12.63    6.21
 -14   0   4  581.63   24.01
 -14   0   4  640.38   31.83
  14   0  -4  642.71   29.86
  14   0  -4  638.16   24.97
  12   0  -4   15.84    5.92
 -12   0   4    9.06    3.73
  12   0  -4   16.43    5.28
 -12   0   4   14.87    5.36
 -10   0   4  615.09   19.47
  10   0  -4  655.17   21.94
  10   0  -4  642.13   24.64
   8   0  -4  189.25   11.00
  -8   0   4  153.05   13.55
  -8   0   4  172.62    8.82
   8   0  -4  184.81   11.89
   6   0  -4  587.25   17.42
  -6   0   4  539.44   12.98
   6   0  -4  598.45   18.47
  -6   0   4  583.74   21.08
  -4   0   4  998.09   23.55
   4   0  -4 1029.39   21.44
  -4   0   4 1008.42   15.88
   2   0  -4  332.96    9.34
  -2   0   4  315.59   11.39
   2   0  -4  332.24   10.58
  -2   0   4  329.79   10.63
   0   0  -4 9728.23   87.53
   0   0  -4 9716.17   94.37
   0   0   4 9999.96   96.10
   0   0   4 9489.51   91.60
  -2   0  -4  486.06   11.24
  -2   0  -4  501.48   17.46
   2   0   4  492.31   13.32
  -4   0  -4 1459.65   33.87
  -4   0  -4 1434.49   21.88
   4   0   4 1447.88   26.16
   6   0   4  740.11   25.14
   6   0   4  734.52   15.60
  -6   0  -4  759.09   26.92
   6   0   4  740.98   20.20
   8   0   4    5.12    3.83
  -8   0  -4    5.20    8.03
   8   0   4   11.54    2.73
  -8   0  -4    7.39    5.13
 -10   0  -4    7.19   10.01
  10   0   4   11.29    5.57
  10   0   4   11.45    2.95
 -10   0  -4    8.18    6.29
 -12   0  -4  264.86   18.59
  12   0   4  257.63   19.86
 -12   0  -4  256.69   22.81
  12   0   4  258.95   11.45
  14   0   4   23.48    8.19
 -14   0  -4   18.08    9.09
 -14   0  -4   28.82   13.44
  16   0   4  132.25   19.45
 -16   0  -4  168.62   22.38
 -16   0  -4  148.68   17.77
 -18   0  -4    3.09    8.15
 -18   0  -4   18.42   10.67
  18   0   4    4.94    5.24
 -20   0  -4   23.64   10.41
 -20   0  -4   28.02   12.42
  20   0   4   28.53   10.54
  22   0   4  267.51   28.88
 -23  -1   4    4.86    7.33
  23   1  -4   38.14   12.75
 -23   1   4   36.71   12.87
  23  -1  -4   22.22   10.18
  21  -1  -4  114.28   18.44
 -21   1   4   93.88   17.61
  21   1  -4   80.49   17.31
  19  -1  -4    8.38    5.87
  19  -1  -4    6.82    5.61
 -19   1   4    9.77    7.17
  19   1  -4   12.36    7.18
 -19  -1   4    2.91    4.72
  17  -1  -4  224.91   19.24
 -17   1   4  234.23   19.03
  17  -1  -4  228.22   17.34
  17   1  -4  211.29   15.08
  17   1  -4  248.64   22.01
 -17   1   4  228.41   20.79
  15   1  -4  273.40   16.66
  15   1  -4  278.31   21.42
 -15   1   4  280.80   21.74
  15  -1  -4  280.13   18.35
 -15  -1   4  272.40   23.75
  15  -1  -4  290.93   19.95
 -15   1   4  245.89   18.46
  13  -1  -4  121.48   12.16
 -13   1   4  117.94   13.13
  13   1  -4  112.86   14.64
  13  -1  -4  101.79   10.75
  13   1  -4   98.07    9.97
 -13  -1   4  114.43   10.66
 -13  -1   4  130.31   16.70
 -13   1   4  118.94   14.85
  11   1  -4  188.41   12.19
 -11  -1   4  198.50   17.40
 -11   1   4  175.98   16.05
 -11   1   4  170.92   13.15
  11   1  -4  185.67   15.13
  11  -1  -4  159.97   12.24
 -11  -1   4  170.69   10.65
  11  -1  -4  179.71   12.74
   9  -1  -4  790.16   24.75
  -9  -1   4  781.46   17.10
  -9   1   4  783.01   25.06
  -9  -1   4  784.26   28.38
   9   1  -4  811.17   28.72
   9  -1  -4  807.53   23.70
   9   1  -4  778.43   22.58
  -9   1   4  777.15   27.48
  -7   1   4 1438.04   34.65
   7   1  -4 1398.21   29.01
   7  -1  -4 1417.12   27.46
  -7  -1   4 1391.36   34.03
   7   1  -4 1382.84   34.94
   7  -1  -4 1394.37   30.97
  -7   1   4 1363.65   30.96
  -5   1   4  228.32   11.47
   5  -1  -4  237.30    8.55
   5   1  -4  225.65   12.66
   5   1  -4  216.03   10.66
  -5  -1   4  240.10   13.35
   3  -1  -4  209.21    9.61
   3   1  -4  199.07    9.62
   3   1  -4  212.49   11.19
  -3   1   4  197.28    5.79
  -3  -1   4  205.33   11.09
  -3   1   4  186.24   10.94
  -3   1   4  214.08   10.48
   3   1  -4  190.08    6.82
   1  -1  -4  221.98    9.64
   1   1  -4  166.12    8.75
  -1   1   4  214.75    6.79
   1   1  -4  204.44   10.07
  -1  -1   4  214.75   10.56
   1  -1  -4  226.99    8.56
  -1   1   4  231.76   11.44
  -1  -1   4  201.01    8.26
   1   1   4 1506.04   30.18
   1  -1   4 1534.06   30.72
  -1   1  -4 1536.24   27.86
  -1  -1  -4 1528.07   20.86
   1   1   4 1524.19   25.98
  -1  -1  -4 1481.31   29.02
  -1   1  -4 1476.90   30.74
  -3   1  -4  996.76   28.16
  -3   1  -4 1005.54   23.06
  -3  -1  -4 1027.62   25.96
   3   1   4 1015.74   24.80
   3  -1   4 1049.70   26.64
   3   1   4  990.85   25.07
  -5   1  -4  905.73   29.48
   5  -1   4  846.68   25.68
   5   1   4  890.86   25.11
  -5   1  -4  878.40   22.55
   5   1   4  909.21   27.07
  -5  -1  -4  904.12   27.50
  -5   1  -4  875.26   17.35
  -7  -1  -4  570.64   24.18
   7  -1   4  585.73   19.09
  -7   1  -4  566.24   17.16
   7  -1   4  554.86   23.07
   7   1   4  577.64   23.77
  -7   1  -4  575.27   26.05
   7   1   4  592.59   21.97
  -9   1  -4  258.77   20.46
   9  -1   4  288.68   13.97
  -9  -1  -4  263.77   19.87
  -9   1  -4  267.52   14.65
   9  -1   4  275.48   17.87
  11  -1   4   85.60    8.15
 -11   1  -4   96.24   15.87
  11   1   4   73.35   12.48
 -11   1  -4   99.74   11.55
 -11  -1  -4  102.71   16.76
  11  -1   4   77.17   12.20
 -11  -1  -4   94.97   13.18
 -13   1  -4  255.05   18.51
  13  -1   4  266.27   20.90
 -13  -1  -4  260.23   20.47
 -13   1  -4  279.43   24.05
  13  -1   4  296.74   15.54
 -13  -1  -4  260.84   25.10
  13   1   4  269.96   21.62
 -15   1  -4   88.70   17.17
 -15   1  -4  115.75   14.43
  15   1   4  124.33   18.66
 -15  -1  -4  122.22   16.48
  15  -1   4   95.00   16.25
 -15  -1  -4   94.68   18.04
 -17   1  -4  128.18   16.63
 -17   1  -4  137.34   21.54
 -17  -1  -4  119.96   21.19
 -17  -1  -4  137.49   19.14
  17  -1   4  121.31   19.00
  17   1   4  125.76   20.13
 -19  -1  -4   85.45   17.52
  19  -1   4   98.23   18.19
 -19  -1  -4  124.55   21.85
  19   1   4  110.92   20.36
 -19   1  -4  117.17   21.03
 -21  -1  -4   11.47   10.42
  21  -1   4   -1.90    5.81
  21   1   4    3.88    6.57
 -21   1  -4   25.77   11.99
 -22  -2   4    0.38    6.63
  22   2  -4   31.67   11.93
  22  -2  -4   16.66    7.90
 -22   2   4   31.58   10.29
  20  -2  -4   85.37   14.99
  20   2  -4   99.08   19.30
 -20   2   4   84.87   15.30
  18   2  -4   39.32   11.29
 -18   2   4   49.69   12.28
  18  -2  -4   66.55   13.07
 -18   2   4   60.00   13.52
  18  -2  -4   53.59   11.26
 -16   2   4   24.85    8.03
  16  -2  -4   22.21    7.07
  16   2  -4   23.21    8.48
 -16   2   4   33.05    9.86
  16  -2  -4   21.72    7.80
  16   2  -4   33.53    7.42
  14   2  -4  177.30   12.99
 -14  -2   4  175.03   19.95
  14  -2  -4  155.62   14.24
  14   2  -4  141.49   18.35
 -14   2   4  165.45   16.41
  14  -2  -4  166.17   14.19
 -14   2   4  137.85   15.97
  12  -2  -4  421.17   19.48
 -12   2   4  378.43   22.14
 -12   2   4  400.13   23.37
  12   2  -4  397.90   18.26
 -12  -2   4  395.52   24.74
 -12  -2   4  402.01   17.45
  12   2  -4  378.76   24.14
  12  -2  -4  416.74   21.48
  10  -2  -4  110.20    8.93
  10   2  -4  113.01    9.66
 -10  -2   4  101.48   13.50
 -10  -2   4  116.67    9.65
  10  -2  -4  119.02   11.15
 -10   2   4  108.81   11.81
 -10   2   4  117.25   12.86
  10   2  -4   90.82   13.00
  -8  -2   4  160.05   14.39
   8   2  -4  161.61   10.90
   8  -2  -4  155.31   11.43
  -8   2   4  164.77   13.04
   8  -2  -4  157.93    8.68
  -8   2   4  159.27   13.21
  -8  -2   4  167.79    8.09
   8   2  -4  153.60   13.42
  -6   2   4 1687.17   39.53
   6  -2  -4 1707.35   23.85
  -6   2   4 1656.89   40.17
  -6  -2   4 1700.81   25.70
   6   2  -4 1663.34   34.35
  -6  -2   4 1672.96   36.53
  -6  -2   4 1657.83   23.83
   6  -2  -4 1649.85   36.43
   4   2  -4  144.39    9.79
   4  -2  -4  140.51    9.73
  -4   2   4  124.56   10.59
   4   2  -4  117.46   10.19
   4   2  -4  140.81    8.29
  -4  -2   4  120.44    9.66
  -4   2   4  123.54   10.33
  -2   2   4  339.49   16.31
  -2   2   4  339.98   16.53
   2   2  -4  332.46   13.80
   2   2  -4  329.55   14.57
  -2  -2   4  331.26   11.93
  -2  -2   4  345.66   16.24
   2  -2  -4  329.13   13.32
   0   2   4  568.52   14.28
   0  -2   4  582.10   12.12
   0   2  -4  545.09   20.15
   0  -2  -4  577.80   16.11
   0   2   4  541.58   20.30
   0  -2   4  576.28   20.51
   2   2   4 1192.26   31.58
   2  -2   4 1201.85   30.38
  -2   2  -4 1241.35   30.73
  -2  -2  -4 1227.55   28.77
  -2  -2  -4 1194.15   21.50
   2   2   4 1249.14   27.28
  -2  -2  -4 1233.34   31.06
  -2   2  -4 1143.11   32.62
  -4   2  -4   58.49    9.66
  -4  -2  -4   64.16    3.92
  -4  -2  -4   58.86    8.35
   4  -2   4   71.68    7.92
   4   2   4   58.40    8.66
   4   2   4   70.09    7.66
  -4   2  -4   66.49    8.45
  -6  -2  -4   53.95    8.76
   6   2   4   49.32    8.41
   6  -2   4   46.67    7.62
   6   2   4   36.03    7.38
   6  -2   4   49.56    8.18
  -6   2  -4   45.97    4.67
  -6   2  -4   35.20    9.08
   8  -2   4  416.23   21.15
   8   2   4  416.53   21.71
   8   2   4  395.74   22.02
  -8   2  -4  395.77   24.56
  -8  -2  -4  413.53   21.93
   8  -2   4  428.08   19.77
  -8   2  -4  407.56   15.02
  10   2   4  102.00   14.36
  10  -2   4  127.97   11.35
 -10   2  -4  123.67   16.95
  10   2   4  118.88   13.88
  10  -2   4  131.76   13.25
 -10  -2  -4  112.13   14.63
 -10   2  -4  121.01   11.24
  12  -2   4  381.61   24.32
 -12   2  -4  352.93   26.44
 -12  -2  -4  381.80   26.18
  12   2   4  359.70   24.97
 -12  -2  -4  364.29   23.96
  12  -2   4  358.56   19.53
 -12   2  -4  364.50   19.34
 -14   2  -4   34.65   11.36
  14  -2   4   41.44    8.57
  14  -2   4   44.32   10.75
 -14  -2  -4   45.93   14.66
 -14  -2  -4    8.37    8.00
  16  -2   4   58.52   13.14
 -16   2  -4   65.36   15.87
 -16  -2  -4   82.90   18.71
  16  -2   4   66.03   10.89
 -18  -2  -4   79.68   19.51
 -18   2  -4   67.83   17.09
  18  -2   4   65.33   15.15
  20   2   4   18.70    8.51
 -20   2  -4   19.94   11.45
 -20  -2  -4   31.28   13.55
  20  -2   4    7.30    7.30
  21  -3  -4   52.11   12.85
  21   3  -4   39.38   12.60
  19   3  -4   18.54    9.19
  19  -3  -4   15.36    7.69
 -19   3   4   21.82    7.72
 -19  -3   4   30.12   13.46
 -19   3   4   33.68   11.47
  17   3  -4   37.24   11.80
 -17   3   4   43.19   12.38
 -17  -3   4   38.65   13.65
 -17   3   4   27.09    8.43
 -15   3   4   29.92    8.58
  15   3  -4   17.04    5.74
  15   3  -4   23.31    8.50
 -15   3   4   22.29    8.88
 -15  -3   4   20.68   10.81
 -13   3   4  476.05   29.11
  13   3  -4  487.41   21.91
 -13   3   4  472.26   26.26
  13  -3  -4  443.51   25.17
 -13  -3   4  479.45   29.18
 -11   3   4  216.93   18.65
 -11   3   4  203.34   16.84
  11  -3  -4  243.23   12.87
  11  -3  -4  210.63   16.41
  11   3  -4  226.00   14.55
 -11  -3   4  231.63   19.84
   9   3  -4  136.85   11.25
   9  -3  -4  108.30   11.15
  -9   3   4  119.44   14.75
   9   3  -4  112.18   14.59
  -9   3   4  120.96   13.48
  -9  -3   4  127.12   14.51
  -9  -3   4  126.10    8.86
   9  -3  -4  125.76    7.81
  -7  -3   4  734.78   19.43
  -7   3   4  716.60   27.96
  -7   3   4  707.68   30.33
  -7  -3   4  702.05   26.99
   7  -3  -4  754.02   27.48
  -7  -3   4  722.50   20.68
   7   3  -4  695.27   29.77
   7   3  -4  725.67   24.93
  -5   3   4  250.52   16.04
   5  -3  -4  264.97   15.88
   5   3  -4  263.54   17.19
   5   3  -4  261.12   13.76
  -5   3   4  235.80   17.14
   5   3  -4  251.66   14.66
  -5  -3   4  249.85   15.10
   3   3  -4  905.81   28.76
   3   3  -4  881.83   27.26
   3  -3  -4  974.59   28.13
  -3   3   4  889.67   32.30
  -3  -3   4  936.95   24.28
  -3   3   4  953.10   31.01
  -1   3   4  296.26   18.29
   1  -3  -4  284.41   14.22
  -1  -3   4  297.33   16.47
  -1   3   4  285.18   10.26
  -1   3   4  294.42   17.02
  -1  -3   4  293.69   12.03
   1   3  -4  277.74   16.16
   1   3  -4  283.91   16.45
   1  -3   4  157.68   11.87
  -1  -3  -4  154.20    9.83
   1   3   4  153.33   12.53
   1   3   4  165.29    9.67
  -1   3  -4  154.93   13.31
   1   3   4  173.17   13.73
  -1   3  -4  171.41   13.06
  -1   3  -4  159.85    7.29
   3   3   4    3.99    2.97
  -3  -3  -4   12.75    3.49
   3  -3   4   12.55    4.58
  -3   3  -4    6.64    3.81
  -3  -3  -4   10.05    5.07
   3   3   4   19.60    5.08
  -3  -3  -4   18.04    5.62
  -3   3  -4    3.61    3.75
   5   3   4  224.53   15.02
   5   3   4  240.10   16.83
  -5  -3  -4  238.70   16.33
   5  -3   4  234.00   15.10
   5  -3   4  263.78   16.56
  -5   3  -4  243.88   19.41
  -5  -3  -4  228.04    9.78
   7  -3   4  118.72   11.49
  -7   3  -4  126.56   16.42
   7  -3   4  142.06   12.80
   7   3   4  134.57   13.73
  -7  -3  -4  138.08   13.69
   7   3   4  112.75   12.16
  -9   3  -4  781.75   37.55
   9  -3   4  769.73   30.77
   9   3   4  788.80   33.46
   9  -3   4  737.85   30.52
   9   3   4  808.73   34.70
  -9  -3  -4  772.14   31.84
  11  -3   4  128.51   13.88
 -11   3  -4  144.20   19.68
  11   3   4  140.70   18.00
  11   3   4  125.76   16.42
  11  -3   4  123.59   14.67
 -11  -3  -4  119.38   16.03
 -13  -3  -4   43.93   13.11
 -13   3  -4   36.54   12.16
  13  -3   4   41.00   10.64
  13  -3   4   45.39   10.21
 -15   3  -4   94.08   18.91
 -15  -3  -4   72.37   17.34
  15  -3   4   80.11   14.84
  15  -3   4  100.14   14.19
  17   3   4   -0.96    4.72
  17  -3   4   -2.12    5.68
 -17   3  -4   -6.17    6.30
  17  -3   4    5.40    5.37
 -17  -3  -4   -3.13    5.38
 -19   3  -4   51.12   15.92
  19  -3   4   54.63   14.45
  20  -4  -4   44.07   12.88
 -20  -4   4   49.13   17.04
 -20   4   4   63.63   16.95
  20   4  -4   35.70   13.74
 -18   4   4  202.95   26.47
 -18  -4   4  214.55   26.64
 -16  -4   4   37.95   13.82
 -16   4   4   32.84   12.66
 -16   4   4   38.50   10.87
 -14   4   4  167.96   22.47
 -14   4   4  181.32   17.25
 -14  -4   4  178.55   21.88
 -12   4   4   42.05   11.93
 -12  -4   4   38.02   12.22
  12   4  -4   50.39    9.22
 -12   4   4   39.70    9.74
 -10   4   4   41.96    9.67
  10   4  -4   36.19    9.71
  10   4  -4   41.07    8.51
 -10  -4   4   27.47    9.76
 -10   4   4   36.41   10.44
  -8  -4   4   28.13    9.09
  -8   4   4   23.98    8.42
  -8   4   4   38.29    8.83
  -8  -4   4   38.50    6.67
   8   4  -4   31.80    8.58
   8  -4  -4   30.07    8.47
  -8  -4   4   38.96    7.38
   8   4  -4   24.52    6.73
   6   4  -4   92.17   10.68
   6   4  -4   72.75   12.39
  -6  -4   4   92.51   11.89
   6  -4  -4   96.53   12.71
   6   4  -4   86.77   11.60
  -6   4   4   88.00   13.88
  -6   4   4   75.99   11.23
   4   4  -4   22.62    6.79
  -4   4   4   31.69    8.60
  -4   4   4   28.23    7.64
   4  -4  -4   29.53    7.50
  -4  -4   4   27.05    7.51
   4   4  -4   24.29    7.34
   4   4  -4   28.07    7.11
   2  -4  -4  247.46   15.68
   2   4  -4  242.16   16.97
  -2   4   4  232.16   17.16
   2   4  -4  249.68   17.36
   2  -4  -4  233.26    9.37
  -2   4   4  252.49   18.83
  -2  -4   4  253.32   17.35
   0  -4   4   52.35    9.25
   0   4  -4   53.76   10.30
   0   4   4   52.34   10.36
   0   4   4   58.08   10.24
   0   4   4   56.52    6.64
   0   4  -4   53.95   10.59
   0  -4  -4   53.76    8.42
   0   4  -4   52.94    6.28
   2   4   4  118.88   13.80
  -2   4  -4  136.49    8.21
  -2  -4  -4  133.13   13.79
   2   4   4  127.88   10.52
  -2  -4  -4  132.19   10.42
   2  -4   4  125.70   11.53
  -2  -4  -4  133.69   12.77
  -2   4  -4  131.13   16.11
  -2   4  -4  134.17   13.38
  -4  -4  -4  421.65   17.28
   4   4   4  448.44   24.59
   4   4   4  419.66   20.82
   4  -4   4  418.77   21.28
  -4  -4  -4  440.96   22.70
  -4  -4  -4  440.44   24.27
   6   4   4   73.74   11.39
   6  -4   4   62.19   11.47
  -6   4  -4   62.72   13.72
   6  -4   4   71.03   10.53
  -6  -4  -4   57.83   11.48
  -6  -4  -4   60.13    6.94
   6   4   4   61.22   11.37
   8  -4   4  694.41   32.53
   8  -4   4  743.05   30.06
  -8  -4  -4  700.06   31.92
   8   4   4  712.69   32.27
  10   4   4   57.63   12.08
 -10   4  -4   53.43   13.61
  10  -4   4   56.16   11.37
  10  -4   4   56.01   11.14
 -10  -4  -4   68.55   12.94
  12  -4   4   48.87   11.18
 -12   4  -4   58.58   14.75
  12  -4   4   44.91   11.06
 -12  -4  -4   45.35   12.12
  14  -4   4   26.14    9.18
  14  -4   4   25.08    8.35
 -14  -4  -4   32.87   12.16
 -14   4  -4   25.16   10.11
  16  -4   4   71.32   14.04
 -16   4  -4   93.96   19.91
  18   4   4   -1.33    5.56
 -18   4  -4   12.79   10.32
 -18  -4  -4   -8.63    5.63
  18  -4   4   35.76   11.40
 -17   5   4   52.20   15.43
 -17  -5   4   65.14   17.88
 -15   5   4   64.80   16.36
 -15  -5   4   61.07   16.12
 -13   5   4   34.39   11.67
 -13  -5   4   24.53   11.52
 -11   5   4   15.19    6.85
 -11   5   4   16.97    8.39
 -11  -5   4   21.67    9.70
  11  -5  -4   -0.49    3.44
  11   5  -4   13.41    5.74
  -9  -5   4    3.78    7.21
   9   5  -4    0.19    3.03
   9   5  -4    2.68    4.09
   9  -5  -4    1.61    3.84
  -9   5   4   -0.92    4.67
  -9   5   4    2.62    4.18
   7   5  -4  140.45   15.53
  -7   5   4  138.67   15.96
  -7  -5   4  160.94   16.08
  -7   5   4  152.96   20.19
   7   5  -4  124.61   12.74
   7   5  -4  152.77   14.72
   7  -5  -4  153.84   16.18
   5   5  -4    4.34    3.82
  -5   5   4    2.01    3.85
  -5   5   4   -1.25    3.77
  -5  -5   4    1.45    5.77
   5  -5  -4   -0.30    2.98
   5   5  -4   -0.17    2.93
   3  -5  -4   35.80    8.95
   3   5  -4   30.30    8.38
  -3   5   4   19.49    7.35
  -3  -5   4   29.06    8.18
   3   5  -4   30.51    8.53
  -3   5   4   30.60    8.51
  -3  -5   4   19.33    6.59
   1  -5  -4  157.27   13.89
   1   5  -4  157.38   12.20
  -1   5   4  144.04   14.89
   1   5  -4  140.93   16.86
  -1  -5   4  136.42   13.17
  -1   5   4  135.06   17.62
   1   5  -4  161.94   16.00
  -1   5  -4  356.91   24.67
  -1  -5  -4  334.93   19.28
   1   5   4  299.68   15.98
  -1   5  -4  299.53   22.22
   1   5   4  312.36   21.71
   1  -5   4  320.53   19.93
  -3  -5  -4   79.16   12.84
  -3  -5  -4   80.76   10.33
  -3   5  -4  107.83   17.15
   3   5   4   94.81   11.35
   3  -5   4   83.88   11.65
  -3  -5  -4   88.85   14.45
   3   5   4   95.64   14.32
   3  -5   4   82.59   14.04
  -5  -5  -4  272.98   21.34
   5   5   4  262.88   18.58
  -5  -5  -4  235.72   18.65
  -5  -5  -4  246.10   15.17
   5   5   4  237.34   19.96
   5  -5   4  244.73   17.65
  -9  -5  -4   15.64    7.80
   9  -5   4   27.17    8.31
   9   5   4   23.66    7.98
  11   5   4  136.46   19.17
 -11   5  -4  109.27   21.33
 -11  -5  -4  102.64   16.60
 -13  -5  -4    9.02    8.25
  13   5   4    8.78    5.97
 -13   5  -4    0.37    6.40
 -13  -5  -4   12.94    8.46
  13  -5   4   -0.55    4.45
 -15  -5  -4   26.98   11.32
  15   5   4   17.90    8.45
  15  -5   4   27.47   11.23
 -15   5  -4   18.57   10.26
 -17   5  -4   49.69   16.09
  17   5   4   51.45   15.39
  17  -5   4   31.05   11.04
 -16  -6   4   17.50   11.77
  16  -6  -4    0.10    5.00
 -16   6   4    7.95    8.44
  16   6  -4   -0.57    6.62
 -14   6   4  138.27   25.10
 -14  -6   4  158.82   22.84
  12  -6  -4   23.12    9.26
  12   6  -4   21.06    9.83
 -12   6   4   23.26   10.51
 -12  -6   4   22.26   10.85
 -10   6   4   88.21   19.57
  10  -6  -4   55.17   13.11
  10   6  -4   76.89   16.19
  10   6  -4   84.47   14.67
 -10  -6   4   69.45   14.50
  -8   6   4   -2.25    5.38
  -8  -6   4    2.29    6.46
   8   6  -4   -1.21    4.35
   8  -6  -4   -1.43    3.99
   8   6  -4    1.56    4.14
  -6   6   4   76.35   16.97
   6  -6  -4   75.93   14.06
  -6  -6   4   81.69   13.35
  -6  -6   4   71.77   13.69
  -6   6   4   64.14   12.53
   6   6  -4   81.93   14.94
   6   6  -4   84.71   14.23
  -4   6   4    2.34    3.14
   4   6  -4    3.00    4.54
   4  -6  -4    6.65    4.50
   4   6  -4    9.12    5.62
  -4  -6   4   10.88    5.95
  -4   6   4    5.18    5.14
   2   6  -4   98.62   16.28
  -2  -6   4  104.23   14.42
  -2   6   4   88.73   14.62
   2  -6  -4   90.54   13.81
   0  -6  -4  288.83   20.51
   0   6  -4  297.65   24.80
   0   6   4  306.92   23.47
   0  -6   4  290.59   20.68
   2  -6   4   50.36   10.25
  -2  -6  -4   72.41   11.78
  -2  -6  -4   64.51   13.24
  -2  -6  -4   66.45   14.10
   2   6   4   67.01   13.79
   2  -6   4   66.47   13.75
  -4  -6  -4  154.51   19.94
   4   6   4  170.39   17.75
   4  -6   4  152.85   19.35
  -4  -6  -4  150.05   18.40
  -6  -6  -4   21.63    9.24
   6   6   4   -0.69    4.73
   6  -6   4   15.41    7.91
  -6  -6  -4   17.56    8.03
  -8  -6  -4   49.30   13.04
  -8   6  -4    3.38    5.71
   8   6   4   25.51    8.45
   8   6   4    6.19    5.78
 -10  -6  -4   -3.43    6.49
  10   6   4   -8.59    4.88
  10  -6   4    0.48    5.24
 -10   6  -4    4.78    6.81
  10   6   4   -2.41    4.41
 -12   6  -4  101.04   22.19
 -12  -6  -4   91.84   17.93
  12   6   4   77.99   15.95
 -14   6  -4   38.73   14.59
  14   6   4   30.27   10.62
 -14  -6  -4   64.96   15.61
 -11  -7   4    8.50    9.99
  11  -7  -4   15.53    8.89
  11   7  -4   17.32   10.08
 -11   7   4    9.07    8.63
   9  -7  -4  145.47   20.84
  -9   7   4  140.21   25.41
  -9  -7   4  103.97   18.93
  -7  -7   4   81.41   15.95
  -7   7   4   39.28   14.57
   7   7  -4   65.11   14.22
   7  -7  -4   55.91   14.36
   5   7  -4   17.81    8.75
  -5  -7   4   10.88    6.24
   5  -7  -4   15.67    8.26
  -5   7   4   -1.41    4.83
  -3   7   4   67.21   13.57
   3  -7  -4   78.66   15.17
   3   7  -4   69.83   15.55
  -3  -7   4   90.21   16.32
   1  -7  -4   25.04    8.91
  -1   7   4   -0.69    4.85
   1   7  -4   22.70    9.83
  -1   7   4   18.03    7.39
  -1  -7   4    8.81    5.71
  -1  -7  -4  120.66   16.18
  -1   7  -4  139.33   22.69
   1   7   4   88.71   16.18
   1  -7   4   94.95   17.06
  -3  -7  -4   68.12   14.67
   3  -7   4   72.25   15.64
   3   7   4   75.62   15.81
  -3  -7  -4   82.56   15.73
  -5  -7  -4   53.15   13.96
   5   7   4   38.57   12.30
   5  -7   4   64.64   15.32
  -5  -7  -4   38.47   10.86
  -7  -7  -4    5.58    7.52
  -7   7  -4    7.33    7.52
   7   7   4  -11.35    6.62
   7  -7   4    8.35    6.67
   9   7   4   10.97   11.17
   9  -7   4    0.33    5.37
  -9  -7  -4    3.84    8.39
  -9   7  -4    6.77    7.68
   2  -8  -4   78.43   16.53
  -2  -8   4   98.62   18.38
   2   8  -4  108.99   21.10
   0  -8   4   18.71    8.95
   0   8  -4    7.79   10.75
  22   0  -5   42.66   11.72
  20   0  -5  175.41   22.01
  20   0  -5  175.23   16.38
  18   0  -5   18.39    7.08
 -18   0   5    0.07    4.54
  18   0  -5   21.62    7.17
  16   0  -5  397.80   25.03
  16   0  -5  367.13   20.79
 -14   0   5  471.50   20.19
  14   0  -5  464.56   24.82
  14   0  -5  454.59   21.51
  12   0  -5  278.93   16.00
 -12   0   5  275.05   13.77
  12   0  -5  260.60   17.38
  10   0  -5 1163.47   33.68
 -10   0   5 1164.82   36.47
  10   0  -5 1179.75   30.83
 -10   0   5 1147.35   25.04
   8   0  -5   -0.63    2.27
   8   0  -5    1.13    2.49
  -8   0   5    0.07    1.69
  -8   0   5   -4.45    4.67
  -6   0   5 1484.16   34.15
   6   0  -5 1480.95   29.90
   6   0  -5 1524.39   31.04
  -6   0   5 1455.72   22.15
  -4   0   5  106.56    9.11
   4   0  -5  112.28    7.52
   4   0  -5  111.00    5.37
  -2   0   5  262.43   10.66
   2   0  -5  262.19    9.96
  -2   0   5  246.32   11.17
   2   0  -5  257.05   10.21
   0   0   5  237.37   10.94
   0   0   5  223.50    9.84
   0   0  -5  232.25   11.38
   0   0  -5  230.53    8.86
   2   0   5   31.19    4.48
  -2   0  -5   36.51    4.01
   2   0   5   35.93    5.58
  -2   0  -5   37.19    7.32
  -4   0  -5  440.82   19.68
  -4   0  -5  439.55   11.89
   4   0   5  461.01   14.94
   6   0   5 1360.34   35.93
  -6   0  -5 1459.14   39.53
   6   0   5 1403.34   29.60
   6   0   5 1433.69   23.52
   8   0   5   87.64   11.90
   8   0   5   85.16    5.89
  -8   0  -5   80.88   14.12
  -8   0  -5  101.15   10.56
 -10   0  -5   22.40    7.72
  10   0   5   21.75    3.75
 -10   0  -5    9.25   10.22
  10   0   5   16.51    6.15
 -12   0  -5   10.53    7.04
  12   0   5    7.11    5.33
 -12   0  -5    8.49   11.02
  14   0   5   -0.41    3.48
 -14   0  -5    3.84   10.88
 -14   0  -5   -1.17    6.32
 -16   0  -5   -1.31    7.02
 -16   0  -5    0.93    9.54
  16   0   5   -2.59    3.96
  18   0   5   16.50    7.96
 -18   0  -5   19.93   11.42
 -18   0  -5   15.24    9.29
  20   0   5   49.64   13.70
 -20   0  -5   72.19   16.72
 -20   0  -5   67.55   17.83
 -23  -1   5    7.81    7.21
  23   1  -5    7.45    7.10
 -23   1   5   43.74   12.56
  21   1  -5   -2.03    5.10
 -21   1   5    7.60    8.19
  21  -1  -5    2.28    5.16
 -21  -1   5    3.50    5.37
  21  -1  -5   -2.24    4.81
  19  -1  -5  146.09   18.76
  19   1  -5  102.70   17.84
  19  -1  -5  128.10   15.96
  17  -1  -5   54.92   11.11
  17  -1  -5   51.89   11.18
 -17   1   5   24.78    8.96
  17   1  -5   59.09   10.09
  17   1  -5   51.04   12.22
  15  -1  -5  154.89   14.01
 -15   1   5  163.05   14.65
  15  -1  -5  169.52   14.91
 -15   1   5  151.04   18.07
  15   1  -5  163.66   16.75
  15   1  -5  153.71   13.01
 -15  -1   5  140.11   18.73
  13  -1  -5  329.25   18.95
  13   1  -5  368.27   22.73
  13   1  -5  353.63   18.15
 -13   1   5  338.94   18.95
  13  -1  -5  361.27   19.84
 -13   1   5  409.03   24.25
 -13  -1   5  341.14   24.12
  11  -1  -5  102.88    9.82
  11  -1  -5  108.92   10.37
  11   1  -5  106.25   13.14
  11   1  -5  108.69    9.90
 -11   1   5  114.00   10.64
 -11  -1   5   89.52   13.88
 -11  -1   5  101.23    6.90
 -11   1   5  121.06   13.98
   9   1  -5  595.34   20.72
  -9  -1   5  598.41   25.78
   9  -1  -5  601.44   19.91
   9  -1  -5  592.29   21.92
  -9   1   5  593.01   24.56
  -9   1   5  534.03   20.21
   9   1  -5  599.43   24.85
   7  -1  -5 1328.26   31.05
   7   1  -5 1266.77   33.59
  -7   1   5 1270.39   29.24
   7   1  -5 1246.85   28.60
  -7  -1   5 1281.33   33.69
   7  -1  -5 1287.67   25.91
  -5   1   5  451.78   18.36
   5  -1  -5  487.82   16.94
   5   1  -5  503.42   16.92
  -5  -1   5  499.63   18.91
   5   1  -5  496.90   19.00
  -5   1   5  450.34   16.43
   5  -1  -5  501.20   12.66
  -3   1   5   88.05    6.99
   3   1  -5   82.74    6.23
  -3   1   5   83.30    8.07
   3  -1  -5   92.13    6.93
  -3   1   5   88.81    4.83
  -3  -1   5   82.16    8.05
   1   1  -5 3072.57   43.44
   1   1  -5 3013.31   42.97
   1  -1  -5 3020.84   41.27
  -1  -1   5 2970.39   36.57
   1  -1  -5 2840.69   43.24
   1  -1  -5 3134.79   39.29
  -1   1   5 3051.22   37.38
  -1  -1   5 2810.51   46.39
  -1   1   5 2988.03   47.51
  -1   1  -5 2080.26   34.54
   1  -1   5 2048.28   25.83
  -1   1  -5 2125.93   39.73
  -1  -1  -5 2073.16   37.52
  -1  -1  -5 2066.94   26.93
   1   1   5 2015.37   37.58
   1   1   5 2036.25   33.35
   1  -1   5 2089.71   38.92
  -3   1  -5 1567.37   30.42
  -3  -1  -5 1542.55   34.43
   3  -1   5 1516.57   34.64
   3  -1   5 1525.95   20.64
   3   1   5 1583.02   33.34
   3   1   5 1525.23   32.91
  -5   1  -5  106.04    8.06
  -5   1  -5  117.06    6.99
   5  -1   5  112.37   10.16
  -5   1  -5  137.23   14.35
   5   1   5  115.18   10.10
  -5  -1  -5  121.03   11.72
   5   1   5  126.05   10.00
   7   1   5  234.38   14.22
  -7  -1  -5  238.84   17.68
  -7   1  -5  225.35   17.92
   7   1   5  243.73   16.05
   7  -1   5  218.42   14.99
   7  -1   5  231.57   12.02
  -7   1  -5  220.69   11.12
  -9   1  -5  323.62   15.81
   9  -1   5  314.63   19.47
   9  -1   5  324.82   15.09
   9   1   5  345.16   18.64
  -9   1  -5  319.85   23.16
  -9  -1  -5  325.67   22.92
 -11   1  -5   73.74   15.28
 -11  -1  -5   95.21   16.82
 -11  -1  -5   79.80   12.37
 -11   1  -5   80.95   10.66
  11  -1   5   78.83   13.17
  11  -1   5   86.15    8.16
 -13  -1  -5  423.17   25.40
  13  -1   5  375.90   25.39
 -13   1  -5  381.21   21.53
 -13   1  -5  414.77   29.28
 -13  -1  -5  392.60   29.29
  13  -1   5  410.15   18.35
  15   1   5   78.88   15.33
 -15   1  -5   64.84   16.14
  15  -1   5   81.28   15.28
 -15   1  -5   72.93   12.55
 -15  -1  -5   71.07   13.83
 -15  -1  -5   61.38   17.23
 -17  -1  -5  161.94   23.70
  17   1   5  114.49   20.19
 -17  -1  -5  134.64   18.68
 -17   1  -5  116.97   20.78
  17  -1   5  127.92   19.84
 -19  -1  -5   28.44   14.87
 -19  -1  -5   13.49   11.45
  19  -1   5   21.85    9.97
 -19   1  -5   31.00   12.46
  19   1   5    9.86    7.13
  21   1   5   48.52   14.99
  21  -1   5   43.00   12.83
 -21   1  -5   47.41   15.70
 -21  -1  -5   49.15   15.93
  22   2  -5   20.09    9.38
 -22  -2   5    6.98    6.78
 -22   2   5    7.37    8.08
  22  -2  -5    9.40    7.41
 -20   2   5   91.38   16.63
  20  -2  -5   86.83   14.72
  20   2  -5  108.42   20.13
  18  -2  -5    4.79    5.17
 -18  -2   5   -0.57    4.00
 -18   2   5    4.44    6.16
  18   2  -5    1.06    5.21
  16   2  -5   16.18    7.45
  16  -2  -5   17.54    5.89
 -16   2   5   10.26    6.01
 -16   2   5   11.79    6.13
 -16  -2   5    6.87    9.72
  16  -2  -5   10.81    5.47
  16   2  -5    9.56    5.03
  14   2  -5   68.82   13.86
 -14   2   5   63.18   12.35
  14   2  -5   84.43   10.77
 -14  -2   5   73.98   15.43
 -14   2   5   51.35   11.12
  14  -2  -5   72.02   10.55
  14  -2  -5   95.71   12.91
  12   2  -5  437.62   25.79
  12  -2  -5  467.83   19.93
  12   2  -5  458.46   20.35
 -12  -2   5  494.23   27.18
  12  -2  -5  458.40   22.96
 -12   2   5  432.92   24.08
 -12   2   5  470.45   24.82
 -10   2   5   62.63   10.22
 -10   2   5   86.20   11.86
  10   2  -5   86.38    9.75
  10   2  -5   57.66   11.08
  10  -2  -5   73.00   10.03
  10  -2  -5   83.83    7.67
 -10  -2   5   68.11   12.29
 -10  -2   5   70.36    6.74
  -8   2   5   81.11   10.90
  -8  -2   5   87.20   11.54
   8   2  -5   83.99    9.18
   8  -2  -5   49.91    7.97
  -8   2   5   71.94    9.92
   8   2  -5   80.94   11.54
   8  -2  -5   68.86    5.42
  -8  -2   5   68.60    5.04
  -6  -2   5  921.48   27.37
   6  -2  -5  936.26   27.57
   6   2  -5  883.26   17.13
   6   2  -5  911.75   30.79
   6   2  -5  954.75   26.47
  -6   2   5  946.37   30.32
  -6   2   5  989.68   30.53
  -4   2   5   40.21    7.34
  -4   2   5   41.53    7.25
   4   2  -5   40.74    4.97
   4   2  -5   43.55    6.76
  -4  -2   5   42.61    6.80
   4  -2  -5   42.05    6.34
   2   2  -5 1104.40   26.42
  -2  -2   5 1121.01   22.53
  -2   2   5 1140.23   31.21
  -2  -2   5 1100.71   30.85
   2  -2  -5 1107.28   25.44
   2   2  -5 1113.30   28.39
   0   2  -5  575.77   21.52
   0   2   5  534.51   14.50
   0  -2   5  555.74   21.05
   0   2   5  504.42   20.93
   0  -2  -5  553.94   19.46
   0  -2  -5  539.00   15.56
   0  -2  -5  545.35   21.01
  -2   2  -5  876.91   26.20
   2   2   5  860.00   22.98
  -2   2  -5  847.59   28.77
   2   2   5  843.59   27.21
  -2  -2  -5  810.29   25.93
   2  -2   5  861.45   26.82
  -2  -2  -5  836.33   17.41
  -4  -2  -5  414.28    9.27
  -4   2  -5  428.43   18.79
  -4  -2  -5  409.69   19.23
   4   2   5  429.74   18.61
  -4   2  -5  439.08   22.49
   4   2   5  384.76   19.13
   4  -2   5  424.87   19.52
   6  -2   5    0.09    2.61
  -6   2  -5   -3.81    4.19
   6   2   5    1.08    3.34
   6   2   5    1.27    2.90
  -6  -2  -5   -0.60    4.24
   8   2   5  232.25   17.05
   8  -2   5  226.31   16.60
  -8   2  -5  236.28   11.84
  -8  -2  -5  256.79   19.29
   8   2   5  219.78   15.90
  -8   2  -5  240.56   20.39
   8  -2   5  220.04   14.45
  10  -2   5  264.26   16.36
  10  -2   5  273.10   19.39
  10   2   5  272.60   19.94
 -10  -2  -5  266.52   21.07
 -10   2  -5  249.01   21.54
 -10   2  -5  259.57   14.75
  10   2   5  279.07   19.35
 -12  -2  -5   21.58    9.48
  12  -2   5   35.97    7.78
 -12  -2  -5   19.56   12.43
 -12   2  -5   31.85   11.46
  12  -2   5   39.63    9.91
  12   2   5   32.76    9.24
 -14  -2  -5   38.26   14.81
  14  -2   5   31.04    7.72
  14  -2   5   27.89    9.07
 -14   2  -5   37.47   12.80
 -16   2  -5  184.98   24.68
 -16  -2  -5  218.25   26.38
  16  -2   5  154.97   20.80
 -18  -2  -5   45.76   14.53
  18  -2   5   43.72   12.93
 -18   2  -5   54.36   14.79
 -18  -2  -5   24.00   13.73
 -20   2  -5   47.42   15.06
 -20  -2  -5   37.06   14.58
  20  -2   5   38.90   12.82
  20   2   5   18.26   10.14
 -21   3   5   12.75    7.86
  21   3  -5   27.57   10.02
 -21  -3   5   39.15   15.69
  21  -3  -5   26.79   10.04
 -19   3   5   15.64    7.72
  19   3  -5    7.46    7.00
  19  -3  -5   18.24    8.50
 -19  -3   5   16.79   11.69
 -17   3   5   31.22    9.04
 -17   3   5   32.70   10.23
  17   3  -5   36.39   11.40
 -17  -3   5   32.21   13.23
  15   3  -5   15.86    5.67
 -15   3   5   29.94    8.67
 -15   3   5   22.52    8.34
 -15  -3   5   31.44   12.70
  15   3  -5   22.29    8.77
  13   3  -5   79.78   15.31
 -13  -3   5   93.45   16.10
 -13   3   5   76.69   14.11
 -13   3   5   89.73   13.64
  13   3  -5   83.94   11.08
  13  -3  -5   59.61   11.24
 -11   3   5   25.54    8.26
 -11  -3   5   20.90    9.84
  11   3  -5   32.84    7.67
  11  -3  -5   29.61    8.01
 -11   3   5   36.19    8.85
  -9   3   5   14.65    6.78
  -9   3   5   19.92    6.83
   9   3  -5   23.23    7.07
  -9  -3   5   20.60    4.29
   9   3  -5   21.60    6.32
  -9  -3   5   14.63    8.83
  -7  -3   5  129.88   13.63
   7  -3  -5  127.71   11.75
   7   3  -5  129.76   13.32
   7   3  -5  112.30   10.61
  -7   3   5  117.15   12.22
  -7   3   5  122.26   12.89
  -5   3   5  184.08   14.99
   5   3  -5  207.16   12.06
   5   3  -5  196.30   15.18
   5  -3  -5  181.00   13.04
  -5  -3   5  204.49   13.80
   5   3  -5  179.89   12.94
  -5   3   5  196.59   14.89
  -3  -3   5   61.77    7.60
  -3   3   5   58.62    9.91
   3  -3  -5   68.27    8.39
  -3  -3   5   64.33   10.04
   3   3  -5   74.63    9.90
   3   3  -5   64.16    8.42
  -3   3   5   64.64   10.00
  -1  -3   5  202.78   10.07
   1  -3  -5  192.91   11.85
  -1   3   5  188.56   14.41
  -1   3   5  203.95   15.33
   1   3  -5  199.31   14.06
  -1  -3   5  199.25   14.06
   1   3  -5  199.77   14.13
  -1   3   5  213.34    8.68
   1  -3   5  405.71   19.65
  -1   3  -5  284.60   17.21
  -1  -3  -5  393.91   20.73
   1   3   5  378.96   20.15
  -1   3  -5  377.16   20.71
  -1  -3  -5  406.09   15.71
   1   3   5  398.97   15.12
  -3  -3  -5  316.79   18.59
  -3  -3  -5  312.52   12.51
   3   3   5  321.31   16.01
   3  -3   5  319.86   17.70
  -3  -3  -5  343.48   18.15
  -3   3  -5  352.69   21.90
  -3   3  -5  336.65   19.04
   5   3   5    8.02    4.46
  -5  -3  -5    4.90    2.32
  -5   3  -5    3.52    5.36
  -5   3  -5    5.34    4.01
   5  -3   5   14.52    5.47
   5   3   5   11.16    4.54
  -5  -3  -5    7.38    4.91
   7   3   5   83.56   12.32
  -7  -3  -5   77.12   12.34
   7  -3   5  100.80   12.56
  -7   3  -5   77.05   14.30
   7  -3   5   80.85   11.33
   7   3   5   80.48   12.11
  -9  -3  -5  176.26   17.05
   9  -3   5  174.68   15.63
  -9   3  -5  149.74   19.60
   9  -3   5  169.23   14.86
   9   3   5  171.46   16.75
   9   3   5  156.69   15.44
 -11  -3  -5   38.61   11.40
  11   3   5   46.57   11.50
  11  -3   5   75.73   12.29
  11  -3   5   43.07   10.50
 -11   3  -5   42.66   12.20
  11   3   5   43.28   11.00
 -13   3  -5    4.59    7.55
 -13  -3  -5   12.40   10.43
  13   3   5   -1.29    3.31
  13  -3   5    3.89    4.34
  13  -3   5    4.09    4.72
 -13  -3  -5    1.40    3.98
  15  -3   5   29.94    9.51
 -15  -3  -5   28.71   14.30
 -15   3  -5   26.26   10.64
  15  -3   5   20.54    7.90
 -17   3  -5   83.77   18.91
  17  -3   5   90.74   17.50
 -17  -3  -5  111.80   21.25
 -19   3  -5   72.73   18.36
  19  -3   5   63.24   15.92
  20   4  -5  108.19   22.08
  20  -4  -5  100.04   18.15
 -20  -4   5  139.02   25.90
 -18  -4   5   46.68   16.41
 -18   4   5   73.20   16.55
 -16   4   5  105.80   18.65
 -16   4   5  131.41   17.88
 -16  -4   5  132.57   20.94
 -14  -4   5   -3.25    8.06
  14  -4  -5   -2.38    2.63
 -14   4   5   -1.86    3.73
  14   4  -5    1.98    4.04
  14   4  -5    2.04    3.62
 -14   4   5   -0.16    5.02
 -12   4   5   79.23   15.55
 -12   4   5   69.53   12.50
 -12  -4   5   67.83   14.40
  12   4  -5   81.88   11.56
  10  -4  -5  113.13   14.53
  10   4  -5  142.84   13.02
 -10   4   5  148.17   18.57
 -10   4   5  147.59   15.40
  10   4  -5  120.01   17.32
 -10  -4   5  147.77   16.95
  -8  -4   5  124.56   14.41
   8  -4  -5  126.73   14.61
  -8  -4   5  127.04    9.52
  -8   4   5  133.16   13.85
   8   4  -5  117.25   11.94
  -8   4   5  113.41   16.04
  -8  -4   5  137.31   10.85
   8   4  -5  121.08   16.45
   6   4  -5  234.98   15.28
  -6   4   5  230.79   17.64
  -6  -4   5  263.95   17.95
   6   4  -5  222.97   16.33
  -6   4   5  230.39   18.72
   6   4  -5  228.83   18.48
   6  -4  -5  261.52   17.56
   4   4  -5  270.76   17.43
   4  -4  -5  282.05   17.83
  -4   4   5  272.81   19.22
  -4   4   5  262.28   19.79
  -4  -4   5  286.98   19.62
   4   4  -5  257.84   17.65
  -4  -4   5  288.13   16.64
  -2   4   5  660.55   29.93
  -2   4   5  708.63   32.56
  -2  -4   5  666.55   28.70
   2   4  -5  653.25   28.03
  -2  -4   5  684.35   21.67
   2  -4  -5  659.57   25.51
   2   4  -5  657.46   28.53
   0   4  -5   88.66   12.75
   0   4  -5   75.08   11.94
   0  -4  -5   84.35    9.62
   0   4   5   94.00    7.57
   0  -4   5   73.15   10.90
   0   4   5   83.18   12.06
   0  -4   5   77.66    7.98
   0   4   5   89.57   13.12
  -2  -4  -5  181.55   11.90
  -2  -4  -5  194.78   15.59
  -2  -4  -5  194.59   16.74
  -2   4  -5  192.83   16.27
   2  -4   5  197.75   14.95
  -2   4  -5  173.20   16.62
   2   4   5  198.29   12.75
   2   4   5  164.50   15.21
   4  -4   5   45.66    9.07
  -4   4  -5   35.94   10.28
  -4  -4  -5   36.33    8.57
   4   4   5   36.57    9.13
  -4  -4  -5   33.35    5.93
  -4  -4  -5   44.80   10.60
   4   4   5   38.03    8.00
  -6   4  -5  349.18   25.92
  -6  -4  -5  346.79   22.85
   6  -4   5  372.82   21.57
   6  -4   5  374.88   23.26
   6   4   5  311.08   19.91
  -8  -4  -5  243.28   19.99
   8  -4   5  277.57   20.61
   8  -4   5  250.66   18.36
   8   4   5  244.48   19.13
  10   4   5    7.40    4.46
 -10  -4  -5   12.80    7.63
  10  -4   5    3.07    4.30
  10   4   5    4.02    5.65
  10  -4   5    0.41    3.84
 -10   4  -5   -1.49    5.12
  12  -4   5   32.92    9.52
 -12   4  -5   35.66   12.68
 -12  -4  -5   30.48   11.52
  12  -4   5   21.85    8.29
  12   4   5   15.43    6.43
  12   4   5   36.21   11.56
  14  -4   5    8.38    6.03
  14   4   5   -1.00    3.84
 -14   4  -5   20.75   10.32
  14  -4   5    8.32    5.70
 -14  -4  -5   11.71    4.74
 -14  -4  -5    5.03   10.06
  16  -4   5   40.35   11.51
 -16   4  -5   43.14   14.44
  16  -4   5   50.64   11.73
 -18  -4  -5   -5.60    5.96
 -18   4  -5   37.03   14.75
  18   4   5   -0.69    5.94
 -17  -5   5   47.19   15.32
 -17   5   5   53.60   15.15
 -15  -5   5   53.71   15.11
 -15   5   5   56.83   14.93
 -13  -5   5  100.82   17.96
 -13   5   5   72.04   16.80
 -13   5   5   75.13   14.10
 -11  -5   5   17.44    9.96
 -11   5   5   30.25   10.94
  11  -5  -5   22.85    8.74
 -11   5   5   36.26    9.59
  11   5  -5   25.59    8.45
  -9   5   5   63.02   14.69
  -9   5   5   66.57   12.65
   9  -5  -5   60.71   12.53
   9   5  -5   63.18   12.08
  -9  -5   5   55.24   12.25
  -7   5   5   30.00    8.68
   7   5  -5   30.55    8.10
   7   5  -5   27.44    8.47
  -7   5   5   31.46   10.15
   7  -5  -5   24.96    8.01
  -7  -5   5   22.76    8.34
   7   5  -5   27.25    9.25
   5   5  -5  140.17   14.55
  -5   5   5  141.54   16.55
  -5  -5   5  150.44   14.59
  -5   5   5  157.49   19.43
   5   5  -5  137.55   14.01
   5  -5  -5  168.60   15.93
  -5  -5   5  154.23   15.81
  -3  -5   5   68.66   10.17
   3   5  -5   69.93   12.21
   3  -5  -5   85.47   12.26
  -3  -5   5   69.94   12.19
  -3   5   5   90.04   13.75
   3   5  -5   78.78   13.44
  -1  -5   5 1244.25   42.59
   1  -5  -5 1234.77   38.49
   1   5  -5 1297.27   46.05
  -1   5   5 1312.92   45.73
   1   5   5  434.32   26.57
  -1  -5  -5  431.22   21.56
   1  -5   5  442.58   24.26
  -1   5  -5  461.66   28.83
  -3  -5  -5  208.06   14.11
  -3  -5  -5  196.11   18.62
  -3   5  -5  201.58   20.30
   3   5   5  193.74   14.50
  -3  -5  -5  200.29   17.50
   3   5   5  201.38   18.80
   3  -5   5  204.37   16.24
   5  -5   5  159.69   15.01
  -5  -5  -5  153.24   17.20
  -5  -5  -5  146.64   17.96
   5   5   5  140.62   13.62
   9  -5   5  120.80   15.67
   9   5   5  130.40   17.71
  -9  -5  -5  118.72   17.84
  11  -5   5   57.66   12.62
  11   5   5   61.48   13.40
 -11   5  -5   57.34   16.37
 -11  -5  -5   53.86   14.15
 -13   5  -5  164.44   27.05
 -13  -5  -5  129.24   19.76
  13   5   5  112.89   19.79
  13  -5   5  105.04   17.59
  15   5   5    8.37    6.22
  15  -5   5   16.18    7.51
 -15   5  -5   13.69   10.60
 -15  -5  -5   11.70    8.64
 -16  -6   5   79.44   19.47
 -16   6   5   77.11   19.36
 -14   6   5  147.47   25.23
 -14  -6   5   97.85   19.34
  12   6  -5    1.83    5.39
 -12   6   5   22.12   10.41
 -12  -6   5   10.43   10.13
  12  -6  -5   15.39    7.73
  10  -6  -5   74.48   15.53
 -10  -6   5   61.85   14.05
  10   6  -5   67.68   15.25
 -10   6   5   77.30   17.12
  10   6  -5   59.92   12.06
  -8   6   5  132.27   17.55
  -8  -6   5  149.15   17.69
   8  -6  -5  141.75   18.41
   8   6  -5  123.87   17.43
  -8   6   5  132.18   21.82
   6   6  -5  103.75   16.49
   6   6  -5   91.66   14.22
  -6  -6   5   93.49   15.88
  -6   6   5   87.70   14.97
   6  -6  -5   91.05   15.29
  -6   6   5   96.18   18.53
  -4   6   5   -1.06    3.18
   4  -6  -5    9.27    5.37
  -4  -6   5    0.08    3.95
   4   6  -5    4.96    5.38
  -4   6   5    2.68    4.82
   4   6  -5    4.84    4.85
   2   6  -5   34.91   10.34
  -2  -6   5   24.13    7.74
  -2   6   5   16.54    7.85
   2  -6  -5   17.24    7.33
   2   6  -5    1.39    3.89
   0   6   5   54.68   12.15
   0  -6  -5   42.13    9.57
   0   6  -5   67.96   15.05
   0  -6   5   44.14   10.01
   2  -6   5  207.40   17.59
  -2  -6  -5  192.01   18.33
   2  -6   5  179.27   18.71
  -2  -6  -5  178.50   15.28
   2   6   5  191.92   19.16
  -2  -6  -5  192.90   19.76
   4  -6   5   17.89    7.00
  -4  -6  -5    7.92    7.47
  -4   6  -5   -1.90    4.76
   4  -6   5    1.41    4.33
   4   6   5    7.20    4.37
  -4  -6  -5   21.58    8.56
  10   6   5   75.70   15.08
 -10  -6  -5   67.69   15.61
  10  -6   5    4.39    5.90
  12   6   5    3.59    7.50
 -12  -6  -5    9.46    8.69
 -12   6  -5    5.17    7.84
  12  -6   5   -1.00    5.41
  12   6   5   -0.77    6.21
  11  -7  -5    4.29    6.57
 -11   7   5    8.78    9.02
  -9   7   5   44.11   14.16
   9  -7  -5   37.58   11.73
  -9  -7   5   38.60   13.10
  -7  -7   5    2.05    4.88
  -7   7   5    5.99    6.95
   7  -7  -5    6.72    5.81
   7   7  -5    2.57    5.90
   5  -7  -5   55.83   13.57
   5   7  -5   56.14   14.60
  -5  -7   5   74.54   14.50
  -3  -7   5   21.10    8.22
   3  -7  -5   32.04   10.29
   3   7  -5   27.07    9.69
  -3   7   5   41.48   10.99
   1  -7  -5    7.87    5.90
   1   7  -5   15.28    8.00
  -1   7   5   -2.15    5.73
  -1   7   5   -3.95    4.60
  -1  -7   5    3.91    4.95
  -1   7  -5   40.18   13.17
   1   7   5   34.56   10.80
   1  -7   5   24.12    9.30
  -1  -7  -5   26.40   10.99
  -1  -7  -5   26.28    9.37
  -3  -7  -5   53.09   14.07
   3   7   5   71.88   15.72
   3  -7   5   57.45   14.42
  -3  -7  -5   62.85   13.86
  -3   7  -5   89.90   19.95
  -5  -7  -5   49.27   13.09
   5  -7   5   41.40   12.29
  -5  -7  -5   39.89   13.58
   5   7   5   25.29   11.82
  -7   7  -5    0.64    7.25
  -7  -7  -5    1.12    7.69
   7  -7   5    3.65    5.93
   7   7   5    0.74    8.08
  -9   7  -5   -0.83    7.68
   9   7   5   -3.87    6.75
  -9  -7  -5   42.04   14.07
   9  -7   5   -0.68    5.10
 -22   0   6    6.85    5.73
  22   0  -6   30.96   11.21
  20   0  -6   -1.38    4.42
 -20   0   6    7.31    5.20
  20   0  -6    2.72    5.11
  18   0  -6   -1.45    3.98
  18   0  -6    6.73    5.16
 -18   0   6    7.10    4.94
  16   0  -6   91.20   14.60
  16   0  -6  110.38   13.22
  14   0  -6   70.84   11.71
  14   0  -6   74.03   10.76
  12   0  -6  700.06   25.86
 -12   0   6  691.28   20.25
 -12   0   6  716.48   31.87
  12   0  -6  705.16   28.24
 -10   0   6    2.63    2.19
  10   0  -6    5.85    4.02
  10   0  -6    3.73    3.50
 -10   0   6    3.32    6.11
  -8   0   6 1015.66   19.66
   8   0  -6 1046.91   28.62
   8   0  -6 1011.87   27.52
  -8   0   6 1055.86   32.37
   6   0  -6 5049.26   52.74
   6   0  -6 4803.89   64.15
  -6   0   6 4971.08   70.05
   6   0  -6 4999.87   49.21
   6   0  -6 4897.79   64.13
  -4   0   6 1143.22   25.66
   4   0  -6 1169.06   20.49
  -4   0   6 1166.62   27.90
   4   0  -6 1151.27   25.78
  -2   0   6  174.14    9.64
  -2   0   6  190.43   10.51
   2   0  -6  188.29    9.72
   2   0  -6  162.18    8.89
   0   0   6  188.88   10.65
   0   0  -6  185.99   11.56
   0   0  -6  187.24    8.75
   0   0   6  190.06   10.10
   2   0   6  481.44   15.45
  -2   0  -6  487.77   13.60
   2   0   6  485.43   18.29
  -4   0  -6  227.28   16.16
   4   0   6  145.55   11.00
  -4   0  -6  210.26    8.76
   4   0   6  203.01   10.56
  -6   0  -6   21.01    9.07
   6   0   6   14.28    3.95
   8   0   6  130.90   12.92
   8   0   6  142.70    7.66
  -8   0  -6  128.24   16.36
 -10   0  -6  217.55   15.66
  10   0   6  202.69   17.24
  10   0   6  223.81    9.69
 -10   0  -6  215.99   21.35
 -12   0  -6  158.63   15.75
 -12   0  -6  160.40   21.16
  12   0   6  132.13   17.37
  14   0   6  440.39   29.59
 -14   0  -6  433.46   31.60
 -14   0  -6  427.09   24.51
  16   0   6   16.08    8.04
 -16   0  -6   21.93   12.75
 -16   0  -6   13.92    8.29
 -18   0  -6   76.69   14.82
 -18   0  -6   86.42   19.78
  18   0   6   64.95   15.98
  20   0   6    8.48    7.54
 -20   0  -6    1.39    9.14
 -23   1   6   42.60   13.49
 -23  -1   6   12.67    7.24
  23   1  -6   37.44   11.74
  21   1  -6   28.39    9.69
 -21   1   6   26.43   10.20
  21  -1  -6   31.35    9.05
  21  -1  -6   36.23   10.31
  19   1  -6   94.02   16.80
  19  -1  -6   95.09   14.47
  19   1  -6  100.31   13.72
  19  -1  -6  102.20   15.93
  17   1  -6   46.13    9.52
  17  -1  -6   45.77   10.09
  17  -1  -6   51.18   10.96
  17   1  -6   53.50   12.31
  15  -1  -6  275.10   18.94
 -15   1   6  296.74   22.57
  15   1  -6  308.24   18.38
  15   1  -6  301.38   22.27
 -15   1   6  292.46   18.32
  15  -1  -6  271.49   18.78
  13   1  -6  191.87   16.54
  13   1  -6  210.27   14.64
 -13   1   6  192.90   14.13
  13  -1  -6  198.88   14.55
  13  -1  -6  213.02   15.51
 -13   1   6  165.86   16.68
 -13  -1   6  209.15   19.98
 -11  -1   6  527.20   27.29
  11  -1  -6  494.30   22.31
 -11   1   6  519.54   25.45
  11   1  -6  497.32   24.82
 -11   1   6  519.18   20.95
  11   1  -6  515.72   21.32
  11  -1  -6  523.35   20.97
   9   1  -6   56.10    8.20
   9  -1  -6   65.85    6.99
  -9   1   6   62.34    7.59
   9   1  -6   55.86    9.40
  -9  -1   6   63.58   11.11
   9  -1  -6   61.59    8.73
  -7   1   6  639.73   24.19
   7   1  -6  648.89   24.07
   7   1  -6  676.95   21.63
   7  -1  -6  653.38   17.99
  -7  -1   6  637.31   24.75
  -7   1   6  655.23   20.54
  -5   1   6 1860.51   28.68
  -5   1   6 1909.65   35.46
   5   1  -6 1858.60   39.36
  -5  -1   6 1871.16   37.75
   5   1  -6 1847.85   35.75
   5  -1  -6 1872.87   36.13
  -5   1   6 1903.60   40.73
  -3   1   6  430.93   12.01
   3  -1  -6  408.83   14.06
   3   1  -6  407.60   13.29
   3  -1  -6  416.42   14.61
  -3  -1   6  388.08   14.71
  -3   1   6  389.03   17.36
   3  -1  -6  417.24   15.48
  -1   1   6  644.07   21.83
  -1  -1   6  643.48   15.83
   1   1  -6  651.19   19.31
   1   1  -6  637.84   19.87
   1  -1  -6  670.78   16.76
   1  -1  -6  657.16   20.08
  -1   1   6  656.49   16.60
   1   1   6  627.50   18.48
   1  -1   6  638.61   21.73
  -1   1  -6  634.34   18.96
   1   1   6  628.95   21.25
  -1   1  -6  616.27   22.08
   1  -1   6  606.77   13.39
  -1  -1  -6  623.22   14.22
  -1  -1  -6  610.65   20.80
   3   1   6  312.67   14.74
   3  -1   6  320.99    9.37
  -3  -1  -6  346.53   17.42
   3  -1   6  323.73   16.47
  -3   1  -6  316.35   13.66
  -3  -1  -6  312.91    8.34
   3   1   6  309.11   15.11
   5   1   6  144.40   11.01
  -5   1  -6  144.30    9.61
   5  -1   6  139.81   11.71
   5   1   6  166.13   12.41
  -5  -1  -6  179.75   14.59
  -5   1  -6  143.67   15.09
   7  -1   6  403.96   21.39
   7   1   6  424.49   19.79
   7  -1   6  413.20   16.83
  -7  -1  -6  406.97   23.37
   7   1   6  413.11   21.44
  -7   1  -6  414.06   24.43
  -7   1  -6  423.07   15.12
   9   1   6  303.68   17.79
   9  -1   6  294.68   19.76
  -9   1  -6  300.50   15.11
  -9  -1  -6  304.51   23.30
  -9   1  -6  276.86   23.31
   9   1   6  276.67   19.37
   9  -1   6  301.76   14.56
 -11   1  -6   48.82   14.35
  11  -1   6   37.90    9.67
 -11   1  -6   52.91    9.46
 -11  -1  -6   47.01   10.58
 -11  -1  -6   46.61   14.66
  11  -1   6   50.50    7.26
  13  -1   6   11.34    6.14
 -13  -1  -6   13.50   12.79
 -13   1  -6   11.76   10.33
 -13   1  -6   11.19    7.73
 -13  -1  -6   23.47    8.76
  15   1   6  150.55   21.22
 -15  -1  -6  171.29   23.81
 -15   1  -6  144.94   15.22
  15  -1   6  152.15   20.57
 -15   1  -6  157.33   22.87
 -15  -1  -6  137.05   17.63
  17   1   6  214.58   23.07
 -17  -1  -6  193.11   25.68
 -17  -1  -6  193.97   20.30
 -17   1  -6  196.58   25.96
  17  -1   6  213.15   22.77
 -19  -1  -6    6.75   12.09
  19   1   6    6.65    6.63
 -19   1  -6   15.41   12.02
  19  -1   6    2.95    5.81
 -19  -1  -6    6.50    9.67
 -21   1  -6   38.46   13.98
 -21  -1  -6    7.46   11.06
  21  -1   6    8.85    8.27
  21   1   6   16.80   10.02
  22   2  -6   13.64    9.32
 -22  -2   6    4.51    7.61
 -22   2   6   29.09   10.96
  22  -2  -6   18.00    8.90
  20   2  -6   46.61   13.13
  20  -2  -6   57.90   13.08
 -20   2   6   50.12   12.58
 -18  -2   6   33.67   13.61
  18   2  -6   40.45    8.72
  18   2  -6   32.00   10.44
  18  -2  -6   37.14    9.78
 -18   2   6   36.75   10.73
  16   2  -6  248.74   17.34
 -16  -2   6  231.36   23.81
  16   2  -6  271.91   23.48
 -16   2   6  260.07   21.35
 -16   2   6  278.57   20.58
  14  -2  -6  196.33   16.51
 -14  -2   6  223.99   22.00
  14   2  -6  233.30   16.03
 -14   2   6  216.60   18.79
  14   2  -6  209.46   19.34
  14  -2  -6  217.66   14.82
 -14   2   6  234.32   18.31
 -12  -2   6  474.06   27.73
 -12   2   6  474.97   24.10
  12   2  -6  475.25   27.17
 -12   2   6  516.75   26.70
  12  -2  -6  466.78   23.42
  12  -2  -6  481.10   19.38
  12   2  -6  501.52   22.23
  10  -2  -6  128.17   11.85
  10   2  -6  107.62   13.94
  10  -2  -6  119.51    8.44
  10   2  -6  115.56   10.81
 -10   2   6  117.79   11.73
 -10  -2   6  107.00   14.61
 -10   2   6  102.58   12.97
  -8   2   6  365.40   20.48
   8  -2  -6  374.32   11.65
  -8  -2   6  370.19   20.75
   8   2  -6  375.32   21.10
  -8   2   6  376.23   19.59
   8   2  -6  374.25   17.93
  -6  -2   6  337.57   17.73
   6   2  -6  338.37   10.21
   6   2  -6  342.31   19.00
  -6   2   6  336.52   18.71
   6   2  -6  327.16   16.22
  -6   2   6  381.06   19.07
   6  -2  -6  341.68   16.71
  -4  -2   6  787.91   22.96
   4  -2  -6  796.97   23.70
   4   2  -6  773.86   24.76
  -4   2   6  799.62   27.17
   4   2  -6  782.32   19.93
  -4  -2   6  803.37   28.14
  -2   2   6  574.86   23.47
  -2  -2   6  542.69   21.95
   2   2  -6  567.88   20.79
   2   2  -6  559.17   19.55
  -2  -2   6  568.87   16.70
   2  -2  -6  552.57   18.02
  -2   2   6  575.54   12.00
   0   2   6  633.66   24.72
   0   2  -6  660.01   22.79
   0   2  -6  663.13   23.91
   0   2   6  673.58   17.33
   0  -2   6  621.81   23.62
   0  -2  -6  647.89   21.94
   0  -2  -6  631.97   23.11
   0  -2  -6  649.83   17.49
   2  -2   6   26.38    6.29
  -2  -2  -6   26.50    6.47
   2   2   6   30.13    5.75
  -2   2  -6   25.76    6.20
  -2   2  -6   15.04    6.70
  -2  -2  -6   28.36    3.79
   2   2   6   30.44    6.98
   4   2   6  617.92   24.58
   4  -2   6  624.33   24.96
   4   2   6  625.84   23.13
  -4  -2  -6  611.67   24.88
  -4   2  -6  624.50   23.40
  -6   2  -6   90.91   14.32
  -6  -2  -6   54.29   10.33
   6  -2   6   73.96   10.68
   6   2   6   81.59   10.89
   6   2   6   87.39   11.21
  -6   2  -6   78.80   10.03
   8   2   6  256.04   18.41
   8  -2   6  276.87   16.28
  -8  -2  -6  287.64   21.37
   8   2   6  263.25   18.05
  -8   2  -6  272.91   12.40
   8  -2   6  262.05   18.49
  -8   2  -6  266.34   21.62
 -10  -2  -6  153.77   18.39
 -10   2  -6  162.12   20.16
  10   2   6  163.27   15.37
  10   2   6  170.36   16.16
  10  -2   6  162.54   12.90
  10  -2   6  135.06   14.47
  12  -2   6  120.36   11.75
 -12   2  -6  118.25   19.07
  12  -2   6  134.95   17.30
 -12  -2  -6  113.74   18.74
 -14   2  -6  104.85   19.71
 -14  -2  -6  104.24   20.01
  14  -2   6  115.49   11.92
  14  -2   6  105.79   17.01
  16  -2   6   31.83   10.79
 -16   2  -6   29.68   11.90
 -16  -2  -6   22.87   15.64
 -18  -2  -6  157.65   25.81
  18  -2   6  150.17   22.77
 -18  -2  -6  158.61   22.07
 -18   2  -6  125.80   23.13
 -20  -2  -6   51.11   16.09
  20  -2   6   34.47   12.48
 -20   2  -6   47.67   14.58
  21  -3  -6   -6.30    5.73
 -21  -3   6   -7.65   10.41
 -21   3   6   -1.67    6.48
  21   3  -6    5.49    6.88
 -19   3   6   35.92   10.28
  19   3  -6   25.69   10.87
 -19  -3   6   44.56   15.26
  19  -3  -6   20.18    9.10
 -17   3   6   16.74    7.99
 -17  -3   6   19.50   11.85
  17  -3  -6    2.51    3.50
  17   3  -6   18.29    8.96
 -17   3   6   22.97    8.80
  15   3  -6   12.95    5.85
  15   3  -6   17.28    7.28
 -15   3   6   22.59    8.12
  15  -3  -6    0.73    3.44
 -15   3   6    5.59    5.98
 -15  -3   6   16.57   10.68
 -13  -3   6   -2.38    7.75
  13   3  -6   -1.27    3.61
  13   3  -6    7.36    4.15
  13  -3  -6    1.99    4.04
 -13   3   6    9.67    5.67
 -13   3   6    8.10    5.51
  11  -3  -6  355.19   21.50
 -11   3   6  385.21   24.10
  11   3  -6  380.02   20.06
 -11  -3   6  381.24   24.59
  11   3  -6  364.01   24.63
 -11   3   6  330.27   22.05
  -9  -3   6  236.43   10.15
   9   3  -6  213.26   15.03
   9  -3  -6  240.59   17.05
  -9   3   6  216.70   17.55
  -9  -3   6  241.17   19.08
  -9   3   6  218.74   17.41
  -7  -3   6  317.27   19.29
   7   3  -6  310.18   12.91
  -7   3   6  319.43   20.25
   7   3  -6  331.87   21.00
  -7   3   6  349.37   21.01
   7   3  -6  334.89   18.38
   7  -3  -6  344.46   18.70
   5  -3  -6   63.94    9.06
   5   3  -6   66.80    9.77
   5   3  -6   63.75   11.10
   5   3  -6   59.82    7.56
  -5   3   6   65.06   10.55
  -5  -3   6   64.19    9.41
  -5   3   6   60.76   10.30
   3   3  -6  401.68   19.92
   3  -3  -6  405.72   18.15
  -3   3   6  394.29   21.88
  -3  -3   6  412.44   16.61
   3   3  -6  402.12   18.53
  -3   3   6  419.99   22.15
  -3  -3   6  413.87   21.87
   1   3  -6   47.76    8.85
   1   3  -6   55.86    9.02
  -1   3   6   58.02    9.89
  -1  -3   6   50.71    9.04
  -1   3   6   48.96    4.57
   1  -3  -6   47.85    6.97
  -1   3   6   59.80   10.09
  -1  -3   6   50.25    6.25
  -1  -3  -6   44.22    6.11
   1  -3   6   46.36    8.63
  -1   3  -6   34.46    8.77
   1   3   6   47.32    6.16
  -1  -3  -6   39.31    8.69
  -3  -3  -6  343.25   12.77
  -3   3  -6  375.81   20.55
  -3   3  -6  368.15   22.84
   3   3   6  336.17   20.22
   3  -3   6  310.60   18.45
  -3  -3  -6  363.78   20.86
   3   3   6  366.81   17.61
   5  -3   6   91.75   11.98
  -5   3  -6   94.38   12.38
  -5  -3  -6  102.45    6.03
  -5  -3  -6  101.29   13.04
   5   3   6   92.75   12.90
   5   3   6   91.14   11.34
   7  -3   6  510.31   25.44
   7  -3   6  530.66   25.64
  -7  -3  -6  529.85   27.30
   7   3   6  519.01   26.84
  -7   3  -6  540.47   31.13
   7   3   6  559.37   27.17
   9   3   6  182.20   16.69
  -9  -3  -6  178.24   17.71
  -9   3  -6  145.43   19.56
   9   3   6  177.80   16.79
   9  -3   6  201.88   16.12
   9  -3   6  175.04   16.17
  11  -3   6  154.27   16.36
 -11   3  -6  158.18   21.52
  11   3   6  167.23   17.59
  11   3   6  155.00   18.28
  11  -3   6  148.95   14.39
 -11  -3  -6  145.59   18.32
  13   3   6    3.51    4.60
  13  -3   6    4.77    4.92
 -13   3  -6   -3.34    5.77
  13  -3   6    8.42    5.59
 -13  -3  -6    0.19    9.65
 -15   3  -6   28.58   11.36
 -15  -3  -6   14.04   13.06
  15  -3   6   25.81    8.63
  15  -3   6   24.97    9.44
 -17  -3  -6   38.51   16.81
  17  -3   6   50.61   13.44
 -17   3  -6   56.84   16.11
 -19  -3  -6   -7.75    5.90
 -19   3  -6   26.51   11.90
  19  -3   6   16.60    9.04
  19   3   6   -0.81    5.84
 -20  -4   6   51.64   16.96
  20   4  -6   53.28   14.52
 -18   4   6   82.02   15.87
  18   4  -6   91.47   19.46
 -18   4   6   96.91   19.24
 -18  -4   6   76.33   19.46
 -16  -4   6   51.51   15.02
 -16   4   6   69.50   15.72
 -16   4   6   56.01   12.75
  14   4  -6   66.05   11.29
 -14   4   6   47.69   12.74
 -14  -4   6   61.78   15.47
 -14   4   6   68.03   13.63
  12   4  -6  284.13   19.15
 -12   4   6  280.45   21.49
 -12  -4   6  294.35   23.70
 -12   4   6  292.23   23.88
  10   4  -6   78.98   11.76
  10  -4  -6   79.19   12.83
 -10   4   6   80.52   14.70
 -10   4   6   72.52   13.10
 -10  -4   6   77.58   13.69
  -8  -4   6   41.57   10.24
   8   4  -6   18.19    7.29
  -8   4   6   17.47    6.94
  -8   4   6   31.73    8.41
   8   4  -6   30.60    8.07
   8  -4  -6   28.36    7.98
   6   4  -6  131.68   14.45
   6   4  -6  128.11   12.78
  -6  -4   6  133.56   13.97
  -6   4   6  127.30   16.25
   6  -4  -6  130.59   12.71
   6   4  -6  138.36   11.84
  -6   4   6  137.84   14.16
   4   4  -6  363.19   21.26
  -4  -4   6  364.31   18.21
  -4   4   6  369.44   23.71
  -4   4   6  344.84   22.30
   4  -4  -6  350.88   19.38
  -4  -4   6  334.79   21.99
   4   4  -6  348.65   19.63
  -2   4   6   36.70    9.70
   2   4  -6   40.71    9.42
   2  -4  -6   40.98    7.70
  -2   4   6   37.87    9.38
   2   4  -6   31.56    8.21
  -2  -4   6   44.17    7.25
  -2  -4   6   37.26    8.94
   0  -4   6  705.63   30.30
   0   4  -6  713.48   30.94
   0  -4  -6  689.98   24.27
   0  -4   6  682.69   18.00
   0   4  -6  683.63   31.37
   0   4   6  704.82   20.25
   0  -4  -6  696.55   31.33
   0   4   6  661.92   30.74
  -2   4  -6  247.96   18.62
  -2  -4  -6  266.53   19.83
   2  -4   6  260.17   18.15
  -2  -4  -6  261.41   13.99
   2   4   6  259.03   14.46
  -2  -4  -6  280.72   18.93
   2   4   6  272.93   19.80
  -2   4  -6  290.14   21.53
   4   4   6  156.40   12.99
  -4   4  -6  168.53   15.87
  -4  -4  -6  153.63   15.66
   4  -4   6  153.22   14.54
  -4  -4  -6  165.12   10.08
  -4   4  -6  158.36   19.02
   6  -4   6   61.99   11.14
   6   4   6   56.14   10.47
   6   4   6   43.38   10.11
  -6   4  -6   56.27   13.12
  -6  -4  -6   39.02   10.53
   6  -4   6   63.96   12.20
  -8  -4  -6  178.54   18.22
   8   4   6  183.80   17.13
   8  -4   6  177.00   16.48
   8  -4   6  160.02   15.42
  10   4   6  294.54   23.24
 -10  -4  -6  270.50   22.64
  10  -4   6  278.25   21.46
  10   4   6  255.54   22.37
  10  -4   6  294.24   22.03
 -12  -4  -6   14.90   10.80
 -12   4  -6    7.08    8.32
  12  -4   6   23.94    8.46
  12   4   6   13.88    8.82
  12   4   6   16.19    6.61
  12  -4   6    9.12    5.88
 -14  -4  -6   10.09    4.43
 -14  -4  -6   23.48   12.21
  14  -4   6   17.50    7.77
  14  -4   6   16.39    8.13
  14   4   6    5.10    5.00
 -14   4  -6   13.79    9.92
  16   4   6    2.77    5.12
 -16   4  -6   -0.25    7.71
 -16  -4  -6    1.05    5.08
 -16  -4  -6  -12.21   10.70
  16  -4   6    7.85    6.93
  16  -4   6    0.09    5.90
  18   4   6   -2.61    6.48
 -18   4  -6   57.11   17.12
 -18  -4  -6   -4.19    6.34
  17   5  -6   -1.48    6.37
 -17  -5   6   14.09   11.28
 -17   5   6   13.11    9.54
  17  -5  -6    2.93    4.63
 -15   5   6   87.65   18.57
 -15  -5   6   72.71   17.46
 -13  -5   6   11.47    9.68
 -13   5   6    7.33    6.11
  13   5  -6    9.31    5.55
  13   5  -6    6.04    5.00
  13  -5  -6    3.96    4.49
 -13   5   6   26.60   10.74
 -11  -5   6   55.71   13.86
  11   5  -6   79.44   13.63
 -11   5   6   73.33   14.32
 -11   5   6   70.09   15.67
  11  -5  -6   64.46   13.25
  -9   5   6   18.17    8.06
   9  -5  -6   19.03    7.56
  -9   5   6   17.93    7.11
   9   5  -6   20.29    7.61
  -9  -5   6   14.44    8.51
   7   5  -6   16.92    6.30
  -7   5   6   36.09   11.17
  -7   5   6   20.93    7.75
  -7  -5   6   27.35    8.63
   7   5  -6   30.75    8.85
   7  -5  -6   27.14    8.86
  -5  -5   6  218.91   16.74
   5   5  -6  207.22   17.92
   5   5  -6  194.76   16.83
  -5   5   6  225.37   19.59
   5  -5  -6  201.87   16.64
  -5  -5   6  217.77   19.48
  -5   5   6  198.64   19.44
  -3   5   6   69.80   13.32
   3   5  -6   78.57   12.81
   3  -5  -6   70.24   11.40
  -3  -5   6   68.01   12.48
   3   5  -6   74.08   13.26
  -3   5   6   68.22   14.06
  -1  -5   6  113.08   14.87
  -1   5   6  127.90   16.67
   1   5  -6  136.37   17.07
   1  -5  -6  116.91   12.05
  -1  -5  -6  182.15   18.29
  -1   5  -6  214.44   19.88
   1   5   6  198.73   18.58
  -1  -5  -6  192.99   14.44
  -1  -5  -6  200.56   17.64
   1  -5   6  196.42   16.84
  -3  -5  -6  246.07   19.95
  -3   5  -6  248.63   21.33
  -3   5  -6  259.42   23.26
  -3  -5  -6  245.35   20.98
  -3  -5  -6  223.88   14.76
   3  -5   6  252.54   19.05
   5  -5   6   82.67   13.17
  -5  -5  -6   78.63   14.82
   5   5   6   85.06   12.26
  -7  -5  -6  127.78   18.76
   7  -5   6  141.80   16.59
   9   5   6  163.33   17.55
  -9  -5  -6  154.01   20.20
  11  -5   6   61.26   13.32
  11   5   6   43.20   10.95
 -11  -5  -6   40.74   12.52
 -13   5  -6    0.05    7.00
 -13  -5  -6   -5.87    8.28
  13  -5   6    1.74    6.00
  13   5   6    3.37    5.34
  15   5   6   26.88    9.73
 -15  -5  -6    7.02    5.97
 -15   5  -6   34.13   13.02
  15  -5   6   16.07    8.75
 -16   6   6   -1.34    7.90
 -14   6   6   -2.29    6.91
  14  -6  -6   -6.81    4.02
 -14  -6   6   -3.63    9.40
  14   6  -6   -7.38    5.32
  12   6  -6    7.16    6.57
 -12   6   6   19.88    9.15
  12  -6  -6    9.42    6.69
 -12  -6   6    3.15    9.59
  10   6  -6    6.24    5.75
 -10  -6   6   22.17   10.10
  10   6  -6   19.52    7.69
  10  -6  -6   27.31    9.67
 -10   6   6   11.30    6.23
 -10   6   6   24.11   10.94
  -8  -6   6   29.30   10.15
  -8   6   6   33.02   10.55
   8  -6  -6   41.06   11.19
  -8  -6   6   33.88   10.54
  -8   6   6   23.81    9.95
   8   6  -6   14.65    6.61
   6  -6  -6  282.74   21.92
  -6   6   6  229.19   21.76
  -6  -6   6  247.75   22.03
   6   6  -6  251.68   21.46
  -6   6   6  268.73   25.04
   4   6  -6  165.38   19.35
  -4  -6   6  181.81   18.13
  -4   6   6  156.48   19.50
   4  -6  -6  163.36   16.28
   2   6  -6    7.35    5.55
  -2   6   6   -0.80    5.07
  -2   6   6   -6.14    3.38
   2   6  -6   -0.81    3.25
  -2  -6   6    4.22    4.66
   2  -6  -6    7.22    5.78
   0   6   6  224.71   21.03
   0  -6   6  227.95   19.19
   0  -6  -6  236.97   18.30
   0   6  -6  197.46   20.43
  -2   6  -6  164.53   22.36
  -2  -6  -6  132.50   18.17
   2  -6   6  133.53   14.78
  -2  -6  -6  174.21   21.76
   4  -6   6   48.25   10.94
  -4  -6  -6   25.99    9.23
  -4  -6  -6   40.31   12.05
   4  -6   6   47.73   12.39
  -6   6  -6    4.78    5.66
  -6  -6  -6   51.42   13.73
   6  -6   6   54.24   11.57
   8   6   6    1.53    5.48
  -8   6  -6   -0.40    5.83
  -8  -6  -6   -5.85    6.38
   8  -6   6    1.44    4.65
  10   6   6   -4.43    5.41
  10  -6   6   -1.10    4.86
 -10   6  -6   -4.53    6.19
 -10  -6  -6   34.33   11.98
  12  -6   6    1.13    6.35
 -12  -6  -6   11.89   10.75
 -12   6  -6   -5.51    6.58
  12   6   6    0.07    6.70
  12   6   6   12.16    8.31
 -11  -7   6   50.35   14.30
 -11   7   6   40.12   14.61
  11  -7  -6   45.22   13.96
  -9  -7   6    6.06    6.75
  -9   7   6   10.30    8.03
   9   7  -6    2.26    7.22
   9  -7  -6    7.53    7.08
   7   7  -6  155.04   21.69
   7  -7  -6  154.69   20.87
  -7   7   6  144.04   23.90
  -7  -7   6  141.48   20.45
  -5   7   6   81.82   16.05
  -5  -7   6   70.58   14.55
   5  -7  -6   71.32   14.63
   5   7  -6   84.22   17.41
  -3  -7   6   12.59    5.98
  -3   7   6    0.33    5.84
   3   7  -6    7.03    6.43
   3  -7  -6    4.16    5.05
  -3   7   6   -1.36    5.11
   3   7  -6    3.36    5.95
   1  -7  -6  139.91   17.63
   1   7  -6  142.02   21.58
  -1   7   6  147.42   20.74
  -1  -7   6  159.07   17.06
  -1  -7  -6   47.94   13.20
   1   7   6   35.40   11.80
  -1   7  -6   50.60   14.63
  -1  -7  -6   37.04   10.99
   1  -7   6   35.81   11.45
  -3   7  -6  152.39   25.54
   3   7   6  148.22   21.53
   3  -7   6  137.94   20.47
  -3  -7  -6  124.79   19.49
  -3  -7  -6  124.16   20.94
  -5   7  -6    1.95    7.64
   5   7   6   12.37    7.68
   5  -7   6   10.01    5.94
  -5  -7  -6    3.55    7.23
  -7   7  -6    2.78    7.98
  -7  -7  -6    9.34    9.23
   7  -7   6    3.24    5.35
   7   7   6    9.00    7.37
   9  -7   6    0.18    5.25
   9   7   6    3.18    7.65
  -9  -7  -6   -1.74    8.34
  -9   7  -6   -2.69    7.53
  22   0  -7   55.45   13.37
  20   0  -7   85.27   14.31
  20   0  -7   91.46   16.52
  18   0  -7    9.50    5.66
 -18   0   7    5.02    3.98
  18   0  -7    8.91    6.10
  16   0  -7  102.66   13.50
  16   0  -7  100.31   14.62
 -14   0   7  399.15   26.63
  14   0  -7  435.20   24.01
  14   0  -7  443.25   22.54
  12   0  -7  200.26   14.53
 -12   0   7  194.62   18.24
  12   0  -7  218.52   15.90
 -12   0   7  193.48    9.85
 -10   0   7  199.50    8.95
  10   0  -7  204.09   14.03
  10   0  -7  196.84   13.43
 -10   0   7  183.63   16.59
   8   0  -7  487.02   19.60
  -8   0   7  511.39   22.97
   8   0  -7  504.94   19.99
   6   0  -7   23.72    3.51
   6   0  -7   21.78    4.88
  -6   0   7   18.60    6.00
   4   0  -7  413.85   15.78
   4   0  -7  428.55   13.39
  -4   0   7  442.38   17.77
  -4   0   7  420.66   15.78
  -2   0   7   23.83    5.17
   2   0  -7   24.46    4.70
   2   0  -7   25.04    5.26
  -2   0   7   21.59    4.68
   0   0   7 1023.08   25.23
   0   0   7 1059.97   27.29
   0   0  -7 1049.87   27.23
   0   0  -7 1035.31   22.34
  -2   0  -7 2065.67   32.17
   2   0   7 2064.82   36.48
   2   0   7 2101.87   42.60
  -4   0  -7 1969.31   45.98
  -4   0  -7 1930.82   30.80
   4   0   7 1932.87   43.55
   4   0   7 1927.06   35.96
   6   0   7   88.12    8.51
  -6   0  -7   85.72   13.45
  -6   0  -7   96.13    6.59
   8   0   7  429.26   18.32
   8   0   7  441.81   13.85
   8   0   7  392.81   22.54
  -8   0  -7  438.32   28.54
  10   0   7    8.37    5.29
 -10   0  -7    3.06   10.44
 -10   0  -7    6.82    6.51
 -12   0  -7  542.80   34.11
 -12   0  -7  562.01   26.00
  12   0   7  535.18   30.85
 -14   0  -7   14.92   12.29
 -14   0  -7   11.90    8.37
  14   0   7   17.27    7.68
 -16   0  -7   19.67    8.97
  16   0   7   29.73   10.22
 -16   0  -7   21.76   13.39
 -18   0  -7   48.80   16.42
  18   0   7   33.29   11.55
 -20   0  -7   17.97   12.41
  20   0   7   16.22    9.26
 -23  -1   7   10.53    7.13
 -23   1   7   20.59   10.99
  23   1  -7   12.02    7.70
  21  -1  -7   99.02   15.87
  21   1  -7   81.92   16.69
  19  -1  -7   41.66   10.37
  19  -1  -7   37.87    9.60
  19   1  -7   41.75    9.78
  19   1  -7   27.66    9.29
  17  -1  -7  245.78   19.03
  17  -1  -7  242.97   19.11
  17   1  -7  236.25   21.29
  17   1  -7  232.80   17.57
  15   1  -7  442.87   27.07
  15  -1  -7  491.92   24.78
  15   1  -7  514.52   24.48
  15  -1  -7  454.32   24.46
 -15  -1   7  483.85   30.92
 -15   1   7  446.93   27.84
  13  -1  -7   19.50    6.88
  13   1  -7   20.23    6.57
 -13   1   7   29.36    8.91
 -13   1   7   21.65    6.03
  13   1  -7   29.14    8.06
 -13  -1   7   20.96   10.24
  13  -1  -7   19.34    5.98
 -11  -1   7  178.28   18.14
  11  -1  -7  186.86   14.01
  11  -1  -7  182.56   12.57
  11   1  -7  174.58   13.35
  11   1  -7  208.66   16.17
 -11   1   7  189.58   12.54
  -9   1   7  189.04   11.59
   9   1  -7  197.03   13.20
  -9   1   7  198.28   15.92
   9  -1  -7  194.70   13.32
  -9  -1   7  184.44   16.69
   9   1  -7  188.64   14.41
   9  -1  -7  185.46   11.10
  -7   1   7  350.62   15.02
  -7   1   7  340.80   18.51
   7   1  -7  343.56   17.96
   7   1  -7  324.99   15.92
  -7  -1   7  329.62   18.71
   7  -1  -7  336.24   12.82
  -5   1   7  537.96   14.82
   5   1  -7  534.25   19.35
  -5  -1   7  507.42   19.84
   5  -1  -7  534.19   19.17
   5   1  -7  533.04   12.90
  -5   1   7  525.37   21.93
   3   1  -7  276.94   13.43
  -3  -1   7  257.87   12.46
   3  -1  -7  251.84   11.67
  -3   1   7  273.91   15.25
  -3   1   7  279.12   10.79
   3  -1  -7  257.92   12.13
  -3  -1   7  251.74   13.93
   3   1  -7  279.05   12.60
   3  -1  -7  264.78   12.77
   1  -1  -7  411.30   13.68
   1  -1  -7  386.49   16.43
   1   1  -7  366.79   16.71
  -1   1   7  398.33   14.01
   1   1  -7  384.35   15.65
  -1  -1   7  396.60   13.48
  -1   1   7  387.60   17.99
  -1   1  -7  799.04   26.56
   1  -1   7  749.22   16.83
   1   1   7  779.11   25.13
  -1  -1  -7  794.74   17.46
  -1   1  -7  789.69   22.32
   1   1   7  765.87   22.21
  -3  -1  -7  845.53   28.20
   3  -1   7  894.83   29.15
   3  -1   7  882.78   17.79
   3   1   7  850.12   26.23
   3   1   7  838.29   26.34
  -3   1  -7  884.19   24.12
  -3  -1  -7  879.71   16.32
  -5  -1  -7  726.35   28.50
   5  -1   7  692.77   16.68
   5   1   7  681.20   24.51
  -5   1  -7  686.69   21.44
  -5   1  -7  690.03   29.73
   5  -1   7  690.97   26.87
   5   1   7  702.93   26.66
   7  -1   7   17.52    6.06
   7   1   7   23.76    6.78
   7   1   7   24.49    6.36
  -7  -1  -7   20.38   10.06
  -7   1  -7   18.37   10.53
  -7   1  -7   12.18    4.73
  -9   1  -7  198.98   22.10
   9   1   7  195.14   16.66
   9  -1   7  208.70   12.60
   9  -1   7  216.46   17.74
  -9   1  -7  220.38   13.48
   9   1   7  203.53   15.24
  -9  -1  -7  219.02   21.67
 -11   1  -7   53.43    9.45
 -11  -1  -7   53.61   16.08
  11  -1   7   44.99    7.12
  11   1   7   33.98    9.10
  11  -1   7   45.14   10.66
 -11   1  -7   45.11   14.08
  13  -1   7   54.69   12.79
 -13   1  -7   48.74   10.14
 -13   1  -7   31.28   13.43
 -13  -1  -7   48.27   16.36
 -13  -1  -7   57.83   11.96
 -15  -1  -7  141.69   23.26
 -15   1  -7  116.82   21.03
 -15  -1  -7  105.89   16.24
  15  -1   7  130.57   19.93
 -17  -1  -7    3.01    8.03
  17   1   7    1.86    5.18
 -17  -1  -7    2.89   11.97
 -17   1  -7    4.20    8.66
  17  -1   7    3.12    6.48
 -19   1  -7   52.58   16.91
 -19  -1  -7   55.53   17.76
  19   1   7   25.38   11.33
  19  -1   7   33.87   12.20
 -19  -1  -7   32.42   12.77
  22   2  -7   86.92   18.88
  22  -2  -7   56.82   13.73
 -22   2   7   83.81   17.33
  20  -2  -7   34.85   11.11
  20   2  -7   28.23   10.94
 -20  -2   7   30.52   13.35
 -20   2   7   34.10   11.05
 -18  -2   7   35.91   13.07
  18   2  -7   37.11    8.76
  18   2  -7   29.28    9.20
 -16  -2   7   32.81   13.00
 -16   2   7   27.87    8.59
  16   2  -7   28.13    9.35
  16   2  -7   20.16    7.08
 -16   2   7   30.09    8.29
  14   2  -7  229.64   20.13
 -14   2   7  228.49   17.58
 -14  -2   7  246.31   22.81
  14  -2  -7  237.31   18.33
 -14   2   7  251.59   20.32
  14  -2  -7  240.78   15.20
  14   2  -7  229.07   16.52
 -12   2   7  107.94   11.78
  12   2  -7  117.65   11.55
  12  -2  -7  112.33   13.51
  12   2  -7  102.02   14.99
 -12   2   7  125.99   15.38
 -12  -2   7  120.80   16.80
  12  -2  -7  109.60    9.41
 -10   2   7  204.29   16.85
  10  -2  -7  207.66   15.26
 -10  -2   7  202.17   18.98
 -10   2   7  193.04   14.73
  10   2  -7  189.35   14.03
  10   2  -7  207.62   16.93
  10  -2  -7  206.59   10.57
  -8   2   7  578.62   26.21
  -8  -2   7  555.31   25.43
   8   2  -7  564.92   22.98
   8   2  -7  515.94   25.44
   8  -2  -7  584.71   23.64
   8  -2  -7  577.22   14.16
  -8   2   7  573.46   24.06
   6   2  -7  348.87   10.78
  -6   2   7  322.07   17.56
   6   2  -7  342.13   17.46
   6  -2  -7  337.32   16.82
   6   2  -7  325.17   19.02
  -6  -2   7  331.05   18.37
   4   2  -7  268.88   12.09
  -4  -2   7  285.44   14.94
  -4  -2   7  269.43   17.06
  -4   2   7  277.38   15.96
  -4   2   7  267.10   16.98
   4  -2  -7  267.04   13.93
   4   2  -7  273.87   15.13
  -2  -2   7  348.29   13.17
  -2   2   7  333.38   10.53
   2  -2  -7  355.96   16.57
  -2  -2   7  345.29   18.16
   2   2  -7  345.51   16.09
   2  -2  -7  287.60   16.05
   2  -2  -7  342.09   14.48
  -2   2   7  352.33   19.13
   0  -2   7  322.78   17.67
   0   2  -7  314.45   16.16
   0  -2  -7  319.77   17.20
   0   2  -7  332.79   18.00
   0   2   7  327.80   18.54
   0  -2  -7  343.31   13.10
   0   2   7  352.69   13.28
  -2   2  -7  375.69   18.07
  -2  -2  -7  391.12   19.78
   2  -2   7  384.90   19.43
   2   2   7  378.56   16.37
  -2  -2  -7  402.17   12.24
   2   2   7  391.29   20.22
  -2   2  -7  375.57   21.08
  -4   2  -7  263.89   15.46
   4  -2   7  253.42   16.83
  -4  -2  -7  249.22   17.07
   4   2   7  246.26   14.99
   4   2   7  260.80   16.92
  -6   2  -7   33.97   11.04
   6   2   7   23.59    6.66
   6  -2   7   34.37    8.08
   6   2   7   25.34    6.72
  -6  -2  -7   29.51    9.00
  -6   2  -7   33.86    7.52
   8  -2   7  488.53   22.24
   8   2   7  465.67   25.03
   8  -2   7  505.97   26.51
  -8  -2  -7  500.37   27.54
   8   2   7  443.67   23.99
  -8   2  -7  503.14   30.00
 -10  -2  -7   33.21   12.90
  10  -2   7   35.00    9.40
  10   2   7   39.14    9.69
  10   2   7   26.62    8.40
 -10   2  -7   46.55   13.53
  10  -2   7   35.90    7.85
  12  -2   7   95.61   15.83
 -12  -2  -7   90.72   17.65
 -12   2  -7  117.53   19.70
  12  -2   7  101.69   12.16
 -14   2  -7  129.30   22.12
  14  -2   7  153.54   20.33
 -14  -2  -7  171.36   23.70
 -16  -2  -7   30.91   11.80
  16  -2   7   43.54   12.09
 -16  -2  -7   33.48   15.95
 -16   2  -7   43.04   14.66
 -18  -2  -7   44.67   14.48
 -18  -2  -7   59.91   18.83
 -18   2  -7   57.84   16.99
  18  -2   7   50.93   14.19
 -20   2  -7   23.07   11.87
  21   3  -7   64.08   16.55
 -21   3   7   58.60   14.85
 -21  -3   7   96.25   21.64
  21  -3  -7   51.98   14.21
 -19  -3   7    9.32   10.29
  19  -3  -7    2.14    4.50
 -19   3   7    1.42    5.73
  19   3  -7    4.89    6.16
 -17  -3   7  147.52   22.34
 -17   3   7  146.36   19.13
 -17   3   7  152.51   19.32
  17   3  -7  133.21   13.92
  17   3  -7  140.24   21.26
  15   3  -7   55.50   13.48
 -15   3   7   40.30   10.27
  15   3  -7   58.19   10.95
 -15  -3   7   59.92   15.46
 -15   3   7   77.00   13.75
 -13  -3   7  115.65   17.46
 -13   3   7  148.07   15.21
  13   3  -7  126.34   13.09
 -13   3   7  133.06   16.84
  13   3  -7  127.36   18.52
 -11   3   7  106.14   14.43
 -11  -3   7  131.47   16.90
  11  -3  -7   96.95   13.01
  11   3  -7  114.64   11.88
  11   3  -7  114.37   16.71
 -11   3   7  123.42   15.77
   9   3  -7  145.67   13.09
  -9   3   7  183.94   16.33
  -9   3   7  167.95   15.13
   9  -3  -7  178.16   14.80
  -9  -3   7  178.46   17.38
   7   3  -7 1001.39   33.02
  -7  -3   7  955.81   31.80
  -7   3   7  966.67   36.51
   7   3  -7  968.38   23.27
   7  -3  -7 1031.95   33.65
  -7   3   7  937.92   35.26
  -5  -3   7   18.85    6.80
  -5  -3   7   12.93    6.83
   5   3  -7   19.27    5.14
   5  -3  -7   21.62    6.08
   5   3  -7   17.47    5.83
  -5   3   7   24.18    7.32
  -5   3   7   23.88    7.14
   3   3  -7  972.52   29.73
  -3  -3   7  929.20   33.85
  -3  -3   7  925.10   24.80
  -3   3   7  879.79   33.10
  -3   3   7  920.08   34.30
   3   3  -7  885.75   30.54
   3  -3  -7  936.00   28.07
  -1  -3   7  600.74   26.72
   1   3  -7  580.33   25.18
  -1  -3   7  609.56   16.81
  -1   3   7  596.79   15.82
   1  -3  -7  601.51   20.88
   1  -3  -7  611.76   25.21
   1  -3  -7  594.01   26.54
   1   3  -7  596.64   25.41
  -1   3  -7   19.09    7.18
  -1  -3  -7   17.07    6.26
  -1  -3  -7   18.43    6.06
  -1   3  -7   22.02    6.50
  -1  -3  -7   22.56    4.98
   1   3   7   28.37    5.44
   1   3   7   27.18    7.37
   1  -3   7   18.47    6.33
   3  -3   7  194.23   15.34
  -3   3  -7  184.01   14.79
  -3  -3  -7  190.64   15.90
   3   3   7  194.49   13.19
   3   3   7  202.56   16.29
  -3  -3  -7  185.31    9.34
  -3   3  -7  184.23   17.28
  -5   3  -7    1.03    2.45
   5  -3   7   10.86    5.20
   5   3   7    1.40    4.37
   5   3   7    9.05    4.67
  -5  -3  -7    7.64    6.31
  -5   3  -7    5.99    4.22
   7  -3   7  104.90   13.10
  -7  -3  -7   75.70   13.10
   7   3   7   93.95   12.99
   7   3   7   84.79   13.43
  -7   3  -7   96.42   15.87
   7  -3   7   99.17   13.75
   9  -3   7  194.84   15.91
   9  -3   7  163.91   16.05
   9   3   7  187.00   17.61
  -9  -3  -7  180.89   18.72
   9   3   7  158.84   16.10
 -11   3  -7  162.68   21.92
 -11  -3  -7  107.24   17.34
  11   3   7  121.91   17.56
  11  -3   7  143.90   18.20
  11  -3   7  137.30   14.00
  11   3   7  145.38   18.06
  13  -3   7   73.89   12.71
  13  -3   7   86.87   15.52
 -13  -3  -7   60.58   16.58
 -13   3  -7   71.33   16.50
  15  -3   7   55.31   11.68
  15  -3   7   74.67   15.77
 -15  -3  -7   71.17   19.00
 -15   3  -7   88.35   19.36
 -17   3  -7   35.44   13.89
 -17  -3  -7   -0.76    5.32
  17   3   7    0.13    5.52
 -17  -3  -7   15.61   15.78
  17  -3   7   18.93    9.56
 -19   3  -7  106.78   22.66
  19  -3   7   96.63   19.73
 -19  -3  -7   88.41   19.50
  20  -4  -7    4.08    5.32
  20   4  -7    1.48    7.18
 -20  -4   7   -2.19    9.98
 -20   4   7    8.53    8.14
  18   4  -7   43.91   13.91
 -18   4   7   52.26   13.67
 -18  -4   7   43.36   16.07
 -18   4   7   53.08   13.34
  16   4  -7   14.37    7.98
 -16   4   7   18.69    8.33
 -16   4   7   10.87    6.02
 -16  -4   7   17.87   11.92
  14   4  -7    9.15    4.69
 -14   4   7   10.14    6.41
  14   4  -7    4.51    3.99
  14  -4  -7    3.74    3.80
 -14  -4   7    6.09    9.33
 -14   4   7    8.30    6.86
 -12  -4   7   56.08   13.75
 -12   4   7   48.30   11.57
 -12   4   7   43.33   11.46
  12   4  -7   45.95    9.91
  10   4  -7  166.81   14.99
 -10  -4   7  159.25   17.68
  10  -4  -7  129.55   15.81
 -10   4   7  179.67   17.66
 -10   4   7  152.63   18.28
   8   4  -7   28.18    8.47
  -8   4   7   33.34    9.59
  -8  -4   7   30.97    9.58
  -8   4   7   30.48    8.98
   8   4  -7   39.86    9.33
   8  -4  -7   44.49    9.76
  -6  -4   7  157.97   15.92
   6   4  -7  144.56   14.05
  -6   4   7  141.19   16.37
  -6  -4   7  151.26   14.85
   6   4  -7  154.90   12.54
   6  -4  -7  157.48   14.05
  -6   4   7  140.71   14.98
   4   4  -7   76.37   12.38
   4  -4  -7   75.24   10.51
  -4  -4   7   54.67   11.36
  -4  -4   7   70.69    9.89
  -4   4   7   63.29   12.24
   4   4  -7   70.98   10.32
  -4   4   7   75.36   13.14
  -2   4   7  413.30   25.27
   2   4  -7  449.38   24.54
   2   4  -7  405.93   23.04
  -2  -4   7  428.34   17.25
  -2   4   7  429.52   25.37
  -2  -4   7  435.37   24.55
   2  -4  -7  405.56   19.84
   0   4  -7  465.89   26.03
   0  -4  -7  450.21   19.68
   0  -4   7  472.49   25.54
   0   4   7  456.91   26.28
   0   4   7  462.93   16.52
   0  -4  -7  448.64   24.10
   0   4  -7  433.15   24.70
   0  -4  -7  437.35   25.60
  -2   4  -7    6.92    5.80
  -2  -4  -7    1.74    4.15
  -2  -4  -7    3.82    5.18
  -2   4  -7   -2.15    2.01
   2  -4   7   -1.32    2.65
  -2  -4  -7   -1.03    2.50
   2   4   7    1.45    2.82
   2   4   7   -0.20    3.12
  -4  -4  -7  439.84   26.90
  -4   4  -7  411.60   27.74
   4   4   7  435.46   26.57
   4  -4   7  433.47   24.76
  -4   4  -7  449.08   26.02
   4   4   7  434.54   21.74
   6   4   7   11.93    5.98
  -6  -4  -7   28.11    9.68
   6   4   7   36.76    8.76
   6  -4   7   34.86    9.35
   8   4   7   64.73   13.66
   8  -4   7   60.05   12.09
  -8  -4  -7   78.21   14.86
   8   4   7   77.55   13.33
   8  -4   7   62.25   12.26
  10   4   7   -5.99    4.83
  10   4   7   -2.79    3.67
  10  -4   7    0.58    4.56
 -10   4  -7    1.98    4.22
  10  -4   7   -1.92    4.09
 -10  -4  -7    0.78    6.82
  12  -4   7   74.76   13.67
  12   4   7   67.56   13.93
 -12  -4  -7   88.93   17.25
 -12   4  -7   62.65   16.88
  12  -4   7   63.58   13.51
  12   4   7   64.92   14.56
  14  -4   7   42.66   11.29
 -14  -4  -7   23.01   12.71
  14  -4   7   43.67   12.14
 -14   4  -7   43.17   15.46
  14   4   7   46.91   12.57
 -16  -4  -7   31.44   17.13
  16  -4   7   23.42    8.35
 -16   4  -7   25.88   12.23
 -16  -4  -7    1.86    5.17
  16  -4   7   27.26   10.77
  16   4   7    0.74    5.52
 -17  -5   7   57.08   16.85
 -17   5   7   63.10   16.60
 -15   5   7   96.24   16.48
 -15   5   7  112.25   20.79
 -15  -5   7   93.51   18.63
 -13  -5   7   15.23    9.84
  13   5  -7    1.27    3.78
 -13   5   7   13.92    7.78
 -13   5   7    7.16    6.04
  13  -5  -7   -0.36    3.70
  13   5  -7   10.05    6.32
  11   5  -7   26.48    8.20
  11   5  -7    3.30    3.84
 -11   5   7   15.38    7.87
 -11   5   7   26.20    8.84
 -11  -5   7   19.00    9.73
  11  -5  -7   12.03    7.06
  -9   5   7   25.59    8.17
  -9   5   7   37.92   11.33
  -9  -5   7   19.80    9.21
   9   5  -7   32.31    9.73
   9  -5  -7   30.93    9.49
  -7   5   7   14.24    7.36
  -7  -5   7    2.09    6.43
  -7  -5   7   12.02    6.19
   7  -5  -7    8.37    5.39
   7   5  -7    4.04    4.71
  -7   5   7   11.97    6.02
   5   5  -7  243.21   18.22
   5  -5  -7  225.00   17.80
  -5   5   7  244.09   21.15
  -5  -5   7  234.06   20.66
  -5   5   7  249.49   22.18
  -5  -5   7  233.59   17.48
  -3   5   7  233.88   21.28
  -3   5   7  221.85   20.22
   3   5  -7  214.21   17.80
   3  -5  -7  227.06   17.27
  -3  -5   7  219.32   18.99
   1  -5  -7   33.85    8.11
  -1  -5   7   23.27    7.83
   1   5  -7   35.93   10.48
  -1   5   7   40.12   10.44
  -1  -5  -7  359.77   25.83
  -1  -5  -7  314.24   22.23
  -1  -5  -7  332.72   18.42
  -1   5  -7  428.49   28.24
   1  -5   7  343.81   22.95
  -3  -5  -7   72.36   13.59
  -3   5  -7   94.62   16.33
  -3   5  -7   86.20   16.78
  -3  -5  -7   81.44   15.23
   3  -5   7   80.37   13.13
  -5  -5  -7  131.04   18.79
   5  -5   7  142.12   16.97
  -7  -5  -7   41.56   11.89
   7   5   7   48.40   10.49
   7  -5   7   36.81   10.00
   9   5   7   -1.48    4.54
   9  -5   7   -0.58    3.10
   9   5   7    8.48    4.74
   9  -5   7    3.43    4.65
  -9   5  -7    4.45    5.82
  -9  -5  -7   -0.91    5.99
  11  -5   7   46.48   12.25
  11   5   7   33.80   10.16
 -11  -5  -7   20.16   10.10
 -13  -5  -7    1.62    9.71
 -13   5  -7    2.29    7.41
  13   5   7    0.14    5.44
  13   5   7    3.59    7.32
  13  -5   7   -2.44    5.12
  13  -5   7    4.76    6.10
  15  -5   7   23.35   10.34
 -15   5  -7   20.43   13.00
 -15  -5  -7   31.97   14.85
 -15  -5  -7   13.35    6.11
  15   5   7   29.36   10.07
 -14  -6   7   63.32   16.39
  14  -6  -7   45.97   13.73
 -14   6   7   66.72   16.61
  12   6  -7   -2.28    6.12
  12   6  -7   10.36    5.69
 -12  -6   7    8.73    8.37
 -12   6   7    2.80    6.03
  12  -6  -7    6.00    6.11
  10   6  -7  133.47   18.71
 -10   6   7  126.25   18.72
 -10  -6   7  118.72   17.66
 -10   6   7  143.24   22.42
  10  -6  -7  128.93   18.45
   8  -6  -7   24.73    8.97
  -8  -6   7   28.26    9.94
  -8   6   7   18.98    8.66
  -8   6   7   44.28   13.54
   8   6  -7   38.54   10.96
  -6  -6   7  221.19   21.34
   6   6  -7  207.32   19.57
  -6   6   7  206.03   20.90
  -6   6   7  215.77   22.91
   6  -6  -7  219.80   19.55
  -4  -6   7   91.31   15.66
   4  -6  -7   73.94   13.28
  -4   6   7   87.41   17.66
   4   6  -7   73.01   14.02
  -4   6   7   58.41   13.43
   2  -6  -7   15.35    6.71
  -2  -6   7   14.66    6.78
  -2   6   7   13.35    6.77
   2   6  -7    1.65    4.15
  -2   6   7    1.34    4.06
   2   6  -7   12.99    7.62
   0  -6  -7  125.68   13.22
   0  -6  -7  152.58   20.63
   0  -6  -7  119.05   17.81
   0   6  -7  164.29   21.86
   0  -6   7  140.02   17.58
   2  -6   7  121.92   16.61
  -2  -6  -7  131.10   19.69
  -2   6  -7  124.74   21.04
  -2  -6  -7  104.01   17.03
   4  -6   7  141.20   17.93
  -4  -6  -7  124.22   18.45
  -4  -6  -7  144.61   20.81
   6   6   7   -0.34    4.80
   6  -6   7   -0.03    3.37
   6  -6   7   17.07    7.56
  -6  -6  -7   19.74   10.31
  -6   6  -7    0.55    5.25
  -8  -6  -7  120.58   20.34
  10   6   7   -5.79    5.43
  10  -6   7   -2.17    5.38
 -10   6  -7   -1.93    6.91
 -10  -6  -7   10.13    9.77
 -12   6  -7   -1.11    7.26
  12  -6   7   -0.97    6.13
  12   6   7   -0.01    6.67
 -12  -6  -7   16.76   11.12
 -11   7   7   36.58   12.93
 -11  -7   7   43.55   13.84
  11  -7  -7   41.76   12.81
  -9   7   7   15.13    9.01
  -9  -7   7   17.51    8.34
   9   7  -7    8.79    7.44
   9  -7  -7   13.60    8.47
   7   7  -7   28.72   10.43
  -7   7   7   33.59   11.42
   7  -7  -7   34.66   11.38
  -7   7   7   25.30   12.07
  -7  -7   7   30.76   10.14
   5  -7  -7   17.69    8.17
  -5  -7   7   11.90    6.59
  -5   7   7   14.44    9.23
   5   7  -7   14.35    8.13
  -5   7   7   16.56    8.73
  -3  -7   7   64.20   14.07
   3  -7  -7   63.09   13.64
  -3   7   7   61.02   14.98
  -1  -7   7   21.27    7.81
   1   7  -7   28.53   10.66
  -1   7   7   36.10   11.20
   1  -7  -7   10.89    7.69
   1  -7  -7   12.05    7.40
   1   7  -7    3.84    5.83
  -1  -7  -7   45.68   13.38
   1  -7   7   26.46   10.63
  -1   7  -7   32.91   12.58
  -1  -7  -7   36.08   12.59
   1   7   7   64.12   14.49
  -3  -7  -7   14.18    8.47
   3  -7   7    3.27    4.83
   3   7   7    3.80    6.73
  -3   7  -7   -1.03    7.75
  -3  -7  -7    4.27    7.09
  -5   7  -7   41.54   15.17
   5  -7   7   18.08    8.79
   5   7   7    0.99    6.35
  -5  -7  -7   31.64   12.83
  -7  -7  -7   31.67   13.08
   7  -7   7    1.39    5.64
   7   7   7    1.77    7.28
  -7   7  -7    2.23    7.83
 -22   0   8    4.31    5.97
  22   0  -8    7.50    6.23
  22   0  -8    1.41    6.15
  20   0  -8  367.38   24.54
  20   0  -8  369.74   27.41
  18   0  -8   43.67   10.24
  18   0  -8   41.19   10.29
  16   0  -8   85.96   12.99
  16   0  -8   92.74   14.36
  14   0  -8  635.67   28.03
 -14   0   8  683.92   34.27
  14   0  -8  644.66   29.21
 -12   0   8  133.80   16.46
  12   0  -8  123.61   12.18
  12   0  -8  130.77   12.43
  10   0  -8  869.92   29.17
  10   0  -8  844.72   28.59
 -10   0   8  854.70   32.94
   8   0  -8    4.26    3.48
  -8   0   8    1.50    4.94
   8   0  -8    2.26    2.91
   8   0  -8    5.46    2.47
  -6   0   8  190.45   11.86
   6   0  -8  191.31    8.88
  -6   0   8  171.22   13.17
   4   0  -8   28.15    5.72
   4   0  -8   30.97    5.47
  -4   0   8   24.43    6.13
  -4   0   8   20.38    4.84
   2   0  -8    4.56    4.48
  -2   0   8    6.33    3.28
   2   0  -8    7.93    3.53
  -2   0   8   10.20    4.29
   0   0   8   21.82    5.04
   0   0  -8   21.41    4.51
   0   0  -8   24.91    6.77
   0   0   8   22.74    5.54
   2   0   8  497.27   21.06
   2   0   8  502.73   18.18
  -2   0  -8  504.05   15.77
   4   0   8  294.08   13.73
  -4   0  -8  301.64   20.29
   4   0   8  279.99   16.56
  -4   0  -8  296.11   11.80
  -6   0  -8  281.29   21.69
   6   0   8  242.31   17.05
  -6   0  -8  256.17   10.94
   6   0   8  267.70   13.94
   8   0   8   -0.20    1.93
   8   0   8    4.08    2.26
  -8   0  -8   -0.94   10.96
   8   0   8    1.17    3.40
 -10   0  -8   -5.26    5.22
 -10   0  -8    7.91   12.20
  10   0   8    2.83    3.92
 -12   0  -8  406.68   22.63
 -12   0  -8  398.21   30.90
  12   0   8  393.14   27.19
 -14   0  -8    5.56    6.32
 -14   0  -8    4.86   11.70
  14   0   8   -0.80    4.96
 -16   0  -8    7.43    7.46
 -16   0  -8    2.51   12.21
  16   0   8    8.99    7.90
 -18   0  -8   24.79   14.17
  18   0   8   11.74    7.56
 -20   0  -8   28.66   14.33
  20   0   8   12.00    9.32
  23   1  -8   12.69    8.01
  23  -1  -8    7.38    7.30
 -23   1   8   11.17    6.81
 -23  -1   8   10.03    7.37
  21   1  -8   43.32   12.07
  21  -1  -8   41.80   11.83
  21   1  -8   46.67   10.73
  19   1  -8   41.59   11.42
  19   1  -8   38.80    9.50
  19  -1  -8   42.49   10.53
  19  -1  -8   26.91    8.99
  17  -1  -8   24.97    7.96
  17   1  -8   27.50    8.84
 -17  -1   8   43.76   13.76
  17  -1  -8   38.03    9.19
  17   1  -8   47.03   10.32
  15   1  -8  142.37   13.87
  15   1  -8  131.57   17.10
  15  -1  -8  122.76   12.92
  15  -1  -8  116.86   14.68
 -15  -1   8  146.00   19.63
 -13  -1   8  154.26   18.65
  13  -1  -8  126.54   11.74
  13   1  -8  123.89   12.47
  13  -1  -8  118.36   13.79
 -13   1   8  118.22   10.51
  13   1  -8  131.12   13.68
  11  -1  -8  250.59   16.51
  11   1  -8  245.01   17.81
  11  -1  -8  221.26   13.79
  11   1  -8  249.91   16.37
 -11  -1   8  244.98   20.31
 -11   1   8  214.02   17.38
 -11   1   8  234.34   13.64
   9  -1  -8  234.03   12.60
  -9  -1   8  222.94   18.15
   9  -1  -8  225.47   14.65
   9   1  -8  231.02   14.71
  -9   1   8  224.82   12.57
   9   1  -8  238.86   16.39
  -9   1   8  209.92   16.19
  -7  -1   8  116.81   12.18
  -7   1   8  130.48    8.63
  -7   1   8  114.46   11.75
   7   1  -8  124.63   10.59
   7  -1  -8  123.94   10.41
  -7   1   8  116.93    8.94
   7   1  -8  131.20   11.70
   5  -1  -8  252.69   11.98
  -5   1   8  234.71   10.63
   5  -1  -8  230.77   13.07
   5  -1  -8  247.02   12.68
   5   1  -8  210.08   10.25
  -5  -1   8  238.28   15.09
  -5   1   8  215.67   15.07
  -5  -1   8  232.08   14.22
   3   1  -8    4.41    5.16
  -3   1   8    3.24    3.67
  -3  -1   8    3.48    3.02
   3  -1  -8    2.09    3.23
  -3   1   8    3.57    2.28
   3  -1  -8    7.93    3.46
  -3  -1   8    5.51    3.50
   3   1  -8    6.32    3.40
  -1  -1   8   15.47    3.99
   1   1  -8   12.27    4.32
  -1  -1   8   18.92    5.04
  -1   1   8   21.05    6.12
   1   1  -8   26.12    7.51
   1  -1  -8   14.92    5.25
   1  -1  -8   17.36    4.18
  -1   1   8   20.71    4.46
   1  -1   8  229.97   10.10
   1   1   8  236.87   12.90
   1   1   8  231.67   14.51
  -1   1  -8  231.27   12.60
  -1  -1  -8  233.47    9.96
  -1   1  -8  204.42   16.29
  -3  -1  -8 1032.14   19.42
   3  -1   8 1033.12   21.04
   3   1   8 1001.72   29.97
   3   1   8 1015.66   30.11
  -3   1  -8 1042.38   27.23
  -3   1  -8 1032.31   34.45
   3  -1   8  925.11   31.53
  -3  -1  -8 1066.40   33.49
  -5   1  -8  171.40   17.17
   5  -1   8  157.33   13.61
  -5   1  -8  173.92   11.30
   5  -1   8  168.43    8.63
   5   1   8  171.70   12.92
  -5  -1  -8  163.61   16.25
   5   1   8  180.02   13.86
   7   1   8  175.31   13.68
   7  -1   8  171.20   15.46
  -7  -1  -8  176.14   19.13
  -7   1  -8  182.63   11.84
  -7   1  -8  161.40   18.93
   7   1   8  171.96   14.96
  -7   1  -8  161.38   10.96
  -9   1  -8  192.07   13.26
   9  -1   8  198.22   12.44
  -9   1  -8  206.61   23.04
   9   1   8  209.99   15.76
   9   1   8  179.68   16.44
  -9  -1  -8  209.66   22.32
   9  -1   8  220.90   18.36
 -11   1  -8   -0.86    5.48
  11   1   8    2.55    3.50
  11  -1   8    4.30    4.49
  11   1   8   -2.39    4.50
 -11  -1  -8   11.53   12.69
 -11   1  -8    5.50   10.45
  11  -1   8   -0.22    2.64
  13  -1   8  112.39   17.85
 -13  -1  -8  106.63   20.92
 -13   1  -8  108.60   20.35
 -13  -1  -8  138.10   16.48
  15  -1   8   88.22   17.08
 -15  -1  -8   58.99   18.59
 -15  -1  -8   81.21   14.80
 -15   1  -8   69.99   18.03
 -17  -1  -8   91.67   16.22
 -17  -1  -8  105.57   22.71
  17  -1   8   99.59   19.20
 -17   1  -8  106.59   21.97
 -19  -1  -8   40.47   13.68
 -19  -1  -8   28.91   16.50
  19  -1   8   23.93   10.29
 -19   1  -8   35.54   15.55
  19   1   8   33.77   12.87
  22   2  -8    8.23    7.29
  22  -2  -8    8.18    7.18
 -22  -2   8   12.05    7.14
 -22   2   8    8.09    7.84
  20  -2  -8   31.18   10.79
 -20   2   8   16.93    9.32
  20   2  -8   31.27   10.99
 -20  -2   8   26.36   11.82
 -18   2   8    2.83    4.28
 -18  -2   8    9.48   10.36
  18   2  -8    8.16    5.83
  18   2  -8   19.47    7.28
  18  -2  -8    1.29    3.83
  16   2  -8  110.51   14.22
 -16  -2   8  103.01   19.22
  16   2  -8  109.89   17.59
 -14   2   8  117.02   12.61
  14   2  -8  115.20   16.76
 -14  -2   8  129.77   18.54
 -14   2   8  115.70   16.17
  14  -2  -8   83.10   12.99
  14   2  -8  123.66   12.91
  12  -2  -8   86.71   12.49
 -12   2   8   95.59   14.45
 -12  -2   8  103.83   15.89
 -12   2   8   89.29   11.67
  12   2  -8   88.03   14.25
  12   2  -8   95.81   12.09
  12  -2  -8   88.90    8.42
 -10   2   8   46.80    8.80
 -10   2   8   41.09    9.52
  10  -2  -8   19.91    6.53
  10  -2  -8   46.32    5.80
 -10  -2   8   32.51   10.77
  10   2  -8   56.67    9.83
  10   2  -8   47.82   10.01
  -8   2   8  198.79    8.40
   8   2  -8  190.67   14.10
   8   2  -8  191.75   15.76
  -8  -2   8  173.12   16.71
  -8   2   8  191.43   14.01
   8  -2  -8  160.68   13.18
  -6  -2   8  739.55   26.92
  -6   2   8  731.09   29.73
   6  -2  -8  733.47   25.76
   6   2  -8  732.51   17.19
  -6   2   8  719.38   26.75
   6   2  -8  726.59   26.52
   4  -2  -8  156.23   12.44
  -4  -2   8  144.69   11.75
   4  -2  -8  176.68   12.03
  -4   2   8  158.43   13.64
  -4  -2   8  134.70   12.51
  -4   2   8  151.05    6.17
   4  -2  -8  152.98   11.10
   4   2  -8  141.29   11.54
   4   2  -8  148.29    9.89
   2  -2  -8  562.01   21.44
  -2  -2   8  525.17   16.50
   2   2  -8  533.39   21.22
   2  -2  -8  557.18   22.71
  -2   2   8  539.54   14.86
  -2   2   8  539.22   24.46
   2  -2  -8  557.03   19.08
  -2  -2   8  559.67   24.68
   0   2   8    2.24    2.37
   0  -2  -8    2.77    3.12
   0   2   8    1.31    3.51
   0  -2   8    1.89    3.01
   0   2  -8    2.97    5.09
   0  -2  -8    4.98    2.72
   0   2  -8    1.55    2.80
  -2   2  -8 1174.31   38.21
   2   2   8 1104.89   35.67
   2   2   8 1152.84   30.36
  -2  -2  -8 1083.46   34.68
   2  -2   8 1125.53   35.78
  -2  -2  -8 1137.70   22.37
  -2   2  -8 1108.91   32.69
  -4  -2  -8    2.26    4.79
   4   2   8    4.19    3.83
   4  -2   8    7.08    4.16
  -4  -2  -8    9.32    2.38
  -4   2  -8    6.36    3.81
  -4   2  -8    2.05    6.37
   4   2   8    5.64    3.81
  -6   2  -8   94.58   11.16
   6   2   8   74.82   11.32
   6   2   8   94.21   12.18
  -6  -2  -8   70.61   12.55
   6  -2   8   78.27   12.28
  -6   2  -8   69.36   14.23
   8   2   8   43.27    9.50
   8  -2   8   33.21    7.29
   8  -2   8   38.20    9.50
   8   2   8   35.01    8.57
  -8   2  -8   33.32   12.42
  -8  -2  -8   29.90   10.88
 -10   2  -8  534.47   33.66
  10   2   8  474.74   28.10
  10  -2   8  508.39   23.66
  10   2   8  469.99   26.14
 -10  -2  -8  484.51   30.19
  10  -2   8  466.04   28.32
  12   2   8  154.48   16.35
  12  -2   8  150.28   13.04
 -12  -2  -8  164.60   22.37
  12  -2   8  172.92   18.30
 -12   2  -8  160.22   22.87
 -14   2  -8    2.28    8.19
  14  -2   8    6.54    6.58
 -14  -2  -8   -3.38   11.57
  14   2   8    2.28    3.80
 -14  -2  -8   10.92    7.30
  16  -2   8  120.87   20.24
 -16  -2  -8  165.51   21.11
 -16  -2  -8  161.89   25.89
 -16   2  -8  154.21   24.94
 -18  -2  -8   11.96   15.64
  18  -2   8   14.39    8.85
 -18   2  -8    1.77    7.96
 -18  -2  -8   14.87   10.55
  18   2   8    7.06    6.16
  21   3  -8   41.38   13.33
 -21   3   8   60.67   15.29
  21  -3  -8   52.05   13.21
 -21  -3   8   41.14   15.85
 -19   3   8   51.61   12.68
 -19  -3   8   66.23   18.20
  19   3  -8   65.87   15.78
 -17  -3   8  106.04   20.04
  17   3  -8   78.52   13.28
  17   3  -8  105.65   18.97
 -17   3   8  112.51   17.67
  15   3  -8   41.71   10.13
 -15   3   8   34.58    9.46
 -15   3   8   25.82    8.42
  15   3  -8   32.25   10.11
 -15  -3   8   25.70   12.57
  13   3  -8   76.53   14.90
 -13  -3   8   97.93   16.70
 -13   3   8   97.68   14.47
  13   3  -8  103.58   13.77
 -13   3   8   86.70   14.87
  11  -3  -8    2.04    2.72
 -11   3   8    8.81    5.02
  11   3  -8   20.61    7.08
 -11   3   8   13.46    6.13
  11   3  -8   15.42    6.11
 -11  -3   8   19.15    9.40
  -9   3   8  361.04   22.29
  -9  -3   8  353.32   22.97
  -9   3   8  360.77   23.48
   9   3  -8  388.74   21.57
   9  -3  -8  341.25   20.47
   9   3  -8  364.18   23.70
  -7  -3   8  792.32   29.90
   7  -3  -8  809.61   29.81
   7   3  -8  766.22   29.74
  -7   3   8  793.20   34.08
  -7   3   8  783.97   32.24
   7   3  -8  796.42   21.36
  -5   3   8  105.83   13.93
  -5  -3   8  105.52   11.96
   5   3  -8  112.67   11.57
  -5  -3   8  108.82   14.43
   5   3  -8  132.74   10.34
  -5   3   8  121.97   14.12
   5  -3  -8  111.45   10.82
   3   3  -8    8.64    4.33
  -3  -3   8    4.70    4.04
   3  -3  -8    1.93    2.39
   3  -3  -8   10.01    4.17
   3   3  -8    5.93    3.74
   3  -3  -8    7.92    4.65
  -3  -3   8    4.80    5.55
  -3   3   8   -1.69    2.40
  -1  -3   8  137.89   13.49
  -1  -3   8  133.46    8.49
  -1   3   8  132.56    7.91
   1  -3  -8  129.54   13.21
   1  -3  -8  123.31   12.00
   1  -3  -8  134.45   10.06
  -1   3   8  136.85   14.02
   1   3  -8  124.96   12.84
  -1  -3  -8  113.09   13.66
  -1   3  -8   92.75   13.24
  -1  -3  -8  105.24    8.35
   1  -3   8   92.29   12.59
   1   3   8  102.14    8.77
  -1   3  -8  114.57   13.39
   1   3   8  104.22   13.54
  -3  -3  -8   40.60   10.11
   3  -3   8   52.65   10.37
  -3  -3  -8   51.41    5.43
  -3   3  -8   51.16   11.62
  -3   3  -8   46.29    9.52
   3   3   8   39.71    9.04
   3   3   8   53.33    8.47
   5   3   8  224.55   16.18
  -5  -3  -8  231.73   19.20
   5   3   8  225.50   18.35
   5  -3   8  218.87   17.62
  -5   3  -8  221.51   16.70
  -7   3  -8    5.60    7.25
  -7  -3  -8   -0.74    5.39
   7   3   8   -1.31    2.73
   7   3   8    0.62    4.06
   7  -3   8   -2.61    3.18
   9   3   8  313.51   23.31
  -9  -3  -8  298.40   24.09
   9  -3   8  310.83   20.40
   9  -3   8  329.88   23.37
   9   3   8  324.60   23.23
  11   3   8    4.96    4.38
  11   3   8   16.04    7.83
 -11  -3  -8   16.94   10.99
 -11   3  -8    7.87    8.69
  11  -3   8   13.76    7.00
  11  -3   8   10.17    5.44
  13   3   8   72.09   14.63
 -13  -3  -8   75.60   18.25
  13  -3   8   84.43   16.29
 -13   3  -8   71.03   16.65
  13  -3   8   90.36   13.81
  15   3   8   -1.21    4.85
 -15  -3  -8    0.15    3.88
 -15   3  -8   23.54   10.87
 -15  -3  -8   29.80   15.20
  15  -3   8   12.77    7.68
 -17  -3  -8   25.39   10.97
 -17   3  -8   42.21   14.82
  17  -3   8   33.53   12.36
 -17  -3  -8   25.38   16.84
 -20   4   8   77.92   17.29
 -20  -4   8  106.38   22.48
  20   4  -8   98.54   20.68
 -18  -4   8   29.47   12.98
 -18   4   8   46.57   12.49
  18   4  -8   31.31   12.48
 -16   4   8   76.13   15.96
  16   4  -8   81.45   13.98
 -16   4   8   80.20   15.67
  16   4  -8   54.81   14.21
 -16  -4   8   80.30   18.25
 -14   4   8  139.85   18.93
 -14  -4   8  151.32   20.50
  14   4  -8  141.23   14.93
 -14   4   8  145.72   19.68
  12  -4  -8   56.55   12.18
 -12  -4   8   92.79   16.26
 -12   4   8  100.62   16.33
  12   4  -8   94.63   13.98
 -12   4   8  110.35   16.62
 -10   4   8   85.76   14.67
 -10  -4   8   68.53   13.17
  10  -4  -8   68.21   12.50
 -10   4   8   67.25   13.69
  10   4  -8   70.77   12.36
  -8  -4   8  162.73   16.38
   8   4  -8  161.13   17.34
   8  -4  -8  165.40   15.62
  -8   4   8  158.29   18.24
   8   4  -8  184.34   15.91
  -8   4   8  157.79   16.09
   6   4  -8  477.81   25.48
   6  -4  -8  474.46   24.26
  -6  -4   8  487.37   28.95
  -6   4   8  454.58   27.59
   6   4  -8  484.26   21.85
  -6  -4   8  499.80   23.87
  -6   4   8  515.84   28.79
   4   4  -8   74.20   12.41
   4   4  -8   83.14   11.30
   4  -4  -8   79.12   10.78
  -4  -4   8   77.95   10.67
  -4   4   8   83.90   13.85
  -4   4   8   85.67   14.16
  -4  -4   8   73.77   12.96
   2   4  -8  210.52   17.36
   2  -4  -8  212.99   14.43
   2  -4  -8  188.30   17.21
   2  -4  -8  185.27   15.94
   2   4  -8  216.30   17.52
  -2  -4   8  208.41   18.13
  -2   4   8  211.11   18.28
   0  -4   8   56.99   11.32
   0  -4  -8   58.20    8.49
   0   4  -8   58.59   11.66
   0  -4  -8   54.92   11.05
   0  -4  -8   44.97   10.77
   0   4  -8   55.22   11.75
   0   4   8   38.67    9.72
  -2   4  -8  308.78   21.59
  -2   4  -8  458.60   27.79
  -2  -4  -8  413.50   17.74
  -2  -4  -8  400.49   25.49
   2   4   8  413.62   18.94
   2  -4   8  402.75   24.49
  -4   4  -8  337.55   25.97
   4   4   8  338.21   19.66
  -4   4  -8  332.92   22.73
  -4  -4  -8  347.18   24.68
   4  -4   8  339.00   22.78
  -6   4  -8  229.97   19.46
  -6  -4  -8  242.78   21.40
   6   4   8  230.94   20.81
   6  -4   8  247.91   20.17
   6   4   8  225.65   17.33
   8   4   8   13.97    7.40
  -8   4  -8   -0.67    4.81
  -8  -4  -8   23.94   10.06
   8  -4   8   17.49    7.26
   8  -4   8   16.13    6.66
   8   4   8   12.18    5.83
  10  -4   8   96.26   16.06
  10   4   8   88.15   16.42
 -10  -4  -8   83.17   16.37
  10   4   8   91.95   16.28
  10  -4   8  106.11   15.40
  12   4   8  104.72   17.97
  12  -4   8   71.82   15.33
 -12  -4  -8   72.94   16.52
  12   4   8   87.67   17.16
  12  -4   8   84.12   14.32
 -12   4  -8  110.49   21.92
  14   4   8   -4.59    5.26
  14  -4   8   10.78    5.95
  14  -4   8    7.78    5.81
 -14   4  -8   -3.35    7.39
 -14  -4  -8   14.78   12.48
  16   4   8    2.55    7.27
 -16  -4  -8    6.78    5.91
 -16   4  -8   12.60   10.38
 -16  -4  -8   -8.11   11.84
  16  -4   8    5.19    7.06
 -17  -5   8   40.75   15.37
 -17   5   8   39.55   12.00
 -17   5   8   50.99   14.41
 -15   5   8    3.98    6.02
 -15  -5   8   13.14   10.72
  15  -5  -8   -3.40    3.16
 -15   5   8   11.47    7.85
  15   5  -8    1.41    5.44
 -13   5   8   95.11   18.07
  13  -5  -8   76.75   14.60
  13   5  -8   79.18   14.51
 -13   5   8   75.40   14.79
 -13  -5   8   76.28   16.34
 -11   5   8  145.61   19.59
  11  -5  -8  139.10   18.32
 -11  -5   8  147.96   18.76
  11   5  -8  155.86   18.39
 -11   5   8  153.51   21.20
  -9   5   8   83.05   15.48
   9   5  -8   87.33   14.99
  -9  -5   8   85.31   13.78
  -9   5   8   92.31   16.92
   9  -5  -8   76.75   13.62
   7   5  -8   -0.27    3.28
  -7  -5   8    0.91    6.28
  -7   5   8    4.66    4.76
   7  -5  -8    1.96    4.03
  -7   5   8    6.97    5.19
  -7  -5   8   -4.08    3.20
   5   5  -8  147.40   14.62
  -5   5   8  148.29   19.01
  -5   5   8  112.50   17.49
  -5  -5   8  145.59   18.49
   5  -5  -8  132.30   14.00
   3  -5  -8   52.47   10.18
  -3  -5   8   50.74   11.31
   3   5  -8   57.19   11.39
  -3   5   8   51.59   12.46
  -3   5   8   67.59   13.75
   1  -5  -8  100.28   11.93
  -1  -5   8   81.86   14.19
   1  -5  -8   89.85   14.76
   1   5  -8   97.91   15.38
   1  -5  -8   87.57   15.64
  -1   5  -8    0.25    4.57
   1   5   8   -2.97    3.49
  -1  -5  -8   -2.05    2.67
  -1  -5  -8    0.81    5.72
  -1  -5  -8    2.56    3.70
  -1   5  -8    9.40    6.61
   1  -5   8    6.33    4.54
   3  -5   8  112.41   15.69
  -3  -5  -8  131.79   18.58
  -3   5  -8  128.84   19.49
  -5  -5  -8  135.53   19.54
   7   5   8   23.27    6.97
  -7   5  -8    0.51    4.48
   7  -5   8   15.09    6.72
   7   5   8    4.39    4.41
  -7  -5  -8   13.01    8.46
  -9  -5  -8   54.23   14.57
   9   5   8   27.05    8.61
   9  -5   8   52.85   12.41
  11  -5   8    5.45    6.72
  11   5   8    8.41    8.43
 -11   5  -8   -1.07    5.69
  11  -5   8   12.03    7.00
  11   5   8    4.53    5.06
 -11  -5  -8   -4.17    7.95
 -13  -5  -8   17.23   12.57
  13  -5   8    7.14    7.34
  13   5   8   10.20    7.72
  13  -5   8    3.51    6.29
 -13   5  -8    1.86    7.16
  13   5   8   16.00    9.85
  14  -6  -8   37.82   11.88
 -14   6   8   45.06   14.36
  14   6  -8    6.87    7.47
 -14  -6   8   30.27   12.96
  12  -6  -8    9.43    6.89
 -12  -6   8    8.10    9.43
 -12   6   8   23.00   10.41
 -12   6   8    7.79    7.72
  12   6  -8    8.66    5.81
 -10   6   8  136.19   22.17
 -10  -6   8   99.05   18.81
 -10   6   8   92.98   17.02
  10   6  -8  119.90   18.51
  10  -6  -8  111.35   17.61
  -8   6   8   20.43    8.70
  -8   6   8   12.48    7.33
  -8  -6   8   22.40    9.14
   8   6  -8   20.89    7.78
   8  -6  -8   18.88    7.84
  -6   6   8   29.07   11.01
   6  -6  -8   20.89    8.37
  -6  -6   8   17.37    7.64
  -6   6   8   14.77    7.45
   6   6  -8    0.54    3.90
  -4   6   8   52.75   12.99
  -4   6   8   60.40   15.10
  -4  -6   8   56.63   12.85
   4  -6  -8   57.72   11.86
   2   6  -8  160.65   20.40
   2  -6  -8  138.08   18.74
  -2   6   8  116.76   18.33
   2  -6  -8  150.83   15.12
  -2  -6   8  150.88   19.37
   2  -6  -8  171.86   21.67
   0  -6  -8  116.33   19.36
   0  -6   8  118.12   17.05
   0   6  -8  120.85   19.63
  -2   6  -8   63.87   15.29
  -2  -6  -8   40.35   11.49
   2  -6   8   42.93   10.54
  -2  -6  -8   55.22   14.45
  -4  -6  -8   49.01   13.79
  -4   6  -8   55.66   15.71
   4  -6   8   70.81   14.18
   6  -6   8    9.21    6.02
  -6   6  -8    3.32    6.35
   6   6   8    9.36    5.70
  -6  -6  -8    4.00    8.20
  -8  -6  -8   22.69   10.66
   8   6   8    0.14    5.80
   8  -6   8    2.06    5.11
   8  -6   8   19.04    8.25
  -8   6  -8   -1.99    6.17
 -10   6  -8    1.57    7.82
  10   6   8   -9.28    5.70
 -10  -6  -8   -4.52    7.84
  10  -6   8   -1.77    4.80
   9   7  -8  137.57   21.32
  -9  -7   8  127.91   21.37
   9  -7  -8  138.18   19.90
  -9   7   8  151.05   25.36
  -7   7   8    2.81    6.57
   7  -7  -8   13.71    7.52
  -7   7   8   -7.32    6.68
  -7  -7   8    8.51    6.63
   7   7  -8    8.01    7.64
  -5  -7   8  124.48   19.86
  -5   7   8  132.86   23.02
  -5   7   8  130.38   20.81
   5  -7  -8  128.22   17.94
   5   7  -8  117.78   20.65
   3  -7  -8  140.84   17.97
  -3   7   8  171.13   23.31
  -3  -7   8  142.87   20.20
  -1   7   8    6.14    6.99
  -1  -7   8    4.30    4.65
   1  -7  -8   12.32    7.51
   1  -7  -8   -0.78    3.91
   1   7  -8   -3.21    5.41
   1   7  -8    8.84    6.58
  -1   7  -8  162.14   25.25
  -1  -7  -8  115.53   19.53
   1  -7   8  131.73   20.26
  -1  -7  -8  120.64   21.58
   1  -7   8  150.44   19.60
   1   7   8  125.88   21.26
  -3  -7  -8   29.05   11.77
   3  -7   8   23.73    9.74
   3   7   8   18.76   10.68
  -3   7  -8   21.68   11.20
  -3  -7  -8   16.47    9.11
  -5   7  -8   56.68   17.87
  -5  -7  -8   48.04   15.41
   7   7   8   -9.31    6.41
  -7  -7  -8    1.45    8.38
   7  -7   8    5.11    5.94
  -7   7  -8   -1.52    8.34
  22   0  -9  102.67   16.96
  22   0  -9  119.78   19.74
  20   0  -9  330.07   25.86
  20   0  -9  293.71   22.65
  18   0  -9   31.62    9.17
  18   0  -9   45.55   10.60
  16   0  -9   55.71   11.11
  16   0  -9   41.96   10.50
  14   0  -9  143.09   14.28
  14   0  -9  162.04   14.51
 -14   0   9  131.71   17.86
  12   0  -9   35.01    8.10
  12   0  -9   37.37    8.84
 -12   0   9   36.85   10.52
 -10   0   9   43.96   10.77
  10   0  -9   31.96    4.14
  10   0  -9   35.02    8.02
  10   0  -9   43.93    8.43
   8   0  -9   38.37    4.73
   8   0  -9   42.55    7.63
   8   0  -9   44.31    7.99
  -8   0   9   36.48    8.47
   6   0  -9  649.94   17.88
  -6   0   9  633.67   22.60
   6   0  -9  608.03   22.37
  -6   0   9  638.32   24.78
  -4   0   9  131.92   11.16
   4   0  -9  133.56   10.16
  -4   0   9  135.80   10.25
   4   0  -9  130.02    9.64
  -2   0   9  842.78   25.94
   2   0  -9  849.96   23.74
  -2   0   9  846.53   26.16
   2   0  -9  862.67   25.40
   0   0   9  263.01   15.17
   0   0  -9  264.65   12.70
   0   0   9  255.47   13.80
   0   0  -9  263.54   16.67
   2   0   9  123.94   11.17
   2   0   9  134.56   10.20
  -2   0  -9  147.51    9.22
  -2   0  -9  133.80   14.27
   4   0   9  952.95   26.71
   4   0   9  973.02   32.70
  -4   0  -9  985.31   36.20
  -4   0  -9  994.34   23.25
  -6   0  -9  890.32   21.90
   6   0   9  922.48   34.38
  -6   0  -9  892.60   38.23
   6   0   9  924.50   26.97
   8   0   9  191.50   10.07
  -8   0  -9  196.84   22.92
   8   0   9  195.60   13.34
 -10   0  -9  258.19   17.39
 -10   0  -9  275.31   27.31
 -12   0  -9    7.62   12.62
 -12   0  -9    7.11    6.19
  12   0   9   -0.31    3.94
 -14   0  -9    3.13   10.85
 -14   0  -9   16.54    7.89
  14   0   9   27.19    9.84
  16   0   9    3.61    5.98
 -16   0  -9    9.17   12.27
 -18   0  -9   31.28   15.44
  18   0   9    9.93    7.02
 -23   1   9   14.75    7.50
  23  -1  -9   17.12    8.98
 -23  -1   9   -0.46    5.98
  23   1  -9    6.14    6.92
 -21   1   9    6.55    5.20
 -21  -1   9    5.18    5.60
  21  -1  -9   11.04    6.73
  21   1  -9   28.55    9.88
  21   1  -9   21.27    8.27
  19   1  -9  204.56   20.64
  19   1  -9  207.18   18.16
  19  -1  -9  215.13   19.33
  17  -1  -9   93.94   13.61
 -17  -1   9  102.99   18.58
  17   1  -9   75.82   12.98
  17   1  -9   84.41   14.81
  15  -1  -9  252.13   17.67
  15   1  -9  238.45   18.21
 -15  -1   9  280.05   24.28
  15   1  -9  239.85   19.91
  13   1  -9  347.79   22.42
  13  -1  -9  354.97   19.15
 -13   1   9  363.11   17.44
  13   1  -9  341.41   20.49
 -13  -1   9  348.08   25.65
  13  -1  -9  350.29   21.50
 -13   1   9  361.14   24.38
 -11   1   9  214.35   12.91
 -11  -1   9  212.19   19.43
  11   1  -9  203.27   16.38
 -11   1   9  219.42   18.28
  11  -1  -9  217.66   13.62
  11   1  -9  203.61   15.09
  11  -1  -9  192.96   15.31
   9  -1  -9  136.98    9.89
  -9  -1   9  126.05   14.72
  -9   1   9  134.91   13.77
   9   1  -9  151.96   12.57
  -9   1   9  133.51    9.91
   9   1  -9  140.46   12.82
   7  -1  -9   47.54    8.04
  -7   1   9   42.33    8.97
  -7   1   9   55.26    6.63
   7  -1  -9   60.67    6.91
  -7  -1   9   53.10    9.48
   7   1  -9   50.96    8.49
   7  -1  -9   53.59    7.18
   5  -1  -9   58.11    7.98
   5   1  -9   66.45    7.44
  -5  -1   9   61.94    8.65
  -5   1   9   62.39    6.13
  -5   1   9   49.95    9.10
  -5  -1   9   54.88    8.81
   5  -1  -9   62.94    7.65
   3  -1  -9  349.73   16.64
  -3   1   9  348.04   14.57
  -3   1   9  345.54   18.93
   3   1  -9  341.71   16.62
   3   1  -9  341.09   17.00
  -3  -1   9  341.08   17.88
  -3  -1   9  345.18   15.51
   3  -1  -9  352.35   15.37
   1  -1  -9  878.24   22.79
   1   1  -9  870.84   28.60
   1   1  -9  876.42   26.16
  -1  -1   9  874.94   23.24
   1  -1  -9  886.93   28.08
  -1   1   9  884.68   29.70
  -1   1   9  880.56   24.84
  -1  -1   9  871.40   29.22
  -1  -1  -9  363.37   13.11
  -1   1  -9  362.75   21.24
   1  -1   9  354.36   13.58
   1   1   9  360.53   16.71
  -1   1  -9  363.18   16.51
   1   1   9  344.63   18.45
  -3   1  -9  631.79   29.50
   3   1   9  625.90   24.41
  -3  -1  -9  638.16   16.24
   3   1   9  609.72   24.46
   3  -1   9  615.94   17.03
  -3  -1  -9  636.58   28.29
  -3   1  -9  597.92   21.39
  -5  -1  -9  127.00   15.20
  -5  -1  -9  135.14    6.64
   5   1   9  147.98   12.61
  -5   1  -9  177.17   19.33
   5  -1   9  177.37   14.89
   5   1   9  161.47   13.62
   5  -1   9  142.74    8.78
  -5   1  -9  140.91   10.60
   7   1   9  791.60   33.32
   7   1   9  743.82   28.18
  -7   1  -9  769.49   37.02
  -7  -1  -9  783.15   36.24
   7  -1   9  789.90   34.18
  -7   1  -9  758.99   24.80
   9   1   9  303.30   19.24
   9  -1   9  305.45   15.79
   9   1   9  296.04   21.60
  -9  -1  -9  261.92   24.97
  -9   1  -9  284.29   26.49
  -9   1  -9  317.49   16.37
   9  -1   9  328.62   23.29
  11   1   9   87.65   12.55
 -11  -1  -9  105.42   20.10
  11  -1   9   95.88   16.26
 -11   1  -9  107.03   20.22
 -13  -1  -9  160.28   24.48
 -13  -1  -9  169.48   16.92
  13  -1   9  156.98   21.26
 -13   1  -9  190.46   25.39
 -15  -1  -9   10.50   14.43
 -15  -1  -9   33.99   10.82
  15   1   9    1.98    4.23
 -15   1  -9   23.50   13.85
  15  -1   9   19.33    9.20
  17  -1   9   46.31   13.76
 -17  -1  -9   55.85   18.27
 -17   1  -9   68.53   18.67
 -17  -1  -9   33.67   11.22
  19   1   9   -1.59    6.66
  19  -1   9    6.69    7.23
 -19  -1  -9   18.70   15.25
 -19   1  -9    6.32    9.99
  22  -2  -9   76.08   15.91
 -22  -2   9   89.24   21.17
  22   2  -9   97.65   19.26
 -22   2   9   81.07   16.68
  20   2  -9   90.45   14.27
  20   2  -9   76.69   16.74
 -20  -2   9  130.78   22.62
  20  -2  -9   97.31   17.01
  18   2  -9   42.80   11.23
 -18  -2   9   37.83   13.37
  18   2  -9   32.09    8.98
  16   2  -9   70.51   14.46
 -16  -2   9   74.13   17.12
  16   2  -9   84.35   13.22
  14   2  -9  156.41   14.81
 -14   2   9  158.73   14.13
 -14  -2   9  124.41   18.64
  14   2  -9  164.31   16.99
  12   2  -9  370.84   24.29
 -12  -2   9  367.16   26.06
 -12   2   9  357.24   24.46
 -12   2   9  349.36   20.17
  12  -2  -9  351.41   22.13
  12   2  -9  372.04   21.36
 -10  -2   9  101.35   15.02
  10   2  -9  119.98   13.05
  10   2  -9  111.42   12.96
 -10   2   9  120.41   11.73
   8   2  -9  569.54   27.44
  -8  -2   9  569.26   26.62
  -8   2   9  552.26   23.87
   8  -2  -9  569.34   24.62
  -8   2   9  551.10   27.47
  -8   2   9  578.07   15.13
   8   2  -9  504.36   23.52
   6   2  -9  147.79    8.50
   6  -2  -9  153.44   12.33
  -6   2   9  162.23    7.32
  -6   2   9  150.36   14.04
   6   2  -9  139.77   12.32
  -6  -2   9  147.71   13.96
  -4  -2   9   34.44    6.81
  -4   2   9   32.29    8.36
   4  -2  -9   30.37    7.36
   4   2  -9   39.29    6.50
   4  -2  -9   47.91    8.10
   4  -2  -9   37.41    7.22
  -4   2   9   40.99    4.07
   4   2  -9   28.20    6.66
   2   2  -9  413.34   19.81
  -2  -2   9  390.17   21.48
   2   2  -9  429.94   20.34
  -2   2   9  442.06   14.69
  -2   2   9  443.89   23.10
   2  -2  -9  444.42   21.13
   2  -2  -9  418.94   17.15
  -2  -2   9  404.02   14.95
   0   2   9   92.67   12.32
   0   2   9   96.46    8.16
   0   2  -9   93.41    9.77
   0  -2  -9   99.72    7.94
   0   2  -9  105.00   12.93
   0  -2   9   99.02    6.50
   0  -2   9   93.15   12.04
   2  -2   9  398.03   22.29
   2   2   9  414.30   18.82
  -2  -2  -9  406.49   22.51
  -2   2  -9  428.50   20.55
  -2  -2  -9  426.68   13.98
   2   2   9  407.04   22.24
  -2   2  -9  422.06   24.25
   4   2   9   49.08    8.93
   4   2   9   46.94    9.66
  -4  -2  -9   51.26   10.71
  -4  -2  -9   48.03    4.33
   4  -2   9   49.56    9.99
  -4   2  -9   41.68   12.01
  -4   2  -9   57.53    9.41
  -6   2  -9   -0.59    8.52
   6   2   9    4.47    4.14
  -6  -2  -9   -2.24    6.08
   6   2   9    7.95    5.56
  -6   2  -9    4.29    3.19
   6  -2   9    2.07    3.78
  -8  -2  -9  155.40   18.99
  -8   2  -9  202.84   21.93
   8  -2   9  174.83   16.80
   8   2   9  179.10   16.52
   8   2   9  180.65   16.19
 -10  -2  -9  173.20   21.81
 -10   2  -9  195.09   24.09
  10  -2   9  197.73   19.11
  10  -2   9  178.24   14.39
  10   2   9  175.88   16.87
  10   2   9  185.09   17.95
 -12   2  -9    3.85    9.15
  12   2   9    0.66    3.80
 -12  -2  -9    5.17   11.50
  12  -2   9   -3.87    3.81
  12   2   9    0.02    4.74
  12  -2   9    3.60    3.72
 -14  -2  -9   34.27   16.31
 -14  -2  -9   53.03   12.18
 -14   2  -9   38.88   13.82
  14  -2   9   43.46   11.96
 -16  -2  -9   17.60   15.77
  16  -2   9   13.88    7.94
 -16  -2  -9   12.88    9.99
  16   2   9    5.16    5.97
 -16   2  -9   37.00   13.67
 -18  -2  -9   55.84   21.50
 -18  -2  -9   55.12   15.23
  18  -2   9   51.84   15.41
 -18   2  -9   73.38   19.41
  21   3  -9   12.09    8.53
 -21   3   9   -1.11    7.36
 -21  -3   9   13.24   10.59
  21  -3  -9    9.49    5.76
 -19   3   9  127.27   19.95
  19   3  -9  127.43   21.56
 -19  -3   9  120.73   22.57
 -17  -3   9    7.42    9.55
 -17   3   9    7.27    5.73
  17  -3  -9    1.28    3.54
  17   3  -9    8.67    5.12
  17   3  -9    4.19    4.72
  15   3  -9   12.82    6.38
 -15   3   9   15.49    6.69
 -15   3   9    3.03    4.23
  15   3  -9    6.88    4.87
 -15  -3   9   13.15   10.51
  15  -3  -9    1.02    3.32
  13   3  -9  329.31   21.58
  13   3  -9  343.65   25.79
 -13   3   9  307.10   21.66
 -13  -3   9  307.78   25.23
  11   3  -9   81.60   14.44
  11  -3  -9   46.21   10.60
  11   3  -9   68.78   11.84
 -11   3   9   51.89   11.58
 -11  -3   9   82.82   14.66
 -11   3   9   76.40   12.31
  -9  -3   9  109.96   14.93
  -9   3   9   98.63   13.39
   9   3  -9   84.49   14.36
   9   3  -9   87.61   12.64
   9  -3  -9   84.21   12.27
  -9   3   9   70.52   12.90
  -7  -3   9  380.68   22.14
  -7   3   9  419.51   23.59
  -7  -3   9  387.04   24.63
   7   3  -9  436.43   15.95
   7   3  -9  411.36   22.32
  -7   3   9  422.66   25.33
   7  -3  -9  387.09   21.04
   5  -3  -9  361.24   19.12
  -5  -3   9  364.03   19.53
  -5  -3   9  353.60   22.99
   5   3  -9  342.65   16.91
  -5   3   9  381.80   22.38
   5   3  -9  335.14   20.13
   3   3  -9  446.66   22.91
  -3   3   9  474.11   26.39
   3   3  -9  485.58   22.02
  -3  -3   9  484.26   25.60
   3  -3  -9  399.63   22.69
  -3  -3   9  466.08   18.47
   3  -3  -9  466.37   20.27
   3  -3  -9  442.25   22.22
   1  -3  -9  584.12   21.36
  -1  -3   9  568.52   27.98
  -1   3   9  592.88   17.59
   1   3  -9  596.60   27.19
   1  -3  -9  572.41   27.60
  -1   3   9  618.30   30.27
  -1  -3   9  583.52   15.81
   1  -3  -9  603.18   26.15
  -1   3  -9  122.30   12.66
  -1  -3  -9  131.42   14.12
  -1   3  -9  137.95   16.05
  -1  -3  -9  137.34    9.68
   1  -3   9  143.71   14.12
   1   3   9  128.88    9.99
   1   3   9  123.95   15.07
   3  -3   9   64.37   11.82
  -3   3  -9   51.03   12.10
  -3   3  -9   50.32   10.16
   3   3   9   48.70   10.90
  -3  -3  -9   54.39   11.69
   3   3   9   60.58    9.13
  -3  -3  -9   59.87    5.97
  -5   3  -9    5.60    4.28
   5   3   9    4.02    5.10
   5  -3   9    2.41    3.85
  -5  -3  -9    0.12    5.99
   5   3   9    4.09    3.70
  -5   3  -9   -1.17    5.30
  -7  -3  -9  101.53   16.27
  -7   3  -9  127.93   15.40
  -7   3  -9  106.29   17.94
   7  -3   9  120.96   16.23
   7   3   9  119.74   12.98
   7   3   9  123.37   16.23
  -9   3  -9   -0.40    4.15
   9   3   9   17.28    8.16
   9  -3   9    7.34    5.58
   9  -3   9    2.40    3.88
  -9  -3  -9   -0.57    8.11
   9   3   9    8.17    4.97
  11   3   9  185.30   19.08
 -11   3  -9  175.66   24.36
  11  -3   9  236.38   21.58
  11   3   9  225.82   20.90
  11  -3   9  238.78   18.79
 -11  -3  -9  263.21   25.28
  13  -3   9    0.46    4.72
 -13   3  -9    2.47    7.67
  13   3   9    0.13    3.59
 -13  -3  -9    3.45   11.56
  13   3   9   -0.54    5.87
  13  -3   9    0.49    4.22
  15  -3   9   46.91   12.75
 -15  -3  -9   33.74   16.99
 -15   3  -9   47.89   15.17
 -17  -3  -9   37.78   13.24
 -17   3  -9   58.07   17.03
  17  -3   9   50.07   14.21
 -17  -3  -9   14.57   17.10
 -20  -4   9   82.42   19.85
 -20   4   9   67.23   15.83
  20   4  -9   60.82   15.66
  18  -4  -9    3.17    4.84
 -18  -4   9   18.76   12.79
 -18   4   9   22.21    8.90
  18   4  -9   16.09    8.69
  16   4  -9   38.43    9.59
 -16   4   9   48.09   12.03
 -16  -4   9   52.45   15.02
 -16   4   9   33.13   10.54
  16   4  -9   40.20   12.88
 -14  -4   9    8.27    9.22
  14   4  -9    8.91    6.09
 -14   4   9   19.28    7.75
  14   4  -9   15.49    7.98
 -14   4   9   13.87    7.33
  14  -4  -9   -0.22    3.80
  12   4  -9   90.29   14.33
 -12   4   9  112.85   16.88
 -12  -4   9   92.75   16.13
 -12   4   9   89.15   15.73
  12  -4  -9   77.21   13.79
  10   4  -9  236.48   18.69
 -10   4   9  226.44   20.66
  10  -4  -9  240.49   19.16
 -10  -4   9  213.42   19.84
 -10   4   9  237.56   20.28
   8   4  -9  441.21   25.19
  -8   4   9  388.20   26.80
  -8   4   9  404.22   26.43
   8  -4  -9  437.61   24.61
  -8  -4   9  445.28   28.76
  -8  -4   9  459.03   25.15
  -6  -4   9  407.08   22.34
   6   4  -9  404.38   24.09
   6   4  -9  431.94   20.96
  -6   4   9  393.32   25.67
  -6  -4   9  397.45   26.62
  -6   4   9  413.66   26.83
   6  -4  -9  413.85   22.69
   4  -4  -9  171.63   14.01
  -4  -4   9  178.13   14.82
   4   4  -9  163.69   15.84
  -4   4   9  179.53   17.96
   4   4  -9  174.95   14.80
  -4  -4   9  186.48   17.68
   2  -4  -9    2.71    4.16
   2   4  -9    6.98    4.82
  -2   4   9    9.32    5.10
   2  -4  -9    6.64    5.42
   2  -4  -9    2.02    3.24
   2   4  -9    3.03    3.79
  -2  -4   9    2.78    3.87
   0   4  -9   62.74   12.12
   0  -4  -9   59.15   12.34
   0  -4  -9   54.27    8.28
   0  -4   9   42.83   10.02
   0  -4  -9   65.55   12.21
  -2   4  -9  278.28   20.80
  -2   4  -9  307.22   23.90
   2  -4   9  270.96   20.61
   2   4   9  289.31   16.44
  -2  -4  -9  296.17   23.18
  -2  -4  -9  297.14   14.85
   4   4   9  132.57   12.94
   4  -4   9  137.53   15.21
  -4   4  -9  150.16   20.25
  -4   4  -9  144.99   15.31
   4   4   9  123.68   17.15
  -4  -4  -9  169.19   17.97
   6  -4   9  150.76   18.36
   6   4   9  172.94   20.28
   6   4   9  160.08   14.95
  -6   4  -9  155.30   18.83
  -6  -4  -9  164.10   20.30
   8   4   9  100.17   16.73
   8  -4   9  110.85   15.80
  -8  -4  -9  113.16   18.42
   8   4   9  115.32   16.22
   8  -4   9  109.45   16.36
 -10  -4  -9   49.40   14.52
  10   4   9   42.77   12.17
  10   4   9   36.32    9.79
  10  -4   9   27.01    9.18
  10  -4   9   50.94   11.47
 -12  -4  -9   31.97   12.85
  12   4   9   34.24   11.85
  12  -4   9   40.46   10.71
  12   4   9   38.34   11.20
  12  -4   9   50.23   13.47
 -14   4  -9   52.15   15.51
 -14  -4  -9   21.84   14.50
  14   4   9   29.49   11.05
  14  -4   9   30.41    9.95
  14  -4   9   27.94   10.47
  16  -4   9   25.99    9.89
 -16  -4  -9   16.08   16.02
  16   4   9   21.39   10.13
 -16   4  -9   22.74   12.63
 -16  -4  -9    4.57    6.03
 -17   5   9   36.23   12.17
 -17  -5   9   29.75   13.50
 -17   5   9   29.42   11.43
 -15   5   9  190.47   23.43
 -15   5   9  214.58   26.22
 -15  -5   9  204.65   24.39
  15   5  -9  190.54   18.85
 -13  -5   9  236.60   23.18
  13  -5  -9  232.32   21.61
 -13   5   9  199.69   21.35
 -13   5   9  262.71   23.77
  13   5  -9  229.88   20.31
 -11   5   9  119.72   18.79
  11   5  -9  108.36   16.47
  11  -5  -9   78.06   14.25
 -11  -5   9   89.15   15.78
 -11   5   9  115.38   18.44
  -9   5   9  143.66   20.00
  -9   5   9  113.82   17.87
   9   5  -9  103.39   15.98
  -9  -5   9  109.73   18.57
  -9  -5   9  144.21   17.19
   9  -5  -9  114.31   15.80
  -7   5   9   11.13    6.05
  -7  -5   9   17.69    7.75
   7  -5  -9   15.79    7.58
   7   5  -9    0.39    4.09
  -7   5   9   15.12    7.52
   5  -5  -9   93.33   13.38
  -5   5   9  108.79   17.37
  -5  -5   9   89.16   15.83
   3   5  -9   22.00    7.43
   3   5  -9   -1.27    3.39
  -3   5   9   -2.20    4.36
   3  -5  -9    5.97    3.16
   3  -5  -9   15.86    6.34
   3  -5  -9   -2.42    2.58
  -3  -5   9   13.90    6.66
  -1  -5   9  322.16   23.96
   1  -5   9  270.41   22.05
  -1  -5  -9  250.95   20.86
  -1   5  -9  247.80   21.49
  -1   5  -9  271.46   23.55
  -1  -5  -9  246.70   22.39
  -3   5  -9  134.00   20.58
  -3  -5  -9  102.37   17.80
   3  -5   9   96.73   15.59
  -5   5  -9   11.81    6.29
  -5   5  -9   23.05    8.89
  -5  -5  -9   33.08   10.97
   5   5   9   -2.83    3.65
   5  -5   9   30.67    9.78
  -7  -5  -9  113.56   19.38
   7  -5   9  112.66   17.18
  -9   5  -9    1.08    5.38
   9   5   9   20.33   10.77
  -9  -5  -9   29.03   11.73
   9   5   9   23.96    7.64
   9  -5   9   29.13    9.92
  11   5   9   28.88    9.76
  11  -5   9   37.03   11.67
  11   5   9   32.12   12.01
 -11   5  -9    9.94    7.48
 -11  -5  -9   14.82   11.34
  11  -5   9   33.67   10.67
  13  -5   9   31.27   11.33
 -13   5  -9    6.62    8.67
 -13  -5  -9   45.46   16.03
  13   5   9   31.62   12.67
  13   5   9   44.97   13.60
  13  -5   9   25.20    9.86
 -14   6   9    0.20    6.84
  14  -6  -9   -0.08    5.15
 -14  -6   9   -0.41    9.75
 -14   6   9    8.92    7.57
  14   6  -9   -3.77    6.92
  12  -6  -9    6.33    6.44
 -12   6   9   23.00    9.39
 -12  -6   9   17.74    8.75
  12   6  -9   18.33    8.45
 -12   6   9   30.78   10.89
 -10   6   9    4.33    5.89
 -10   6   9    3.16    6.64
  10   6  -9    4.03    5.92
  10  -6  -9    1.69    4.85
 -10  -6   9    3.51    4.83
  -8  -6   9   94.18   18.14
  -8   6   9   85.57   17.97
   8  -6  -9   78.10   14.94
  -8   6   9   88.10   17.46
   8   6  -9   95.18   17.46
   6  -6  -9    4.43    4.64
  -6  -6   9    7.03    5.35
   6   6  -9    0.33    4.04
  -6   6   9    5.89    6.07
  -6   6   9    3.53    7.08
  -4  -6   9  105.29   18.24
   4  -6  -9  100.44   14.25
  -4   6   9  104.20   18.35
   2  -6  -9   75.71   12.40
  -2  -6   9   65.54   14.30
   2  -6  -9   64.05   13.66
   2   6  -9   70.73   15.47
   2  -6  -9   46.39   12.83
   0   6  -9  125.36   20.30
   0  -6  -9   99.18   17.28
   0  -6  -9   96.30   17.92
   0  -6   9  103.56   16.85
  -2   6  -9    8.10    7.78
  -2   6  -9   27.36   11.23
   2   6   9    0.77    5.24
  -2  -6  -9   12.68    7.87
   2  -6   9   20.36    7.84
  -2  -6  -9   17.01    9.20
   4  -6   9   59.56   13.50
  -4  -6  -9   48.40   14.15
  -4   6  -9   86.64   19.74
  -6  -6  -9  116.03   20.87
   6  -6   9  125.19   18.81
   8  -6   9    8.87    6.97
  -8  -6  -9   11.57    9.90
  -8   6  -9   -7.48    6.62
   8   6   9   -2.47    6.44
   8  -6   9    0.19    4.50
 -10  -6  -9   25.00   12.00
  10   6   9  -11.67    6.33
 -10   6  -9   -5.70    7.04
  10  -6   9    2.10    5.66
  -9  -7   9   15.12    7.80
   9  -7  -9   17.36    7.70
   9   7  -9   25.86   10.91
  -9   7   9   15.51    8.71
  -9   7   9   17.29    9.43
  -7  -7   9  109.65   19.38
   7   7  -9  118.74   20.86
   7  -7  -9  125.88   18.61
  -7   7   9  135.77   23.64
  -7   7   9  114.76   21.34
   5  -7  -9  148.52   18.70
  -5   7   9  155.54   22.78
  -5  -7   9  152.32   21.88
   3  -7  -9   13.15    7.39
   3  -7  -9   18.64    8.61
  -3   7   9    5.53    7.87
   3  -7  -9   18.62    7.97
  -3  -7   9   20.25    8.68
   1   7  -9  106.13   20.24
   1  -7  -9  101.94   19.96
  -1  -7   9   85.90   16.67
   1  -7  -9   81.39   17.15
  -1   7   9  101.01   18.94
  -1  -7  -9    8.72    9.50
  -1   7  -9   -1.92    7.94
  -1  -7  -9   -0.68    5.51
   1  -7   9   14.88    6.51
   1   7   9    5.84    7.21
  -3  -7  -9   69.57   17.67
   3  -7   9   67.43   16.57
  -3   7  -9   64.89   17.58
   5   7   9   -0.79    7.04
  -5  -7  -9   15.72   10.76
  -5   7  -9   16.13   11.30
   5  -7   9   -0.62    5.23
  22   0 -10   91.04   16.47
  20   0 -10   67.17   13.74
  20   0 -10   54.43   12.86
  18   0 -10   79.83   13.90
  18   0 -10   78.57   13.98
  16   0 -10   22.04    7.47
  16   0 -10   53.31   10.80
  14   0 -10  173.98   15.21
 -14   0  10  163.69   19.35
  14   0 -10  186.97   16.52
  12   0 -10  236.76   16.71
  12   0 -10  219.35   16.92
 -12   0  10  233.86   20.06
 -10   0  10  168.00   15.76
  10   0 -10  191.81   14.90
  10   0 -10  165.53    8.48
  10   0 -10  165.47   13.22
  -8   0  10   -0.24    4.18
   8   0 -10   -1.09    1.56
   8   0 -10    2.92    3.06
  -8   0  10    0.28    2.75
  -6   0  10  429.02   21.25
   6   0 -10  413.64   19.18
  -6   0  10  457.79   19.49
   6   0 -10  426.49   16.00
  -4   0  10  139.72   10.85
  -4   0  10  164.53   13.03
   4   0 -10  164.11   11.97
   4   0 -10  168.21   11.76
   2   0 -10  385.63   16.64
   2   0 -10  383.52   18.57
  -2   0  10  399.68   18.62
  -2   0  10  403.60   19.01
   0   0  10  207.48   14.14
   0   0 -10  218.92   12.11
   0   0  10  208.23   13.37
   0   0 -10  211.65   16.10
  -2   0 -10   55.91    6.96
   2   0  10   62.86    9.95
  -2   0 -10   54.00   11.80
   2   0  10   46.28    7.43
   4   0  10  239.69   13.90
  -4   0 -10  223.33   11.50
  -4   0 -10  208.54   19.78
   4   0  10  231.92   16.51
  -6   0 -10  418.82   28.97
   6   0  10  455.65   24.90
   6   0  10  436.53   19.04
  -6   0 -10  459.31   16.18
   8   0  10   78.41   13.53
   8   0  10   73.87    9.73
  -8   0 -10   79.45   17.73
 -10   0 -10  158.01   23.14
 -12   0 -10   99.04   20.85
 -12   0 -10  135.40   13.94
  14   0  10   20.08    9.13
 -14   0 -10   -1.42   11.88
 -16   0 -10  122.56   24.77
  16   0  10  120.46   22.06
  18   0  10  110.92   22.11
 -18   0 -10  129.64   24.93
 -23   1  10    8.59    6.67
 -23  -1  10   10.94    7.00
  23  -1 -10   19.29    9.45
  23   1 -10   27.00   10.00
  21  -1 -10  164.45   20.87
  21   1 -10  177.83   23.29
  21   1 -10  147.91   18.87
  19   1 -10   83.65   15.88
 -19  -1  10  102.83   19.54
  19   1 -10   82.64   14.14
 -17   1  10    1.82    3.62
  17   1 -10   11.38    6.45
  17  -1 -10    0.25    3.17
  17   1 -10   23.41    7.94
 -17  -1  10   21.45   10.14
 -15   1  10    1.95    4.18
  15  -1 -10   -1.45    3.90
 -15  -1  10    8.07    8.61
  15   1 -10   17.35    6.76
  15   1 -10   16.78    6.65
  15  -1 -10   10.84    5.71
  13  -1 -10   92.61   13.21
  13   1 -10   90.90   12.71
  13  -1 -10  102.42   10.75
  13   1 -10   92.68   13.93
 -13   1  10   92.28   15.48
 -13  -1  10   88.40   15.73
 -11  -1  10  723.56   33.26
  11   1 -10  745.21   29.19
  11  -1 -10  724.79   24.98
  11   1 -10  744.73   31.10
 -11   1  10  761.64   24.36
  11  -1 -10  723.65   29.72
 -11   1  10  774.13   34.03
  -9   1  10   67.91    8.15
   9   1 -10   61.30   10.17
   9   1 -10   53.53   10.11
   9  -1 -10   59.07    7.19
   9  -1 -10   66.19    8.23
  -9  -1  10   57.34   11.25
  -9   1  10   52.81   10.56
   7  -1 -10   66.50    7.98
   7   1 -10   59.59    6.59
  -7  -1  10   66.92   10.66
  -7   1  10   60.85   10.77
   7  -1 -10   64.90    7.51
  -7   1  10   65.48    6.86
   7   1 -10   64.82    9.69
  -7  -1  10   64.55   10.39
   7  -1 -10   56.58    8.86
  -5   1  10   12.96    5.61
  -5  -1  10    9.54    4.88
  -5   1  10   16.59    4.16
   5   1 -10   14.73    5.35
  -5  -1  10   11.82    4.60
   5  -1 -10   16.71    5.21
   5  -1 -10   15.96    5.07
   5   1 -10   13.60    6.04
   3  -1 -10  905.29   28.13
  -3   1  10  957.75   26.15
  -3  -1  10  915.69   26.96
  -3   1  10  910.56   31.88
  -3  -1  10  919.56   31.41
   3   1 -10  939.29   28.35
   3   1 -10  942.47   28.97
   3  -1 -10  919.24   26.49
  -1  -1  10  137.55   10.03
   1   1 -10  148.77   11.48
   1  -1 -10  148.23   12.77
  -1   1  10  143.11   10.59
   1  -1 -10  133.00    9.57
   1   1 -10  129.51   13.80
  -1   1  10  124.96   11.88
  -1  -1  10  124.78   11.61
  -1   1 -10  237.33   14.07
  -1  -1 -10  224.12   16.44
   1  -1  10  229.62   11.80
   1   1  10  235.16   14.30
   1   1  10  242.50   16.04
  -1  -1 -10  225.94   11.33
  -1   1 -10  240.83   19.38
   1  -1  10  227.21   16.10
  -3   1 -10   46.57   13.27
   3   1  10   47.77    8.57
  -3  -1 -10   47.74    5.68
  -3   1 -10   45.67    7.41
  -3  -1 -10   39.88   10.46
   3  -1  10   45.60    5.75
   3   1  10   42.04    8.17
   5   1  10  749.32   28.10
   5  -1  10  712.08   19.76
  -5   1 -10  716.64   24.37
  -5  -1 -10  711.32   33.01
   5   1  10  747.16   30.42
  -5  -1 -10  721.09   16.80
   7   1  10  821.81   30.18
   7  -1  10  813.67   22.50
  -7  -1 -10  800.58   38.09
   7   1  10  789.80   34.75
   7  -1  10  792.96   35.56
  -7   1 -10  847.01   40.04
  -7   1 -10  780.88   25.56
   9  -1  10  318.33   23.90
  -9  -1 -10  313.12   27.86
   9   1  10  305.98   22.83
   9  -1  10  324.58   16.74
  -9   1 -10  333.81   28.96
   9   1  10  315.89   19.63
  11  -1  10   91.66   16.57
 -11  -1 -10   75.72   19.19
 -11   1 -10   56.73   16.71
  11   1  10   73.95   12.10
 -13  -1 -10   19.25    7.63
 -13   1 -10    6.35   11.39
 -13  -1 -10    0.17   11.98
  13   1  10    1.48    3.59
  13  -1  10    7.62    6.02
  15   1  10    0.59    4.01
 -15  -1 -10    8.59   14.29
  15  -1  10   11.16    7.43
 -15   1 -10   29.23   13.88
 -15  -1 -10   15.63    8.76
 -17   1 -10   16.99   12.05
  17   1  10   -2.26    5.11
 -17  -1 -10   29.80   16.70
  17  -1  10   10.67    8.93
 -22  -2  10   22.20   12.15
  22  -2 -10   16.17    9.41
 -22   2  10   10.72    7.57
  22   2 -10   27.04   10.57
  20  -2 -10   -5.95    3.91
 -20   2  10    1.41    5.08
  20   2 -10   13.24    7.11
  20   2 -10    6.69    6.50
 -20  -2  10   25.00   11.20
  18   2 -10   82.24   13.98
 -18  -2  10   71.41   17.75
  18   2 -10   77.22   15.74
 -16  -2  10   49.86   14.62
  16   2 -10   49.55   11.77
  16   2 -10   54.32   11.31
  14   2 -10    2.49    3.88
  14  -2 -10    2.73    4.46
 -14   2  10    2.48    4.41
 -14  -2  10   14.57    9.20
  14   2 -10    9.69    5.77
 -14   2  10    2.01    4.33
 -12  -2  10  238.84   21.71
 -12   2  10  259.01   17.23
  12   2 -10  255.13   20.48
  12   2 -10  234.02   17.72
  10   2 -10    7.22    4.86
 -10   2  10    1.52    4.50
  10   2 -10    5.67    4.20
 -10  -2  10   -4.90    6.91
  10  -2 -10   -0.14    3.12
 -10   2  10    8.59    4.63
  -8   2  10   26.33    7.90
  -8  -2  10   20.37    8.90
   8  -2 -10   26.55    7.54
  -8   2  10   25.44    4.17
   8   2 -10   25.80    7.41
  -8  -2  10   35.86    9.08
  -8   2  10   35.16    7.58
   6  -2 -10  135.41   12.28
  -6   2  10  130.98    7.36
  -6  -2  10  129.70   12.94
  -6  -2  10  119.51   14.64
   6   2 -10  131.17    8.95
   6  -2 -10  141.18   11.65
   6  -2 -10  131.31   11.75
   6   2 -10  136.06   12.59
  -6   2  10  119.21   14.45
   4  -2 -10  223.66   14.20
   4  -2 -10  212.37   15.05
   4   2 -10  210.08   13.64
  -4  -2  10  210.77   13.31
   4  -2 -10  221.95   14.42
  -4   2  10  215.98    9.80
  -4   2  10  195.53   16.37
   2  -2 -10  309.47   18.66
  -2   2  10  321.29   20.64
   2   2 -10  281.08   17.27
   2   2 -10  288.13   17.90
  -2  -2  10  269.19   13.16
   2  -2 -10  282.43   14.58
  -2   2  10  281.03   12.62
  -2  -2  10  292.58   19.12
   0   2 -10  318.84   18.01
   0   2  10  310.87   15.16
   0  -2 -10  322.68   14.29
   0   2 -10  297.50   20.03
   0  -2  10  319.64   20.11
   0   2  10  319.00   20.77
   0  -2  10  310.49   11.94
   2   2  10   55.07   10.51
   2  -2  10   58.09   11.02
   2   2  10   65.56    9.51
  -2  -2 -10   64.48   11.76
  -2   2 -10   60.84    9.86
  -2  -2 -10   62.11    6.13
  -2   2 -10   51.83   12.54
  -4  -2 -10   74.15    5.51
   4   2  10   84.53   11.53
  -4   2 -10   79.54   10.85
  -4  -2 -10   64.50   12.11
   4   2  10   87.29   12.36
  -4   2 -10   84.69   15.06
   4  -2  10   86.97   13.35
   6   2  10   54.16   10.94
  -6  -2 -10   69.53   14.67
   6  -2  10   46.42   10.67
   6   2  10   46.04    9.71
  -6   2 -10   57.47    9.72
  -8   2 -10  197.82   15.48
   8   2  10  190.70   16.82
  -8   2 -10  174.20   22.06
   8  -2  10  198.32   18.52
   8   2  10  181.08   16.81
  -8  -2 -10  178.54   20.67
 -10   2 -10    1.35    4.74
 -10  -2 -10    5.52   11.61
  10  -2  10    9.00    3.86
  10   2  10   14.24    6.86
  10   2  10    1.54    3.79
  10  -2  10    3.95    4.74
 -12   2 -10   50.02   15.01
 -12  -2 -10   32.57   14.86
  12   2  10   57.80   12.59
  12  -2  10   35.44   11.24
 -14  -2 -10   13.38   14.51
 -14  -2 -10   27.43    8.66
 -14   2 -10   26.09   13.07
  14  -2  10   24.92   10.06
 -16  -2 -10   35.80   11.40
 -16  -2 -10   38.98   18.15
  16  -2  10   39.91   13.17
 -16   2 -10   38.48   14.25
  18   2  10    4.80    7.06
 -18   2 -10   56.10   17.79
 -18  -2 -10   46.61   20.31
 -18  -2 -10   31.97   13.03
  18  -2  10   34.83   12.38
 -21  -3  10   35.00   13.45
  21   3 -10   21.89    9.66
  21  -3 -10    0.66    4.83
 -21   3  10   21.32   10.57
 -19  -3  10    6.42   10.58
  19   3 -10   -3.07    5.06
 -19   3  10    5.20    7.52
  19   3 -10   18.63    9.05
  19  -3 -10   -4.83    3.97
 -17  -3  10   58.37   15.71
  17   3 -10   75.30   13.61
  17   3 -10   72.79   16.38
 -15   3  10   39.98   10.02
  15   3 -10   37.61   10.19
 -15  -3  10   46.97   14.19
 -15   3  10   10.51    6.27
  15   3 -10   32.87   10.78
  13   3 -10   95.71   16.45
 -13  -3  10   86.41   16.68
 -13   3  10   85.12   13.37
  13  -3 -10   83.20   13.94
  13   3 -10   99.17   14.83
 -11   3  10  262.55   19.30
 -11  -3  10  248.40   21.79
  11   3 -10  276.06   20.09
  11  -3 -10  263.15   19.92
  11   3 -10  240.88   21.07
  -9  -3  10  123.43   15.79
   9  -3 -10   90.20   13.04
  -9   3  10   82.78   14.28
  -9   3  10  114.55   14.17
   9   3 -10  116.89   14.80
  -7  -3  10  109.31   13.75
  -7   3  10  120.93   12.90
   7   3 -10  121.47   14.56
   7  -3 -10   96.45   12.35
  -7  -3  10  134.51   17.37
  -5   3  10   82.52   13.73
   5  -3 -10   93.76   11.44
  -5  -3  10  101.07   11.70
  -5  -3  10  107.05   14.99
   5   3 -10   87.18   12.61
   5   3 -10   89.41    9.44
   5  -3 -10   83.88   11.85
   5  -3 -10   80.96   12.48
   3   3 -10  344.57   20.66
  -3  -3  10  326.09   22.31
   3  -3 -10  329.73   17.66
   3  -3 -10  339.06   20.16
  -3   3  10  324.79   22.78
  -3  -3  10  348.89   15.73
   3  -3 -10  362.20   22.10
   3   3 -10  353.73   19.90
   1   3 -10  241.04   18.33
   1   3 -10  216.12   16.85
   1  -3 -10  223.78   13.66
  -1   3  10  215.63   18.48
  -1  -3  10  243.30   19.00
  -1   3  10  237.40   11.83
  -1   3 -10  132.09   13.28
   1  -3  10  128.52   13.98
  -1  -3 -10  141.66   15.29
   1   3  10  136.89   10.66
   1   3  10  132.33   16.20
  -1  -3 -10  135.59    9.97
  -1   3 -10  145.51   16.70
  -3  -3 -10  118.92   16.00
  -3   3 -10  114.84   16.48
  -3   3 -10  117.84   14.43
   3  -3  10  102.40   14.84
   3   3  10  113.85   11.13
   3   3  10  111.79   15.36
  -5   3 -10  102.63   14.04
   5   3  10   69.40   13.41
  -5   3 -10   92.94   16.99
  -5  -3 -10   75.38   14.36
   5  -3  10   88.30   14.47
   5   3  10   95.70   12.89
  -7   3 -10   94.46   14.03
   7   3  10   68.43   12.28
   7  -3  10   70.18   13.67
  -7  -3 -10   75.50   15.06
   7   3  10   78.23   13.98
   9   3  10   46.30   10.54
  -9  -3 -10   35.11   12.66
   9   3  10   45.77   11.58
   9  -3  10   36.67    9.08
   9  -3  10   48.82   12.02
  11  -3  10  177.83   19.41
  11   3  10  161.43   19.84
  11  -3  10  186.90   16.79
 -11  -3 -10  153.32   22.31
  11   3  10  167.57   21.13
 -13  -3 -10   -0.19   11.68
 -13   3 -10   11.31    9.65
  13   3  10    5.87    7.16
  13  -3  10   -0.14    5.05
  13   3  10    0.20    4.28
 -15  -3 -10   99.09   18.00
 -15  -3 -10   66.37   21.45
 -15   3 -10   81.22   19.54
  15  -3  10   83.33   18.03
 -17  -3 -10   -6.99   14.12
  17  -3  10   -5.93    6.08
 -17   3 -10   13.47   10.67
  17   3  10   -3.22    6.67
 -17  -3 -10    4.66    8.74
  20   4 -10   18.71    9.23
 -20  -4  10   42.07   15.64
 -20   4  10   13.52    9.29
  20  -4 -10   -8.60    5.50
  18   4 -10  149.90   24.65
 -18  -4  10  142.55   23.45
 -18   4  10  148.90   22.38
  16   4 -10   25.36    9.06
 -16  -4  10   10.54   11.12
  16   4 -10   19.47    7.74
  16  -4 -10   -0.33    3.89
 -16   4  10   16.69    8.31
 -16   4  10   12.64    8.05
  14   4 -10   80.21   16.98
 -14   4  10  102.74   16.83
 -14  -4  10  100.51   18.27
  14   4 -10   77.32   13.84
 -14   4  10   70.80   14.00
  12   4 -10  227.53   22.18
 -12  -4  10  219.46   21.61
 -12   4  10  201.83   19.31
  12   4 -10  203.72   18.42
  12  -4 -10  206.69   19.03
  10   4 -10    7.70    5.27
 -10  -4  10   24.16    9.60
 -10   4  10   17.95    7.53
  10  -4 -10   12.24    6.26
 -10   4  10   -0.16    4.18
  -8  -4  10   13.80    8.12
  -8   4  10   37.68   10.19
  -8   4  10   14.46    7.15
   8   4 -10   12.22    5.58
  -8  -4  10   35.30   10.36
   8  -4 -10   25.55    8.02
   6  -4 -10  154.98   14.42
  -6   4  10  139.57   18.05
  -6  -4  10  168.33   17.74
  -6   4  10  156.98   16.44
  -6  -4  10  149.54   15.53
   4  -4 -10  256.09   19.48
   4  -4 -10  311.51   19.02
  -4   4  10  299.77   23.66
   4   4 -10  326.57   20.09
  -4  -4  10  330.23   23.90
   2   4 -10  102.06   13.95
   2  -4 -10   97.64   11.23
   2   4 -10  113.82   15.97
   2  -4 -10   80.74   13.87
   2  -4 -10   89.86   13.77
  -2  -4  10   99.66   15.89
   0   4  10    6.77    5.36
   0  -4  10   21.83    7.30
   0  -4 -10   14.22    6.46
   0  -4 -10   22.94    6.08
   0   4 -10   29.25    8.89
   0  -4 -10   17.56    7.62
  -2   4 -10   75.60   15.21
   2  -4  10   72.65   13.36
  -2  -4 -10   65.24   13.92
  -2   4 -10   62.68   12.77
  -4   4 -10  215.65   19.13
   4   4  10  230.22   17.18
   4  -4  10  225.98   20.12
   4   4  10  236.20   21.33
  -4   4 -10  244.25   22.86
  -4  -4 -10  236.93   21.86
   6   4  10   -2.70    3.40
   6   4  10    2.58    5.63
  -6   4 -10    3.00    5.33
  -6  -4 -10    3.75    6.99
   6  -4  10   -1.13    3.93
  -6   4 -10    2.30    4.53
   8   4  10   44.09   12.37
  -8  -4 -10   55.81   15.06
   8  -4  10   55.37   12.94
   8  -4  10   43.40   10.87
   8   4  10   51.60   11.53
  10   4  10   27.89    8.67
 -10  -4 -10   35.87   13.82
  10  -4  10   44.99   10.47
  10  -4  10   37.22   10.81
  10   4  10   39.84   11.79
  12   4  10   64.19   15.87
 -12  -4 -10   57.66   17.07
  12  -4  10   51.32   13.11
  12  -4  10   37.91   10.08
  12   4  10   69.08   14.50
  14   4  10   20.51   10.90
 -14  -4 -10   19.57   15.32
  14  -4  10   11.59    7.81
 -14   4 -10   25.96   11.01
  14   4  10   22.91    9.85
 -17   5  10   26.63   10.60
 -17   5  10   38.01   12.86
  17   5 -10    6.25    7.04
 -17  -5  10   17.56   11.23
 -15   5  10   43.72   13.25
 -15  -5  10   56.01   15.52
  15   5 -10   46.58   12.01
 -15   5  10   42.29   13.24
  13  -5 -10   75.71   15.11
 -13  -5  10  103.23   18.21
 -13   5  10   83.13   17.23
  13   5 -10   90.82   16.04
 -13   5  10   90.43   17.68
 -11   5  10  163.68   21.98
 -11   5  10  176.52   22.50
 -11  -5  10  178.00   23.79
 -11  -5  10  175.71   19.95
  11  -5 -10  176.33   18.12
  11   5 -10  183.57   18.55
   9   5 -10   -3.72    2.97
  -9  -5  10    6.91    5.44
  -9   5  10   -4.32    3.85
  -9   5  10    5.66    5.67
   9  -5 -10    8.24    5.65
  -7  -5  10  136.06   19.64
   7  -5 -10  126.01   15.76
  -7   5  10  152.42   20.64
  -5   5  10   -0.37    3.82
  -5  -5  10   15.32    6.81
   5  -5 -10   21.08    7.45
   5   5 -10    2.19    4.00
  -3  -5  10  127.38   18.34
   3   5 -10  126.70   16.70
  -1  -5  10   25.53    9.03
   1  -5 -10   41.53    8.73
   1   5 -10   57.80   13.05
   1  -5 -10   -2.60    2.78
  -1   5  10   -1.76    3.97
   1  -5 -10   10.22    5.58
  -1   5 -10  151.49   20.52
  -1  -5 -10  175.91   21.61
   1  -5  10  159.72   17.65
  -1   5 -10  139.72   19.57
  -3  -5 -10   96.11   17.70
  -3   5 -10   59.15   13.45
  -3   5 -10   82.15   17.36
   3  -5  10   75.37   14.76
  -5   5 -10   74.25   15.46
  -5  -5 -10   74.25   16.19
   5  -5  10   49.76   12.28
   7   5  10  170.82   23.05
  -7  -5 -10  134.29   21.13
   7  -5  10  152.48   20.00
   9  -5  10   -0.70    4.81
  -9   5 -10   -4.96    5.84
   9  -5  10    2.01    5.25
   9   5  10   -0.20    7.29
  -9  -5 -10    6.85    9.35
 -11  -5 -10   48.22   15.22
  11   5  10   30.06   11.57
  11  -5  10   33.54   10.41
  11  -5  10   47.03   13.23
  11   5  10   34.99   10.72
 -13   5 -10    4.57    8.43
  13   5  10    3.65    7.03
  13  -5  10   -1.21    5.73
  13  -5  10   -1.07    6.31
 -13  -5 -10   -2.05   10.21
  13   5  10    3.16    8.73
  14   6 -10   93.26   17.63
  14  -6 -10   61.56   15.55
 -14   6  10   98.80   20.03
 -14  -6  10   75.96   18.44
 -14   6  10   98.39   20.29
 -12   6  10    4.96    7.64
  12  -6 -10    0.03    5.35
 -12   6  10    9.81    8.20
 -12  -6  10    3.52    6.11
  12   6 -10   14.43    7.79
  10  -6 -10  129.21   18.36
 -10   6  10  168.07   23.88
 -10  -6  10  169.81   24.00
 -10   6  10  152.62   22.60
  10   6 -10  151.92   21.46
  -8   6  10   83.45   17.64
  -8  -6  10   53.59   13.56
   8  -6 -10   65.98   13.67
  -8   6  10   88.85   18.21
  -6   6  10  150.89   22.26
   6  -6 -10  154.77   16.41
  -6   6  10  136.50   21.47
  -6  -6  10  149.90   21.13
   4  -6 -10   94.27   14.43
  -4  -6  10   75.23   15.91
   2  -6 -10    3.86    4.20
  -2   6  10    5.27    5.57
   2  -6 -10   -1.41    4.10
   2   6 -10   -0.61    4.24
  -2  -6  10   20.60    7.65
   2   6 -10   26.66    9.73
   2  -6 -10   17.57    7.10
   0   6 -10  175.64   23.48
   0  -6  10  166.86   21.05
   0  -6 -10  136.56   21.17
   0  -6 -10  167.72   21.34
  -2  -6 -10    2.43    6.73
  -2   6 -10    5.35    6.82
   2  -6  10   -0.64    3.87
   2   6  10    3.61    5.73
  -2   6 -10    3.49    6.83
   4  -6  10   21.76    9.29
  -4   6 -10   23.14   12.21
   4   6  10   -1.50    5.48
  -4  -6 -10   13.82    9.73
   6  -6  10    0.17    4.64
  -6   6 -10    5.75    7.45
  -6  -6 -10   10.88    9.38
   6  -6  10   13.53    8.50
   6   6  10   -1.12    5.76
  -8   6 -10    8.02    7.87
   8   6  10   -0.70    6.73
   8  -6  10   21.97    9.07
  -8  -6 -10   23.56   11.95
   8  -6  10    3.31    5.20
  10  -6  10   10.71    8.46
 -10   6 -10    3.99    8.80
  10   6  10   -8.07    8.04
 -10  -6 -10   -4.28    8.80
  -9  -7  10   59.69   15.35
  -9   7  10   30.22   12.55
   9   7 -10   54.61   14.79
  -9   7  10   24.07   11.22
   9  -7 -10   36.18   11.38
  -7   7  10   95.38   19.90
   7  -7 -10   75.03   15.32
   7   7 -10   86.98   19.08
  -7  -7  10   65.91   15.22
  -7   7  10   61.10   17.30
  -5  -7  10   14.39    7.85
   5  -7 -10    0.72    4.67
   5  -7 -10    6.41    5.42
   5  -7 -10   23.05    9.74
   5   7 -10   -2.44    6.10
  -5   7  10   26.60   10.63
   3  -7 -10   39.26   12.86
  -3   7  10   73.65   17.43
   3  -7 -10   48.66   13.78
  -3  -7  10   57.93   13.78
  -1  -7  10   90.24   17.24
   1  -7 -10   76.02   17.08
   1  -7 -10  102.87   20.48
  -1   7  10  115.39   21.11
   1   7  10    2.34    7.37
   1  -7  10   31.87   10.12
  -1  -7 -10   27.26   11.14
  -1   7 -10   47.84   15.69
  -3   7 -10   17.81   11.80
   3  -7  10   17.94    8.65
   3  -7  10   -1.84    4.68
   3   7  10    1.13    6.78
  -3  -7 -10    0.86    8.85
  22   0 -11   -2.45    6.98
 -22   0  11    8.52    6.47
  20   0 -11  286.84   23.38
  20   0 -11  309.41   24.53
  18   0 -11    2.48    4.80
 -18   0  11    5.24    4.69
  18   0 -11    0.80    3.82
  16   0 -11  186.26   16.92
 -16   0  11  193.60   22.41
  14   0 -11  281.20   19.26
 -14   0  11  280.58   23.18
  12   0 -11   26.28    7.75
  12   0 -11   31.50    8.35
 -12   0  11   28.83    9.45
 -10   0  11   13.50    6.59
  10   0 -11   12.58    6.06
  -8   0  11    1.90    4.69
  -8   0  11    5.89    3.63
   8   0 -11    2.47    4.01
   8   0 -11    1.66    3.40
   6   0 -11  117.33   11.06
  -6   0  11  116.27   12.07
   6   0 -11  119.43   10.66
  -6   0  11  120.52   10.81
  -4   0  11   22.78    6.71
  -4   0  11   17.20    5.17
   4   0 -11   19.56    6.73
   4   0 -11   16.92    5.45
  -2   0  11  123.37   11.08
   2   0 -11  133.89   10.68
   2   0 -11  137.64   12.98
  -2   0  11  140.78   12.03
   0   0 -11   67.82    8.35
   0   0  11   70.46    9.32
   0   0 -11   66.58   12.00
   0   0  11   66.56   10.03
  -2   0 -11 1213.72   40.73
   2   0  11 1160.89   32.75
   2   0  11 1186.89   37.91
  -2   0 -11 1166.09   29.22
   4   0  11  123.90   10.74
  -4   0 -11  118.09    8.98
   4   0  11  115.89   12.19
   6   0  11  525.43   27.75
  -6   0 -11  522.85   18.13
  -6   0 -11  547.37   33.12
   6   0  11  483.60   20.83
   8   0  11 1688.38   40.47
  -8   0 -11 1428.70   55.25
 -10   0 -11  263.63   28.14
  10   0  11  218.28   15.83
 -12   0 -11  134.23   23.79
  14   0  11    1.01    4.32
 -14   0 -11    5.85   12.61
 -16   0 -11   57.03   19.39
  16   0  11   61.42   15.95
 -18   0 -11   11.12   13.81
  18   0  11   -0.74    5.76
  21   1 -11  120.24   17.97
 -21  -1  11  131.24   22.29
  21   1 -11  110.43   18.97
  21  -1 -11   90.04   16.79
 -19   1  11    5.93    5.03
  19   1 -11   25.36    8.50
 -19  -1  11   16.37    9.55
  19  -1 -11    0.88    4.59
  19   1 -11   22.80    9.00
  17   1 -11   32.78    8.53
 -17  -1  11   40.44   12.10
  17   1 -11   55.19   12.21
  15  -1 -11   53.06   10.33
 -15  -1  11   72.96   14.96
  15   1 -11   46.65   10.65
  13   1 -11  300.46   20.91
  13   1 -11  262.06   18.99
  13  -1 -11  276.16   16.95
 -13  -1  11  273.12   22.47
  11  -1 -11  223.10   12.35
  11   1 -11  185.71   15.58
  11   1 -11  196.82   16.24
 -11   1  11  205.42   18.17
  11  -1 -11  200.44   16.24
 -11  -1  11  191.50   18.20
  11  -1 -11  194.02   12.66
   9   1 -11   24.04    7.05
  -9  -1  11   29.58    8.98
  -9  -1  11   26.79    7.76
  -9   1  11   26.38    8.33
   9  -1 -11   21.43    5.47
   9  -1 -11   25.97    5.65
  -9   1  11   31.16    6.30
   9  -1 -11   28.61    7.30
   7  -1 -11  267.13   16.67
   7   1 -11  239.06   12.48
  -7  -1  11  247.97   17.10
  -7   1  11  249.34   13.45
  -7   1  11  216.64   17.63
  -7  -1  11  238.53   16.99
   7  -1 -11  254.55   14.48
  -5   1  11  242.68   17.55
  -5  -1  11  236.43   16.54
  -5  -1  11  284.33   16.66
   5   1 -11  283.43   16.90
   5  -1 -11  264.70   15.73
   5  -1 -11  257.89   15.24
   5   1 -11  283.72   16.63
  -5   1  11  261.73   13.94
   3   1 -11   70.60   11.18
  -3  -1  11   64.69   10.32
   3   1 -11   65.65    9.64
  -3   1  11   73.91    8.81
  -3  -1  11   65.89    8.96
   3  -1 -11   65.79    8.61
  -3   1  11   80.93   11.51
   3  -1 -11   58.94    9.57
   1   1 -11  166.02   16.90
  -1  -1  11  148.30   13.24
   1  -1 -11  171.14   11.24
  -1   1  11  138.89   11.22
   1  -1 -11  147.50   13.93
  -1   1  11  151.40   13.59
  -1  -1  11  149.49   10.84
   1   1 -11  136.48   11.65
  -1   1 -11  177.10   18.71
   1  -1  11  210.75   16.22
  -1   1 -11  172.43   12.69
   1   1  11  190.33   13.63
  -1  -1 -11  186.51   16.62
   1   1  11  183.79   14.73
  -1  -1 -11  182.87   10.91
   3  -1  11   37.17    5.69
   3   1  11   39.60    8.40
  -3  -1 -11   35.49    5.50
   3   1  11   28.14    7.17
  -3   1 -11   42.68   13.91
  -3   1 -11   42.02    7.60
   3  -1  11   32.83    8.18
  -3  -1 -11   26.78    9.88
  -5  -1 -11  327.59   24.12
   5   1  11  306.00   20.12
   5   1  11  311.25   18.66
  -5   1 -11  328.40   16.88
   5  -1  11  302.85   13.65
  -7  -1 -11   48.04   15.11
  -7   1 -11   30.62   14.34
   7  -1  11   35.84    9.60
   7   1  11   40.60   10.03
  -7   1 -11   40.68    7.55
   7   1  11   54.47    9.95
   9  -1  11   91.81   16.36
  -9  -1 -11   85.26   19.05
   9   1  11   89.98   12.35
 -11  -1 -11    8.68   13.47
  11  -1  11   14.24    7.68
 -11   1 -11   22.10   13.92
  11   1  11    0.81    3.66
  11   1  11   25.14    7.93
 -13  -1 -11   79.43   20.72
  13  -1  11   97.97   18.48
 -13  -1 -11   80.21   13.66
 -13   1 -11  101.85   21.42
 -15   1 -11   23.45   13.74
  15   1  11   -2.49    4.95
  15  -1  11   13.61    8.02
 -15  -1 -11    9.34    7.62
 -15  -1 -11    7.06   14.09
  17  -1  11   39.18   14.17
 -17   1 -11   65.02   19.26
 -17  -1 -11   41.26   18.11
 -22  -2  11   61.37   16.13
  22   2 -11   49.19   14.03
  22  -2 -11   51.32   13.78
  20  -2 -11    4.50    5.97
 -20  -2  11   -1.54    7.73
  20   2 -11    2.08    5.81
 -20   2  11    6.49    5.83
  20   2 -11    5.08    6.24
 -18  -2  11   68.20   16.58
  18   2 -11   59.40   12.78
  18   2 -11   47.48   12.48
  16  -2 -11   -2.34    3.02
 -16  -2  11   13.71    9.32
  16   2 -11   15.64    7.20
 -16   2  11    4.64    4.20
  16   2 -11    6.00    5.34
 -14   2  11    3.01    4.64
  14  -2 -11   -1.09    2.95
  14   2 -11   23.80    8.59
  14   2 -11    9.31    5.80
 -14  -2  11   24.84   10.46
 -12  -2  11  177.75   19.74
  12   2 -11  186.29   17.75
  12   2 -11  177.81   16.18
 -12   2  11  194.77   15.18
 -10   2  11  176.94   17.62
 -10  -2  11  178.03   17.34
  10  -2 -11  169.47   15.46
  10   2 -11  158.23   14.77
   8  -2 -11  424.59   20.08
   8  -2 -11  452.86   23.08
   8   2 -11  430.60   23.24
  -8  -2  11  384.04   22.30
  -8  -2  11  424.87   25.63
   8  -2 -11  423.21   21.72
  -8   2  11  391.33   24.62
  -6   2  11  202.07    9.90
   6   2 -11  203.10   15.69
   6  -2 -11  213.99   15.43
   6  -2 -11  182.53   14.09
  -6  -2  11  199.84   16.78
  -6  -2  11  194.58   14.92
   6   2 -11  198.20   11.77
  -6   2  11  196.79   17.00
   6  -2 -11  196.28   13.91
   4   2 -11    9.79    6.22
  -4   2  11    7.61    4.52
   4   2 -11    8.81    5.03
  -4  -2  11   14.62    5.42
  -4  -2  11    4.01    3.63
   4  -2 -11   11.62    4.97
   4  -2 -11   16.85    6.20
  -4   2  11   15.12    3.77
  -2   2  11   76.39   12.47
   2  -2 -11   68.78   11.38
  -2   2  11   62.65    7.47
  -2  -2  11   67.76    7.89
   2  -2 -11   72.89    8.77
   2   2 -11   71.68   10.94
   2   2 -11   71.13   11.40
   0  -2  11   33.98    8.37
   0  -2 -11   37.10    9.29
   0   2  11   42.04    9.61
   0  -2  11   55.14    6.11
   0   2  11   49.98    7.82
   0  -2 -11   46.54    6.97
   0   2 -11   44.15    8.86
   0   2 -11   36.17   10.93
   2   2  11  145.90   14.39
   2   2  11  150.29   12.66
   2  -2  11  151.47   15.05
  -2  -2 -11  143.14   15.05
  -2   2 -11  141.57   17.84
  -2  -2 -11  135.88    9.04
  -2   2 -11  142.51   12.90
   4   2  11  178.13   14.86
  -4   2 -11  220.15   21.47
  -4   2 -11  180.26   14.52
   4  -2  11  205.64   18.26
  -4  -2 -11  179.34   17.60
   4   2  11  195.29   16.81
   6   2  11  115.27   15.03
   6   2  11  137.47   14.20
  -6   2 -11  135.38   12.63
  -6  -2 -11  123.93   17.76
   6  -2  11  120.66   16.57
  -8  -2 -11   12.23   10.63
  -8   2 -11   13.12    5.53
   8  -2  11   10.22    5.88
   8   2  11    0.95    5.10
  -8   2 -11   -0.44    7.50
   8   2  11   15.06    6.68
  10  -2  11   66.24   14.19
 -10  -2 -11   40.88   15.41
  10  -2  11   52.76    9.83
  10   2  11   61.13   12.64
 -12   2 -11   32.75   13.33
 -12  -2 -11   18.49   14.79
  12   2  11   31.39    9.80
  12  -2  11   36.88   11.47
 -14  -2 -11   52.76   18.29
 -14  -2 -11   50.97   11.73
  14  -2  11   70.85   16.47
 -14   2 -11   70.01   18.98
  16  -2  11   95.08   20.15
 -16  -2 -11   82.56   23.26
 -16  -2 -11  109.71   18.48
 -16   2 -11  124.10   24.89
 -21   3  11   67.60   17.18
  21   3 -11   59.83   15.41
 -21  -3  11   75.72   18.21
  19   3 -11   26.38   10.37
  19   3 -11   37.74   10.44
 -19  -3  11   25.36   12.67
 -19   3  11    3.23    6.11
  17   3 -11  306.82   27.03
 -17  -3  11  316.04   27.96
  15   3 -11   19.54    8.36
 -15  -3  11   22.69   10.08
  15   3 -11   28.92    9.91
 -15   3  11    0.48    4.80
  13   3 -11  232.68   21.68
  13   3 -11  176.60   17.18
 -13   3  11  206.18   17.76
 -13  -3  11  213.12   21.29
  11   3 -11    0.88    4.00
 -11  -3  11   -2.07    6.89
 -11   3  11    2.10    4.45
  11   3 -11    0.37    3.95
 -11   3  11    3.31    4.11
  11  -3 -11    6.00    5.33
  -9  -3  11  126.19   15.68
   9  -3 -11  151.00   14.75
   9   3 -11  142.41   16.60
  -9   3  11  154.99   14.87
   7   3 -11  130.22   15.44
   7  -3 -11  135.68   13.95
   7  -3 -11  131.91   12.73
   7  -3 -11  128.98   13.02
  -7   3  11  119.36   16.65
  -7  -3  11  115.36   16.72
  -7  -3  11  134.67   14.96
   5  -3 -11  279.46   17.73
   5  -3 -11  273.44   18.43
   5   3 -11  269.54   15.97
   5   3 -11  276.28   19.45
  -5  -3  11  268.51   16.51
  -5   3  11  289.84   22.16
  -5  -3  11  297.02   22.07
   5  -3 -11  293.49   20.42
   3   3 -11  937.96   33.36
   3  -3 -11  882.74   29.88
  -3   3  11  905.83   39.18
  -3  -3  11  939.00   25.85
  -3  -3  11  889.55   38.19
   3  -3 -11  889.40   35.57
   3  -3 -11  901.95   33.55
   1  -3 -11  156.15   11.93
   1   3 -11  166.91   16.20
  -1  -3  11  150.11   15.23
   1   3 -11  147.27   14.28
  -1   3  11  160.67   10.59
  -1   3  11  162.34   16.61
  -1   3 -11   81.64   13.70
  -1  -3 -11   85.71    8.31
   1   3  11   58.21   12.01
   1   3  11   69.17    9.26
   1  -3  11   73.64   13.01
  -1  -3 -11   74.48   13.27
  -1   3 -11   55.53   11.21
  -3   3 -11   56.87   13.52
  -3   3 -11   60.83   11.61
   3  -3  11   68.54   13.13
   3   3  11   72.37   13.49
   3   3  11   63.40   10.05
  -3  -3 -11   58.70   12.86
   5   3  11   23.10    6.95
   5  -3  11   25.29    9.12
  -5   3 -11   23.16   10.22
  -5  -3 -11   22.72    9.33
   5   3  11   26.63    9.16
  -5   3 -11   17.24    6.76
   7  -3  11   12.12    6.93
  -7   3 -11    4.23    6.57
   7   3  11   13.75    5.79
   7   3  11   21.92    8.67
  -7  -3 -11   23.66   10.43
  -7   3 -11   17.35    6.65
   9  -3  11   59.37   11.34
  -9  -3 -11   62.89   15.64
   9  -3  11   67.54   14.31
   9   3  11   74.13   14.18
   9   3  11   68.26   14.29
  11  -3  11   35.69    9.13
  11  -3  11   39.51   11.69
 -11  -3 -11   20.79   13.37
  11   3  11   26.48    8.79
  11   3  11   29.62   10.57
  13   3  11  106.39   17.82
  13  -3  11   98.91   18.57
  13   3  11  113.33   19.92
 -13   3 -11  100.68   21.19
 -13  -3 -11   63.81   18.83
  15  -3  11   15.83    9.11
 -15  -3 -11    3.05   14.29
  15   3  11   -3.53    5.26
 -15   3 -11   22.35   12.41
 -15  -3 -11   17.69    9.78
  18  -4 -11   -4.37    4.29
  18   4 -11    5.43    7.11
  18   4 -11    5.01    5.89
 -18  -4  11    4.12   10.25
 -18   4  11   18.02    9.74
 -16   4  11  101.81   18.76
 -16  -4  11  101.08   19.23
  16   4 -11  107.44   17.15
  16   4 -11   99.99   19.69
  14   4 -11   76.36   16.24
  14  -4 -11   34.10    9.90
 -14  -4  11   73.16   16.08
 -14   4  11   85.88   15.26
  14   4 -11   70.75   14.41
 -12   4  11  144.05   18.87
  12  -4 -11  122.36   16.98
 -12  -4  11  120.21   17.85
 -10  -4  11   33.53   10.56
  10  -4 -11   40.49   10.20
 -10   4  11   40.98   10.82
 -10  -4  11   34.00   10.74
  -8  -4  11   95.99   17.23
  -8   4  11   78.37   14.08
  -8  -4  11   95.63   13.76
   8  -4 -11   78.20   12.88
   6  -4 -11  520.50   27.55
   6  -4 -11  552.02   27.04
   6  -4 -11  503.64   29.10
  -6  -4  11  524.76   31.70
   4  -4 -11   80.94   13.34
  -4  -4  11   96.88   16.59
   4  -4 -11   81.27   11.79
   4  -4 -11   76.22   13.96
   4   4 -11  105.46   13.32
   2   4 -11   14.74    7.03
  -2   4  11    8.43    4.51
   2   4 -11   19.96    7.38
   2  -4 -11   11.86    5.41
  -2  -4  11   11.34    5.81
   2  -4 -11    5.94    4.96
   2  -4 -11    7.19    6.03
   0  -4  11   65.27   13.27
   0  -4 -11   94.47   10.65
   0   4 -11   87.38   14.73
   0   4 -11   93.51   15.21
  -2   4 -11   79.31   15.92
   2  -4  11   92.63   15.72
  -2   4 -11   82.74   14.77
   2   4  11   89.80   16.59
  -4  -4 -11   32.43   11.19
  -4   4 -11   32.96    9.64
  -4   4 -11   33.19   10.99
   4   4  11   26.57    9.74
   4   4  11   32.81    8.25
   4  -4  11   37.68   10.92
   6   4  11  115.34   15.30
   6  -4  11  109.26   17.56
   6   4  11   98.36   17.17
  -6  -4 -11   93.09   17.45
  -6   4 -11  118.93   17.53
   8  -4  11   74.43   14.95
  -8  -4 -11   63.23   15.70
   8   4  11   70.09   15.42
   8  -4  11   60.08   12.56
   8   4  11   64.71   12.87
  10  -4  11   29.63   10.25
  10  -4  11   34.81    9.43
  10   4  11   21.45   10.26
  10   4  11   37.42    9.93
 -10  -4 -11   27.93   13.46
 -10   4 -11    7.17    5.73
 -12  -4 -11   37.94   15.17
  12  -4  11   32.52   11.22
  12   4  11   18.51   10.65
  12   4  11   32.90   10.26
  12  -4  11   39.87   10.51
  14  -4  11   12.80    9.08
 -14  -4 -11   20.57   17.57
  14   4  11   14.42   10.99
 -14   4 -11   28.52   12.85
  14   4  11   35.14   12.37
 -17   5  11   11.70    8.80
  17  -5 -11   13.65    8.33
  17   5 -11   10.31    8.79
 -17  -5  11   21.22   12.30
  15   5 -11    2.55    6.05
  15  -5 -11   22.63    9.97
 -15   5  11   23.90    9.93
 -15   5  11   24.91   12.13
  15   5 -11   32.44   10.89
 -15  -5  11   42.12   14.06
  13   5 -11  113.64   18.26
 -13  -5  11  117.64   18.88
 -13   5  11  107.13   18.92
 -13   5  11   98.29   18.11
  13  -5 -11   89.00   16.20
 -13  -5  11  110.01   21.00
 -11  -5  11   31.29   10.98
  11   5 -11   22.84    8.94
  11  -5 -11   19.79    8.33
 -11   5  11   20.98    8.48
 -11   5  11   21.01    8.52
  -9   5  11  140.60   20.18
  -9  -5  11  111.91   19.60
   9  -5 -11  111.36   15.90
  -7   5  11   14.00    7.31
  -7  -5  11   14.36    7.27
   7   5 -11    2.55    3.59
  -7   5  11    3.14    4.61
   7  -5 -11   13.86    6.53
   5  -5 -11    6.60    4.02
  -5   5  11   -3.15    4.37
   5   5 -11    1.39    3.21
   5  -5 -11   40.94    9.98
   5  -5 -11   -0.65    3.07
  -5  -5  11   48.93   12.25
   3  -5 -11   -5.01    3.03
   3   5 -11   19.14    7.77
   3  -5 -11    8.50    4.74
   3  -5 -11    2.44    3.37
   3   5 -11    2.59    3.57
  -3   5  11    3.11    4.41
  -3  -5  11   10.47    5.87
   1  -5 -11   32.95    8.20
  -1  -5  11   48.77   11.72
   1   5 -11   39.13   11.25
   1   5 -11   45.43   12.25
  -1   5 -11  198.53   23.38
   1  -5  11  159.77   20.22
  -1  -5 -11  164.51   21.95
  -3   5 -11    0.61    4.46
   3   5  11    6.96    5.23
  -3  -5 -11    3.88    7.41
   3  -5  11    5.71    5.31
  -3   5 -11   14.05    8.46
   5   5  11    4.06    6.37
   5  -5  11   30.10   10.02
  -5  -5 -11   33.99   12.64
  -5   5 -11   41.19   12.17
   7  -5  11   61.12   13.99
  -7  -5 -11   35.86   12.81
   7   5  11   79.74   17.44
   9  -5  11  108.04   18.52
   9  -5  11   78.81   15.15
   9   5  11   89.97   19.16
  -9  -5 -11   71.79   18.30
  11   5  11   13.60    9.98
 -11   5 -11    7.48    8.44
  11  -5  11   15.00    9.13
  11  -5  11   10.14    7.47
 -11  -5 -11    6.75   10.63
 -14  -6  11   20.58    9.16
  14  -6 -11   16.36    8.18
 -14   6  11   42.59   13.98
  14   6 -11   32.60   11.81
 -14   6  11   37.79   13.60
  12  -6 -11   34.49   11.07
 -12  -6  11   28.78   11.66
 -12   6  11   39.92   12.65
 -12   6  11   33.66   11.61
  12   6 -11   30.66   10.64
  10   6 -11  153.61   22.03
 -10   6  11  170.04   24.30
  10  -6 -11  134.05   18.68
 -10   6  11  145.94   22.44
 -10  -6  11  167.54   24.22
  -8  -6  11   17.09    8.37
  -8   6  11   22.83   11.62
  -8   6  11   16.38    8.41
   8   6 -11    6.20    4.59
   8  -6 -11   18.37    7.82
   6  -6 -11   66.93   12.94
  -6  -6  11   69.07   16.08
   6  -6 -11    8.21    4.68
  -4  -6  11   49.29   13.13
   4  -6 -11    4.52    4.44
   4  -6 -11    3.80    4.57
  -4   6  11    8.11    6.25
   4   6 -11   -5.15    4.38
   4  -6 -11   36.47    9.58
  -2  -6  11   57.44   13.96
  -2   6  11    3.57    5.24
   2   6 -11   -3.34    4.41
   2  -6 -11    4.97    5.05
   2  -6 -11   -1.53    4.08
   0  -6 -11  123.13   21.14
   0   6 -11   66.30   15.56
   0   6 -11  157.74   22.60
   0  -6 -11  111.65   18.65
   0  -6  11  134.97   20.30
  -2   6 -11  176.08   25.48
  -2   6 -11  137.43   22.00
  -2  -6 -11  141.81   23.10
   2  -6  11  137.29   20.30
  -4  -6 -11   42.78   14.47
  -4   6 -11   49.69   15.65
  -4   6 -11   33.89   11.90
   4  -6  11   45.39   12.60
  -6   6 -11   70.16   19.12
   6  -6  11   43.87   12.67
  -6  -6 -11   56.56   16.33
  -8  -6 -11  133.73   23.92
   8  -6  11  137.48   20.52
   7  -7 -11    0.12    5.81
  -7  -7  11    6.48    6.98
  -7   7  11   -4.06    7.57
   7  -7 -11    7.43    6.52
   7   7 -11   -9.21    5.85
   7  -7 -11   15.55    5.89
  -5   7  11   70.46   16.95
   5  -7 -11   44.23   11.78
  -5  -7  11   79.19   17.33
  -3   7  11   60.76   16.11
  -3  -7  11   65.89   15.75
   3   7 -11   -1.47    5.79
  -1   7  11    6.59    7.24
   1  -7 -11   11.77    9.83
   1   7 -11   -1.00    5.89
   1  -7 -11   12.02    8.28
  -1  -7  11   14.14    7.98
  -1   7 -11   98.46   21.65
  -1  -7 -11   78.12   18.60
   1  -7  11   62.59   15.12
  22   0 -12    9.38    7.58
 -22   0  12    7.07    6.40
  20   0 -12   53.46   12.97
  18   0 -12   67.47   12.63
 -18   0  12   89.68   17.69
 -16   0  12   18.52    8.43
  16   0 -12    2.87    3.59
  16   0 -12   19.73    7.01
  14   0 -12   80.66   12.61
 -14   0  12   69.81   14.10
 -12   0  12   41.35   11.36
  12   0 -12   50.88   10.02
  12   0 -12   50.09   10.66
  10   0 -12   26.26    7.35
 -10   0  12   26.04    7.54
 -10   0  12   30.11    8.60
   8   0 -12    2.20    4.79
   8   0 -12    4.63    4.66
  -8   0  12   -0.82    2.61
  -8   0  12   -3.70    2.91
   6   0 -12   70.35    9.56
  -6   0  12   63.41    9.71
   6   0 -12   59.00    9.64
  -6   0  12   68.11   10.88
   4   0 -12  520.70   22.31
  -4   0  12  518.50   24.27
   4   0 -12  520.85   22.21
  -4   0  12  492.21   22.38
   2   0 -12  166.11   15.40
  -2   0  12  172.72   14.07
   2   0 -12  160.30   12.17
  -2   0  12  153.79   13.03
   0   0 -12   36.04    7.03
   0   0 -12   45.83   11.61
   0   0  12   30.80    7.32
   0   0  12   37.12    8.11
  -2   0 -12  499.43   28.56
  -2   0 -12  514.72   20.10
   2   0  12  512.82   25.51
   2   0  12  541.09   22.93
  -4   0 -12  246.82   13.38
   4   0  12  263.52   19.12
   4   0  12  274.86   16.18
  -6   0 -12    4.49   10.80
   6   0  12    2.32    3.88
   6   0  12    3.82    4.00
   8   0  12   49.86    8.78
   8   0  12    6.81    4.59
  -8   0 -12    2.17   11.34
 -10   0 -12   63.89   18.86
 -12   0 -12   45.44   17.54
  14   0  12    1.77    4.27
 -14   0 -12    0.85   11.93
 -16   0 -12   29.27   15.80
  21   1 -12   26.06    9.31
  21   1 -12   43.35   12.18
 -21   1  12    8.45    6.51
 -21  -1  12   37.15   12.43
  21  -1 -12   32.15   11.80
  19   1 -12  108.96   17.97
  19   1 -12   92.55   16.03
 -19  -1  12  102.09   18.93
  17   1 -12    2.11    4.47
 -17  -1  12    6.53    7.42
 -17   1  12    2.69    4.48
  17   1 -12    3.26    3.31
  17  -1 -12    2.44    3.34
  15   1 -12   15.41    6.22
  15  -1 -12   -1.90    3.23
  15   1 -12   -2.81    3.06
 -15  -1  12   11.23    8.29
 -15   1  12    3.56    4.26
  13  -1 -12    0.76    3.79
  13   1 -12    5.59    4.12
 -13  -1  12   10.84    6.75
  13   1 -12   -0.95    4.00
 -13   1  12   15.45    7.39
 -11   1  12  303.95   22.92
  11   1 -12  294.18   20.08
 -11  -1  12  300.23   22.42
  11  -1 -12  306.11   14.56
 -11   1  12  312.40   17.56
  11  -1 -12  324.27   16.00
  -9   1  12  165.97   11.83
  -9   1  12  169.96   16.37
  -9  -1  12  158.37   14.96
   9   1 -12  185.79   15.39
  -9  -1  12  193.96   16.53
   9  -1 -12  181.03   15.38
   9  -1 -12  175.78   12.56
   7  -1 -12  318.63   18.86
  -7  -1  12  263.22   18.26
  -7   1  12  278.35   19.88
   7  -1 -12  286.10   16.24
  -7   1  12  308.66   15.53
  -7  -1  12  301.29   19.06
   7   1 -12  284.62   14.88
   5  -1 -12  244.24   15.67
   5   1 -12  242.61   16.52
   5  -1 -12  264.55   16.63
  -5  -1  12  268.04   18.03
   5   1 -12  235.08   17.01
  -5  -1  12  250.63   16.34
  -5   1  12  259.64   14.57
  -5   1  12  249.07   18.42
   3  -1 -12   51.65    8.37
   3   1 -12   55.04   11.84
  -3  -1  12   50.34    8.48
   3  -1 -12   51.03   10.08
  -3   1  12   46.49    9.48
  -3  -1  12   46.56    9.29
  -3   1  12   56.72    8.42
   3   1 -12   59.19    9.82
   1   1 -12  234.10   20.32
   1   1 -12  212.11   14.88
  -1   1  12  246.42   17.74
   1  -1 -12  244.27   18.23
  -1   1  12  240.34   15.44
  -1  -1  12  215.29   16.32
   1  -1 -12  245.18   13.77
  -1  -1  12  241.31   14.29
  -1  -1 -12   57.29   12.49
  -1   1 -12   60.06    9.24
   1   1  12   54.38   10.03
   1   1  12   48.81    8.82
   1  -1  12   51.68   10.28
   1  -1  12   56.05    7.70
  -1  -1 -12   60.77    7.70
  -1   1 -12   68.74   14.61
   3   1  12  680.00   29.26
   3  -1  12  692.91   21.46
  -3  -1 -12  673.61   20.38
   3  -1  12  678.77   31.61
   3   1  12  686.00   28.70
  -3   1 -12  667.73   25.05
  -3   1 -12  685.58   35.69
  -5   1 -12  228.84   14.69
   5  -1  12  218.49   12.24
   5   1  12  224.70   16.52
  -5  -1 -12  227.35   22.89
   5   1  12  215.87   17.72
  -7  -1 -12   35.09   13.81
   7   1  12   84.19   12.02
  -7   1 -12   58.03   16.22
  -7   1 -12   84.10   10.29
   7   1  12   68.71   13.09
  -9  -1 -12   26.42   15.29
   9   1  12   37.71    9.19
 -11   1 -12   93.04   21.18
  11   1  12  109.20   14.38
  11  -1  12   82.27   16.32
 -11  -1 -12   90.76   21.74
  13  -1  12   60.97   15.23
 -13  -1 -12   62.77   11.42
 -13   1 -12   43.66   16.32
 -13  -1 -12   33.78   17.95
  15   1  12   -2.67    4.65
 -15   1 -12   18.80   13.27
  15  -1  12   12.24    8.62
 -15  -1 -12    3.34   14.17
  17   1  12   -1.15    6.27
 -17   1 -12   31.74   15.17
 -17  -1 -12   37.30   17.75
  17  -1  12   20.79   10.22
 -22  -2  12  107.54   21.31
  22   2 -12   75.51   17.22
  22  -2 -12   53.59   15.32
  22   2 -12   90.54   16.31
  20   2 -12   34.44   10.50
 -20  -2  12   43.64   13.78
  20   2 -12   55.45   13.69
  18   2 -12  148.97   18.72
  18   2 -12  178.01   22.89
 -18  -2  12  172.42   23.68
  16   2 -12   78.35   13.14
 -14  -2  12   20.52    9.53
  14   2 -12   -1.80    3.87
 -14   2  12    4.77    4.29
  14  -2 -12   -2.17    2.70
  14   2 -12   18.77    8.07
  12  -2 -12    1.57    3.26
 -12  -2  12   26.79    9.87
 -12   2  12    5.09    4.66
  12   2 -12    6.82    5.28
  12   2 -12   17.13    7.26
  10   2 -12   50.19   10.83
 -10   2  12   34.28    9.98
 -10  -2  12   62.08   12.33
  10  -2 -12   53.65    9.15
  10  -2 -12   60.21   10.30
 -10  -2  12   59.46   12.39
  10  -2 -12   44.78   10.00
   8  -2 -12  322.69   19.21
  -8  -2  12  301.50   19.96
   8  -2 -12  309.50   19.78
  -8  -2  12  326.59   23.00
   8  -2 -12  287.06   16.99
  -8   2  12  279.76   21.34
   8   2 -12  310.00   20.55
  -6  -2  12  218.22   15.62
  -6   2  12  222.38   11.29
   6  -2 -12  200.57   15.18
  -6  -2  12  193.16   16.88
  -6   2  12  214.64   18.43
   6  -2 -12  252.53   17.41
   6   2 -12  203.02   12.84
   4   2 -12  180.05   15.12
   4   2 -12  167.90   14.35
   4  -2 -12  172.34   13.21
  -4   2  12  154.74   15.46
  -4  -2  12  172.67   12.71
  -4   2  12  176.98   10.49
  -4  -2  12  167.59   15.93
   4  -2 -12  175.95   15.28
  -2   2  12  413.93   25.03
   2  -2 -12  467.81   24.63
   2   2 -12  424.32   22.58
   2   2 -12  432.70   23.75
  -2   2  12  425.33   17.99
   2  -2 -12  451.98   19.73
  -2  -2  12  450.95   18.42
   0   2  12   36.45    8.91
   0   2  12   48.65    8.31
   0  -2 -12   35.94    6.66
   0   2 -12   48.06    9.64
   0   2 -12   42.95   11.28
   0  -2 -12   33.72    9.62
   0  -2  12   45.64    5.96
  -2   2 -12  187.55   15.08
   2   2  12  199.75   17.49
  -2  -2 -12  198.49   18.84
   2   2  12  207.59   15.37
  -2   2 -12  216.21   20.66
  -2  -2 -12  217.00   11.53
   2  -2  12  205.84   18.06
   4  -2  12   15.69    6.90
   4   2  12   37.88    9.47
  -4  -2 -12   26.35    9.90
  -4   2 -12   23.01   11.41
  -4   2 -12   17.91    6.08
   4   2  12   23.17    6.78
  -6   2 -12  279.64   18.21
   6  -2  12  255.82   21.53
  -6  -2 -12  244.98   22.94
   6   2  12  238.08   19.05
   6   2  12  277.69   20.80
  -8   2 -12   12.58    5.92
  -8   2 -12    6.85    6.59
   8   2  12   11.67    5.83
  -8  -2 -12    2.56   10.21
   8   2  12    6.89    6.18
   8  -2  12   16.07    7.25
 -10  -2 -12   33.36   15.46
  10  -2  12   43.94   12.13
  10   2  12   37.96   10.09
 -12  -2 -12   15.45   12.73
  12   2  12   11.26    7.29
  12  -2  12    2.22    6.77
  12   2  12    1.31    4.09
 -12   2 -12   10.77   12.06
 -14  -2 -12   25.59   17.40
  14  -2  12   40.78   12.84
 -14   2 -12   63.26   18.50
 -14  -2 -12   61.52   12.30
  16  -2  12   28.45   12.06
 -16  -2 -12   50.09   20.85
 -16  -2 -12   19.63    9.92
 -16   2 -12   24.69   12.99
  19   3 -12   12.97    7.27
 -19   3  12    0.70    5.80
  19   3 -12   17.83    7.82
  19  -3 -12    2.86    5.04
 -19  -3  12   14.15    9.99
  17   3 -12   10.09    7.20
 -17  -3  12    0.00    8.09
  17   3 -12   11.01    6.73
  17  -3 -12   -4.52    3.65
 -17   3  12    0.26    5.40
 -15  -3  12   27.84   11.75
  15   3 -12   19.92    8.14
  15   3 -12   27.39    8.93
  13  -3 -12   29.99    9.47
 -13   3  12   33.05    9.12
 -13  -3  12   32.68   11.72
  13   3 -12   33.28   10.68
 -11   3  12    2.59    4.66
  11  -3 -12    2.49    4.75
 -11  -3  12    2.61    6.71
 -11  -3  12   -1.41    3.91
  11   3 -12   -0.77    3.48
 -11   3  12    1.65    3.37
   9  -3 -12   17.24    7.02
  -9  -3  12   32.80    9.42
   9  -3 -12   16.54    6.63
   9  -3 -12   28.05    8.46
   9   3 -12    5.40    4.94
  -9   3  12    1.82    3.42
   7   3 -12   16.71    6.58
  -7  -3  12   28.58    8.81
   7  -3 -12   26.64    7.80
   7  -3 -12   23.68    7.84
   7  -3 -12   29.02    7.76
  -7   3  12   19.42    7.49
  -7  -3  12    9.16    5.52
  -5  -3  12   49.75   11.78
   5  -3 -12   64.14   12.22
   5   3 -12   55.19   11.18
  -5  -3  12   47.38    8.87
  -5   3  12   37.37   10.12
   5   3 -12   55.75    9.04
   5  -3 -12   41.70    9.66
   5  -3 -12   55.29    9.96
   3   3 -12   22.48    7.99
   3   3 -12   13.45    6.04
  -3  -3  12   18.72    7.31
   3  -3 -12   16.86    6.09
  -3   3  12   11.60    6.82
   3  -3 -12   17.97    7.38
  -1  -3  12  119.09   16.52
   1  -3 -12  112.55   10.47
   1   3 -12  143.04   16.25
   1   3 -12  127.47   15.56
  -1   3  12  140.98   17.92
  -1   3 -12   12.97    6.35
   1   3  12    8.83    4.32
   1   3  12    9.88    6.82
  -1  -3 -12   15.01    5.07
  -1  -3 -12   16.62    7.71
   1  -3  12    5.11    4.83
  -1   3 -12   10.38    7.50
  -3   3 -12  309.22   25.12
  -3   3 -12  288.18   20.44
   3  -3  12  281.63   22.67
   3   3  12  267.51   18.16
   3   3  12  299.57   23.05
   5   3  12  150.69   14.35
  -5  -3 -12  127.23   18.72
   5   3  12  147.68   18.42
   5  -3  12  146.43   19.31
  -5   3 -12  121.86   19.07
  -5   3 -12  148.47   15.09
   7   3  12    8.66    6.05
  -7   3 -12    3.44    5.16
   7   3  12    0.24    3.82
  -7   3 -12    1.81    3.79
  -7  -3 -12   -0.74    8.04
   7  -3  12    4.15    5.12
   9   3  12   61.95   13.25
  -9  -3 -12   63.04   16.62
   9  -3  12   72.77   12.59
   9  -3  12   75.51   15.36
   9   3  12   63.16   13.98
  11  -3  12   60.00   14.38
  11   3  12   64.58   15.25
 -11  -3 -12   43.12   15.94
  11   3  12   66.30   14.32
  13   3  12  124.48   19.08
  13  -3  12  109.31   20.18
 -13  -3 -12   69.81   20.91
  13   3  12  116.07   20.31
 -15  -3 -12   15.80    8.78
  15  -3  12    7.15    7.48
 -15   3 -12  -11.93    7.99
 -15  -3 -12    5.57   16.68
  15   3  12    1.53    7.15
 -18   4  12  115.74   21.52
  18   4 -12  124.77   22.43
 -18  -4  12  112.53   20.81
  18   4 -12  113.44   18.63
  16   4 -12  366.55   30.88
 -16  -4  12  372.55   30.21
  16  -4 -12  321.72   26.74
  16   4 -12  340.14   26.09
  14  -4 -12   17.24    7.51
 -14   4  12   18.06    7.85
  14   4 -12   15.53    8.02
  14   4 -12   14.75    7.35
 -14  -4  12   20.07    9.52
 -12  -4  12   60.42   13.96
 -12   4  12   84.57   15.12
  12  -4 -12   51.32   11.90
 -10   4  12   -5.48    3.51
  10   4 -12    0.02    3.15
 -10   4  12   -2.48    4.07
 -10  -4  12    2.60    6.58
  10  -4 -12    1.92    4.18
 -10  -4  12    2.21    3.93
   8  -4 -12   36.29    9.92
  -8  -4  12   42.97   10.20
  -8  -4  12   31.89   10.16
   8  -4 -12   38.75    9.97
   8  -4 -12   30.25    9.10
   6  -4 -12  273.42   20.62
   6  -4 -12  278.86   22.14
  -6  -4  12  292.27   24.38
   6  -4 -12  289.38   20.08
  -4  -4  12  299.43   24.35
   4  -4 -12  283.67   19.00
   0   4  12   30.75    9.74
   0   4 -12   48.98   12.14
   0   4 -12   37.30   10.28
   0  -4  12   36.59   10.15
   2  -4  12  120.15   18.09
  -2   4 -12  125.55   19.14
   2   4  12  108.80   18.12
  -2   4 -12  125.68   17.69
   4   4  12   38.80   12.04
  -4   4 -12   38.96   10.41
   4  -4  12   39.83   11.03
  -4  -4 -12   30.75   10.97
  -4   4 -12   29.94   11.12
  -6   4 -12  102.92   16.85
   6   4  12  105.81   18.22
   6  -4  12  102.22   17.64
   6   4  12  104.54   15.05
  -6  -4 -12   79.97   17.25
   8   4  12    2.22    4.51
   8  -4  12    0.32    3.92
   8  -4  12    9.30    7.25
   8   4  12   10.18    8.13
  -8  -4 -12    6.03    8.86
  -8   4 -12    5.65    5.28
  10   4  12  167.67   22.87
  10   4  12  170.99   18.88
  10  -4  12  157.90   22.17
 -10  -4 -12  125.45   22.31
 -12  -4 -12   -1.74   11.73
  12   4  12    2.61    8.66
  12  -4  12   22.36    8.62
  12   4  12   16.12    8.76
  12  -4  12   10.59    7.40
 -12   4 -12   10.90    7.71
 -14   4 -12    1.44    8.33
  15   5 -12  111.34   19.11
 -15   5  12   86.04   17.26
 -15  -5  12   99.58   20.95
  15  -5 -12   86.92   17.05
 -15   5  12   76.86   16.31
 -15  -5  12   99.00   18.90
 -13   5  12   42.06   12.93
  13  -5 -12   41.83   11.78
 -13   5  12   50.18   13.38
 -13  -5  12   49.65   14.29
  13   5 -12   37.90   12.17
 -11   5  12  197.44   23.54
 -11  -5  12  156.15   23.36
  11  -5 -12  162.39   19.88
  -9   5  12  246.57   23.17
   9  -5 -12  243.00   20.87
  -9  -5  12  251.31   24.81
  -7   5  12   -5.26    4.15
   7   5 -12    3.96    4.67
  -7  -5  12   20.26    8.66
   7  -5 -12    9.10    5.32
   7  -5 -12    2.21    3.44
   7  -5 -12    0.74    3.64
  -3   5  12   -4.67    4.05
   3  -5 -12    1.60    4.03
  -3  -5  12    6.49    5.19
   3  -5 -12   -5.23    2.75
   3  -5 -12    3.01    4.35
   3   5 -12    3.85    3.90
   1  -5 -12   -2.04    3.66
   1   5 -12    2.13    6.46
   1   5 -12    6.40    4.94
  -1   5  12   -3.02    4.06
  -1  -5  12   13.52    6.65
   1  -5  12  100.17   17.40
  -1   5 -12  117.78   18.97
  -1   5 -12   99.78   18.79
  -3  -5 -12  185.34   24.21
  -3   5 -12  208.04   25.78
   3  -5  12  168.79   21.73
  -3   5 -12  193.97   20.37
  -5  -5 -12   26.25   11.72
   5   5  12   26.87   11.76
   5  -5  12   30.79   10.88
  -5   5 -12   29.52   10.96
  -5   5 -12   16.83    9.96
   7  -5  12   59.42   14.48
   7   5  12   61.15   16.47
  -7  -5 -12   45.87   14.31
   9   5  12   60.16   16.01
  -9  -5 -12   37.70   14.15
   9  -5  12   41.78   11.76
   9  -5  12   36.72   12.25
  11   5  12  154.11   25.09
  11  -5  12  115.56   18.38
 -11  -5 -12  154.69   26.62
  11  -5  12  176.75   24.74
 -12  -6  12   80.30   18.63
  12  -6 -12   65.79   15.26
 -12   6  12   82.27   18.82
  12   6 -12   69.74   16.04
 -12   6  12   84.96   18.60
 -10  -6  12   15.08    8.24
 -10   6  12   15.82    9.98
 -10   6  12   14.70    8.86
  10  -6 -12    8.26    7.45
  10   6 -12   12.91    8.88
  -8  -6  12   50.16   14.02
  -8   6  12   50.47   14.41
   8  -6 -12   42.89   11.37
   6  -6 -12    3.23    5.04
   6  -6 -12    7.44    4.90
  -6   6  12   -8.01    5.45
  -6  -6  12    7.24    5.57
   6   6 -12   -0.50    5.19
   6  -6 -12    7.01    4.59
   4  -6 -12    2.40    5.07
  -4  -6  12   42.07   12.49
   4  -6 -12   49.88   11.30
   4   6 -12   -2.17    4.41
  -4   6  12    9.43    6.29
   4  -6 -12    1.85    4.57
   2  -6 -12    4.22    5.79
  -2   6  12    5.40    5.52
  -2  -6  12   75.76   15.82
   2  -6 -12   -1.66    4.23
   2   6 -12    0.24    5.00
   0  -6  12    7.11    5.79
   0  -6 -12   17.32   10.40
   0   6 -12   13.52    8.23
   0   6  12   -0.98    6.06
   0   6 -12    8.55    7.63
   2  -6  12   14.81    7.56
  -2   6 -12   -1.67    4.47
  -2  -6 -12   15.55   10.46
  -2   6 -12    4.54    8.35
   2   6  12   -5.22    5.39
  -4  -6 -12    5.07    9.56
   4   6  12    5.51    6.93
   4  -6  12   14.03    7.71
  -4   6 -12   36.27   15.11
  -4   6 -12   17.65   10.34
  -6  -6 -12   14.51   10.94
  -6   6 -12   21.83   11.74
   6  -6  12    5.99    7.57
   6  -6  12   -7.86    4.61
   6   6  12   -4.35    6.34
  -5  -7  12   33.47   11.93
   5  -7 -12    7.28    6.16
   5   7 -12    0.02    6.69
  -5   7  12   28.33   13.52
   5  -7 -12   -0.35    5.61
   3   7 -12   -4.10    5.66
   3  -7 -12    4.31    6.45
  -3   7  12   22.53   12.11
   3  -7 -12   -0.30    5.82
  -3  -7  12   23.41    8.60
   1  -7 -12   83.74   19.33
   1  -7 -12  108.47   20.39
  -1  -7  12   81.02   17.33
 -22   0  13    7.46    7.18
  22   0 -13   18.15    9.16
  20   0 -13    2.82    5.34
 -20   0  13    9.59    7.29
  18   0 -13   74.41   13.68
 -18   0  13   64.77   15.10
  16   0 -13   22.84    7.15
 -16   0  13   23.23    8.78
  14   0 -13   20.02    7.34
 -14   0  13   22.34    9.22
  12   0 -13   -2.06    3.42
 -12   0  13    9.71    4.92
 -12   0  13   11.07    6.24
 -10   0  13  124.58   12.53
 -10   0  13  108.57   15.23
  -8   0  13   85.26   11.33
   8   0 -13   81.11    9.68
   8   0 -13   70.22   11.47
  -8   0  13   78.83   12.54
  -6   0  13  101.40   13.33
   6   0 -13  102.36   11.57
   6   0 -13   93.67   11.69
  -6   0  13   92.10   11.50
   4   0 -13  110.84   11.34
   4   0 -13  111.06   13.17
  -4   0  13  112.53   13.04
  -4   0  13  111.87   11.46
  -2   0  13  194.81   15.18
  -2   0  13  240.47   16.82
   2   0 -13  222.72   14.74
   2   0 -13  227.14   18.51
   0   0  13  157.89   14.21
   0   0 -13  148.06   17.73
   0   0  13  170.43   14.12
   0   0 -13  175.45   13.04
  -2   0 -13    1.38    3.11
   2   0  13    0.00    3.38
  -2   0 -13   -2.13    9.62
   2   0  13   -2.93    2.40
  -4   0 -13   20.95    5.39
  -4   0 -13    8.09    8.54
   4   0  13   15.86    5.79
   4   0  13   11.91    5.35
   6   0  13   44.11    8.53
   6   0  13   27.31    8.15
  -6   0 -13   22.69   14.46
   8   0  13   -0.37    4.08
   8   0  13    7.71    5.00
  -8   0 -13    7.86    7.60
 -10   0 -13  147.40   25.36
  12   0  13    4.69    4.35
 -12   0 -13    0.86   12.79
  14   0  13   -4.36    4.25
 -14   0 -13   11.99   14.19
 -16   0 -13   51.00   18.90
 -21  -1  13   93.41   19.66
  21   1 -13   86.07   17.05
  21   1 -13   80.74   16.27
 -19  -1  13  115.22   20.44
  19   1 -13   95.80   16.77
  19   1 -13  124.78   19.03
 -17   1  13   -2.10    4.18
  17   1 -13   -4.36    3.46
  17   1 -13   13.51    6.49
  17  -1 -13   -4.63    3.05
 -17  -1  13   18.23    8.58
 -15  -1  13   19.60    9.00
 -15   1  13   46.23   12.06
  15   1 -13   34.80    9.52
 -13   1  13   45.52   12.00
 -13  -1  13   55.02   12.89
 -11  -1  13  150.28   15.94
  11  -1 -13   99.09   13.95
 -11  -1  13  164.06   16.26
 -11   1  13  161.83   12.87
 -11   1  13  168.33   17.42
   9   1 -13   91.27   13.02
  -9   1  13   88.88   14.42
   9  -1 -13  116.49   10.98
  -9  -1  13  101.01   13.87
  -9  -1  13  108.49   14.30
  -9   1  13   92.85    9.63
   9  -1 -13  101.64   13.55
  -7   1  13  160.29   15.56
   7  -1 -13  161.91   13.31
  -7  -1  13  168.11   15.18
  -7  -1  13  154.46   14.43
   7   1 -13  174.85   15.12
  -7   1  13  170.02   12.13
   7   1 -13  164.82   13.48
   7  -1 -13  174.41   14.88
  -5   1  13  189.49   13.14
  -5  -1  13  205.98   16.66
   5  -1 -13  201.28   15.45
   5   1 -13  195.03   16.62
  -5   1  13  172.26   15.80
   5  -1 -13  190.23   14.55
   5   1 -13  192.46   15.25
  -5  -1  13  179.17   14.51
  -3  -1  13  319.54   18.06
   3  -1 -13  336.17   17.80
  -3   1  13  318.51   21.15
   3  -1 -13  319.57   20.31
   3   1 -13  318.83   21.29
  -3   1  13  298.51   17.17
   3   1 -13  310.27   18.93
  -3  -1  13  295.17   19.75
  -1  -1  13    8.42    4.61
   1  -1 -13    4.78    4.06
   1   1 -13   15.70   10.97
   1  -1 -13    7.40    7.41
  -1   1  13    4.98    4.79
  -1   1  13   13.49    5.05
  -1  -1  13    9.02    5.24
   1   1 -13   11.14    5.06
   1  -1  13  160.86   11.96
  -1  -1 -13  164.03   11.57
   1   1  13  178.93   14.36
  -1   1 -13  167.99   19.99
   1   1  13  175.14   15.37
   1  -1  13  153.35   15.01
  -1  -1 -13  155.33   17.75
  -1   1 -13  171.48   13.53
   3   1  13  514.02   25.63
  -3  -1 -13  503.63   18.64
  -3   1 -13  497.84   22.28
   3  -1  13  514.07   28.47
  -3   1 -13  480.84   31.66
   3   1  13  510.53   26.18
   3  -1  13  518.47   19.42
   5   1  13  106.70   15.25
   5   1  13  102.82   13.05
   5  -1  13   93.02   14.76
  -5  -1 -13   75.75   16.44
  -5   1 -13  105.60   10.72
  -5   1 -13  108.31   19.78
  -7  -1 -13   -1.54    9.83
   7   1  13  102.99   13.41
   7   1  13  105.30   16.44
  -9  -1 -13   31.22   16.17
   9   1  13   47.36   10.40
 -11   1 -13  107.07   22.51
 -11  -1 -13  146.31   25.64
  11   1  13  154.98   15.91
  13  -1  13  108.16   20.89
 -13   1 -13  120.45   24.49
 -13  -1 -13   65.84   20.65
 -15  -1 -13   11.33   15.71
  15   1  13   -4.01    6.12
  15  -1  13   13.39    9.30
 -15   1 -13   22.88   13.79
  20   2 -13   50.83   13.56
 -20  -2  13   60.70   15.85
  20   2 -13   40.42   11.72
  18   2 -13   74.16   15.12
 -18  -2  13   73.27   15.84
  18   2 -13   70.63   14.79
  16   2 -13   39.71   11.03
 -16   2  13    2.63    4.47
  16   2 -13    0.06    3.37
 -16  -2  13   29.00   10.41
  14   2 -13    0.66    3.34
 -14   2  13    1.69    3.40
  14   2 -13   -1.54    3.69
 -14  -2  13   -4.00    5.46
  14  -2 -13    1.23    4.21
  12  -2 -13  133.44   12.03
  12  -2 -13  117.33   13.47
  12  -2 -13  108.07   15.47
 -12  -2  13  139.52   17.95
 -10   2  13  267.43   22.06
  10  -2 -13  232.16   16.58
 -10  -2  13  283.58   20.71
 -10  -2  13  257.63   21.61
  10  -2 -13  234.57   18.83
  10  -2 -13  275.74   16.80
  -8   2  13  561.08   31.09
   8   2 -13  462.14   26.21
  -8  -2  13  559.41   26.54
  -8  -2  13  554.57   30.10
   8  -2 -13  552.25   26.80
   8  -2 -13  555.02   25.73
  -6  -2  13  210.85   18.71
  -6  -2  13  211.12   15.95
  -6   2  13  212.42   18.80
   6  -2 -13  201.71   15.68
   6  -2 -13  216.76   16.97
  -4   2  13  214.18   18.93
  -4   2  13  236.18   13.01
   4   2 -13  224.09   17.03
  -4  -2  13  235.15   15.41
   4  -2 -13  188.29   14.54
  -4  -2  13  212.33   18.26
   4  -2 -13  217.72   17.30
   4   2 -13  218.89   17.12
  -2   2  13  273.25   15.31
   2   2 -13  242.23   19.55
   2   2 -13  272.09   18.72
  -2  -2  13  268.73   15.05
   2  -2 -13  261.78   15.86
   2  -2 -13  266.33   19.89
  -2  -2  13  263.28   20.22
  -2   2  13  261.47   20.64
   0   2  13  303.27   17.48
   0  -2 -13  293.87   21.78
   0  -2 -13  314.88   15.74
   0   2 -13  297.10   19.30
   0   2  13  282.91   21.40
   0   2 -13  264.89   21.90
   2  -2  13   49.02   11.32
  -2  -2 -13   74.46    8.19
   2   2  13   86.86   14.14
  -2   2 -13   68.64   11.49
  -2   2 -13   59.28   14.39
   2   2  13   68.36   11.13
  -4   2 -13  280.16   25.22
   4   2  13  237.25   18.48
  -4   2 -13  236.02   17.20
   4   2  13  262.40   20.48
   6   2  13   97.22   15.02
   6   2  13  122.93   16.17
   6  -2  13  114.83   17.70
  -6   2 -13  118.42   13.95
  -8  -2 -13   41.95   15.49
   8   2  13   54.75   11.94
  -8   2 -13   85.27   12.42
   8  -2  13   74.11   15.32
   8   2  13   73.77   14.51
 -10   2 -13    8.46    5.97
  10   2  13   30.29    9.93
 -10  -2 -13   22.89   13.87
  10  -2  13   26.40    9.53
 -12   2 -13    2.52    5.50
  12  -2  13   27.82   10.21
 -12  -2 -13   18.22   13.73
  12   2  13    6.34    4.85
  12   2  13   27.27   10.69
 -14   2 -13   29.05   14.03
 -14  -2 -13   40.23   19.13
  14  -2  13   28.64   11.65
  19   3 -13   48.13   13.15
 -19   3  13    6.69    7.20
  19   3 -13   27.32   11.35
 -19  -3  13   34.53   13.01
  17   3 -13   25.00    9.29
 -17  -3  13   48.59   13.16
  17   3 -13   27.53   10.64
 -15  -3  13  116.33   18.99
  15   3 -13  122.56   20.82
  13  -3 -13   46.37   11.39
 -13  -3  13   65.94   14.41
  11  -3 -13   88.55   12.63
  11  -3 -13   85.86   14.45
  11  -3 -13   95.39   13.99
 -11  -3  13   80.47   14.28
   9  -3 -13  133.67   16.11
   9  -3 -13  144.94   13.99
   9  -3 -13  135.34   14.22
   7  -3 -13  475.43   24.92
  -7  -3  13  446.31   23.74
   7  -3 -13  436.53   24.53
   7  -3 -13  493.05   26.87
   5   3 -13  226.92   18.79
   5  -3 -13  288.18   21.29
  -5   3  13  332.11   24.78
   5  -3 -13  303.19   19.21
   3   3 -13  326.15   21.51
   3  -3 -13  356.26   19.59
   3  -3 -13  322.81   22.96
  -3   3  13  337.09   25.48
   3   3 -13  339.23   22.68
  -1   3  13   47.01   11.55
  -1  -3  13   42.99   10.80
   1   3 -13   51.68   11.46
   1   3 -13   43.14   10.16
   1  -3 -13   45.80    8.14
   1  -3 -13   45.98   11.31
   1   3  13  100.06   10.57
   1  -3  13   97.42   16.14
  -1   3 -13  103.20   16.40
   1   3  13   61.51   13.23
  -1   3 -13   97.34   14.82
   3   3  13   28.10    9.59
   3  -3  13   26.01    9.70
  -3   3 -13   40.49   12.57
   3   3  13   39.35    8.40
  -3   3 -13   28.84    8.52
   5   3  13   27.26    7.93
   5   3  13   14.37    7.88
  -5  -3 -13    1.12    5.35
   5  -3  13   16.66    7.55
  -5   3 -13    5.66    7.23
  -5   3 -13   20.05    7.42
  -7   3 -13    4.38    4.87
   7   3  13   -2.37    4.25
   7   3  13    6.00    6.15
  -7  -3 -13    3.15    9.09
  -7   3 -13    8.71    5.46
   7  -3  13    0.73    4.82
  -9  -3 -13   82.00   18.64
   9  -3  13   75.27   13.04
   9   3  13   87.02   15.93
   9   3  13   92.29   16.00
   9  -3  13   75.38   15.76
  11   3  13  183.53   23.74
 -11  -3 -13  155.14   25.61
  11   3  13  180.43   22.00
  11  -3  13  177.23   23.82
  13   3  13   22.22   10.22
  13   3  13   18.06    8.23
  13  -3  13   16.33    8.89
 -13  -3 -13   11.19   16.48
 -13   3 -13    5.45    6.76
  18   4 -13   10.35    9.19
 -18   4  13   16.75   10.78
 -18  -4  13   25.41   10.68
  18   4 -13    4.60    7.58
  18  -4 -13   -0.45    5.06
 -16  -4  13    3.16    8.53
 -16   4  13   -4.25    5.75
  16   4 -13    0.39    5.96
  16  -4 -13   -3.52    3.51
 -14  -4  13  200.66   21.27
 -14   4  13  217.64   20.37
  14  -4 -13  192.81   20.25
  14   4 -13  194.49   20.21
 -12   4  13  111.78   16.87
  12  -4 -13   96.71   16.05
 -12  -4  13  116.73   17.41
  10  -4 -13   59.85   12.55
 -10  -4  13   85.72   14.39
  10  -4 -13   60.68   12.19
  10  -4 -13   66.12   13.22
   8  -4 -13  213.89   18.52
   8  -4 -13  223.00   19.09
  -8  -4  13  210.02   21.45
   8  -4 -13  243.61   21.12
  -6  -4  13   14.68    7.14
   6  -4 -13    5.19    5.38
   6  -4 -13   13.26    6.22
  -6   4  13    0.78    4.11
   6   4 -13   -0.67    3.02
   6  -4 -13   13.16    6.59
  -4  -4  13  159.81   21.33
  -2  -4  13   61.22   13.52
   2   4 -13   78.04   13.89
  -2   4  13   71.83   15.76
   2  -4 -13   64.23   10.35
   0   4 -13   56.64   13.49
   0   4  13   48.96   13.33
   0   4 -13   49.08   11.71
   0  -4  13   52.88   12.80
   2   4  13   12.25    7.06
  -2   4 -13    1.65    4.94
  -2   4 -13    8.42    7.06
  -2  -4 -13    0.69    3.55
   2  -4  13   10.62    6.07
  -4   4 -13   33.73   11.86
   4   4  13   30.56   10.98
   4  -4  13   26.47    9.43
  -4  -4 -13   15.84    9.62
  -4   4 -13   23.62    8.20
  -6   4 -13   11.22    7.23
  -6   4 -13    9.88    5.80
   6   4  13    6.33    7.27
   6  -4  13    4.00    6.59
  -6  -4 -13   14.03   10.04
   8  -4  13   60.33   14.21
   8   4  13   53.44   11.73
   8   4  13   59.26   14.61
  -8  -4 -13   52.58   16.30
  10   4  13   10.13    9.12
  10  -4  13    7.05    6.15
 -10   4 -13    7.39    7.06
  10  -4  13   19.85    9.34
  10   4  13   12.91    7.21
 -10  -4 -13    9.05   12.08
  12   4  13   91.54   17.53
 -12  -4 -13   80.20   21.70
  12   4  13   96.80   19.43
  12  -4  13   77.09   17.18
 -15   5  13   93.31   18.18
  15   5 -13   85.04   17.16
 -15   5  13   70.98   16.72
 -15  -5  13   32.03   13.17
  15  -5 -13   61.38   14.62
 -13   5  13   -7.44    5.82
  13   5 -13   23.59    9.50
 -13   5  13    7.56    6.60
  13  -5 -13   10.55    6.73
 -13  -5  13   15.94    8.53
 -11  -5  13   60.02   15.11
  11  -5 -13   44.22   11.73
  -9  -5  13   12.13    7.30
   9  -5 -13   14.39    6.66
  -9   5  13    3.93    5.59
   9   5 -13   -0.81    3.93
   9  -5 -13   16.91    7.50
   9  -5 -13   11.32    6.61
   7  -5 -13   51.50   11.91
  -7  -5  13   67.82   15.49
   7  -5 -13    5.43    4.09
  -5  -5  13    8.57    5.61
   5  -5 -13    7.42    5.17
   5   5 -13   -5.05    3.78
  -5   5  13   -0.40    4.49
   5  -5 -13   -0.52    4.05
   5  -5 -13   -1.51    3.71
   3   5 -13   10.72    6.74
  -3   5  13    1.58    5.02
  -3  -5  13   15.37    7.73
   3  -5 -13   -1.14    3.90
   3  -5 -13    0.88    4.18
   3  -5 -13    7.45    6.02
   1   5 -13   34.17   10.82
  -1   5  13   -2.51    4.33
   1  -5 -13    3.82    5.12
   1   5 -13    1.28    4.44
  -1  -5  13   23.73    9.06
  -1   5 -13   39.40   11.33
  -1   5 -13   40.71   12.96
   1  -5  13   32.03   10.21
   3  -5  13   44.50   12.58
  -3  -5 -13   18.76   11.15
  -3   5 -13   51.68   13.98
  -3   5 -13   46.89   13.07
   3   5  13   50.86   14.20
   5  -5  13   55.22   14.28
  -5   5 -13   75.78   16.36
   5   5  13   61.98   16.52
  -5   5 -13   66.03   17.65
  -5  -5 -13   58.16   16.52
  -7  -5 -13   58.85   17.41
   7  -5  13   75.77   16.91
   7   5  13   79.31   18.59
  -9   5 -13   -3.18    7.76
   9   5  13  -10.88    6.72
   9  -5  13   -8.71    4.71
  -9  -5 -13    8.71   10.71
   9  -5  13    0.14    5.58
 -12   6  13    7.41    8.78
  12   6 -13   14.73    9.68
 -12  -6  13   11.43    7.48
  12  -6 -13    2.76    6.01
 -12   6  13    9.90    7.91
  10  -6 -13   60.82   14.87
 -10   6  13   67.05   17.03
  10  -6 -13   49.96   13.44
 -10  -6  13   45.51   13.64
  10  -6 -13   53.30   13.19
   8  -6 -13   -0.04    5.29
  -8   6  13    5.90    7.49
   8  -6 -13   -2.04    4.63
   8   6 -13   -1.61    5.23
  -8  -6  13   45.92   13.24
   8  -6 -13   33.40   10.36
   6  -6 -13   13.39    7.07
   6  -6 -13    1.26    4.66
  -6   6  13   -7.64    5.98
   6  -6 -13   -0.05    5.07
   6   6 -13    0.25    5.10
  -6  -6  13   14.59    7.77
   4  -6 -13    5.85    5.81
  -4   6  13   -4.84    5.74
   4   6 -13    1.54    5.13
   4  -6 -13   -1.42    4.28
  -4  -6  13   14.29    7.15
   2   6 -13    4.33    4.59
  -2  -6  13    0.66    4.72
   2  -6 -13   -3.15    5.33
  -2   6  13   -2.40    6.01
   0  -6  13   48.22   13.18
   0   6 -13   33.79   11.80
  -2   6 -13   48.13   14.29
   2  -6  13   49.28   13.51
  -2  -6 -13   52.81   15.99
  -2   6 -13   64.97   16.62
  -4   6 -13   74.76   17.18
   4  -6  13   92.97   18.96
  -4  -6 -13   71.63   18.45
  -4   6 -13   75.27   19.03
  -6   6 -13   -0.20   11.61
  -6  -6 -13    0.98    9.91
   6  -6  13   -4.99    5.33
   6  -6  13   10.70    7.63
   6   6  13    2.11    7.89
  22   0 -14   11.88    9.30
 -22   0  14   11.71    7.99
 -20   0  14   81.09   17.96
  18   0 -14    0.86    4.12
 -18   0  14   17.11    9.34
 -16   0  14   89.89   17.72
  16   0 -14   73.78   13.28
 -14   0  14   37.09    9.55
 -14   0  14   44.44   12.27
 -12   0  14  134.08   13.87
 -12   0  14  143.96   18.61
  10   0 -14  601.24   29.24
 -10   0  14  673.60   29.01
 -10   0  14  647.58   32.83
   8   0 -14   37.22    8.71
  -8   0  14   37.43    9.26
   8   0 -14   38.31    8.53
  -8   0  14   45.06    9.08
   6   0 -14   18.97    8.46
   6   0 -14   20.46    6.93
  -6   0  14   22.42    6.67
  -6   0  14   20.69    6.56
   4   0 -14   65.16   12.27
   4   0 -14   69.05   10.47
  -4   0  14   70.98   11.83
  -4   0  14   74.77   11.37
   2   0 -14  535.93   28.32
  -2   0  14  535.84   26.32
  -2   0  14  537.87   26.22
   2   0 -14  521.31   23.35
   0   0 -14  923.70   38.44
   0   0  14 1007.30   35.01
   0   0  14  940.10   36.55
   0   0 -14  971.01   31.12
  -2   0 -14   55.54    8.87
   2   0  14   51.32   10.89
  -2   0 -14   30.93   13.95
   2   0  14   51.81    9.31
   4   0  14   76.19   10.81
   4   0  14   85.28   14.03
  -4   0 -14   84.79    8.84
  -4   0 -14   81.80   18.43
  -8   0 -14   -0.50    6.36
   8   0  14   -0.90    3.22
 -10   0 -14   -2.77    5.50
  10   0  14   -0.14    3.89
 -12   0 -14  134.15   25.71
 -14   0 -14   36.36   18.20
  21   1 -14   82.45   16.40
 -21  -1  14  103.35   20.65
  21   1 -14  103.50   17.86
  19   1 -14    1.68    5.94
 -19   1  14    1.67    5.38
 -19  -1  14    5.87    7.41
  19   1 -14    3.45    5.49
  19  -1 -14   -4.02    3.84
 -17   1  14   60.44   14.66
 -17  -1  14   73.61   16.54
  17   1 -14   46.45   11.46
 -15  -1  14   19.15    9.03
  15   1 -14   -0.02    3.12
 -15   1  14   12.00    6.79
 -13  -1  14   91.32   15.61
  13  -1 -14   71.79   13.68
 -13  -1  14   85.77   14.80
 -13   1  14   98.39   16.93
 -11   1  14   16.45    5.76
  11   1 -14    0.41    4.18
  11  -1 -14   12.70    6.46
 -11  -1  14   13.48    6.48
 -11   1  14   13.33    6.74
 -11  -1  14   13.15    6.45
  -9   1  14  289.13   17.13
   9  -1 -14  286.48   20.10
  -9  -1  14  293.30   20.74
  -9  -1  14  255.06   19.54
   9  -1 -14  292.58   17.38
  -9   1  14  273.09   21.74
   7  -1 -14  316.99   18.81
  -7   1  14  307.97   21.94
   7   1 -14  279.23   19.39
  -7  -1  14  303.75   20.94
   7  -1 -14  269.01   18.64
  -7  -1  14  315.88   20.32
  -7   1  14  300.52   17.05
   5   1 -14  102.67   13.25
  -5  -1  14  109.99   13.09
   5   1 -14  103.54   14.12
  -5   1  14  112.28   10.85
   5  -1 -14  117.21   13.70
  -5  -1  14   85.18   13.00
   5  -1 -14  108.82   12.56
  -5   1  14   79.02   13.02
   3  -1 -14  249.45   15.95
  -3  -1  14  255.05   17.06
   3   1 -14  230.60   20.06
  -3   1  14  230.48   18.71
  -3  -1  14  225.29   18.20
  -3   1  14  224.38   15.50
   3  -1 -14  231.86   18.67
   3   1 -14  243.46   17.56
  -1  -1  14    8.97    4.56
   1  -1 -14    5.19    8.06
  -1   1  14    4.98    3.45
   1   1 -14    0.01   10.31
   1   1 -14    8.54    4.80
  -1  -1  14   10.42    5.37
   1  -1 -14    7.41    4.34
  -1   1  14    2.28    4.34
   1  -1  14  135.31   16.75
  -1  -1 -14  157.29   11.68
  -1   1 -14  164.51   20.76
  -1  -1 -14  137.14   17.93
   1   1  14  160.06   15.28
   1   1  14  157.50   14.11
   1  -1  14  154.41   12.17
  -1   1 -14  172.32   14.16
  -3   1 -14   40.40    8.65
   3  -1  14   32.06    9.11
   3   1  14   38.95    9.20
  -3   1 -14   46.42   15.66
   3   1  14   24.79    7.36
  -3  -1 -14   23.13   11.07
   5   1  14  146.25   15.68
   5   1  14  159.43   15.30
  -5   1 -14  147.80   12.81
  -5   1 -14  117.10   20.19
  -7   1 -14    0.14    6.69
   7   1  14    2.14    4.70
   7  -1  14   -3.34    3.30
  -7  -1 -14   -6.79    5.31
   7   1  14   16.46    7.39
  -9  -1 -14   24.65   16.56
   9   1  14   22.12    8.02
  11   1  14   -1.91    4.12
  11  -1  14   -1.72    3.61
 -11   1 -14    8.68    6.01
 -11  -1 -14   18.64   15.34
 -13  -1 -14   32.58   17.26
 -13   1 -14   64.07   18.87
  13  -1  14   55.91   15.68
  15   1  14   -1.47    6.04
 -15   1 -14   13.85   14.28
 -15  -1 -14   -0.25   14.08
  15  -1  14   11.04    7.80
  20   2 -14   64.75   14.80
  20   2 -14   54.65   13.65
 -20  -2  14   50.77   14.03
  18   2 -14   62.96   14.18
  18   2 -14   54.73   12.83
 -18  -2  14   62.83   14.22
 -16   2  14    4.80    5.18
  16   2 -14   13.47    6.99
  16   2 -14    3.55    4.50
 -16  -2  14    8.81    7.84
  16  -2 -14   -2.38    3.50
  14  -2 -14    2.03    3.63
 -14   2  14    6.78    5.06
 -14  -2  14   -6.22    3.37
 -14  -2  14    8.91    6.65
  14   2 -14    1.67    3.57
 -12  -2  14   56.05   12.44
 -12  -2  14   11.39    6.53
  12  -2 -14   26.07    8.56
 -12   2  14   19.84    8.93
  10  -2 -14    6.07    5.40
  10   2 -14   -3.17    3.01
 -10  -2  14    1.92    4.27
 -10   2  14    8.77    5.93
 -10  -2  14    3.87    5.02
  10  -2 -14    2.27    5.22
  -8  -2  14  237.31   20.21
  -8   2  14  250.07   21.17
   8  -2 -14  229.85   17.52
   8   2 -14  229.65   18.96
  -8  -2  14  241.01   17.90
   8  -2 -14  245.68   18.53
   6   2 -14  222.30   18.27
  -6  -2  14  232.78   16.93
   6  -2 -14  230.94   17.72
  -6  -2  14  227.78   19.71
  -6   2  14  241.77   20.78
   6  -2 -14  231.43   17.36
  -4   2  14  217.59   13.47
   4   2 -14  243.50   18.93
  -4  -2  14  226.22   15.78
   4  -2 -14  229.28   16.45
   4  -2 -14  214.18   17.98
   4   2 -14  215.41   17.72
  -4  -2  14  248.51   20.46
  -4   2  14  225.63   19.86
  -2   2  14  465.57   28.34
  -2   2  14  491.01   21.80
  -2  -2  14  489.98   28.62
   2   2 -14  483.64   25.81
   2   2 -14  454.69   26.53
   2  -2 -14  493.05   22.10
   2  -2 -14  476.54   27.25
   0  -2 -14   41.78    7.61
   0   2  14   40.67    8.52
   0   2  14   29.63    8.98
   0  -2  14   25.76    8.21
   0  -2 -14   30.66   10.28
   0   2 -14   38.84   12.49
   0   2 -14   32.16    8.41
  -2   2 -14   23.84    7.01
   2   2  14   22.31    6.63
   2   2  14   22.22    8.20
  -2   2 -14   30.92   12.91
  -4   2 -14    2.08    4.31
  -4   2 -14    9.12   10.21
   4   2  14   16.91    6.05
   4  -2  14   -1.00    3.19
   4   2  14   10.47    6.13
  -4  -2 -14   -1.48    5.70
   6   2  14  154.17   18.37
   6   2  14  151.42   16.36
  -8  -2 -14   48.14   17.32
   8   2  14   63.96   13.39
   8   2  14   48.94   11.53
   8  -2  14   54.63   14.09
  10  -2  14   30.50   10.82
 -10   2 -14   10.16    5.22
  10   2  14   27.49    9.96
  10   2  14   13.76    7.61
 -10  -2 -14   12.86   14.76
  12   2  14   45.02   12.17
  12  -2  14   55.74   14.55
 -12  -2 -14   36.27   18.12
 -14  -2 -14   71.97   23.61
 -14   2 -14  113.12   24.42
  14  -2  14   98.17   21.12
 -19   3  14    1.69    6.78
 -19  -3  14   21.34   11.16
  19  -3 -14   -1.36    5.34
  19   3 -14   13.96    8.48
  19   3 -14    9.78    7.60
 -17  -3  14  132.03   21.30
  17   3 -14  165.17   21.88
  17   3 -14  203.68   26.83
  15  -3 -14   -0.78    4.24
 -15   3  14   -1.99    5.02
 -15  -3  14   40.83   11.87
  15   3 -14    2.82    4.33
 -15  -3  14    2.37    4.60
  13  -3 -14  144.32   18.67
 -11  -3  14   -0.67    3.97
  11   3 -14    3.10    3.66
  11  -3 -14    7.51    6.30
  11  -3 -14   23.29    7.68
 -11  -3  14    9.54    6.11
 -11   3  14   -3.61    3.83
  11  -3 -14   20.89    7.59
   9  -3 -14   67.87   12.75
  -9  -3  14   81.36   12.92
   9  -3 -14   71.33   12.84
   9  -3 -14   71.55   12.15
   7  -3 -14    6.67    6.05
  -7   3  14    2.94    5.33
   7   3 -14    6.39    4.91
   7  -3 -14    5.86    5.22
  -7  -3  14    2.47    5.10
  -7  -3  14   -5.14    2.96
  -5   3  14   42.79   11.44
   5  -3 -14   32.53    9.86
   5  -3 -14   36.42    8.79
   3  -3 -14   91.93   15.29
   3  -3 -14  108.35   11.34
   3   3 -14   97.09   13.64
  -3   3  14   99.73   17.12
   3   3 -14   79.28   14.03
   1  -3 -14   39.23   10.98
  -1   3  14   83.91   15.78
   1  -3 -14   82.38   10.63
   1   3 -14   86.55   14.33
   1   3 -14   92.41   14.70
   1  -3  14  218.62   21.19
  -1   3 -14  226.68   19.47
   1   3  14  280.77   23.85
  -1   3 -14  261.21   22.53
  -3  -3 -14    1.34    4.86
   3   3  14   20.88    8.33
   3  -3  14   -1.02    4.85
   3   3  14    5.07    4.07
  -3   3 -14    8.14    8.80
  -3   3 -14    8.42    5.62
  -5   3 -14  289.37   21.60
   5  -3  14  267.81   24.11
   5   3  14  292.09   24.09
   5   3  14  237.69   19.83
   7   3  14   34.39    9.98
  -7  -3 -14   36.22   14.40
   7   3  14   79.70   15.93
   7  -3  14   53.65   13.49
  -7   3 -14   52.23   11.72
   9   3  14   17.88    8.07
  -9  -3 -14   22.30   14.33
  -9   3 -14    1.73    5.70
   9   3  14   28.82   10.16
   9  -3  14   27.34   10.20
  11   3  14   36.24   11.60
  11  -3  14   25.68   10.25
 -11  -3 -14   25.94   16.21
 -11   3 -14    0.71    6.64
  11   3  14   21.37   10.41
  13   3  14   26.32   10.66
  13   3  14   18.06    9.59
  13  -3  14   21.40   10.35
 -13   3 -14    7.19    8.05
 -13  -3 -14   16.56   17.44
  18  -4 -14   30.95   11.45
 -18  -4  14   27.75   10.70
  18   4 -14   34.04   11.94
  16   4 -14   40.60   12.49
  16  -4 -14   32.54   10.99
 -16  -4  14   47.36   13.46
 -14  -4  14  118.23   18.62
  14  -4 -14   84.22   15.83
  12  -4 -14   65.63   13.88
  12  -4 -14   79.50   13.69
 -12  -4  14   86.47   15.43
  12  -4 -14   67.77   13.14
  10  -4 -14   18.51    7.25
  10  -4 -14   18.87    8.41
 -10   4  14    2.18    5.53
  10  -4 -14   38.66   10.62
  10   4 -14    1.30    3.77
   8  -4 -14   10.20    5.94
  -8  -4  14    0.95    3.76
   8  -4 -14    7.56    6.57
   8   4 -14    4.16    3.70
  -8   4  14    5.07    4.36
   8  -4 -14   11.50    6.68
   6  -4 -14    6.20    5.41
   6   4 -14    0.10    3.28
   6  -4 -14   11.73    6.04
  -6  -4  14    9.84    6.29
  -6   4  14    2.77    4.51
   6  -4 -14    3.99    4.46
   4  -4 -14   30.18    8.32
  -4  -4  14   28.46    9.66
   4   4 -14   21.97    7.90
  -4   4  14    8.00    6.22
   2  -4 -14  149.85   13.87
  -2   4  14  146.17   21.67
  -2  -4  14  180.37   19.70
   2   4 -14  161.72   17.47
   2   4 -14  160.64   20.26
   0   4  14   64.31   15.43
   0   4 -14   35.15   10.39
   0  -4  14   32.58   10.46
   0   4 -14   32.05   10.58
  -2   4 -14   45.40   11.22
   2   4  14   48.36   13.13
   2  -4  14   39.99   11.82
  -2   4 -14   60.66   14.43
  -4   4 -14   45.59   13.69
  -4   4 -14   45.69   12.03
   4   4  14   55.73   14.38
   4  -4  14   36.13   11.26
  -6   4 -14   50.32   12.04
   6   4  14   51.75   14.57
   6  -4  14   40.94   12.96
  -6  -4 -14   23.57   11.21
   8  -4  14   63.08   15.21
  -8  -4 -14   62.11   18.74
   8   4  14   91.04   18.31
  10  -4  14   68.28   14.02
  10   4  14   78.83   15.98
  10   4  14   58.43   16.39
  10  -4  14   63.75   16.13
 -10  -4 -14   79.56   20.41
 -12   4 -14   15.83    9.71
  15   5 -14   29.80   10.88
 -15  -5  14   10.71    8.68
  15  -5 -14   18.79    9.41
 -15   5  14    8.82    9.76
  13  -5 -14   68.05   15.22
  13  -5 -14   80.47   15.15
 -13  -5  14   56.68   15.74
  13  -5 -14   59.43   13.63
  13   5 -14   53.23   14.40
  11  -5 -14   37.30   10.84
  11  -5 -14   39.09   11.32
 -11  -5  14   39.39   12.56
  11  -5 -14   23.82    9.09
   9  -5 -14   69.14   13.70
  -9  -5  14   57.20   14.77
   9  -5 -14   62.70   13.47
   9  -5 -14   61.94   14.18
  -5   5  14   -3.76    4.84
   5  -5 -14   -2.96    4.18
   5   5 -14   -0.54    4.62
   5  -5 -14   13.22    6.11
   5  -5 -14    1.40    4.32
  -5  -5  14   17.13    8.57
   3   5 -14   33.18   10.81
  -3   5  14   -2.96    4.72
  -3  -5  14   37.11   10.81
   3  -5 -14    2.08    4.70
   1  -5 -14   -4.88    4.06
   1   5 -14   -2.82    3.82
  -1  -5  14   28.45    9.96
  -1   5  14   -5.43    4.82
   1  -5  14    3.28    4.77
  -1   5 -14    7.44    5.99
  -1  -5 -14   -1.48    4.62
  -1   5 -14    2.57    5.89
   1   5  14    9.33    7.34
  -3  -5 -14   40.81   14.41
  -3   5 -14   61.87   15.41
  -3   5 -14   56.28   15.78
   3  -5  14   53.30   14.14
   3   5  14   47.75   14.49
   5   5  14  132.24   23.39
   5  -5  14   90.88   18.51
  -5   5 -14  128.72   24.11
  -5  -5 -14  123.98   22.84
  -5   5 -14  126.17   20.48
   7  -5  14   29.13   11.43
  -7  -5 -14   20.93   11.70
  -7   5 -14   43.95   16.46
   7   5  14   36.62   13.37
  -9  -5 -14   43.68   16.91
   9  -5  14   58.65   13.65
   9  -5  14   53.52   15.03
   9   5  14   43.76   15.09
  10  -6 -14  140.66   22.09
  10  -6 -14  137.06   19.77
  10  -6 -14  111.43   18.17
 -10  -6  14  141.50   23.81
   8  -6 -14   -2.23    4.95
   8  -6 -14   20.48    9.50
  -8  -6  14   15.75    8.99
   8  -6 -14   -5.45    5.22
  -8   6  14   -1.44    6.89
   8   6 -14   -0.35    5.57
  -6   6  14   -6.19    6.37
   6  -6 -14   47.61   12.16
   6  -6 -14    6.08    5.87
   6   6 -14   -3.23    5.45
  -6  -6  14   44.60   13.40
   6  -6 -14   -0.62    5.19
   4  -6 -14   -1.64    5.51
   4   6 -14    0.72    5.14
   4  -6 -14    0.39    6.13
  -4  -6  14   20.10    9.35
  -4   6  14   -0.89    6.48
   2   6 -14   74.40   16.66
  -2  -6  14   89.85   18.41
   0  -6  14   62.49   15.30
   0   6 -14   36.93   11.85
  -2   6 -14   41.47   13.09
  -2   6 -14   40.21   14.54
  -2  -6 -14   18.95   11.52
   2   6  14    1.47    6.50
   2  -6  14   22.63    9.74
  -4  -6 -14   17.01   11.59
   4  -6  14   29.91   11.11
  -4   6 -14   35.25   13.24
  -4   6 -14   39.94   14.09
 -20   0  15   75.19   18.18
  18   0 -15   -2.44    4.00
 -18   0  15   27.05    9.79
 -16   0  15   16.23    7.67
  16   0 -15    1.17    4.05
 -16   0  15   22.67    9.26
 -14   0  15   12.40    7.02
 -14   0  15    3.19    4.98
  14   0 -15   -0.09    3.21
 -12   0  15  164.29   20.13
 -12   0  15  138.74   14.27
  12   0 -15   93.63   14.29
 -10   0  15    3.19    4.58
  10   0 -15    3.69    4.85
 -10   0  15    4.77    5.37
   8   0 -15  214.46   17.49
  -8   0  15  220.43   18.88
  -8   0  15  265.80   18.58
   6   0 -15   39.53   10.97
   6   0 -15   36.53    8.90
  -6   0  15   45.31   10.37
  -6   0  15   49.33    9.69
  -4   0  15   39.11    8.94
   4   0 -15   36.44   11.68
  -4   0  15   27.83    8.19
   4   0 -15   33.75    8.33
   2   0 -15   59.53   14.42
  -2   0  15   50.81   10.51
  -2   0  15   44.96    9.76
   2   0 -15   51.67    9.73
   0   0  15  170.74   16.14
   0   0 -15  162.42   20.67
   0   0 -15  168.98   13.67
   0   0  15  145.69   14.30
  -2   0 -15  448.11   31.34
   2   0  15  441.28   23.35
  -2   0 -15  422.93   20.84
   2   0  15  427.05   26.01
   4   0  15   -2.26    3.43
  -4   0 -15    5.11   11.61
   4   0  15    6.01    4.71
  -6   0 -15   -1.30    7.42
   6   0  15   -0.10    3.47
  -8   0 -15   -1.42    4.97
   8   0  15    4.05    3.98
 -10   0 -15    4.33    6.49
  10   0  15    0.05    4.37
 -12   0 -15   31.61   17.76
  14   0  15   -4.52    5.17
 -14   0 -15   13.91   15.66
 -21  -1  15   25.39   10.82
  21   1 -15   15.67    8.63
 -21   1  15    5.76    7.08
  21  -1 -15    1.94    5.76
 -19   1  15   31.53   11.69
  19   1 -15    6.65    5.57
  19   1 -15  104.28   18.55
 -19  -1  15  102.46   19.40
  17  -1 -15   -0.55    4.22
  17   1 -15    2.03    4.35
 -17   1  15   11.84    8.10
 -17  -1  15   11.85    7.03
 -15  -1  15   37.41   10.46
 -15   1  15   72.86   15.62
 -15  -1  15   40.49   11.30
 -13  -1  15  152.68   16.74
 -13   1  15  137.79   19.90
 -13  -1  15  163.98   20.39
  11   1 -15   15.75    6.35
  11  -1 -15   12.52    6.84
 -11  -1  15   18.18    7.47
 -11   1  15   14.55    8.04
 -11  -1  15   26.43    8.58
   9  -1 -15  360.87   20.02
   9   1 -15  269.11   20.38
   9  -1 -15  352.13   22.79
  -9  -1  15  372.42   24.08
  -9  -1  15  351.15   23.37
  -9   1  15  371.91   25.56
  -9   1  15  378.57   19.97
  -7   1  15  346.13   23.95
  -7  -1  15  383.56   24.52
  -7  -1  15  336.26   21.55
  -7   1  15  347.31   19.28
   7  -1 -15  345.97   20.70
   7  -1 -15  359.60   21.86
   7   1 -15  338.98   22.11
  -5  -1  15  334.50   22.23
   5   1 -15  326.21   22.07
  -5   1  15  337.58   23.27
  -5  -1  15  354.63   21.69
   5  -1 -15  334.19   20.30
   5  -1 -15  355.62   21.90
   5   1 -15  313.97   20.66
  -5   1  15  329.29   19.10
  -3  -1  15   50.06   10.99
  -3   1  15   64.68   12.67
   3   1 -15   46.97   13.17
   3   1 -15   45.73    9.87
  -3  -1  15   60.38   10.35
   3  -1 -15   52.55   12.41
  -3   1  15   53.19    9.66
   3  -1 -15   60.17   10.21
   1   1 -15  199.37   21.50
   1  -1 -15  202.96   19.44
  -1   1  15  186.49   15.34
   1   1 -15  208.47   16.29
   1  -1 -15  220.65   15.05
  -1  -1  15  224.43   16.15
  -1  -1  15  196.69   17.79
  -1   1  15  229.21   19.05
  -1   1 -15   93.09   12.55
  -1  -1 -15   96.10   10.83
   1   1  15  107.89   14.82
   1   1  15   98.24   13.80
  -1   1 -15   95.99   18.67
   1  -1  15   77.73   13.83
  -1  -1 -15   81.93   15.87
  -3   1 -15   38.65    8.33
   3   1  15   28.81    8.40
  -3  -1 -15   21.68   12.08
   3   1  15   43.69   10.36
  -3   1 -15   47.17   16.06
  -5   1 -15   19.56    5.63
   5   1  15   17.67    7.14
  -5  -1 -15   -6.94    6.83
   5   1  15   14.59    7.18
  -5   1 -15    5.87    9.59
   7   1  15   77.70   13.10
  -7   1 -15    2.03    4.81
   7   1  15   19.68    7.15
   9   1  15   15.94    8.05
  -9  -1 -15   -2.03    5.32
  -9   1 -15    7.14    5.75
   9   1  15    5.12    4.38
   9  -1  15    0.86    4.57
  11  -1  15    1.38    4.59
  11   1  15    0.25    4.61
 -11  -1 -15    0.99   13.23
 -11   1 -15    7.26    6.48
 -13   1 -15   63.69   19.55
  13   1  15   -1.09    5.81
 -13  -1 -15   15.23   16.71
  20   2 -15   11.42    8.36
  20   2 -15   10.89    7.75
 -20  -2  15   16.05    8.98
 -20   2  15   -0.32    6.93
  20  -2 -15    7.17    6.13
  18   2 -15    8.72    5.58
  18  -2 -15   -1.35    4.57
 -18  -2  15   43.40   12.75
 -18   2  15    0.67    5.68
  16  -2 -15   -0.18    4.34
 -16  -2  15   13.92    7.40
 -16   2  15   -4.73    4.93
 -16  -2  15    4.08    6.57
  16   2 -15   -0.60    3.64
 -14   2  15   44.63   12.66
  14  -2 -15   36.94   10.47
 -14  -2  15   58.16   12.92
 -14  -2  15   46.10   12.49
 -12  -2  15  224.56   19.97
  12  -2 -15  197.72   18.81
 -12   2  15  169.23   21.69
 -10  -2  15  136.87   16.92
  10  -2 -15  114.89   15.95
 -10   2  15  154.88   20.16
  10  -2 -15  140.83   13.96
   8  -2 -15   78.48   12.91
  -8  -2  15  110.04   13.91
   8  -2 -15  116.42   14.24
  -8   2  15   97.56   16.61
  -6  -2  15   42.51   10.70
  -6   2  15   58.64   12.86
   6  -2 -15   68.14   11.59
   6   2 -15   61.26   12.03
   6  -2 -15   49.69   10.75
  -6  -2  15   62.86   11.06
   4  -2 -15  219.08   18.97
  -4   2  15  276.01   22.26
   4  -2 -15  211.51   16.14
  -4  -2  15  228.63   16.43
   4   2 -15  212.80   17.72
   4   2 -15  246.98   19.50
  -2   2  15  240.12   16.10
   2  -2 -15  243.76   20.67
   2  -2 -15  243.00   16.03
  -2   2  15  237.46   20.89
   2   2 -15  242.41   19.04
   2   2 -15  233.02   20.34
   0   2  15   55.75   12.70
   0   2 -15   46.55   13.65
   0   2 -15   62.50   11.93
   0  -2 -15   48.05   12.01
   0  -2 -15   64.16    9.24
   0   2  15   52.32    9.94
   2   2  15   60.05   12.85
   2   2  15   45.11    9.83
  -2   2 -15   49.58   10.67
  -2   2 -15   56.70   14.94
   4   2  15   70.31   13.36
  -4   2 -15   67.48   16.13
   4   2  15   80.12   14.91
  -4   2 -15   71.20   12.60
   6   2  15  137.95   18.67
   6   2  15  131.07   18.02
  -8   2 -15    7.52    5.31
   8   2  15    2.10    5.44
   8   2  15   -7.80    5.45
  -8  -2 -15    4.36    8.68
   8  -2  15    8.12    7.26
 -10  -2 -15   39.64   18.47
  10  -2  15   56.31   15.37
  10   2  15   63.29   13.55
  10   2  15   51.10   12.75
  12  -2  15   38.56   12.69
 -12   2 -15   10.20    7.91
  12   2  15   43.23   13.08
  12   2  15   27.89   10.69
 -12  -2 -15   15.31   16.74
 -19  -3  15    8.09    8.55
  19   3 -15    0.17    6.37
 -19   3  15   -3.81    6.41
  19  -3 -15   -0.23    4.75
  17   3 -15   91.10   17.75
 -17  -3  15  135.60   21.07
  17  -3 -15   91.88   17.67
  15   3 -15    0.16    4.83
 -15   3  15    5.11    6.44
 -15  -3  15    1.79    5.64
 -15  -3  15    7.42    7.06
  15  -3 -15    3.94    5.74
  13  -3 -15   61.54   13.62
 -13  -3  15   84.91   15.28
  11  -3 -15   43.54   10.82
 -11  -3  15   60.25   12.90
  11  -3 -15   44.96   11.17
  11  -3 -15   39.29    9.63
   9  -3 -15   44.21   10.92
  -9  -3  15   45.85   10.37
   9  -3 -15   38.93   10.41
  -9   3  15   55.88   13.62
   7  -3 -15   36.69    9.55
  -7   3  15   38.95   11.63
   7  -3 -15   38.74   10.95
   7   3 -15   15.58    7.68
   5  -3 -15  308.49   23.69
   5  -3 -15  294.69   19.85
   5   3 -15  307.82   23.18
  -5   3  15  314.92   25.72
  -3   3  15  228.74   21.84
   3  -3 -15  192.60   19.23
   3  -3 -15  213.66   16.17
   3   3 -15  221.04   18.69
   3   3 -15  209.46   18.85
  -1   3  15   57.80   13.34
   1   3 -15   37.85   10.24
   1   3 -15   33.12   10.21
  -1   3 -15   40.18   11.68
  -1   3 -15   40.65   10.72
   1   3  15   48.70   12.72
   1  -3  15   19.25    8.77
   3   3  15   37.54    9.39
  -3   3 -15   18.33   10.00
  -3   3 -15   31.82    9.73
   3  -3  15   40.40   11.44
   3   3  15   34.47   10.57
  -5   3 -15   38.15    9.94
   5   3  15   40.03    9.46
   5  -3  15   45.49   12.74
  -5   3 -15   20.01    7.75
   5   3  15   22.30    9.82
  -7  -3 -15   26.69   12.94
   7   3  15   41.09   12.48
   7  -3  15   33.22   11.36
   7   3  15   38.39    9.21
  -7   3 -15   34.24    9.95
  -9   3 -15    8.76    6.87
   9  -3  15    2.57    6.56
   9   3  15    0.06    6.30
  -9  -3 -15   11.02   13.37
   9   3  15   18.45    7.42
  11   3  15   40.43   12.35
  11   3  15   36.72   12.50
  11  -3  15   24.76   10.07
 -11   3 -15    9.29    8.75
 -11  -3 -15   20.49   16.56
  16   4 -15   14.14    8.66
 -16  -4  15    0.81    6.24
  16  -4 -15   12.84    8.01
 -16  -4  15   45.45   12.32
 -16   4  15    3.03    7.60
 -14   4  15    1.25    5.47
 -14  -4  15   76.02   14.79
  14  -4 -15   49.95   13.25
 -14  -4  15    1.41    5.73
  12  -4 -15  195.23   20.12
  10  -4 -15   76.76   13.66
  10  -4 -15   77.38   14.69
  10  -4 -15   65.40   13.75
   8  -4 -15   61.02   12.22
   8  -4 -15   70.69   13.05
   8  -4 -15   67.97   13.92
   6   4 -15  126.19   18.78
   6  -4 -15  109.68   18.11
   6  -4 -15  116.15   15.37
   4   4 -15    2.60    3.72
  -4   4  15   23.44   10.11
  -4  -4  15   34.23   10.86
   4  -4 -15   15.87    6.55
  -2   4  15   20.87    9.35
   2  -4 -15    1.35    3.99
   2   4 -15   18.39    8.01
  -2  -4  15   16.71    7.74
   0   4  15   96.03   19.15
   0   4 -15   95.36   17.11
   0  -4  15   94.40   17.81
   0   4 -15  102.49   17.56
  -2   4 -15   36.86   10.72
   2   4  15   38.79   13.08
  -2   4 -15   34.53   11.33
   2  -4  15   43.15   12.43
  -4   4 -15   15.62    9.75
  -4   4 -15   19.67    8.35
   4  -4  15   23.97    9.45
   4   4  15   21.94    9.85
   6  -4  15  101.37   19.16
   6   4  15  118.04   21.16
  -6   4 -15  124.78   19.13
  -6   4 -15  135.32   24.23
  -6  -4 -15  107.47   21.03
  -8  -4 -15   31.97   13.75
  -8   4 -15    3.94    6.87
   8   4  15   18.03   10.20
   8  -4  15   15.96    7.81
  10   4  15   72.67   18.49
 -10  -4 -15   64.97   20.11
  10  -4  15   84.60   19.04
  13  -5 -15  126.78   19.99
  13  -5 -15  109.55   18.59
  13  -5 -15   86.42   15.61
  11  -5 -15   10.42    6.58
  11   5 -15   -5.80    5.16
 -11   5  15   -1.87    6.14
  11  -5 -15   30.51   10.80
 -11  -5  15   17.98    8.71
  11  -5 -15   24.55    9.67
  -9  -5  15  108.03   20.63
   9  -5 -15   89.31   16.70
   9  -5 -15  121.87   17.44
   9  -5 -15   96.00   16.90
   7   5 -15    1.87    5.51
   7  -5 -15   12.13    9.58
  -7   5  15    2.55    6.35
  -7  -5  15   19.37    8.39
   7  -5 -15   15.28    6.93
   7  -5 -15   21.54    9.19
  -5  -5  15  107.25   19.97
   5  -5 -15   92.78   14.61
   5   5 -15   10.07    6.83
  -3  -5  15   10.09    6.39
   3  -5 -15   -5.19    4.79
  -3   5  15  -11.94    4.93
   3   5 -15    3.01    5.59
  -1   5  15   22.00   10.92
  -1  -5  15   21.01    8.79
   1   5 -15   28.21   10.40
   1  -5  15   84.83   17.82
   1   5  15   69.73   17.52
  -1   5 -15   74.55   16.85
  -1   5 -15   72.79   15.97
  -3   5 -15   50.95   15.21
   3  -5  15   25.17   10.27
   3   5  15   38.46   14.55
  -3   5 -15   33.32   11.33
   5   5  15    8.44    9.12
  -5   5 -15    6.53    6.81
  -5  -5 -15    6.09   10.20
   5  -5  15   -1.40    5.75
  -5   5 -15   17.65   11.47
   7   5  15  137.47   24.56
   7  -5  15   98.50   19.66
  -7   5 -15  139.05   25.94
  -7  -5 -15   75.68   19.23
  -8  -6  15   19.86    9.80
   8  -6 -15   36.14   12.08
   8   6 -15   -0.36    6.58
  -8   6  15   -1.79    7.66
   8  -6 -15    9.13    7.45
   8  -6 -15   20.12    8.98
  -6   6  15   -8.91    7.77
  -6  -6  15   -3.52    5.05
   6   6 -15    1.61    5.07
   6  -6 -15    0.92    6.30
   6  -6 -15   -4.16    4.92
  -4  -6  15   71.09   17.22
   4   6 -15   -1.91    5.79
  -4   6  15  -12.03    6.25
   4  -6 -15   -0.61    6.39
  -2  -6  15   40.49   13.19
   2   6 -15   25.31   10.56
  -2   6  15    4.85    7.73
   0   6 -15   -2.80    5.11
   0  -6  15   59.10   15.29
   0   6  15    6.39    8.15
   0  -6 -15   -4.87    5.70
  -2  -6 -15    2.83    7.94
  -2   6 -15   65.73   16.54
   2  -6  15   71.33   17.89
 -20   0  16   33.21   12.15
  20   0 -16   -6.13    4.54
 -18   0  16   94.19   18.59
  16   0 -16    2.44    3.91
 -16   0  16    0.01    5.94
 -14   0  16   70.49   13.19
 -14   0  16   86.59   16.94
 -12   0  16   54.91   11.21
 -12   0  16   63.27   13.55
 -10   0  16  176.70   16.08
 -10   0  16  172.59   18.08
  10   0 -16  178.35   17.02
  -8   0  16  524.35   26.84
   8   0 -16  541.59   28.26
  -8   0  16  572.85   30.81
   6   0 -16    3.09    4.83
  -6   0  16   -1.14    4.06
  -6   0  16   -0.93    3.62
   6   0 -16  -11.77    6.87
  -4   0  16   36.99    9.01
   4   0 -16   27.02    7.72
   4   0 -16   36.85   11.77
  -4   0  16   33.80    8.87
   2   0 -16  204.29   20.57
  -2   0  16  205.34   17.58
  -2   0  16  216.07   17.71
   2   0 -16  222.93   16.66
   0   0  16    5.40    4.52
   0   0 -16   -4.30    9.85
   0   0  16    2.65    4.66
   0   0 -16   -0.54    3.52
  -2   0 -16   61.69   16.75
  -2   0 -16   80.78   11.25
   2   0  16   61.25   11.96
   2   0  16   83.13   12.15
  -4   0 -16    1.32    9.46
   4   0  16    5.67    5.25
  -6   0 -16   -5.90    4.84
   6   0  16   -2.53    3.34
   8   0  16   -1.90    4.19
  -8   0 -16   -0.10    5.64
 -10   0 -16    3.15    7.00
  10   0  16    1.96    5.44
 -12   0 -16   60.79   20.95
 -19  -1  16    3.23    5.88
  19  -1 -16   -0.10    5.33
 -19  -1  16    0.68    7.06
 -19   1  16   11.86    7.25
  19   1 -16   -6.26    4.42
 -17  -1  16   97.20   17.12
 -17  -1  16   88.47   18.16
 -17   1  16  106.96   20.18
  15  -1 -16   22.12    9.10
 -15  -1  16   48.28   11.93
 -15   1  16   48.68   13.14
 -15  -1  16   51.27   12.15
 -13  -1  16   20.63    8.21
 -13   1  16    4.99    7.10
 -13  -1  16   15.12    7.32
  13  -1 -16   13.75    6.70
 -11  -1  16  176.46   17.46
 -11  -1  16  200.59   19.35
  11  -1 -16  207.38   18.96
 -11   1  16  158.41   20.40
  11   1 -16  114.12   15.79
  -9   1  16  145.08   18.84
  -9  -1  16  154.89   16.18
  -9  -1  16  158.28   16.19
   9   1 -16  111.76   15.54
   9  -1 -16  152.55   15.87
  -7  -1  16  238.79   19.77
   7  -1 -16  246.38   18.80
   7  -1 -16  254.27   18.86
  -7  -1  16  263.87   20.00
  -7   1  16  260.17   17.28
  -7   1  16  240.89   20.97
   7   1 -16  274.51   20.34
  -5  -1  16  211.58   17.01
   5  -1 -16  219.45   16.78
  -5  -1  16  192.32   17.88
  -5   1  16  213.40   19.08
   5   1 -16  231.95   18.74
   5  -1 -16  221.73   18.76
  -5   1  16  208.03   15.73
   5   1 -16  176.87   18.00
   3   1 -16   46.27   10.24
  -3   1  16   54.37   11.31
   3  -1 -16   58.97   10.41
  -3  -1  16   64.66   11.27
  -3   1  16   39.39    8.56
   3  -1 -16   54.91   13.03
  -3  -1  16   55.21   11.74
   3   1 -16   43.90   13.92
   1   1 -16  115.18   18.92
  -1  -1  16  126.24   17.19
   1  -1 -16  125.97   17.64
   1   1 -16  140.60   14.32
  -1  -1  16  146.83   13.93
   1  -1 -16  150.61   13.08
  -1   1  16  149.63   17.70
  -1   1  16  115.59   12.77
   1   1  16  354.67   24.36
  -1  -1 -16  300.53   25.53
  -1  -1 -16  319.65   18.19
  -1   1 -16  316.77   27.48
   1   1  16  279.35   20.73
  -1   1 -16  324.21   20.45
   3   1  16  183.63   17.36
   3   1  16  166.25   16.62
  -3   1 -16  151.19   13.87
  -3   1 -16  155.28   22.62
   5   1  16   40.79   10.76
  -5   1 -16    4.09    6.03
   5   1  16   43.27   11.04
   5  -1  16    3.29    4.15
   7   1  16  134.97   20.36
   9  -1  16    3.92    5.05
   9   1  16   -0.92    4.72
  -9  -1 -16    3.72    6.70
  -9   1 -16    6.70    6.39
 -11   1 -16    7.13    6.98
 -11  -1 -16  104.70   24.88
 -13   1 -16   14.31    9.15
  13   1  16   -9.34    6.10
  13  -1  16   -2.17    6.01
 -13  -1 -16   11.73   16.45
 -18  -2  16  196.40   25.54
 -16   2  16   33.40   12.25
 -16  -2  16   70.69   15.55
  16  -2 -16   32.02   10.22
 -16  -2  16   52.18   14.00
 -14  -2  16   21.22    8.55
  14  -2 -16   31.38   10.35
 -14   2  16   22.38   10.01
 -14  -2  16   29.08   10.62
 -12  -2  16   46.11   11.39
 -12   2  16   48.13   12.74
  12  -2 -16   34.24   10.21
 -12  -2  16   13.75    6.32
  10  -2 -16   85.61   14.66
 -10   2  16   83.65   15.81
 -10  -2  16   96.85   15.07
  10   2 -16   60.82   13.10
  -8   2  16   36.25   10.36
   8   2 -16   16.81    7.31
  -8  -2  16   33.24    8.40
   8  -2 -16   18.83    7.72
   8  -2 -16   34.82    9.92
  -8  -2  16    0.27    4.26
  -6   2  16   33.51   10.09
   6   2 -16   54.77   12.36
  -6  -2  16   42.37    9.05
   6  -2 -16   44.70    9.82
   6  -2 -16   47.75   10.83
   4   2 -16  388.75   24.75
  -4   2  16  322.15   24.91
   4  -2 -16  336.05   23.85
   4  -2 -16  327.38   20.37
   2  -2 -16   25.58   10.06
   2   2 -16   31.89   11.27
   2  -2 -16   46.31    9.31
  -2   2  16   28.67    7.61
  -2   2  16   30.50    9.72
   2   2 -16   39.79   10.10
   0   2  16   78.34   15.10
   0   2 -16   96.41   17.30
   0   2  16   94.96   13.08
   0   2 -16   96.04   14.33
  -2   2 -16   51.02   14.54
   2   2  16   46.68   10.26
   2   2  16   63.24   13.37
  -2   2 -16   43.73   10.51
   4   2  16   45.70   11.71
  -4   2 -16   31.37    8.65
   4   2  16   50.11   11.91
  -4   2 -16   51.72   15.53
   6   2  16   62.30   13.88
  -6   2 -16    7.55    5.89
   6   2  16   82.22   15.24
   8   2  16    4.83    5.46
   8   2  16   -2.46    6.56
  -8   2 -16    8.55    6.04
   8  -2  16    6.04    5.55
  -8  -2 -16  -10.68    5.76
 -10  -2 -16   42.89   17.90
  10   2  16   25.94   10.45
  10   2  16   13.70    8.74
  10  -2  16   17.43    9.11
 -10   2 -16   18.34    8.12
  12  -2  16   26.93   11.68
 -12   2 -16   15.93    8.50
  12   2  16   24.85   11.20
 -12  -2 -16   18.69   18.89
 -17  -3  16    0.97    5.85
 -17  -3  16   19.88    8.57
  17   3 -16    1.76    5.80
 -17   3  16   -1.19    6.87
  17  -3 -16   -3.17    4.07
 -15  -3  16  112.48   18.35
  15  -3 -16   71.41   15.12
  13  -3 -16   21.48    8.66
  13   3 -16    3.02    4.45
 -13  -3  16   47.16   11.35
 -13  -3  16    3.94    5.22
 -11   3  16   66.67   15.45
  11  -3 -16   74.98   14.58
  11  -3 -16   66.89   13.19
 -11  -3  16   73.51   13.13
  -9   3  16    3.64    5.99
  -9  -3  16   -4.32    3.78
   9   3 -16    2.86    4.16
   9  -3 -16    8.15    5.93
   9  -3 -16    5.96    6.40
   7  -3 -16   41.25   11.06
  -7   3  16   40.81   11.66
   7  -3 -16   40.93   10.77
   5   3 -16   13.56    7.05
   5  -3 -16   13.03    6.43
   5  -3 -16   13.02    7.74
  -5   3  16   12.24    6.74
  -3   3  16   60.04   13.96
   3   3 -16   69.45   13.84
   3  -3 -16   50.81   12.06
   3  -3 -16   57.23   10.99
   1   3 -16   16.01    6.74
  -1  -3  16    3.18    3.63
   1   3 -16   22.40    9.31
  -1   3  16   29.53    9.95
  -1   3 -16    4.09    5.54
   1   3  16    1.15    6.36
   1  -3  16   -2.00    3.36
  -1   3 -16    9.61    7.22
  -1  -3 -16    2.09    4.12
   3  -3  16   43.86   12.41
  -3   3 -16   46.48   11.45
  -3   3 -16   54.09   13.99
   3   3  16   46.73   13.34
   5   3  16   -7.63    6.15
   5  -3  16    0.73    5.02
   5   3  16    6.70    4.91
  -5   3 -16    2.03    4.78
  -5  -3 -16   -2.13    4.52
  -5   3 -16    4.84    7.88
   7   3  16   45.04   11.51
  -7   3 -16   39.76   10.42
   7  -3  16   33.66   11.94
   7   3  16   39.83   12.37
  -7   3 -16    9.29    7.32
   9   3  16    2.72    7.74
  -9  -3 -16    5.80   14.02
  -9   3 -16    4.79    7.46
   9  -3  16    8.52    7.61
   9   3  16    9.73    6.94
 -11   3 -16    7.14    7.41
  11   3  16    9.77    8.72
  11  -3  16    3.16    6.80
 -11  -3 -16   -2.22   13.99
  11   3  16    6.07    8.69
  16  -4 -16  118.39   20.07
 -16  -4  16  154.47   22.03
  16   4 -16  141.79   22.41
  14  -4 -16   44.97   12.49
  14   4 -16    1.42    5.35
 -14   4  16    2.21    6.10
 -14  -4  16    1.04    5.99
  12  -4 -16   32.81    9.86
  12  -4 -16   37.37   10.30
 -12  -4  16   -3.26    4.87
  12   4 -16    1.64    5.14
  12  -4 -16   38.03   11.18
 -12   4  16   -5.07    5.34
  10  -4 -16    9.16    6.30
  10  -4 -16   -1.21    4.45
 -10  -4  16   -2.99    4.23
 -10   4  16    1.22    5.53
  10  -4 -16   -2.20    5.16
  10   4 -16   -1.04    4.10
   8  -4 -16   69.78   13.62
   8  -4 -16   62.57   13.80
   6   4 -16   18.12    8.24
  -6  -4  16    2.55    5.20
   6  -4 -16   20.48    8.41
  -6   4  16   19.21   10.70
   6  -4 -16   27.13    9.94
   4   4 -16  102.99   18.34
   4  -4 -16  100.78   13.99
  -4  -4  16   96.15   18.65
  -4   4  16  101.61   19.37
   2   4 -16   13.55    7.52
  -2  -4  16   13.53    7.19
  -2   4  16   17.69    9.37
   0   4  16   77.31   17.16
   0   4 -16   76.53   16.48
   0  -4  16   85.78   17.65
   0   4 -16   79.08   15.73
   2   4  16   18.80    9.42
  -2   4 -16   19.24   10.13
   2  -4  16    9.76    7.95
  -2   4 -16   30.10    9.25
   4  -4  16   96.16   19.18
  -4   4 -16  125.12   22.40
   4   4  16  121.55   21.06
  -4   4 -16  115.43   18.80
  -6  -4 -16  113.88   23.66
  -6   4 -16  163.90   21.63
   6  -4  16  147.12   23.36
  -6   4 -16  156.16   26.11
   6   4  16  196.06   25.56
  -8   4 -16    8.30    8.97
   8  -4  16   31.80   11.71
   8   4  16   28.59   12.32
  -8  -4 -16   14.98   13.16
  13  -5 -16    2.27    5.93
 -13  -5  16   -4.00    5.82
 -13   5  16    2.01    7.28
  13   5 -16    1.75    6.37
  13  -5 -16   -3.24    7.23
  13  -5 -16   11.74    7.55
  11  -5 -16   22.31    9.09
  11  -5 -16   53.57   14.73
  11  -5 -16   42.49   12.61
 -11  -5  16    6.40    7.44
 -11   5  16   -1.36    6.35
   9  -5 -16    8.25    6.54
   9   5 -16    2.83    5.60
   9  -5 -16   26.92   11.47
  -9   5  16    5.27    6.06
   9  -5 -16   14.60    8.26
  -9  -5  16   23.85    9.85
  -7   5  16   -3.62    5.75
   7  -5 -16   14.07    8.91
  -7  -5  16   25.85   10.22
   7   5 -16   -1.36    5.20
   7  -5 -16   20.58    7.89
  -5  -5  16   16.96    8.31
   5   5 -16    7.07    7.19
   5  -5 -16    2.65    5.90
  -5   5  16   -2.24    5.71
  -3   5  16   -5.27    6.26
   3  -5 -16   -3.02    5.17
   3   5 -16   -0.63    4.28
  -3  -5  16   71.49   16.73
   1   5 -16   20.28    8.33
   1  -5 -16   -2.46    5.64
  -1  -5  16   10.79    6.82
  -1   5  16   12.99    9.96
   1  -5  16  128.50   22.00
   1   5  16  164.73   25.86
  -1   5 -16  135.17   21.99
  -3   5 -16   87.20   19.71
  -3   5 -16   76.07   16.48
   3  -5  16   61.28   15.97
   3   5  16   71.85   17.78
  -5   5 -16   44.16   15.36
  -5  -5 -16   23.58   13.32
   5   5  16   29.03   13.18
   5  -5  16   17.02    9.70
  -5   5 -16   37.16   12.38
  -6   6  16    0.53    7.44
   6  -6 -16    5.59    6.80
   6   6 -16    1.80    5.80
  -6  -6  16    2.33    5.59
  -4  -6  16   10.88    6.80
   4   6 -16    0.55    7.28
   4  -6 -16   -8.18    5.49
  -4   6  16    3.93    7.69
   2   6 -16   24.35    9.90
   2  -6 -16   -1.00    6.15
  -2  -6  16   27.21   10.18
  -2   6  16   -8.03    6.66
 -20   0  17   80.09   17.72
 -18   0  17   33.16   11.37
  16   0 -17    1.56    3.80
 -16   0  17   10.50    7.43
  14   0 -17    1.15    5.09
 -14   0  17    9.67    6.67
 -12   0  17   30.22   10.01
  12   0 -17   21.27    8.09
 -12   0  17   37.90    9.59
  10   0 -17  166.69   17.20
 -10   0  17  166.42   16.08
 -10   0  17  175.80   18.68
  -8   0  17   26.14    7.50
  -8   0  17   37.14    9.87
   8   0 -17   32.77    9.53
  -6   0  17  187.30   18.03
   6   0 -17  169.58   16.13
  -6   0  17  185.83   16.44
   6   0 -17  169.14   18.16
  -4   0  17   21.61    7.67
  -4   0  17   22.09    6.90
   4   0 -17   22.61    7.51
   4   0 -17   12.05   10.55
  -2   0  17    4.07    4.55
   2   0 -17   -1.05    4.51
  -2   0  17    3.45    4.16
   2   0 -17    4.64   10.78
   0   0 -17   17.65    6.87
   0   0  17   23.90    7.46
   0   0  17   23.16    7.78
   0   0 -17   16.44   11.71
   2   0  17  429.15   28.05
  -2   0 -17  414.50   31.59
  -2   0 -17  538.22   24.99
   2   0  17  495.19   26.27
  -4   0 -17   -6.32    5.55
   4   0  17    4.38    4.15
   6   0  17   -0.92    4.62
  -6   0 -17    8.58    6.62
  -8   0 -17    1.43    6.88
   8   0  17    2.09    4.34
  10   0  17    0.48    5.59
 -10   0 -17    3.26    7.03
  12   0  17    2.67    6.25
 -12   0 -17    3.10    7.24
 -19  -1  17   88.77   19.12
 -19   1  17   78.15   17.82
 -17  -1  17  141.48   20.73
 -17  -1  17  174.72   24.41
 -17   1  17  164.52   24.77
 -15  -1  17   15.59    7.33
 -15   1  17    5.57    6.88
 -15  -1  17   10.23    7.52
  15  -1 -17    7.23    6.19
  15   1 -17   -0.82    3.29
  13  -1 -17    8.30    7.02
  13   1 -17    1.49    3.25
 -13  -1  17   11.34    6.56
 -13  -1  17   18.13    8.39
 -13   1  17   23.10    9.29
  11  -1 -17   18.81    7.53
 -11   1  17   23.93    8.75
 -11  -1  17   33.57   10.38
 -11  -1  17   25.69    9.02
   9  -1 -17   79.53   13.72
  -9   1  17   93.58   16.51
  -9  -1  17   89.60   14.72
  -9  -1  17   85.48   15.36
   9   1 -17   87.42   14.71
  -7   1  17  140.87   18.88
   7  -1 -17  115.58   15.04
   7   1 -17  134.03   17.31
   7  -1 -17  157.81   16.25
  -7   1  17  122.40   12.59
  -7  -1  17  150.71   16.09
  -7  -1  17  144.45   15.39
  -5  -1  17   25.21    7.77
  -5   1  17   24.15    6.85
  -5  -1  17   30.12    9.40
   5  -1 -17   24.59    9.86
   5  -1 -17   21.21    7.75
  -5   1  17   37.31   10.26
   5   1 -17   22.69    8.22
  -3  -1  17  241.42   20.87
   3   1 -17  245.17   19.27
  -3  -1  17  263.67   19.30
   3  -1 -17  242.95   17.56
  -3   1  17  212.62   17.18
  -3   1  17  273.24   22.03
   3  -1 -17  256.44   22.42
   3   1 -17  197.57   20.94
  -1   1  17   19.27    6.81
   1   1 -17   14.57    6.64
   1  -1 -17   20.46   11.23
   1  -1 -17   20.46    6.76
  -1   1  17   25.81    8.71
  -1  -1  17    6.38    4.68
   1   1 -17   16.72   12.23
   1   1  17  144.84   17.92
  -1  -1 -17  111.12   19.00
  -1   1 -17  136.29   13.93
  -1   1 -17  148.16   21.99
   1   1  17  142.68   15.37
   3   1  17   44.89   11.04
  -3   1 -17   33.57    8.25
   3   1  17   47.98   10.94
  -3   1 -17   45.67   15.19
   5   1  17   27.07    9.72
   5   1  17   29.34    8.52
  -5   1 -17    1.61    5.28
  -5  -1 -17    1.15    6.45
   7   1  17   49.08   12.40
  -7  -1 -17   -7.30    5.98
   7  -1  17    1.29    4.03
  -7   1 -17    5.14    5.36
   9   1  17  119.54   20.96
  -9   1 -17    6.63    6.91
 -11   1 -17    4.60    7.19
 -11  -1 -17   23.51   16.85
  11  -1  17    5.47    5.72
  11   1  17    5.78    7.36
  18  -2 -17    7.92    6.31
 -18  -2  17   63.67   15.40
 -18  -2  17   57.00   15.45
 -18   2  17    6.69    7.25
  16   2 -17   -3.65    4.12
 -16   2  17    5.94    6.85
  16  -2 -17    0.09    4.07
 -16  -2  17    4.45    7.62
 -16  -2  17    7.59    8.37
  14   2 -17    0.18    3.76
  14  -2 -17   11.36    8.29
 -14  -2  17   15.64    7.89
 -14  -2  17   15.92    8.29
 -14   2  17   22.35   10.09
 -12  -2  17   17.89    7.77
 -12  -2  17   10.86    6.73
 -12   2  17    2.53    6.06
  12  -2 -17   13.61    7.41
  10  -2 -17  135.11   17.72
 -10   2  17  155.10   21.41
  10   2 -17  139.15   19.12
 -10  -2  17  138.87   17.55
   8  -2 -17  150.11   15.94
  -8  -2  17  154.90   15.55
   8   2 -17  139.35   18.50
   8  -2 -17  170.12   16.97
  -8   2  17  151.49   20.71
  -6   2  17   18.65    8.31
   6  -2 -17   29.00   10.01
   6  -2 -17   16.93    7.17
   6   2 -17   24.20    8.56
  -4   2  17   99.63   17.11
   4  -2 -17   96.80   16.41
   4  -2 -17   90.78   13.12
   4   2 -17   94.88   15.33
   2  -2 -17  121.36   18.27
  -2   2  17  146.33   20.02
   2   2 -17  151.03   18.52
   2   2 -17  141.66   18.60
   2  -2 -17  144.23   13.41
   0   2 -17   79.06   13.86
   0   2  17   71.90   12.61
   0   2  17   68.98   14.25
   0   2 -17   54.48   14.32
  -2   2 -17   70.58   13.49
   2   2  17   69.02   12.99
   2   2  17   81.99   15.36
  -2   2 -17   77.83   18.01
   4   2  17  102.89   17.09
  -4   2 -17  117.22   15.78
   4   2  17  111.39   17.93
  -4   2 -17   98.51   20.76
  -6   2 -17    6.16    5.99
   6   2  17    6.51    5.69
   6  -2  17   -0.66    3.98
  -6  -2 -17   -8.14    5.11
   6   2  17    3.17    7.28
  -8  -2 -17  -10.81    6.25
   8  -2  17   -3.60    4.76
  -8   2 -17   12.58    6.44
   8   2  17    7.14    8.64
   8   2  17   18.79    8.29
  10   2  17   24.44   10.49
  10  -2  17   -6.32    4.88
 -10   2 -17    9.08    7.27
 -10  -2 -17   15.28   16.93
 -17  -3  17   74.22   16.14
  17  -3 -17   54.41   14.98
 -17  -3  17   81.78   19.32
 -15  -3  17   -2.22    5.70
 -15   3  17   -7.89    5.35
 -15  -3  17   25.61    8.75
  15   3 -17   -2.38    5.04
  15  -3 -17   13.22    8.21
 -13  -3  17   53.66   12.24
 -13   3  17   40.39   12.78
  13  -3 -17   42.40   11.86
 -11   3  17   17.00    8.34
  11  -3 -17   25.03    9.35
   9   3 -17   59.81   13.08
  -9   3  17   70.45   16.47
   9  -3 -17   66.91   13.58
   9  -3 -17   80.55   15.39
  -7   3  17   25.00   10.25
   7  -3 -17   19.10    9.26
   7  -3 -17   24.90    8.44
  -5  -3  17    1.53    3.73
   5   3 -17   10.62    6.19
   5  -3 -17   14.05    7.73
   5  -3 -17   14.80    7.27
  -5   3  17   16.18    8.01
   3   3 -17  342.67   25.40
   3  -3 -17  344.35   26.59
   3  -3 -17  393.75   23.05
  -3   3  17  364.30   29.73
   1   3 -17   60.66   13.68
  -1   3  17   68.55   15.40
   1   3 -17   63.89   13.22
  -1   3 -17  121.84   18.41
   1   3  17  180.39   23.29
  -1   3 -17  164.04   22.53
  -3   3 -17   17.08    9.92
  -3   3 -17   21.46    8.26
   3  -3  17    1.59    4.24
   3   3  17   14.09    8.73
  -5   3 -17  149.50   25.17
  -5   3 -17  150.32   19.11
   5  -3  17  116.99   20.47
   5   3  17  104.10   19.51
   7   3  17   66.91   15.73
   7   3  17   50.54   12.62
   7  -3  17   54.88   14.97
   9   3  17   70.76   16.38
   9  -3  17   67.94   17.08
   9   3  17   77.32   16.86
  -9  -3 -17   41.90   19.08
 -14   4  17    1.72    6.81
 -14  -4  17    2.14    6.92
  14  -4 -17   25.51   10.43
  14   4 -17   -3.77    5.15
 -12  -4  17    3.37    6.99
 -12   4  17   -5.45    5.96
  12   4 -17    0.39    5.20
  12  -4 -17    5.85    6.42
  10  -4 -17   86.27   16.00
 -10   4  17    3.10    6.34
  10  -4 -17   56.42   13.69
   8  -4 -17   25.23    9.34
   8  -4 -17   26.03   10.96
   8   4 -17   38.12   12.08
  -8   4  17   32.80   10.61
  -6   4  17   43.56   12.26
   6   4 -17   21.39    8.49
   6  -4 -17   23.01   10.26
   6  -4 -17   40.74   10.31
   4  -4 -17   66.68   15.75
   4   4 -17   74.44   16.22
  -4   4  17   76.93   17.67
  -2  -4  17   34.94   12.03
   2   4 -17   28.59   10.15
  -2   4  17   35.99   12.56
   0  -4  17   10.46    7.62
   0  -4 -17   -2.68    4.73
   0   4 -17   15.21    8.06
   0   4  17    9.20    9.22
  -2   4 -17   82.65   18.35
   2   4  17   97.08   19.41
  -2   4 -17  119.70   19.89
   2  -4  17   75.86   17.38
   4  -4  17   21.47   10.42
  -4   4 -17   22.93    9.18
  -4   4 -17   30.27   13.57
  -4  -4 -17   -2.94    5.85
   4   4  17   20.48   10.45
  -6   4 -17    7.62    7.03
   6   4  17    9.01    9.06
  -6   4 -17   11.10   10.57
   6  -4  17    2.88    6.75
  -6  -4 -17  -11.61    6.01
   8   4  17  118.47   22.49
  -8  -4 -17  107.16   24.00
   8  -4  17   89.36   19.11
  -8   4 -17  146.82   26.68
  11  -5 -17   59.07   14.23
  11   5 -17    4.67    6.81
 -11  -5  17   -1.88    6.68
  11  -5 -17   43.98   12.67
  11  -5 -17   50.89   15.14
   9  -5 -17    5.53    6.65
  -9  -5  17   18.90    8.95
  -9   5  17   -3.45    6.73
   9   5 -17   -3.91    5.49
   9  -5 -17   12.80   10.73
   7  -5 -17    7.56    6.43
   7  -5 -17    0.82    7.31
  -7  -5  17   12.12    7.82
   7   5 -17    1.35    5.95
  -7   5  17   -7.56    6.47
  -5  -5  17   30.93   11.51
   5  -5 -17   19.09    9.23
  -5   5  17    7.98    7.13
   5   5 -17   27.81    9.73
  -3  -5  17   57.12   15.30
   3   5 -17   38.10   12.69
  -3   5  17   70.12   18.04
   1  -5 -17   -7.21    5.44
  -1  -5  17   14.09    7.95
   1   5 -17   -0.40    6.63
  -1   5  17    9.46    8.98
   1  -5  17   36.47   12.87
  -1   5 -17   29.22   11.57
   1   5  17   46.76   15.60
  -3   5 -17   18.49    9.97
   3  -5  17   12.47    8.08
   3   5  17   23.19   12.18
  -3   5 -17   39.10   13.68
  -3  -5 -17   -8.00    6.05
 -18   0  18   29.05   10.50
  18   0 -18   -1.68    5.03
 -16   0  18  104.45   19.33
  14   0 -18   -0.61    3.66
 -14   0  18   11.07    7.50
 -12   0  18    8.49    6.68
 -12   0  18    0.98    4.72
  12   0 -18    6.96    5.66
 -10   0  18  108.55   17.27
 -10   0  18   95.49   14.49
  10   0 -18   89.53   15.07
  -8   0  18  198.71   19.35
   8   0 -18  179.77   17.35
  -8   0  18  171.03   16.47
   6   0 -18   23.98    8.51
  -6   0  18   42.02    9.87
  -6   0  18   43.27   10.86
  -4   0  18    7.32    5.41
  -4   0  18   -5.75    3.43
   4   0 -18    4.18    4.66
   4   0 -18    9.19   10.03
   2   0 -18   -4.91    9.50
   2   0 -18    4.92    5.03
  -2   0  18   14.67    6.66
  -2   0  18    1.22    4.21
   0   0 -18   65.87   11.84
   0   0  18   29.04    9.17
   0   0 -18   48.00   15.93
   0   0  18   38.74   10.41
   2   0  18   13.99    6.30
  -2   0 -18   -6.68   11.14
  -4   0 -18   -5.53    5.54
   4   0  18   -6.48    3.88
   6   0  18   -2.15    4.22
  -6   0 -18   -2.13    5.88
  -8   0 -18    3.97    6.94
   8   0  18    5.49    7.03
  10   0  18    5.11    6.88
 -10   0 -18    1.52    7.38
 -19  -1  18   24.15    9.73
 -19   1  18   16.43    9.06
  19  -1 -18   -2.76    5.01
  19   1 -18   -1.67    5.42
 -17  -1  18   26.58   10.21
 -17   1  18   32.33   12.07
 -17  -1  18   37.00   11.83
 -15  -1  18   77.90   16.10
 -15  -1  18   92.58   16.46
 -15   1  18   86.19   18.78
 -13  -1  18  123.71   18.25
 -13  -1  18  100.79   17.23
  13  -1 -18   71.55   14.39
  13   1 -18   86.71   16.23
 -13   1  18   94.79   17.67
 -11   1  18   28.31   10.27
 -11  -1  18   18.88    8.20
 -11  -1  18   19.17    8.13
  11   1 -18   17.82    8.38
  11  -1 -18   13.96    7.46
   9  -1 -18  437.05   27.02
  -9  -1  18  428.58   28.17
   9   1 -18  410.72   26.98
  -9   1  18  403.92   28.87
  -9  -1  18  466.61   29.02
   7  -1 -18   80.16   13.61
  -7  -1  18   84.14   15.35
   7   1 -18   91.57   15.33
  -7  -1  18   97.68   14.95
  -7   1  18   92.56   16.30
  -5   1  18   -1.05    3.91
   5   1 -18    4.52    5.27
  -5   1  18    9.21    6.19
   5  -1 -18   -0.13    7.80
   5  -1 -18    9.85    6.07
  -5  -1  18   -3.18    4.36
  -5  -1  18    1.61    4.93
  -3  -1  18    6.89    6.18
   3   1 -18   36.97   13.24
   3  -1 -18   13.14    9.73
  -3   1  18   13.32    5.83
  -3   1  18    9.17    6.19
   3   1 -18   18.31    7.85
   3  -1 -18    9.53    5.63
   1   1 -18   40.33   10.28
   1  -1 -18   51.37   15.60
   1  -1 -18   54.38   10.60
  -1   1  18   37.64    9.06
  -1   1  18   48.73   11.69
   1   1 -18   58.24   16.11
  -1   1 -18   14.86    6.42
   1  -1  18   -0.06    3.56
  -1   1 -18   28.60   14.47
   1   1  18   12.81    6.92
   1   1  18   23.69    9.09
  -1  -1 -18    3.68   10.88
  -3   1 -18    1.73   10.17
  -3  -1 -18    1.43    5.87
   3  -1  18   -2.76    3.90
   3   1  18    5.02    6.26
   3   1  18   -3.79    4.09
  -5  -1 -18   -4.61    5.80
   5   1  18    0.08    4.76
  -5   1 -18    8.75    7.18
   5  -1  18    0.92    3.95
   7  -1  18   -2.24    4.68
  -7   1 -18    1.73    6.34
   7   1  18   42.58   12.91
  -7  -1 -18   -7.09    6.07
  -9  -1 -18   -4.84    6.82
  -9   1 -18    9.33    8.73
   9   1  18   18.09    9.65
   9  -1  18   -1.21    5.45
  11   1  18   -4.67    7.28
 -11  -1 -18    5.54    9.15
  11  -1  18  -14.60    5.25
 -11   1 -18    4.08    7.58
  18   2 -18   -2.51    5.63
 -18  -2  18   14.00    9.31
 -18   2  18    6.46    8.37
 -18  -2  18   23.23   10.69
  18  -2 -18   15.10    9.20
 -16  -2  18  104.96   18.74
 -16   2  18   71.14   17.84
 -16  -2  18   58.46   15.53
  16  -2 -18   61.09   14.51
  14  -2 -18    7.31    7.67
 -14   2  18    6.13    6.42
 -14  -2  18   14.80    7.54
  14   2 -18    2.26    4.85
 -14  -2  18    7.18    6.24
  12  -2 -18  113.24   17.61
  12   2 -18  115.23   19.19
 -12  -2  18  185.07   19.38
 -12   2  18  187.90   24.34
 -12  -2  18  164.66   22.45
 -10   2  18   31.08   10.69
  10  -2 -18   24.36    8.96
 -10  -2  18   21.19    9.12
 -10  -2  18   37.04    9.69
   8   2 -18  194.10   19.78
  -8   2  18  174.01   22.11
   8  -2 -18  168.48   17.48
   8  -2 -18  199.71   18.63
   6   2 -18  102.62   16.69
   6  -2 -18  128.04   18.01
  -6   2  18   89.95   17.15
   6  -2 -18  106.13   14.90
   4  -2 -18   76.47   15.22
   4   2 -18  107.50   16.99
   4  -2 -18  106.70   14.18
  -4   2  18   89.98   16.78
   2   2 -18  184.47   21.26
  -2   2  18  158.26   21.33
   2   2 -18  157.52   19.48
   2  -2 -18  155.26   21.40
   0   2 -18  100.52   18.76
   0   2 -18  103.16   15.83
   0   2  18  108.35   18.13
   2   2  18  102.78   16.23
   2   2  18  101.10   17.54
  -2   2 -18  102.24   15.86
  -2   2 -18  113.45   20.38
   4   2  18   -5.59    5.96
  -4   2 -18   35.31   15.16
   4   2  18   -1.27    4.28
  -4  -2 -18   -0.09    5.71
  -4   2 -18    9.25    6.43
   4  -2  18    0.34    3.91
   6   2  18   77.46   15.68
   6   2  18   51.14   12.36
  -6   2 -18   22.69   10.11
   8  -2  18   -1.91    5.23
  -8  -2 -18   -9.63    6.69
   8   2  18   24.44   10.93
  -8   2 -18   15.91    7.60
   8   2  18   14.37    7.79
 -10   2 -18   11.14    8.91
  10  -2  18    0.22    5.90
 -10  -2 -18   -4.48    8.97
  10   2  18   32.48   11.52
  15  -3 -18   42.52   12.70
 -15  -3  18   52.98   16.03
 -15  -3  18   73.74   16.06
  13  -3 -18   85.67   16.69
 -13   3  18   76.86   17.51
  11   3 -18   -3.09    3.94
 -11  -3  18    3.15    5.79
  11  -3 -18    0.50    5.51
 -11   3  18   -0.90    7.00
   9  -3 -18  131.28   18.26
   9   3 -18  110.79   18.84
   9  -3 -18   95.11   15.96
  -9   3  18  124.66   21.29
  -7   3  18   14.55    7.65
   7   3 -18    7.26    6.15
   7  -3 -18   15.84    8.26
  -7  -3  18    7.10    5.89
   7  -3 -18    6.31    6.27
   5   3 -18   54.41   13.25
   5  -3 -18   58.51   12.05
   5  -3 -18   53.15   13.48
  -5   3  18   78.95   16.87
  -3   3  18  155.23   23.09
   3   3 -18  157.65   20.78
   3  -3 -18  124.49   19.54
  -1   3 -18  221.05   23.31
  -1   3 -18  213.54   20.98
   1   3  18  221.57   25.83
  -3   3 -18   20.13   10.71
   3  -3  18   -1.35    4.93
   3   3  18    5.82    7.65
  -3  -3 -18   -6.04    5.20
  -3   3 -18    0.48    5.64
  -5   3 -18   89.04   21.40
  -5   3 -18   71.39   14.41
   5   3  18   68.79   16.26
  -7  -3 -18   -5.88    6.49
  -7   3 -18   37.19   15.42
   7   3  18   17.03   10.57
   7  -3  18   11.40    9.31
 -14  -4  18   -2.06    6.84
 -14   4  18   -6.09    7.05
  14  -4 -18   11.43    9.03
  14   4 -18    3.34    7.14
 -12   4  18    1.55    7.41
  12  -4 -18   10.08    7.64
 -12  -4  18    4.77    6.61
  12   4 -18    2.76    5.58
  10  -4 -18    1.03    7.35
 -10  -4  18   -1.87    5.64
 -10   4  18    1.69    7.20
  10   4 -18    2.19    5.01
  10  -4 -18    6.68    6.81
   8  -4 -18   34.20   12.11
   8   4 -18   37.20   11.30
  -8   4  18   47.20   14.33
   8  -4 -18   37.16   10.76
   6  -4 -18   -3.86    5.04
  -6  -4  18   -2.21    4.67
   6  -4 -18   -4.85    6.76
  -6   4  18   -4.82    5.85
   6   4 -18   -3.06    3.86
  -4   4  18   63.67   16.18
   4  -4 -18   65.53   15.75
   4   4 -18   79.80   16.53
  -2   4  18  192.90   26.88
   0   4 -18    5.83    7.58
   0  -4  18   13.62    8.39
   0  -4 -18   -6.79    4.83
   0   4  18   29.02   12.80
   2  -4  18   14.83    8.45
  -2   4 -18   -1.10    6.31
   2   4  18   14.14    9.72
  -2   4 -18    9.30    8.57
  -2  -4 -18   -4.68    5.78
  -4  -4 -18   -7.81    5.40
  -4   4 -18   18.93   11.83
   4   4  18    1.12    8.61
   4  -4  18   10.39    8.07
  -4   4 -18    9.19    8.28
  -6   4 -18  110.21   23.77
  -6   4 -18   97.58   18.02
   6  -4  18   75.23   17.71
   6   4  18   92.34   20.09
   9  -5 -18   48.18   15.19
  -9  -5  18    4.36    7.28
   9  -5 -18   57.67   13.43
   9   5 -18   -0.31    5.12
  -9   5  18  -11.88    6.69
   7   5 -18   54.72   15.28
  -7   5  18    4.69    7.49
  -7  -5  18   30.16   10.35
   7  -5 -18   38.15   14.15
  -5  -5  18   15.46    8.69
  -5   5  18   12.84    9.98
   5  -5 -18   -1.86    9.07
   5   5 -18    4.41    6.74
   3  -5 -18   -4.06    5.86
  -3  -5  18   10.22    6.99
   3   5 -18    5.10    7.73
  -3   5  18    0.70    9.05
  -1  -5  18   68.21   17.44
   1   5 -18   48.05   14.50
  -1   5  18   65.78   18.04
  -1   5 -18   -5.02    5.88
   1  -5  18    1.44    5.86
  -1  -5 -18   -9.94    6.20
   1   5  18    8.85    9.37
 -18   0  19   44.59   13.56
  18   0 -19    3.60    6.01
 -16   0  19    7.67    7.35
  16   0 -19   11.93    7.64
 -14   0  19  135.01   21.11
 -12   0  19  221.66   22.64
  12   0 -19  206.65   20.71
 -10   0  19    0.40    5.60
  10   0 -19   10.61    6.92
 -10   0  19    1.17    4.76
  -8   0  19  280.99   23.25
  -8   0  19  252.84   20.52
   8   0 -19  275.75   22.12
   6   0 -19   -1.29    4.63
  -6   0  19   -2.41    4.80
  -6   0  19   -1.94    3.95
   4   0 -19   65.22   16.19
  -4   0  19   79.66   14.77
   4   0 -19   80.75   13.71
  -4   0  19   78.04   14.07
  -2   0  19  175.99   17.91
   2   0 -19  221.78   18.57
   2   0 -19  189.10   23.97
  -2   0  19  224.06   19.95
   0   0 -19    3.23   11.38
   0   0  19    9.62    4.49
   0   0 -19    1.37    5.43
  -2   0 -19   -5.27   13.58
   2   0  19    0.42    4.49
   4   0  19   25.11    9.83
  -4   0 -19    0.92    5.60
   6   0  19    6.89    5.57
  -6   0 -19    8.47    8.10
  -8   0 -19    8.97    8.40
   8   0  19   -0.68    5.49
 -10   0 -19   14.83    8.87
  10   0  19   -3.96    6.91
  17   1 -19   -0.49    4.61
 -17   1  19   39.32   12.83
  17  -1 -19   15.86    8.44
 -17  -1  19   23.20   10.12
 -15   1  19   68.36   14.92
 -15  -1  19   76.97   16.15
  15  -1 -19   38.03   11.82
 -15  -1  19   38.65   11.99
 -13  -1  19    9.11    7.11
 -13  -1  19   13.98    7.36
  13  -1 -19   10.83    7.48
 -13   1  19   11.54    7.61
  13   1 -19    6.96    5.46
  11   1 -19   49.87   12.15
 -11  -1  19   79.33   14.79
 -11   1  19   74.43   15.94
 -11  -1  19   73.99   15.11
  11  -1 -19   59.91   13.50
   9  -1 -19   47.84   11.26
  -9  -1  19   40.40   10.92
  -9   1  19   63.23   14.44
  -9  -1  19   54.04   12.19
   9   1 -19   51.30   12.81
   7   1 -19   46.47   11.66
  -7  -1  19   77.84   14.29
  -7   1  19   48.85   11.92
   7  -1 -19   43.22   10.58
  -7  -1  19   56.04   12.73
   5  -1 -19   73.87   12.99
  -5   1  19   75.77   15.41
   5  -1 -19   69.57   15.37
  -5  -1  19   77.66   14.74
   5   1 -19   72.71   13.99
   3  -1 -19   23.36   11.93
   3  -1 -19   17.59    7.07
   3   1 -19   29.31   12.35
  -3   1  19   26.78    9.18
  -3  -1  19   22.95    8.07
  -3   1  19   31.07    8.37
   3   1 -19   22.34    8.38
   1  -1 -19   97.26   19.35
  -1   1  19  103.32   17.20
   1   1 -19   89.09   18.77
  -1   1  19  101.78   15.67
   1   1 -19  119.38   16.86
   1   1  19   47.12   12.05
  -1  -1 -19   31.76   15.07
  -1   1 -19    8.91   11.41
  -1   1 -19   22.75    7.18
   1   1  19   29.46    9.30
   3   1  19   70.60   14.60
   3   1  19   38.71   10.54
  -3   1 -19   53.72   17.46
   5   1  19   13.04    7.71
  -5   1 -19   18.99   14.14
   5  -1  19   -0.67    4.40
  -5  -1 -19    1.49    7.25
  -7  -1 -19   -5.97    6.99
  -7   1 -19   13.80    7.98
   7   1  19   74.01   16.95
  -9   1 -19   19.83    8.96
  -9  -1 -19    2.17    8.72
   9   1  19   29.47   10.69
   9  -1  19    0.41    6.17
  16   2 -19   -0.85    5.55
 -16  -2  19    4.52    7.13
  16  -2 -19   12.74    7.95
 -16  -2  19    9.64    7.73
 -16   2  19   12.38    8.89
  14  -2 -19   95.91   17.66
 -14  -2  19  120.38   20.82
 -14   2  19   93.16   19.30
 -14  -2  19   99.72   17.67
  12  -2 -19    7.29    6.16
 -12  -2  19   11.27    8.25
 -12   2  19    8.60    8.14
 -12  -2  19   36.99   10.55
  12   2 -19   14.64    8.51
  10   2 -19   10.00    6.83
 -10   2  19   23.27    9.54
 -10  -2  19   22.10    9.53
  10  -2 -19    4.26    6.60
   8  -2 -19   15.32    7.16
  -8  -2  19   18.63    8.61
  -8   2  19   25.70    9.35
   8   2 -19   28.08   10.14
  -6   2  19   28.92   10.15
   6   2 -19   37.72   11.00
   6  -2 -19   32.12    9.49
   6  -2 -19   29.10   10.80
   4   2 -19  125.61   18.65
  -4   2  19   96.01   18.31
   4  -2 -19   71.45   15.79
   4  -2 -19  110.36   14.94
   2  -2 -19   35.99   12.92
   2   2 -19   73.42   14.21
  -2   2  19   54.96   13.32
   0   2 -19  124.98   20.69
   0   2  19  141.97   21.09
   0   2 -19  133.73   18.21
   0  -2 -19  120.41   21.45
   2   2  19   42.26   12.35
  -2   2 -19   31.42    9.49
  -2   2 -19   41.82   14.94
  -4   2 -19  187.50   27.90
   4   2  19  175.25   22.32
   4   2  19  171.40   18.30
  -6   2 -19   78.46   20.92
   6   2  19   57.41   13.50
   6   2  19   69.96   15.67
  -8   2 -19    3.30    7.30
   8  -2  19   -1.55    5.73
   8   2  19   24.11    9.93
  -8  -2 -19   -4.58    8.26
  15  -3 -19   17.58   10.16
 -15   3  19   24.91   11.02
  15   3 -19    1.57    5.83
 -15  -3  19   21.30   10.64
  13   3 -19    7.60    5.79
 -13   3  19    4.59    8.06
 -13  -3  19   -5.19    5.49
  13  -3 -19   -0.33    6.40
  11   3 -19   80.83   16.43
 -11   3  19   47.95   13.89
  11  -3 -19   57.73   13.39
   9  -3 -19   24.84    9.92
   9   3 -19    2.96    4.37
  -9   3  19   19.11    9.78
  -9  -3  19    2.32    5.88
   7  -3 -19    2.17    7.40
   7   3 -19    0.55    5.78
  -7   3  19   13.09    7.71
  -7  -3  19   -5.11    4.38
   7  -3 -19    9.51    6.33
  -5  -3  19   -4.82    4.77
  -5   3  19   29.72   10.57
   5   3 -19   20.53    8.94
   5  -3 -19   10.00    8.74
   5  -3 -19    9.57    6.68
   3  -3 -19    5.90    8.56
  -3   3  19    2.67    6.04
  -3  -3  19   -3.94    4.19
   3   3 -19   -0.49    4.88
   1  -3 -19   42.73   14.14
  -1   3  19   57.14   14.84
   1   3 -19   55.83   13.12
  -1  -3 -19    1.04    6.47
   1   3  19    7.63    7.77
  -1   3 -19    6.31    7.74
   1  -3  19   -4.66    4.92
  -1   3 -19   -7.09    5.39
   3  -3  19    1.76    5.02
   3   3  19   14.28    9.48
  -3   3 -19   21.88   11.75
  -3   3 -19   27.61   10.19
   5   3  19    6.83    9.44
  -5  -3 -19    1.38    7.58
  -5   3 -19   31.66   13.26
   5  -3  19   -3.09    5.40
   7  -3  19   59.61   16.60
  -7   3 -19   49.22   17.83
   7   3  19   64.58   16.11
 -12   4  19   -8.17    7.03
  12   4 -19    6.12    6.65
 -12  -4  19   -5.90    7.06
  12  -4 -19   60.33   14.58
  10  -4 -19    3.68    6.78
  10   4 -19   -6.07    4.76
 -10   4  19   14.52    9.86
 -10  -4  19    6.84    7.10
  -8   4  19  124.51   22.81
   8  -4 -19   97.48   19.09
   8   4 -19   78.20   17.62
   8  -4 -19   81.74   15.56
  -6   4  19  120.56   22.61
   6  -4 -19   85.93   18.42
   6   4 -19  124.73   21.10
  -4   4  19   95.82   20.01
   4   4 -19  106.05   19.11
   4  -4 -19   81.34   18.43
   2  -4 -19   10.84    9.38
   2   4 -19   47.08   13.42
  -2   4  19   56.07   16.82
   0  -4  19   48.33   14.43
   0   4 -19  143.30   22.58
   0   4  19  136.31   23.95
  -2  -4 -19    1.32    7.79
  -2   4 -19   22.71    9.97
   2  -4  19   21.75    9.56
   2   4  19   48.07   14.86
   4  -4  19   16.31    9.09
  -4  -4 -19   -6.78    6.38
   4   4  19   19.65   12.71
  -4   4 -19   20.02    9.30
  -4   4 -19   39.10   14.87
  16   0 -20  166.34   22.74
 -16   0  20  265.48   27.31
 -14   0  20  169.52   24.10
  14   0 -20  117.91   19.01
 -12   0  20  128.66   19.87
  12   0 -20  107.04   17.87
 -10   0  20   35.87   11.05
  10   0 -20   39.84   10.55
  -8   0  20   22.16    7.89
   8   0 -20   14.29    7.23
  -8   0  20   32.96    9.62
  -6   0  20  146.66   18.69
   6   0 -20  172.78   17.62
  -6   0  20  162.94   20.39
  -4   0  20   10.10    6.16
   4   0 -20   24.44    8.80
  -4   0  20   20.77    8.31
   2   0 -20   10.56    5.75
   2   0 -20   -0.40   10.69
  -2   0  20    4.44    4.74
   0   0  20    1.77    4.80
   0   0 -20  -13.64   11.00
  -2   0 -20    5.67   13.77
   2   0  20    2.57    5.28
  -4   0 -20   44.61   19.65
   4   0  20   22.03    8.84
  -6   0 -20   -0.45    8.02
   6   0  20   15.97    8.95
  -8   0 -20    4.73    7.78
   8   0  20   42.83   13.04
 -17  -1  20   58.09   15.02
  17  -1 -20    9.27    7.45
 -17   1  20   62.17   16.85
 -15  -1  20   28.35    9.84
  15   1 -20   16.03    7.49
  15  -1 -20   15.82    8.10
 -15   1  20    9.29    8.98
  13  -1 -20   46.75   11.88
 -13  -1  20   54.81   13.23
 -13  -1  20   56.26   13.60
 -13   1  20   65.19   15.44
 -11   1  20  119.83   20.02
 -11  -1  20  116.52   18.89
  11   1 -20   92.28   16.59
  11  -1 -20   67.56   13.81
 -11  -1  20  105.47   17.66
   9   1 -20   57.34   13.09
  -9  -1  20   45.92   12.46
  -9  -1  20   58.80   12.55
   9  -1 -20   40.29   11.51
  -9   1  20   60.74   13.96
  -7  -1  20  148.81   20.18
   7  -1 -20  190.42   18.54
   7   1 -20  169.95   21.17
  -7   1  20  220.54   22.35
   5  -1 -20   16.20   11.08
   5   1 -20   16.53    7.80
  -5   1  20   11.17    7.13
  -5  -1  20   14.08    6.98
   5  -1 -20   14.58    6.87
  -3  -1  20   32.51   10.07
   3  -1 -20   20.88   12.18
   3   1 -20   32.02   10.04
   3  -1 -20   26.87    8.29
  -3   1  20   38.23   10.44
   1   1 -20    2.57    5.67
   1   1 -20   10.99    9.49
   1  -1 -20    0.62   10.28
  -1  -1  20   -1.05    4.88
  -1   1  20    3.52    4.52
  -1   1  20    2.72    5.88
   1   1  20   47.23   12.71
   1   1  20   33.35   10.12
  -1  -1 -20   25.12   14.86
  -1   1 -20   62.20   18.16
  -3   1 -20    9.14   12.84
   3  -1  20    0.79    4.96
  -3  -1 -20    6.86   11.52
   3   1  20    1.56    5.10
   5   1  20   85.39   16.88
  -5   1 -20   64.00   21.01
  -7  -1 -20   -5.92    8.28
   7   1  20   24.19   11.72
   7  -1  20    7.41    6.96
  -7   1 -20   17.79    9.27
  14  -2 -20   76.85   16.65
 -14  -2  20  141.06   22.57
 -14  -2  20  100.33   18.35
 -14   2  20  111.92   21.49
  12   2 -20   40.67   11.57
 -12  -2  20   66.06   15.64
 -12   2  20   91.44   17.45
  12  -2 -20   49.30   13.13
  10  -2 -20   13.71    7.89
 -10   2  20    4.47    7.05
  10   2 -20    9.98    7.41
 -10  -2  20   11.54    8.07
  -8   2  20    2.59    6.83
   8  -2 -20    6.64    6.55
   8   2 -20    3.36    6.20
  -8  -2  20    6.39    7.22
   6  -2 -20  230.59   19.80
   6  -2 -20  216.19   21.57
   6   2 -20  224.40   21.68
  -6   2  20  183.92   23.99
   4  -2 -20  192.22   17.71
  -4   2  20  178.64   23.57
   4   2 -20  173.17   21.77
   4  -2 -20  165.26   22.43
  -2  -2  20   -2.97    4.45
   2   2 -20    8.64    6.99
  -2   2  20   -5.99    6.21
   2  -2 -20  -12.63    7.91
   0   2  20   45.51   13.12
   0   2 -20   37.39   10.58
   0  -2 -20   35.15   15.16
   0   2 -20   38.14   12.90
  -2  -2 -20   -9.06    5.91
   2   2  20   19.40    9.90
   2  -2  20    0.00    5.09
  -2   2 -20   12.13   11.68
  -2   2 -20   36.95   10.01
   4   2  20   46.59   13.42
  -4   2 -20   65.50   18.43
   6   2  20    5.30    6.90
   6  -2  20    7.09    6.28
  -6  -2 -20   -7.43    7.92
  -6   2 -20    5.73   11.31
  13  -3 -20   16.33    9.37
  13   3 -20   -1.36    5.16
 -13  -3  20   34.78   13.35
 -13   3  20   32.74   12.77
 -11   3  20   70.55   17.94
  11   3 -20   49.09   13.43
  11  -3 -20   46.59   12.78
  -9   3  20    7.45    7.87
   9  -3 -20   10.97    7.16
  -9  -3  20    2.43    5.88
   9   3 -20    1.51    5.12
   7  -3 -20   10.86    7.89
   7   3 -20    5.52    6.51
  -7  -3  20   -0.78    5.98
  -7   3  20   19.05    9.00
   7  -3 -20    5.11    8.50
   5  -3 -20  136.05   21.77
   5   3 -20  157.74   22.55
  -5   3  20  176.54   25.27
   3   3 -20   96.72   18.21
   3  -3 -20   84.33   18.75
  -3   3  20  101.73   19.85
   1  -3 -20   72.29   19.14
  -1   3  20   84.83   19.17
   1   3 -20   82.50   16.65
   1   3  20  194.07   25.96
   3  -3  20   -1.32    5.49
  -3   3 -20   22.53   12.43
   3   3  20   14.93   10.30
  -3  -3 -20   -8.98    6.73
  -3   3 -20    9.95    7.75
  -5   3 -20   64.54   18.56
   5   3  20   34.13   13.37
  10  -4 -20   31.44   10.92
  10   4 -20   29.46   11.41
 -10   4  20   24.38   11.95
  -8   4  20   13.30    9.71
   8   4 -20   -9.70    4.45
   8  -4 -20    5.30    6.76
  -8  -4  20   -0.09    6.08
   8  -4 -20   11.92   10.48
   6  -4 -20   33.99   12.03
  -6   4  20   83.41   19.46
   6   4 -20   51.09   15.10
   4   4 -20   37.37   11.98
   4  -4 -20   27.38   12.99
  -4   4  20   38.69   13.12
   2  -4 -20  101.98   22.88
   2   4 -20  107.79   20.63
  -2   4  20  109.56   21.92
   0   4 -20  116.79   21.16
   0   4  20  176.54   26.82
 -14   0  21   -3.59    7.07
  14   0 -21    0.26    5.08
  12   0 -21   18.94    8.26
 -12   0  21   -3.43    6.48
  10   0 -21   65.06   14.77
 -10   0  21   84.95   16.56
   8   0 -21   79.73   15.92
  -8   0  21   72.53   14.84
   6   0 -21   63.46   13.34
  -6   0  21   50.68   11.69
  -6   0  21   44.74   10.52
  -4   0  21   -2.35    4.61
   4   0 -21   -4.25    4.96
   2   0 -21   27.40    8.74
   2   0 -21   11.59   13.37
  -2   0  21    7.06    6.31
   0   0 -21   42.75   18.23
   0   0  21   37.99    9.79
  -2   0 -21  105.36   25.41
   2   0  21  105.25   19.05
  -4   0 -21   16.00   16.49
   4   0  21   15.70    7.78
   6   0  21   67.59   15.98
  -6   0 -21    7.62    8.85
 -15   1  21  189.84   27.42
  15  -1 -21  116.43   19.42
  15   1 -21  153.17   22.45
 -15  -1  21  174.61   24.81
 -13  -1  21   50.21   13.25
 -13  -1  21   28.01   10.37
 -13   1  21   40.61   11.87
  13  -1 -21   25.90    9.58
  13   1 -21   28.33   10.23
  11   1 -21    6.67    5.89
 -11  -1  21    3.84    6.23
  11  -1 -21    2.40    5.59
 -11  -1  21    8.78    7.71
 -11   1  21    9.07    7.94
  -9  -1  21  111.15   18.82
   9  -1 -21  104.12   17.34
   9   1 -21  166.66   22.24
  -9   1  21  124.13   20.33
   7   1 -21    8.25    6.11
  -7   1  21   15.70    8.22
   7  -1 -21   11.40    6.32
  -7  -1  21    4.98    6.08
   5   1 -21   98.70   16.86
  -5  -1  21   98.13   16.90
  -5   1  21  113.67   19.18
   5  -1 -21   89.31   15.35
   3   1 -21   44.66   11.73
   3  -1 -21   35.84   15.87
  -3   1  21   49.35   13.01
  -3  -1  21   39.32   11.58
  -1  -1  21   10.93    5.72
   1   1 -21   -3.91    5.89
   1   1 -21   16.22   10.97
  -1   1  21   11.50    7.64
   1  -1 -21   -6.83   12.34
  -1   1 -21   -1.46   11.22
  -1  -1 -21   13.23   15.34
   1   1  21   20.35    8.46
   1  -1  21   25.11    9.57
  -3  -1 -21   49.56   20.76
  -3   1 -21   53.08   18.57
   3   1  21   60.62   14.60
  -5   1 -21  138.54   27.74
   5   1  21  138.00   22.28
 -14  -2  21   28.38   11.51
  14   2 -21   31.78   12.01
 -14   2  21   30.15   12.43
  14  -2 -21   53.74   14.80
 -12  -2  21   19.43    9.90
  12  -2 -21   28.64   10.73
 -12   2  21   28.42   10.73
 -10  -2  21   38.94   11.98
 -10   2  21   38.74   13.06
  10  -2 -21   35.10   11.31
  10   2 -21   40.87   12.53
  -8  -2  21   17.67    9.61
  -8   2  21   11.61    8.49
   8   2 -21   14.78    8.26
   8  -2 -21   12.16    6.27
  -6   2  21   -1.61    6.66
   6   2 -21    1.97    5.95
   6  -2 -21   -0.68    4.93
  -6  -2  21    8.41    6.81
   4  -2 -21   19.51   12.58
   4   2 -21   34.68   10.72
  -4   2  21   24.56   10.53
   2  -2 -21   31.67   14.02
  -2   2  21   32.96   11.77
   2   2 -21   72.43   15.19
   0   2 -21    2.05    6.07
   0  -2 -21   10.61   14.04
   0  -2  21   -1.82    5.33
   0   2  21    5.86    8.16
   2   2  21   54.85   14.41
  -2   2 -21   54.11   17.19
  -2  -2 -21   62.00   20.47
  -4  -2 -21  -13.76    7.34
   4  -2  21   -0.14    6.10
  -4   2 -21   22.37   11.86
 -11   3  21   52.37   15.00
  11   3 -21   36.32   11.58
 -11  -3  21   54.79   16.08
  11  -3 -21   37.63   11.63
   9   3 -21   95.25   18.45
  -9   3  21   92.25   19.53
   9  -3 -21   60.57   14.47
   7   3 -21    6.59    7.10
   7  -3 -21    3.09    6.39
  -7  -3  21   -3.27    6.18
  -7   3  21    2.79    7.31
   5  -3 -21   24.03   12.22
  -5   3  21   41.31   13.29
   5   3 -21   39.23   11.93
  -3  -3  21   -1.78    6.53
   3  -3 -21   17.97   13.14
  -3   3  21   19.15   10.95
   3   3 -21   26.21    9.93
  -1   3  21   71.34   16.51
   1  -3 -21   38.94   16.11
   1   3 -21   48.31   13.70
  -1   3 -21   14.86    9.22
   1   3  21   12.09   10.51
  -1  -3 -21    3.59   14.29
   1  -3  21    2.66    6.79
  14   0 -22   61.91   15.26
 -14   0  22   87.96   18.04
 -12   0  22   51.28   13.35
  12   0 -22   15.09    8.72
  10   0 -22   17.57    8.27
 -10   0  22   23.05    9.26
  -8   0  22  162.10   22.39
   8   0 -22  116.92   18.68
   6   0 -22    0.75    7.24
  -4   0  22   19.63    7.74
   4   0 -22   24.30    8.83
  -2   0  22    6.49    5.56
   0   0 -22   10.59   15.63
   0   0  22    4.44    7.14
  -2   0 -22   -1.29   15.56
   2   0  22    1.66    6.62
  -4   0 -22    3.89   17.39
   4   0  22   17.14    9.08
 -13   1  22   12.13    9.93
 -13  -1  22   11.55    8.41
  13  -1 -22   10.83    7.76
  13   1 -22   10.24    8.39
 -11  -1  22   12.49    8.58
  11   1 -22    1.77    6.42
  11  -1 -22   22.92    9.58
 -11   1  22   22.91    9.53
   9   1 -22   47.65   13.34
  -9   1  22   40.89   12.48
   9  -1 -22   56.39   13.39
  -9  -1  22   53.81   13.70
  -7   1  22   14.17    8.72
   7  -1 -22   14.58    7.82
   7   1 -22   37.69   11.96
  -7  -1  22   13.23    8.18
   5   1 -22   29.17   10.63
   5  -1 -22   23.32    8.93
  -5   1  22   19.96   10.43
  -5  -1  22   11.58    8.12
   3   1 -22   11.74    7.23
   3  -1 -22    4.12   12.79
  -3  -1  22   -0.02    6.60
  -3   1  22    0.91    7.76
  -1  -1  22    3.12    6.58
   1  -1 -22    4.95   14.08
  -1  -1 -22   22.66   17.70
   1  -1  22   28.83   11.72
  -1   1 -22   49.02   17.35
  -3   1 -22   72.21   21.32
   3  -1  22   51.69   14.88
  -3  -1 -22   44.26   21.22
   3   1  22   54.22   14.10
  12  -2 -22   -2.58    5.88
 -12  -2  22    6.95    7.69
  12   2 -22    3.45    6.36
 -12   2  22   -3.46    7.60
  10   2 -22    3.00    6.79
 -10   2  22   -3.07    7.00
  10  -2 -22    5.12    6.55
 -10  -2  22   -0.95    7.52
   8  -2 -22   26.86   10.38
  -8  -2  22   22.77   11.40
   8   2 -22   32.32   11.37
  -8   2  22   32.90   11.37
  -6  -2  22   18.56   10.13
   6   2 -22   19.39   10.08
  -6   2  22    5.57    7.81
  -4   2  22   98.58   19.31
   4   2 -22  133.81   21.01
  -4  -2  22   98.38   19.35
   4  -2 -22   98.02   20.63
   2  -2 -22    2.12   14.71
  -2  -2  22   -6.88    4.87
   2   2 -22   -8.15    5.69
  -2   2  22   21.04    9.76
   0   2  22  193.44   25.90
   0  -2 -22  141.30   27.45
   0   2 -22  205.91   24.39
  -2   2 -22   78.44   19.84
  -2  -2 -22   52.92   21.37
   7   3 -22    2.29    7.08
  -7  -3  22   -4.31    6.74
  -7   3  22   14.35    8.74
  -5   3  22   94.70   19.93
   5  -3 -22   96.69   20.33
   5   3 -22   98.19   19.31
   3   3 -22    9.91    8.26
  -3  -3  22   -5.53    6.30
   3  -3 -22    9.79   12.77
  -3   3  22   18.66   10.80
 -10   0  23   44.18   12.94
  10   0 -23   43.26   12.76
   8   0 -23    2.39    6.84
   6   0 -23   21.20    9.59
   4   0 -23   23.93   10.08
  -2   0  23   12.41    8.57
   0   0  23   11.72    7.52
   0   0 -23    9.22   15.57
 -11   1  23   24.47   10.83
  11  -1 -23   35.24   10.80
  11   1 -23   22.80    9.72
   9   1 -23    6.48    6.69
  -9   1  23    9.06    7.89
   9  -1 -23    6.77    6.64
  -9  -1  23  -11.91    5.58
  -7  -1  23   17.08    8.63
   7  -1 -23   16.01    7.97
   7   1 -23   22.26   10.21
  -7   1  23   26.83    9.86
   5   1 -23   35.65   11.03
  -5   1  23   47.83   13.63
  -5  -1  23   35.26   10.85
   3   1 -23   78.98   16.42
  -3  -1  23   75.57   16.56
   1  -1 -23   16.93   17.07
  -1  -1  23   30.75   11.40
  -8   2  23   95.95   19.33
   8   2 -23   74.89   16.77
   8  -2 -23   73.49   16.17
  -8  -2  23   64.22   15.83
   6   2 -23   15.25    9.46
  -6   2  23   30.68   10.88
  -6  -2  23   16.52    9.46
   4   2 -23   11.32    8.71
  -4  -2  23   -2.55    6.97
  -4   2  23    8.99    8.97
  -2  -2  23   73.33   18.22
   2   2 -23   82.92   17.27
  -2   2  23   88.22   18.26
   2  -2 -23   52.01   19.79
   0   0   0    0.00    0.00
;
_shelx_hkl_checksum              41385
_olex2_computing_structure_refinement_long 'ShelXL (Sheldrick, 2008)'
#END Tags that were not found in dictionaries
loop_
_space_group_symop_operation_xyz
'x, y, z'
'-x, y, -z'
'x+1/2, y+1/2, z'
'-x+1/2, y+1/2, -z'
loop_
_atom_site_label
_atom_site_type_symbol
_atom_site_fract_x
_atom_site_fract_y
_atom_site_fract_z
_atom_site_U_iso_or_equiv
_atom_site_adp_type
_atom_site_occupancy
_atom_site_site_symmetry_order
_atom_site_calc_flag
_atom_site_refinement_flags_posn
S1 S -0.36322(6) -0.35350(17) -0.15529(6) 0.0198(2) Uani 1 1 d .
O1 O -0.26011(18) -0.3085(5) 0.06950(17) 0.0261(7) Uani 1 1 d .
H1A H -0.2797 -0.3496 0.0229 0.039 Uiso 1 1 d G
H1B H -0.2288 -0.1981 0.0731 0.039 Uiso 1 1 d G
O2 O -0.18030(19) 0.0022(5) -0.37294(17) 0.0268(7) Uani 1 1 d .
O3 O -0.32528(17) -0.4426(5) -0.07744(16) 0.0210(7) Uani 1 1 d .
O4 O -0.20931(19) -0.3552(6) -0.36162(18) 0.0362(8) Uani 1 1 d .
O5 O -0.1456(2) -0.5292(5) -0.1337(2) 0.0315(8) Uani 1 1 d .
H5 H -0.1757 -0.6065 -0.1151 0.047 Uiso 1 1 calc GR
N6 N -0.3141(2) -0.1523(6) -0.1808(2) 0.0204(8) Uani 1 1 d .
H6 H -0.299(3) -0.055(8) -0.148(3) 0.024 Uiso 1 1 d R
C7 C -0.1757(2) -0.1628(8) -0.1812(2) 0.0215(9) Uani 1 1 d .
H7A H -0.1397 -0.1849 -0.2150 0.026 Uiso 1 1 calc R
H7B H -0.1723 -0.0074 -0.1651 0.026 Uiso 1 1 calc R
C8 C -0.2571(2) -0.2084(7) -0.2267(2) 0.0180(9) Uani 1 1 d .
H8 H -0.2613 -0.3690 -0.2378 0.022 Uiso 1 1 calc R
C9 C -0.2183(3) -0.1639(8) -0.3486(2) 0.0264(10) Uani 1 1 d .
C10 C -0.2754(3) 0.1649(8) -0.2920(2) 0.0295(10) Uani 1 1 d .
H10A H -0.3128 0.2040 -0.2619 0.044 Uiso 1 1 calc GR
H10B H -0.2886 0.2387 -0.3415 0.044 Uiso 1 1 calc GR
H10C H -0.2242 0.2109 -0.2647 0.044 Uiso 1 1 calc GR
C11 C -0.2762(3) -0.0847(7) -0.3041(2) 0.0235(10) Uani 1 1 d .
C12 C -0.4908(3) -0.1101(9) -0.2125(3) 0.0340(12) Uani 1 1 d .
H12A H -0.4618 0.0130 -0.2269 0.051 Uiso 1 1 calc GR
H12B H -0.5411 -0.0585 -0.2069 0.051 Uiso 1 1 calc GR
H12C H -0.4976 -0.2227 -0.2523 0.051 Uiso 1 1 calc GR
C13 C -0.1214(3) -0.0399(7) -0.4170(2) 0.0253(10) Uani 1 1 d .
C14 C -0.1559(3) -0.1526(9) -0.4914(3) 0.0336(12) Uani 1 1 d .
H14A H -0.1704 -0.3026 -0.4812 0.050 Uiso 1 1 calc GR
H14B H -0.1182 -0.1564 -0.5235 0.050 Uiso 1 1 calc GR
H14C H -0.2014 -0.0720 -0.5178 0.050 Uiso 1 1 calc GR
C15 C -0.0969(3) 0.1924(8) -0.4315(3) 0.0360(13) Uani 1 1 d .
H15A H -0.1403 0.2713 -0.4629 0.054 Uiso 1 1 calc GR
H15B H -0.0549 0.1867 -0.4583 0.054 Uiso 1 1 calc GR
H15C H -0.0797 0.2686 -0.3828 0.054 Uiso 1 1 calc GR
C16 C -0.1509(2) -0.3059(7) -0.1111(2) 0.0239(10) Uani 1 1 d .
H16A H -0.1005 -0.2560 -0.0813 0.029 Uiso 1 1 calc R
H16B H -0.1885 -0.2936 -0.0784 0.029 Uiso 1 1 calc R
C17 C -0.3551(3) -0.1565(9) -0.3501(3) 0.0343(12) Uani 1 1 d .
H17A H -0.3560 -0.3162 -0.3560 0.051 Uiso 1 1 calc GR
H17B H -0.3651 -0.0875 -0.4006 0.051 Uiso 1 1 calc GR
H17C H -0.3946 -0.1118 -0.3232 0.051 Uiso 1 1 calc GR
C18 C -0.4475(2) -0.2060(7) -0.1377(2) 0.0201(9) Uani 1 1 d .
C19 C -0.4250(3) -0.0330(8) -0.0769(3) 0.0305(11) Uani 1 1 d .
H19A H -0.3930 -0.0992 -0.0311 0.046 Uiso 1 1 calc GR
H19B H -0.4712 0.0294 -0.0645 0.046 Uiso 1 1 calc GR
H19C H -0.3962 0.0832 -0.0956 0.046 Uiso 1 1 calc GR
C20 C -0.4944(2) -0.3883(9) -0.1106(3) 0.0344(12) Uani 1 1 d .
H20A H -0.5056 -0.5035 -0.1495 0.052 Uiso 1 1 calc GR
H20B H -0.5425 -0.3273 -0.1024 0.052 Uiso 1 1 calc GR
H20C H -0.4650 -0.4504 -0.0628 0.052 Uiso 1 1 calc GR
C21 C -0.0553(3) -0.1674(9) -0.3684(3) 0.0377(12) Uani 1 1 d .
H21A H -0.0376 -0.0928 -0.3194 0.057 Uiso 1 1 calc GR
H21B H -0.0131 -0.1760 -0.3950 0.057 Uiso 1 1 calc GR
H21C H -0.0724 -0.3157 -0.3595 0.057 Uiso 1 1 calc GR
loop_
_atom_site_aniso_label
_atom_site_aniso_U_11
_atom_site_aniso_U_22
_atom_site_aniso_U_33
_atom_site_aniso_U_23
_atom_site_aniso_U_13
_atom_site_aniso_U_12
S1 0.0189(5) 0.0169(5) 0.0239(5) -0.0011(5) 0.0058(4) -0.0005(5)
O1 0.0287(17) 0.0194(19) 0.0299(17) -0.0014(13) 0.0061(14) -0.0045(13)
O2 0.0391(19) 0.0180(16) 0.0281(17) 0.0000(13) 0.0175(15) -0.0009(14)
O3 0.0237(16) 0.0200(15) 0.0180(15) 0.0011(12) 0.0020(13) 0.0037(13)
O4 0.055(2) 0.0213(16) 0.0404(18) -0.0060(18) 0.0272(16) -0.005(2)
O5 0.034(2) 0.0236(17) 0.042(2) 0.0036(16) 0.0177(17) 0.0067(16)
N6 0.0228(19) 0.0147(18) 0.026(2) -0.0030(15) 0.0093(16) -0.0038(16)
C7 0.020(2) 0.022(2) 0.023(2) 0.0014(19) 0.0069(18) -0.0003(19)
C8 0.022(2) 0.017(2) 0.016(2) 0.0009(17) 0.0045(17) 0.0021(17)
C9 0.040(3) 0.021(2) 0.021(2) -0.0034(19) 0.011(2) -0.005(2)
C10 0.044(3) 0.023(2) 0.024(2) 0.002(2) 0.0133(19) 0.005(2)
C11 0.031(2) 0.020(2) 0.020(2) -0.0009(18) 0.0063(19) 0.0014(19)
C12 0.026(3) 0.043(3) 0.031(3) 0.004(2) 0.003(2) 0.012(2)
C13 0.036(3) 0.023(2) 0.020(2) 0.0047(19) 0.013(2) 0.001(2)
C14 0.040(3) 0.036(3) 0.028(2) -0.004(2) 0.013(2) -0.004(2)
C15 0.043(3) 0.036(3) 0.034(3) 0.000(2) 0.019(2) -0.009(2)
C16 0.021(2) 0.025(3) 0.026(2) 0.0002(19) 0.0061(18) -0.0012(18)
C17 0.041(3) 0.038(3) 0.024(2) 0.000(2) 0.007(2) 0.005(3)
C18 0.018(2) 0.019(2) 0.024(2) -0.0009(18) 0.0048(17) 0.0019(18)
C19 0.024(2) 0.033(3) 0.037(3) -0.003(2) 0.013(2) 0.005(2)
C20 0.021(2) 0.034(3) 0.051(3) 0.002(3) 0.015(2) -0.001(2)
C21 0.039(3) 0.035(3) 0.037(3) 0.005(3) 0.006(2) 0.003(3)
loop_
_atom_type_symbol
_atom_type_description
_atom_type_scat_dispersion_real
_atom_type_scat_dispersion_imag
_atom_type_scat_source
C C 0.0033 0.0016 'International Tables Vol C Tables 4.2.6.8 and 6.1.1.4'
H H 0.0000 0.0000 'International Tables Vol C Tables 4.2.6.8 and 6.1.1.4'
N N 0.0061 0.0033 'International Tables Vol C Tables 4.2.6.8 and 6.1.1.4'
O O 0.0106 0.0060 'International Tables Vol C Tables 4.2.6.8 and 6.1.1.4'
S S 0.1246 0.1234 'International Tables Vol C Tables 4.2.6.8 and 6.1.1.4'
loop_
_geom_angle_atom_site_label_1
_geom_angle_atom_site_label_2
_geom_angle_atom_site_label_3
_geom_angle
O3 S1 N6 111.75(18)
O3 S1 C18 103.50(18)
N6 S1 C18 101.14(19)
H1A O1 H1B 114.3
C9 O2 C13 121.1(3)
C16 O5 H5 109.5
S1 N6 H6 116(3)
C8 N6 S1 117.5(3)
C8 N6 H6 114(3)
H7A C7 H7B 107.6
C8 C7 H7A 108.7
C8 C7 H7B 108.7
C16 C7 H7A 108.7
C16 C7 H7B 108.7
C16 C7 C8 114.1(3)
N6 C8 C7 110.6(3)
N6 C8 H8 107.8
N6 C8 C11 110.0(3)
C7 C8 H8 107.8
C7 C8 C11 112.6(3)
C11 C8 H8 107.8
O2 C9 C11 112.6(4)
O4 C9 O2 124.4(4)
O4 C9 C11 123.0(4)
H10A C10 H10B 109.5
H10A C10 H10C 109.5
H10B C10 H10C 109.5
C11 C10 H10A 109.5
C11 C10 H10B 109.5
C11 C10 H10C 109.5
C9 C11 C8 106.0(3)
C9 C11 C10 113.8(4)
C9 C11 C17 106.2(4)
C10 C11 C8 111.2(3)
C17 C11 C8 109.7(4)
C17 C11 C10 109.8(4)
H12A C12 H12B 109.5
H12A C12 H12C 109.5
H12B C12 H12C 109.5
C18 C12 H12A 109.5
C18 C12 H12B 109.5
C18 C12 H12C 109.5
O2 C13 C14 110.8(4)
O2 C13 C15 101.4(3)
O2 C13 C21 109.8(4)
C14 C13 C15 110.4(4)
C14 C13 C21 112.9(4)
C21 C13 C15 110.9(4)
C13 C14 H14A 109.5
C13 C14 H14B 109.5
C13 C14 H14C 109.5
H14A C14 H14B 109.5
H14A C14 H14C 109.5
H14B C14 H14C 109.5
C13 C15 H15A 109.5
C13 C15 H15B 109.5
C13 C15 H15C 109.5
H15A C15 H15B 109.5
H15A C15 H15C 109.5
H15B C15 H15C 109.5
O5 C16 C7 109.8(4)
O5 C16 H16A 109.7
O5 C16 H16B 109.7
C7 C16 H16A 109.7
C7 C16 H16B 109.7
H16A C16 H16B 108.2
C11 C17 H17A 109.5
C11 C17 H17B 109.5
C11 C17 H17C 109.5
H17A C17 H17B 109.5
H17A C17 H17C 109.5
H17B C17 H17C 109.5
C12 C18 S1 108.3(3)
C12 C18 C20 110.7(4)
C19 C18 S1 111.6(3)
C19 C18 C12 112.1(4)
C19 C18 C20 110.7(4)
C20 C18 S1 103.1(3)
C18 C19 H19A 109.5
C18 C19 H19B 109.5
C18 C19 H19C 109.5
H19A C19 H19B 109.5
H19A C19 H19C 109.5
H19B C19 H19C 109.5
C18 C20 H20A 109.5
C18 C20 H20B 109.5
C18 C20 H20C 109.5
H20A C20 H20B 109.5
H20A C20 H20C 109.5
H20B C20 H20C 109.5
C13 C21 H21A 109.5
C13 C21 H21B 109.5
C13 C21 H21C 109.5
H21A C21 H21B 109.5
H21A C21 H21C 109.5
H21B C21 H21C 109.5
loop_
_geom_bond_atom_site_label_1
_geom_bond_atom_site_label_2
_geom_bond_distance
S1 O3 1.515(3)
S1 N6 1.635(4)
S1 C18 1.845(4)
O1 H1A 0.8706
O1 H1B 0.8696
O2 C9 1.347(5)
O2 C13 1.475(5)
O4 C9 1.209(6)
O5 H5 0.8400
O5 C16 1.431(5)
N6 H6 0.84(5)
N6 C8 1.488(5)
C7 H7A 0.9900
C7 H7B 0.9900
C7 C8 1.529(6)
C7 C16 1.517(6)
C8 H8 1.0000
C8 C11 1.554(6)
C9 C11 1.522(6)
C10 H10A 0.9800
C10 H10B 0.9800
C10 H10C 0.9800
C10 C11 1.538(6)
C11 C17 1.534(6)
C12 H12A 0.9800
C12 H12B 0.9800
C12 H12C 0.9800
C12 C18 1.513(6)
C13 C14 1.509(6)
C13 C15 1.524(6)
C13 C21 1.521(7)
C14 H14A 0.9800
C14 H14B 0.9800
C14 H14C 0.9800
C15 H15A 0.9800
C15 H15B 0.9800
C15 H15C 0.9800
C16 H16A 0.9900
C16 H16B 0.9900
C17 H17A 0.9800
C17 H17B 0.9800
C17 H17C 0.9800
C18 C19 1.510(6)
C18 C20 1.537(6)
C19 H19A 0.9800
C19 H19B 0.9800
C19 H19C 0.9800
C20 H20A 0.9800
C20 H20B 0.9800
C20 H20C 0.9800
C21 H21A 0.9800
C21 H21B 0.9800
C21 H21C 0.9800
loop_
_geom_torsion_atom_site_label_1
_geom_torsion_atom_site_label_2
_geom_torsion_atom_site_label_3
_geom_torsion_atom_site_label_4
_geom_torsion
S1 N6 C8 C7 -113.6(3)
S1 N6 C8 C11 121.4(3)
O2 C9 C11 C8 -126.2(4)
O2 C9 C11 C10 -3.8(5)
O2 C9 C11 C17 117.1(4)
O3 S1 N6 C8 92.5(3)
O3 S1 C18 C12 -179.6(3)
O3 S1 C18 C19 56.6(3)
O3 S1 C18 C20 -62.2(3)
O4 C9 C11 C8 55.3(6)
O4 C9 C11 C10 177.8(4)
O4 C9 C11 C17 -61.3(6)
N6 S1 C18 C12 64.6(3)
N6 S1 C18 C19 -59.2(3)
N6 S1 C18 C20 -178.1(3)
N6 C8 C11 C9 -176.3(3)
N6 C8 C11 C10 59.6(5)
N6 C8 C11 C17 -62.0(5)
C7 C8 C11 C9 59.8(5)
C7 C8 C11 C10 -64.3(5)
C7 C8 C11 C17 174.1(4)
C8 C7 C16 O5 66.1(5)
C9 O2 C13 C14 62.1(5)
C9 O2 C13 C15 179.3(4)
C9 O2 C13 C21 -63.3(5)
C13 O2 C9 O4 -1.8(7)
C13 O2 C9 C11 179.8(4)
C16 C7 C8 N6 65.0(5)
C16 C7 C8 C11 -171.4(3)
C18 S1 N6 C8 -157.9(3)
