#------------------------------------------------------------------------------
#$Date: 2016-02-18 17:37:37 +0200 (Thu, 18 Feb 2016) $
#$Revision: 176729 $
#$URL: svn://www.crystallography.net/cod/cif/1/51/83/1518302.cif $
#------------------------------------------------------------------------------
#
# This file is available in the Crystallography Open Database (COD),
# http://www.crystallography.net/
#
# All data on this site have been placed in the public domain by the
# contributors.
#
data_1518302
loop_
_publ_author_name
'Chang, Meng-Yang'
'Cheng, Yu-Chieh'
'Lu, Yi-Ju'
_publ_section_title
;
 One-Pot Access to Sulfonylmethyl Arylpyrroles via the Domino Aerobic
 Wacker-Type Aminocyclization/1,4-Sulfonyl Migration.
;
_journal_issue                   23
_journal_name_full               'Organic letters'
_journal_page_first              6252
_journal_paper_doi               10.1021/ol5032238
_journal_volume                  16
_journal_year                    2014
_chemical_formula_sum            'C19 H16 F3 N O2 S'
_chemical_formula_weight         379.39
_space_group_crystal_system      triclinic
_space_group_IT_number           2
_space_group_name_Hall           '-P 1'
_space_group_name_H-M_alt        'P -1'
_symmetry_space_group_name_Hall  '-P 1'
_symmetry_space_group_name_H-M   'P -1'
_atom_sites_solution_hydrogens   geom
_audit_creation_method           SHELXL-2014/6
_cell_angle_alpha                82.313(10)
_cell_angle_beta                 85.656(11)
_cell_angle_gamma                79.880(10)
_cell_formula_units_Z            2
_cell_length_a                   8.617(4)
_cell_length_b                   9.533(5)
_cell_length_c                   11.024(5)
_cell_measurement_reflns_used    5505
_cell_measurement_temperature    100(2)
_cell_measurement_theta_max      26.1531
_cell_measurement_theta_min      2.1866
_cell_volume                     882.2(7)
_computing_cell_refinement       'SAINT V8.34A (Bruker AXS Inc., 2013)'
_computing_data_collection       'APEX2 (Bruker AXS, 2010)'
_computing_data_reduction        'SAINT V8.34A (Bruker AXS Inc., 2013)'
_computing_molecular_graphics    'SHELXTL (Sheldrick, 2008)'
_computing_publication_material  SHELXTL
_computing_structure_refinement  'SHELXL-2014/6 (Sheldrick, 2014)'
_diffrn_ambient_temperature      100(2)
_diffrn_detector_area_resol_mean 8.3333
_diffrn_measured_fraction_theta_full 0.991
_diffrn_measured_fraction_theta_max 0.960
_diffrn_measurement_device_type  'Bruker APEX-II CCD'
_diffrn_measurement_method       '\f and \w scans'
_diffrn_radiation_type           MoK\a
_diffrn_radiation_wavelength     0.71073
_diffrn_reflns_av_R_equivalents  0.0212
_diffrn_reflns_av_unetI/netI     0.0231
_diffrn_reflns_Laue_measured_fraction_full 0.991
_diffrn_reflns_Laue_measured_fraction_max 0.960
_diffrn_reflns_limit_h_max       10
_diffrn_reflns_limit_h_min       -10
_diffrn_reflns_limit_k_max       11
_diffrn_reflns_limit_k_min       -6
_diffrn_reflns_limit_l_max       13
_diffrn_reflns_limit_l_min       -13
_diffrn_reflns_number            12583
_diffrn_reflns_point_group_measured_fraction_full 0.991
_diffrn_reflns_point_group_measured_fraction_max 0.960
_diffrn_reflns_theta_full        25.242
_diffrn_reflns_theta_max         26.730
_diffrn_reflns_theta_min         2.187
_exptl_absorpt_coefficient_mu    0.227
_exptl_absorpt_correction_T_max  0.9485
_exptl_absorpt_correction_T_min  0.8313
_exptl_absorpt_correction_type   multi-scan
_exptl_absorpt_process_details   'SADABS V2014/4 (Bruker AXS Inc.)'
_exptl_crystal_colour            Colorless
_exptl_crystal_density_diffrn    1.428
_exptl_crystal_density_meas      ?
_exptl_crystal_density_method    'not measured'
_exptl_crystal_description       Lump
_exptl_crystal_F_000             392
_exptl_crystal_size_max          0.30
_exptl_crystal_size_mid          0.25
_exptl_crystal_size_min          0.25
_refine_diff_density_max         0.221
_refine_diff_density_min         -0.276
_refine_diff_density_rms         0.033
_refine_ls_extinction_method     none
_refine_ls_goodness_of_fit_ref   1.016
_refine_ls_hydrogen_treatment    constr
_refine_ls_matrix_type           full
_refine_ls_number_parameters     264
_refine_ls_number_reflns         3581
_refine_ls_number_restraints     39
_refine_ls_restrained_S_all      1.077
_refine_ls_R_factor_all          0.0483
_refine_ls_R_factor_gt           0.0377
_refine_ls_shift/su_max          0.138
_refine_ls_shift/su_mean         0.012
_refine_ls_structure_factor_coef Fsqd
_refine_ls_weighting_details
'w=1/[\s^2^(Fo^2^)+(0.0444P)^2^+0.2653P] where P=(Fo^2^+2Fc^2^)/3'
_refine_ls_weighting_scheme      calc
_refine_ls_wR_factor_gt          0.0934
_refine_ls_wR_factor_ref         0.1019
_reflns_Friedel_coverage         0.000
_reflns_number_gt                2903
_reflns_number_total             3581
_reflns_threshold_expression     'I > 2\s(I)'
_cod_data_source_file            ol5032238_si_003.cif
_cod_data_source_block           mo_140929_0m_a
_cod_depositor_comments
;
The following automatic conversions were performed:

'_exptl_crystal_density_meas' value 'not measured' was changed to '?'
- the value is perceived as not measured.

Automatic conversion script
Id: cif_fix_values 3008 2015-01-20 13:52:24Z robertas 

 Adding full bibliography for 1518300--1518302.cif.
;
_cod_original_cell_volume        882.3(7)
_cod_database_code               1518302
#BEGIN Tags that were not found in dictionaries:
_shelx_space_group_comment
;
The symmetry employed for this shelxl refinement is uniquely defined
by the following loop, which should always be used as a source of
symmetry information in preference to the above space-group names.
They are only intended as comments.
;
_shelxl_version_number           2014/6
_shelx_res_file
;
TITL mo_140929_0m_a.res in P-1
CELL  0.71073   8.6173   9.5334  11.0240   82.313   85.656   79.880
ZERR    2.000   0.0040   0.0047   0.0052    0.010    0.011    0.010
LATT 1
SFAC C  N  O  F  S  H
UNIT 38  2  4  6  2  32
L.S. 4
ACTA
BOND $H
FMAP 2
PLAN 5
DELU 0.01 F1 > F3 F1' > F3'
SIMU 0.01 F1 > F3 F1' > F3'
TEMP -173.000
WGHT    0.044400    0.265300
FVAR       1.21880   0.61496
C1    1    0.367542   -0.079663    0.286191    11.00000    0.05279    0.04396 =
         0.04184   -0.00826   -0.00421   -0.00947
C2    1    0.492046   -0.024800    0.323643    11.00000    0.06236    0.06902 =
         0.04465   -0.01869   -0.00427   -0.01985
AFIX  43
H2    6    0.479646    0.022993    0.394926    11.00000   -1.20000
AFIX   0
C3    1    0.634423   -0.040311    0.256258    11.00000    0.05565    0.07695 =
         0.05708   -0.01210   -0.00652   -0.02057
AFIX  43
H3    6    0.720188   -0.003806    0.282704    11.00000   -1.20000
AFIX   0
C4    1    0.655248   -0.107670    0.151225    11.00000    0.05595    0.05822 =
         0.05271   -0.00643   -0.00113   -0.00115
C5    1    0.530430   -0.162722    0.116329    11.00000    0.07009    0.08227 =
         0.05938   -0.03728    0.00280   -0.00782
AFIX  43
H5    6    0.543238   -0.210699    0.045136    11.00000   -1.20000
AFIX   0
C6    1    0.386859   -0.149793    0.182512    11.00000    0.05922    0.06900 =
         0.06214   -0.03044   -0.00433   -0.01458
AFIX  43
H6    6    0.302186   -0.188694    0.157070    11.00000   -1.20000
AFIX   0
C7    1    0.810030   -0.117948    0.075706    11.00000    0.06784    0.08694 =
         0.07546   -0.01046    0.01371   -0.00329
AFIX 137
H7A   6    0.817522   -0.194289    0.023132    11.00000   -1.50000
H7B   6    0.897862   -0.139942    0.130435    11.00000   -1.50000
H7C   6    0.814956   -0.026271    0.024637    11.00000   -1.50000
AFIX   0
C8    1    0.085090    0.119414    0.308028    11.00000    0.04909    0.05327 =
         0.04618   -0.00784   -0.00334   -0.01075
AFIX  23
H8A   6    0.085362    0.123961    0.217768    11.00000   -1.20000
H8B   6   -0.026311    0.131380    0.340046    11.00000   -1.20000
AFIX   0
C9    1    0.156021    0.240261    0.337954    11.00000    0.04669    0.04364 =
         0.04987   -0.00451   -0.00239   -0.00596
C10   1    0.245473    0.328694    0.266746    11.00000    0.05950    0.05863 =
         0.05567   -0.00314    0.00645   -0.01526
AFIX  43
H10   6    0.278283    0.324008    0.182941    11.00000   -1.20000
AFIX   0
C11   1    0.279608    0.427299    0.340361    11.00000    0.05669    0.05313 =
         0.06792   -0.00134    0.00297   -0.01997
AFIX  43
H11   6    0.339161    0.501978    0.314782    11.00000   -1.20000
AFIX   0
C12   1    0.211940    0.397319    0.456245    11.00000    0.04027    0.03925 =
         0.06283   -0.00385   -0.00235   -0.00876
C13   1    0.214365    0.463419    0.568428    11.00000    0.03824    0.03782 =
         0.06284   -0.00543   -0.00431   -0.00529
C14   1    0.128164    0.422343    0.675954    11.00000    0.05837    0.04805 =
         0.06980   -0.01119    0.00364   -0.02227
AFIX  43
H14   6    0.062049    0.352450    0.675780    11.00000   -1.20000
AFIX   0
C15   1    0.137254    0.481161    0.781915    11.00000    0.06853    0.05434 =
         0.06435   -0.00888    0.00506   -0.02006
AFIX  43
H15   6    0.076902    0.451992    0.853627    11.00000   -1.20000
AFIX   0
C16   1    0.233323    0.582328    0.785196    11.00000    0.04911    0.04360 =
         0.06701   -0.01035   -0.00906   -0.00443
C17   1    0.314716    0.628710    0.678419    11.00000    0.05115    0.05018 =
         0.08325   -0.01644   -0.00259   -0.01766
AFIX  43
H17   6    0.377524    0.701201    0.678593    11.00000   -1.20000
AFIX   0
C18   1    0.305200    0.570279    0.571640    11.00000    0.05308    0.05019 =
         0.07116   -0.00913    0.00609   -0.01971
AFIX  43
H18   6    0.361524    0.603467    0.499110    11.00000   -1.20000
AFIX   0
C19   1    0.247463    0.640107    0.901955    11.00000    0.07229    0.06256 =
         0.07621   -0.01376   -0.01242   -0.01327
PART 1  21.00
F1    4    0.273456    0.540194    0.993442    21.00000    0.22734    0.09150 =
         0.07207    0.00490   -0.04599   -0.02947
F2    4    0.125201    0.727778    0.933920    21.00000    0.11520    0.19735 =
         0.11565   -0.09716   -0.03002    0.06297
F3    4    0.366841    0.710971    0.899261    21.00000    0.14369    0.16814 =
         0.10110   -0.05294    0.00021   -0.10121
SAME F1   F2   F3
PART 2  -21.00
F1'   4    0.152243    0.598737    0.995533   -21.00000    0.15636    0.16214 =
         0.08281   -0.04424    0.03205   -0.08667
F2'   4    0.214731    0.776016    0.893978   -21.00000    0.23065    0.05294 =
         0.10263   -0.03028   -0.03328   -0.01969
F3'   4    0.383366    0.603142    0.943314   -21.00000    0.09682    0.19218 =
         0.14357   -0.07607   -0.06068    0.01933
PART 0
N1    2    0.136218    0.282808    0.452535    11.00000    0.04700    0.04068 =
         0.05055   -0.00385    0.00185   -0.01177
AFIX  43
H1    6    0.082732    0.242654    0.514837    11.00000   -1.20000
AFIX   0
O1    3    0.092071   -0.156786    0.339477    11.00000    0.06864    0.05781 =
         0.07593   -0.01807    0.00460   -0.03029
O2    3    0.209790   -0.049323    0.495220    11.00000    0.07330    0.05903 =
         0.04084   -0.00406    0.00228   -0.01434
S1    5    0.183737   -0.054051    0.368490    11.00000    0.05518    0.04441 =
         0.04587   -0.00855    0.00147   -0.01664
HKLF 4

REM  mo_140929_0m_a.res in P-1
REM R1 =  0.0377 for    2903 Fo > 4sig(Fo)  and  0.0483 for all    3581 data
REM    264 parameters refined using     39 restraints

END

WGHT      0.0452      0.2610

REM Highest difference peak  0.221,  deepest hole -0.276,  1-sigma level  0.033
Q1    1   0.2871 -0.0646  0.3186  11.00000  0.05    0.22
Q2    1   0.2925  0.7551  0.8744  11.00000  0.05    0.18
Q3    1   0.3865  0.6592  0.9183  11.00000  0.05    0.17
Q4    1   0.1461  0.0455  0.3222  11.00000  0.05    0.17
Q5    1   0.3131  0.5626  0.7407  11.00000  0.05    0.15
;
_shelx_res_checksum              4289
_shelx_hkl_file
;
  -1   0   0  538.84   11.56
  -1   0   0  535.20   11.41
   1   0   0  549.02   11.39
   1   0   0  512.57   11.55
   1   0   0  555.10   11.56
   1   0   0  518.52   11.52
  -3   0   0 2983.81   62.39
  -3   0   0 3022.97   62.13
  -3   0   0 3015.92   62.57
   3   0   0 2962.82   62.40
   3   0   0 2965.45   62.45
   3   0   0 2888.84   62.52
   3   0   0 2914.45   61.89
  -4   0   0  633.76   14.77
  -4   0   0  631.06   14.97
  -4   0   0  626.01   15.27
   4   0   0  629.91   15.19
   4   0   0  614.12   15.32
   4   0   0  617.31   15.10
   4   0   0  617.54   14.51
  -5   0   0   54.36    3.12
  -5   0   0   56.40    3.41
  -5   0   0   59.80    3.31
   5   0   0   55.76    3.34
   5   0   0   55.21    3.53
   5   0   0   61.58    3.50
   5   0   0   54.42    2.86
  -6   0   0  108.85    4.92
  -6   0   0  115.98    4.98
  -6   0   0  116.77    5.42
  -6   0   0  105.85    3.05
   6   0   0  109.16    5.37
   6   0   0  106.78    5.11
   6   0   0  102.32    5.07
  -7   0   0  161.47    7.25
  -7   0   0  167.06    6.72
   7   0   0  159.20    6.97
   7   0   0  169.46    7.13
   7   0   0  173.21    7.48
  -8   0   0   -0.04    1.86
   8   0   0    0.82    1.77
  -9   0   0    0.64    2.10
   9   0   0   -0.79    1.77
 -10   0   0    5.32    2.79
  10   0   0    7.85    2.81
 -10   1   0    2.98    2.49
   9  -1   0    6.48    2.43
  -9   1   0    8.08    2.60
   8  -1   0   33.82    4.00
  -8   1   0   30.26    3.90
  -8   1   0   39.90    3.97
   7  -1   0  134.30    6.53
  -7   1   0  127.41    5.95
  -7   1   0  134.37    6.72
   6  -1   0   47.51    3.72
   6  -1   0   46.51    3.58
   6  -1   0   43.63    3.01
   6  -1   0   39.34    3.36
  -6   1   0   44.76    3.29
  -6   1   0   45.11    3.63
  -6   1   0   41.75    1.96
  -6   1   0   47.30    3.35
   5  -1   0  313.21    9.59
   5  -1   0  326.65    9.62
   5  -1   0  321.16    9.49
   5  -1   0  317.78    8.82
  -5   1   0  308.00    9.26
  -5   1   0  320.52    9.64
  -5   1   0  316.86    8.94
  -5   1   0  316.32    7.62
   4  -1   0  661.09   16.21
   4  -1   0  668.42   16.11
   4  -1   0  657.00   16.25
   4  -1   0  669.67   15.59
  -4   1   0  658.35   15.64
  -4   1   0  676.71   16.33
  -4   1   0  670.63   16.00
  -4   1   0  658.55   14.59
   3  -1   0  511.14   12.57
   3  -1   0  522.37   12.61
   3  -1   0  515.64   12.11
   3  -1   0  527.43   12.53
  -3   1   0  522.69   11.48
  -3   1   0  510.26   12.37
  -3   1   0  510.46   12.12
  -3   1   0  528.15   12.66
  -2   1   0 6736.73  136.99
  -2   1   0 6543.99  137.03
   1  -1   0 1066.57   23.19
   1  -1   0 1095.74   23.89
  -1   1   0 1116.17   23.85
  -1   1   0 1104.51   23.32
  -1   1   0 1112.81   23.39
  -1   1   0 1106.50   23.45
  -1   1   0 1101.18   23.18
  -1   1   0 1091.14   23.36
   0   1   0   90.75    2.07
   0   1   0   86.90    2.07
   0   1   0   85.47    2.48
   1   1   0    2.01    0.41
   1   1   0    3.58    0.36
   1   1   0    2.59    0.35
   1   1   0    1.58    0.30
   1   1   0    1.74    0.22
  -2  -1   0  229.25    5.52
   2   1   0  231.65    5.76
   2   1   0  238.17    5.89
   2   1   0  228.18    5.66
  -3  -1   0  493.24   11.39
   3   1   0  486.49   11.67
   3   1   0  494.48   11.61
   3   1   0  493.93   11.84
  -4  -1   0   44.45    2.41
  -4  -1   0   42.08    2.59
   4   1   0   40.26    2.77
   4   1   0   43.02    2.86
   4   1   0   43.89    2.57
   4   1   0   41.75    2.46
  -5  -1   0  267.69    8.20
  -5  -1   0  260.91    7.70
   5   1   0  258.52    8.30
   5   1   0  262.42    7.97
   5   1   0  270.35    8.00
  -6  -1   0  625.05   16.69
  -6  -1   0  629.34   16.06
   6   1   0  644.84   16.49
   6   1   0  647.80   17.03
   6   1   0  662.11   16.67
  -7  -1   0  349.08   10.73
   7   1   0  344.37   10.96
   7   1   0  349.03   11.51
   7   1   0  358.88   11.19
  -8  -1   0   37.17    3.88
   8   1   0   38.50    3.82
   8   1   0   39.32    3.99
   8   1   0   38.65    4.33
  -9  -1   0  168.78    7.81
   9   1   0  153.12    7.45
 -10  -1   0    0.44    2.47
  10   1   0   -1.10    1.78
 -10   2   0   16.38    3.08
  -9   2   0    2.40    2.05
  -8   2   0   52.13    4.31
  -8   2   0   51.89    5.16
   7  -2   0   63.55    4.86
   7  -2   0   69.74    4.30
  -7   2   0   64.30    4.29
  -7   2   0   68.20    4.94
   6  -2   0    0.91    1.21
   6  -2   0    0.44    1.21
   6  -2   0    0.21    1.42
   6  -2   0    0.17    1.84
  -6   2   0    1.53    1.32
  -6   2   0    0.27    1.19
  -6   2   0    0.99    0.85
  -6   2   0   -0.08    1.35
   5  -2   0  259.49    8.37
   5  -2   0  244.00    7.55
   5  -2   0  241.86    8.10
   5  -2   0  249.53    8.14
  -5   2   0  247.65    8.05
  -5   2   0  246.09    6.67
  -5   2   0  243.36    7.48
  -5   2   0  248.73    8.17
  -5   2   0  246.36    8.19
   4  -2   0 1242.08   27.73
   4  -2   0 1262.48   28.51
  -4   2   0 1218.25   28.26
  -4   2   0 1221.63   27.60
  -4   2   0 1268.77   28.20
  -4   2   0 1257.63   28.38
  -4   2   0 1265.93   27.15
   3  -2   0    8.13    1.37
   3  -2   0    7.81    1.11
  -3   2   0    7.44    1.29
  -3   2   0    9.20    1.35
  -3   2   0    8.34    1.40
  -3   2   0    8.19    1.16
  -3   2   0    8.51    1.14
  -2   2   0 5913.62  122.57
  -2   2   0 5891.57  122.63
  -2   2   0 5957.34  122.45
   1  -2   0  390.57    8.95
  -1   2   0  412.12    9.22
  -1   2   0  412.55    9.31
  -1   2   0  411.00    8.70
  -1   2   0  406.50    9.24
  -1   2   0  404.55    9.58
  -1   2   0  402.76    8.70
  -1   2   0  415.63    9.07
  -1   2   0  406.65    9.06
   0   2   0 3678.60   76.44
   1   2   0   39.89    1.13
   1   2   0   36.87    1.88
   1   2   0   40.63    1.10
   2   2   0   11.46    1.21
   2   2   0   14.02    1.08
   2   2   0   12.66    0.65
   2   2   0   14.78    1.06
   2   2   0   12.98    0.96
  -3  -2   0  217.41    5.64
   3   2   0  221.66    5.22
   3   2   0  230.03    5.93
   3   2   0  228.16    6.15
   3   2   0  217.04    5.97
   3   2   0  228.43    5.71
  -4  -2   0   19.64    1.70
   4   2   0   16.27    1.65
   4   2   0   16.78    1.65
   4   2   0   16.45    1.39
   4   2   0   23.20    2.15
   4   2   0   17.54    1.64
  -5  -2   0  211.28    6.43
   5   2   0  208.86    6.41
   5   2   0  207.89    6.54
   5   2   0  205.46    6.67
   5   2   0  204.21    6.98
  -6  -2   0  360.70   10.16
  -6  -2   0  289.54   13.47
   6   2   0  369.83   10.27
   6   2   0  369.74   10.43
   6   2   0  383.55   11.17
   6   2   0  372.66   10.64
  -7  -2   0  233.48    8.03
   7   2   0  223.02    7.83
   7   2   0  219.85    8.10
   7   2   0  220.14    8.63
  -8  -2   0    6.32    2.22
   8   2   0    5.38    2.10
   8   2   0    8.51    2.45
   8   2   0    6.47    1.92
  -9  -2   0    2.82    2.28
   9   2   0    2.51    1.95
   9   2   0    2.67    1.78
   9   2   0    3.02    2.33
 -10  -2   0   11.88    3.14
  10   2   0   10.26    2.48
  -9   3   0    1.31    2.43
  -9   3   0   -1.97    1.58
   8  -3   0   15.31    2.62
  -8   3   0   10.70    2.69
  -8   3   0   12.49    2.40
   7  -3   0   35.17    3.43
  -7   3   0   32.75    3.27
  -7   3   0   29.12    3.56
  -7   3   0   42.12    4.18
   6  -3   0    1.35    1.62
   6  -3   0    0.34    2.08
  -6   3   0    2.89    1.27
  -6   3   0   -0.88    1.70
  -6   3   0   -0.72    1.86
  -6   3   0   -0.84    1.39
  -6   3   0    3.37    1.87
   5  -3   0  157.52    5.99
   5  -3   0  172.97    6.79
  -5   3   0  161.71    5.42
  -5   3   0  167.64    6.38
  -5   3   0  170.57    5.82
  -5   3   0  164.33    6.46
  -5   3   0  164.71    6.46
   4  -3   0  511.81   12.85
   4  -3   0  517.89   13.56
  -4   3   0  510.99   13.24
  -4   3   0  502.13   13.44
  -4   3   0  505.42   13.20
  -4   3   0  505.72   12.56
  -4   3   0  507.42   12.48
  -4   3   0  516.79   13.26
   3  -3   0   35.03    2.31
  -3   3   0   35.39    2.37
  -3   3   0   40.32    2.76
  -3   3   0   29.12    2.50
  -3   3   0   33.37    2.54
  -3   3   0   28.63    2.49
  -3   3   0   27.97    2.61
  -3   3   0   31.27    2.08
   2  -3   0  481.14   11.27
  -2   3   0  499.51   11.42
  -2   3   0  502.90   11.79
  -2   3   0  478.64   11.78
  -2   3   0  507.23   11.47
  -2   3   0  492.56   11.63
  -2   3   0  469.16   10.78
  -2   3   0  481.80   11.91
  -2   3   0  490.50   10.84
  -1   3   0 1547.65   32.99
  -1   3   0 1528.35   33.74
  -1   3   0 1544.13   32.85
  -1   3   0 1523.34   32.87
  -1   3   0 1629.42   32.34
  -1   3   0 1567.38   32.28
   0   3   0   10.60    0.81
   0   3   0   12.86    0.74
   0   3   0   12.84    1.49
   1   3   0  192.88    5.76
   2   3   0  446.45    9.63
   2   3   0  431.50   10.75
   2   3   0  428.87    9.56
   3   3   0  420.51    9.77
   3   3   0  398.89   10.30
   3   3   0  414.34    9.68
   3   3   0  418.41    9.76
   4   3   0   24.15    1.46
   4   3   0   26.74    1.90
   4   3   0   25.56    1.97
   4   3   0   26.01    2.28
  -5  -3   0   47.51    2.75
   5   3   0   46.22    2.97
   5   3   0   49.13    2.88
   5   3   0   48.60    2.53
   5   3   0   46.87    3.33
  -6  -3   0  145.83    5.48
   6   3   0  147.08    5.17
   6   3   0  141.17    5.68
   6   3   0  145.61    5.60
   6   3   0  136.73    4.28
   6   3   0  149.67    6.26
  -7  -3   0   73.73    4.47
   7   3   0   70.26    3.91
   7   3   0   63.55    4.93
   7   3   0   65.23    4.23
   7   3   0   63.43    4.37
  -8  -3   0   36.53    3.67
   8   3   0   36.78    4.06
   8   3   0   31.76    3.42
   8   3   0   38.94    3.24
  -9  -3   0   18.01    3.15
   9   3   0   15.21    2.42
   9   3   0   16.98    3.30
   9   3   0   19.96    3.23
 -10  -3   0    5.39    3.31
  10   3   0   10.80    2.89
  10   3   0    6.25    1.99
  -9   4   0   -0.34    1.63
  -9   4   0   -3.08    2.17
   8  -4   0    5.08    2.23
  -8   4   0    2.74    1.78
  -8   4   0    2.10    2.33
   7  -4   0   -1.36    1.49
  -7   4   0    0.80    1.89
  -7   4   0    0.50    1.43
  -7   4   0    0.92    2.01
   6  -4   0   10.43    2.21
  -6   4   0   13.11    2.85
  -6   4   0   10.11    1.92
  -6   4   0   13.02    2.43
  -6   4   0    8.76    1.98
  -6   4   0   10.39    2.39
   5  -4   0   22.37    2.57
  -5   4   0   24.12    2.80
  -5   4   0   17.49    2.49
  -5   4   0   19.70    2.10
  -5   4   0   22.69    2.81
  -5   4   0   25.09    2.69
  -5   4   0   24.32    2.92
   4  -4   0  376.50   10.21
  -4   4   0  367.92   11.05
  -4   4   0  382.78   10.41
  -4   4   0  394.88   10.73
  -4   4   0  385.79    9.62
  -4   4   0  382.43   10.51
  -4   4   0  369.54   10.75
  -4   4   0  371.36   10.41
   3  -4   0  261.57    7.26
  -3   4   0  262.76    6.52
  -3   4   0  259.08    7.86
  -3   4   0  263.06    7.80
  -3   4   0  258.91    7.25
  -3   4   0  251.16    6.44
  -3   4   0  261.36    7.26
  -3   4   0  266.38    8.01
  -3   4   0  267.42    7.68
   2  -4   0  272.69    7.19
  -2   4   0  295.30    7.15
  -2   4   0  286.23    7.05
  -2   4   0  294.87    7.90
  -2   4   0  285.69    7.78
  -2   4   0  287.18    8.37
  -2   4   0  291.07    7.68
  -1   4   0  100.57    3.32
  -1   4   0   98.75    3.21
  -1   4   0   99.73    3.18
  -1   4   0  101.97    4.25
   0   4   0  351.03    7.93
   0   4   0  355.01    7.86
   0   4   0  350.40    9.63
   1   4   0  424.31   11.14
   2   4   0  573.30   12.40
   2   4   0  585.69   14.47
   2   4   0  590.91   12.43
   3   4   0 1145.87   24.84
   3   4   0 1153.49   24.90
   3   4   0 1202.48   24.80
   3   4   0 1146.38   26.37
   4   4   0 1391.15   30.29
   4   4   0 1388.64   30.38
   4   4   0 1418.63   30.54
  -5  -4   0    1.17    0.93
   5   4   0    0.48    0.90
   5   4   0    0.97    1.29
   5   4   0    1.13    0.51
   5   4   0    1.56    1.05
  -6  -4   0  619.56   15.16
   6   4   0  617.54   14.17
   6   4   0  607.42   15.48
   6   4   0  598.03   15.93
   6   4   0  608.73   15.35
  -7  -4   0  352.61   10.86
   7   4   0  390.87   11.30
   7   4   0  379.31   11.05
   7   4   0  366.82   11.78
   7   4   0  370.94    9.89
   8   4   0    5.49    2.34
   8   4   0    4.83    1.38
   8   4   0    6.55    2.06
   9   4   0   59.63    3.80
   9   4   0   58.80    4.94
   9   4   0   59.27    5.55
  10   4   0   38.18    3.40
  10   4   0   37.02    4.37
  10   4   0   35.69    4.67
   8  -5   0    2.91    2.16
  -8   5   0    3.22    2.48
   7  -5   0   41.09    3.97
  -7   5   0   43.39    4.54
  -7   5   0   39.19    3.93
  -7   5   0   36.42    3.17
   6  -5   0   57.20    4.28
  -6   5   0   50.44    4.48
  -6   5   0   51.33    4.24
  -6   5   0   52.18    3.24
  -6   5   0   56.59    4.02
  -6   5   0   52.27    4.17
   5  -5   0   16.65    2.41
  -5   5   0   19.24    2.71
  -5   5   0   17.45    2.70
  -5   5   0   15.28    2.34
  -5   5   0   20.12    2.03
  -5   5   0   17.79    2.44
   4  -5   0  647.21   16.01
  -4   5   0  653.89   16.90
  -4   5   0  655.36   14.66
  -4   5   0  653.27   17.13
  -4   5   0  619.80   16.39
  -4   5   0  662.50   15.85
  -4   5   0  651.47   15.86
  -4   5   0  649.68   16.78
   3  -5   0  163.00    5.32
  -3   5   0  166.80    5.07
  -3   5   0  172.83    5.74
  -3   5   0  169.37    5.00
  -3   5   0  156.29    5.97
  -3   5   0  159.76    6.28
  -3   5   0  155.99    5.78
   2  -5   0   64.25    2.67
  -2   5   0   66.63    3.21
  -2   5   0   59.89    3.79
  -2   5   0   62.49    2.94
  -2   5   0   66.47    3.11
  -1   5   0  438.69   10.26
  -1   5   0  426.51   10.34
  -1   5   0  418.52   10.22
  -1   5   0  446.36   12.09
   0   5   0   -0.49    1.11
   0   5   0    0.87    0.62
   0   5   0    1.07    0.51
   1   5   0   18.90    2.25
   2   5   0   20.44    2.40
   3   5   0  860.56   18.46
   3   5   0  862.55   18.44
   3   5   0  852.24   20.75
   4   5   0   -0.40    0.63
   4   5   0   -1.47    0.63
   4   5   0   -0.85    1.16
   4   5   0    1.53    1.03
   5   5   0    2.80    1.06
   5   5   0    4.60    1.51
   5   5   0    3.18    1.08
   6   5   0  130.90    5.14
   6   5   0  141.67    5.82
   6   5   0  132.34    5.24
   7   5   0  306.57    9.53
   7   5   0  297.34   10.11
   7   5   0  301.79    9.37
   8   5   0   25.65    3.10
   8   5   0   26.35    3.52
   8   5   0   23.09    1.70
   9   5   0   24.80    2.11
   9   5   0   30.53    3.99
   9   5   0   28.29    3.51
  10   5   0   -0.16    2.30
  10   5   0   -0.28    1.83
  10   5   0    1.83    1.02
   8  -6   0    9.78    3.36
  -8   6   0   10.97    2.95
  -8   6   0    7.18    1.92
   7  -6   0   15.03    3.67
  -7   6   0   15.20    3.29
  -7   6   0   15.68    2.19
  -7   6   0   17.17    2.89
   6  -6   0   66.39    7.00
  -6   6   0   50.97    4.00
  -6   6   0   60.63    4.37
  -6   6   0   52.92    4.42
  -6   6   0   53.69    4.71
  -6   6   0   52.85    3.04
   5  -6   0    4.03    2.11
  -5   6   0    6.03    2.21
  -5   6   0    2.76    1.62
  -5   6   0    4.23    1.92
  -5   6   0    7.12    1.72
  -5   6   0    4.81    1.23
   4  -6   0  187.21    7.30
  -4   6   0  205.30    6.21
  -4   6   0  199.27    7.39
  -4   6   0  200.40    7.17
  -4   6   0  201.88    7.81
  -4   6   0  195.89    6.01
   3  -6   0  120.11    4.69
  -3   6   0  122.49    5.89
  -3   6   0  137.73    5.58
  -3   6   0  129.95    5.23
  -3   6   0  132.13    3.61
  -3   6   0  135.08    3.68
  -3   6   0  128.03    5.06
  -2   6   0   -0.90    1.24
  -2   6   0   -0.96    0.96
  -2   6   0   -0.59    0.92
  -2   6   0    0.15    0.78
  -1   6   0 1280.54   27.79
  -1   6   0 1280.76   27.66
  -1   6   0 1255.41   30.05
  -1   6   0 1274.85   27.73
   0   6   0  431.14    9.75
   0   6   0  431.76    9.88
   0   6   0  428.38   12.54
   1   6   0  590.11   15.93
   2   6   0 2645.47   58.24
   3   6   0   50.76    1.64
   3   6   0   50.70    1.64
   3   6   0   55.15    3.79
   4   6   0  126.08    3.89
   4   6   0  115.30    5.48
   4   6   0  121.57    3.71
   4   6   0  117.43    3.62
   5   6   0  171.13    5.25
   5   6   0  172.93    5.77
   5   6   0  166.52    5.28
   6   6   0   99.93    4.76
   6   6   0  104.22    4.32
   6   6   0   96.63    4.20
   7   6   0   40.06    3.19
   7   6   0   40.03    3.81
   7   6   0   37.42    3.20
   8   6   0   11.35    2.22
   8   6   0   12.01    2.66
   8   6   0   14.48    2.43
   9   6   0   11.47    2.82
   9   6   0   12.94    2.62
  -7   7   0    6.15    2.09
  -7   7   0    7.86    2.81
  -6   7   0   44.29    3.64
  -6   7   0   37.95    4.03
  -6   7   0   41.98    3.29
  -6   7   0   40.54    4.43
  -5   7   0   12.35    2.77
  -5   7   0   10.61    1.60
  -5   7   0    8.38    2.27
  -5   7   0    9.49    1.77
  -4   7   0   10.76    2.29
  -4   7   0   10.62    2.16
  -4   7   0   14.52    3.01
  -3   7   0   -0.10    1.28
  -3   7   0    1.75    1.87
  -3   7   0    0.61    1.33
  -3   7   0    1.82    1.24
  -2   7   0   15.31    2.91
  -2   7   0   11.89    1.87
  -2   7   0   12.69    1.71
  -2   7   0   11.74    1.84
  -1   7   0   89.59    3.59
  -1   7   0   88.71    3.41
  -1   7   0   91.86    5.33
  -1   7   0   94.28    3.64
   0   7   0   11.96    2.50
   0   7   0   11.28    1.03
   1   7   0  143.06    6.72
   2   7   0  680.87   18.53
   3   7   0   40.68    3.87
   4   7   0  133.36    6.56
   4   7   0  139.26    3.68
   4   7   0  134.82    3.69
   5   7   0  402.02    9.87
   5   7   0  399.89    9.85
   5   7   0  407.65   10.44
   6   7   0   14.37    1.75
   6   7   0   15.95    1.90
   6   7   0   13.47    2.11
   7   7   0   84.77    4.95
   7   7   0   83.29    4.10
   7   7   0   83.29    4.22
   8   7   0   30.33    3.17
   8   7   0   30.90    3.63
   8   7   0   34.59    3.17
   9   7   0   22.13    3.46
   9   7   0   21.42    3.06
  -6   8   0   12.73    1.63
  -6   8   0   16.08    3.18
  -6   8   0   12.80    1.57
  -6   8   0   11.68    3.32
  -5   8   0   27.93    3.42
  -5   8   0   29.54    4.29
  -4   8   0   -1.41    1.97
  -4   8   0   -0.51    1.52
  -4   8   0   -1.58    1.32
  -3   8   0   24.48    3.08
  -3   8   0   37.41    3.36
  -3   8   0   36.97    4.40
  -3   8   0   39.48    3.22
  -2   8   0    8.92    1.53
  -2   8   0    8.24    1.78
  -2   8   0   10.18    1.88
  -2   8   0   12.89    2.99
  -1   8   0   36.19    2.69
  -1   8   0   40.32    2.63
  -1   8   0   34.58    2.26
  -1   8   0   34.67    4.04
   0   8   0   88.61    5.79
   0   8   0   89.59    3.15
   0   8   0   88.47    2.83
   1   8   0   38.38    4.16
   2   8   0  331.12   11.64
   3   8   0   37.40    4.17
   4   8   0   44.92    4.55
   5   8   0   62.38    3.14
   5   8   0   58.84    2.33
   5   8   0   58.10    2.29
   6   8   0    7.01    1.26
   6   8   0    6.98    1.69
   6   8   0    7.88    1.28
   7   8   0    7.71    1.95
   7   8   0    6.72    1.49
   7   8   0    4.15    1.37
   8   8   0   -1.49    1.11
   8   8   0    0.04    1.70
   8   8   0    0.02    1.18
  -5   9   0   31.62    4.60
  -5   9   0   20.54    3.05
  -4   9   0   -1.01    2.31
  -4   9   0    1.47    1.63
  -3   9   0   60.62    4.30
  -3   9   0   60.60    6.00
  -3   9   0   63.50    3.85
  -2   9   0    3.10    1.68
  -2   9   0    3.78    2.61
  -2   9   0    3.06    1.29
  -1   9   0   10.22    2.98
  -1   9   0    6.77    1.22
  -1   9   0    7.66    1.74
   0   9   0   69.46    5.68
   0   9   0   65.69    3.10
   1   9   0   14.79    3.24
   2   9   0    7.00    2.86
   3   9   0  101.24    6.55
   4   9   0   67.00    5.45
   5   9   0   36.78    2.59
   6   9   0  102.42    3.40
   6   9   0  108.49    4.71
   6   9   0  104.33    3.43
   7   9   0    3.52    1.13
   7   9   0    3.20    1.15
   7   9   0    2.56    1.64
   8   9   0   15.38    2.04
   8   9   0   17.35    2.87
   8   9   0   15.95    2.07
  -4  10   0    7.70    3.31
  -4  10   0    1.16    1.65
  -3  10   0   35.98    5.13
  -3  10   0   20.01    2.46
  -2  10   0   12.29    3.63
  -2  10   0   11.68    1.73
  -1  10   0    0.82    0.90
  -1  10   0   -2.49    1.41
  -1  10   0   -2.82    2.28
   0  10   0   87.67    4.10
   0  10   0  106.27    7.30
   1  10   0   38.02    5.12
   2  10   0   50.92    5.76
   3  10   0   21.35    4.10
   4  10   0   13.32    3.47
   6  10   0   15.58    2.09
   7  10   0    3.55    1.77
   7  10   0    6.48    0.99
  -2  11   0   24.07    2.33
  -2  11   0   24.81    4.71
  -1  11   0   10.59    2.22
  -1  11   0    9.26    3.73
   0  11   0   32.94    5.14
   0  11   0   27.32    2.63
   1  11   0  118.90    8.08
   2  11   0   -0.27    2.56
   3  11   0   33.98    5.06
   4  11   0    4.29    3.09
   5  11  -1   16.68    4.21
   4  11  -1    5.95    3.06
   3  11  -1    2.09    2.80
   2  11  -1    0.20    2.82
   1  11  -1    8.98    3.55
   0  11  -1   17.74    2.24
   0  11  -1   16.77    4.29
  -1  11  -1    8.59    3.53
  -1  11  -1    7.59    2.06
   6  10  -1   -0.02    1.48
   5  10  -1   64.68    5.89
   4  10  -1   26.45    4.41
   3  10  -1   20.53    3.95
   2  10  -1  158.38    8.82
   1  10  -1   -0.53    2.44
   0  10  -1  137.17    8.28
   0  10  -1  117.25    4.66
  -1  10  -1   80.42    6.79
  -1  10  -1   80.62    4.59
  -2  10  -1    4.92    1.41
  -2  10  -1    3.46    1.71
  -2  10  -1    7.18    3.16
  -3  10  -1   21.67    2.46
  -3  10  -1   18.92    2.79
  -3  10  -1   31.63    5.02
   7   9  -1   18.47    1.94
   7   9  -1   22.30    1.99
   7   9  -1   17.38    2.64
   6   9  -1    4.09    1.67
   6   9  -1    3.79    0.95
   6   9  -1    5.52    1.03
   5   9  -1  122.59    4.64
   5   9  -1  119.25    7.05
   4   9  -1   -1.17    1.91
   3   9  -1   52.32    5.37
   2   9  -1  185.31    8.93
   1   9  -1    0.46    2.19
   0   9  -1   50.25    5.30
   0   9  -1   56.83    2.74
  -1   9  -1   84.19    6.17
  -1   9  -1   78.00    3.70
  -1   9  -1   76.94    3.29
  -1   9  -1   79.66    4.12
  -2   9  -1    1.73    1.64
  -2   9  -1   -3.07    1.23
  -2   9  -1   -0.62    0.99
  -2   9  -1    1.09    2.24
  -3   9  -1   10.73    2.26
  -3   9  -1   13.72    2.07
  -3   9  -1   12.90    3.41
  -4   9  -1   67.30    4.54
  -4   9  -1   78.31    6.26
  -5   9  -1    3.56    2.95
  -5   9  -1   -1.41    1.75
   8   8  -1    4.85    2.24
   8   8  -1    5.50    1.56
   8   8  -1    6.00    1.72
   7   8  -1   33.33    2.68
   7   8  -1   30.31    2.67
   7   8  -1   29.55    3.18
   6   8  -1    0.34    1.45
   6   8  -1    1.27    0.96
   6   8  -1    0.84    0.99
   5   8  -1   16.68    1.98
   5   8  -1   17.05    3.23
   5   8  -1   15.80    1.29
   5   8  -1   11.82    1.22
   4   8  -1   50.99    4.72
   3   8  -1  116.38    6.55
   2   8  -1  214.21    9.06
   1   8  -1  128.83    6.86
   0   8  -1   32.65    1.97
   0   8  -1   31.14    1.89
   0   8  -1   32.81    4.11
  -1   8  -1  123.66    4.31
  -1   8  -1  132.60    4.69
  -1   8  -1  136.35    7.07
  -1   8  -1  124.34    4.74
  -2   8  -1   90.88    4.06
  -2   8  -1   93.98    4.64
  -2   8  -1   95.41    6.04
  -2   8  -1   98.72    4.53
  -3   8  -1   59.90    3.75
  -3   8  -1   62.41    5.11
  -3   8  -1   61.52    4.18
  -3   8  -1   64.47    6.10
  -4   8  -1    7.98    2.27
  -4   8  -1    9.38    2.92
  -4   8  -1    7.83    1.97
  -5   8  -1    9.76    2.39
  -5   8  -1   13.93    3.32
  -6   8  -1    9.85    3.23
  -6   8  -1   12.60    1.54
  -6   8  -1   10.51    2.78
   9   7  -1   -1.06    1.55
   9   7  -1   -3.29    1.91
   8   7  -1   -0.32    1.30
   8   7  -1    0.47    1.76
   8   7  -1    0.73    1.38
   7   7  -1  107.59    4.84
   7   7  -1   98.95    4.58
   7   7  -1  104.31    5.53
   6   7  -1   40.32    3.48
   6   7  -1   43.80    2.78
   6   7  -1   37.33    2.77
   5   7  -1  327.15    8.60
   5   7  -1  343.39    9.20
   5   7  -1  323.95    8.42
   5   7  -1  334.49   11.12
   4   7  -1  573.93   16.35
   4   7  -1  580.08   12.77
   4   7  -1  576.15   12.90
   3   7  -1  145.46    6.82
   2   7  -1  240.22    9.07
   1   7  -1  471.26   14.16
   0   7  -1  373.54   11.88
   0   7  -1  367.41    8.71
   0   7  -1  360.70    8.45
   0   7  -1  349.64    8.51
  -1   7  -1   11.92    1.45
  -1   7  -1   14.21    2.85
  -1   7  -1   11.75    1.56
  -1   7  -1    9.60    1.29
  -2   7  -1  163.11    7.29
  -2   7  -1  148.22    5.26
  -2   7  -1  154.07    5.64
  -2   7  -1  149.38    5.49
  -3   7  -1   10.31    1.94
  -3   7  -1    8.97    1.71
  -3   7  -1   10.44    1.99
  -3   7  -1   11.22    2.63
  -4   7  -1   95.89    5.24
  -4   7  -1  105.46    6.31
  -4   7  -1  110.28    5.28
  -5   7  -1    6.76    1.44
  -5   7  -1    8.67    2.78
  -5   7  -1    4.51    2.01
  -5   7  -1    4.43    1.44
  -6   7  -1   15.34    3.30
  -6   7  -1   12.53    2.25
  -6   7  -1   15.61    2.18
  -6   7  -1   15.10    3.06
  -7   7  -1   -0.23    1.60
  -7   7  -1    2.49    2.65
  -7   7  -1   -1.83    2.03
   9   6  -1   26.47    3.96
   9   6  -1   27.50    3.39
   8   6  -1   17.05    2.60
   8   6  -1   14.52    2.79
   8   6  -1   11.33    2.25
   7   6  -1   16.18    2.65
   7   6  -1   13.54    2.18
   7   6  -1   16.03    2.13
   6   6  -1   32.70    3.15
   6   6  -1   32.82    2.77
   6   6  -1   28.70    2.49
   5   6  -1   96.71    5.04
   5   6  -1   99.82    4.25
   5   6  -1   90.23    3.63
   5   6  -1   91.19    3.78
   4   6  -1  345.49    8.45
   4   6  -1  339.72   10.66
   4   6  -1  329.98    8.22
   4   6  -1  351.46    8.66
   3   6  -1   11.81    0.90
   3   6  -1   12.83    1.04
   3   6  -1   13.66    2.34
   2   6  -1  478.57   13.65
   1   6  -1  242.49    8.48
   0   6  -1   84.72    4.81
   0   6  -1   89.59    2.95
   0   6  -1   88.43    2.79
  -1   6  -1  164.34    6.78
  -1   6  -1  163.93    5.03
  -1   6  -1  161.58    4.86
  -1   6  -1  160.69    4.85
  -2   6  -1    1.21    0.93
  -2   6  -1   -0.02    0.95
  -2   6  -1    3.93    1.74
  -2   6  -1    1.44    0.98
  -3   6  -1    0.41    0.74
  -3   6  -1    0.69    1.52
  -3   6  -1    2.42    1.21
  -3   6  -1    0.64    1.21
  -3   6  -1   -1.02    1.12
   3  -6   1    2.30    1.65
  -4   6  -1   93.72    5.48
  -4   6  -1  100.93    4.07
  -4   6  -1   98.51    3.83
  -4   6  -1  100.42    4.99
  -4   6  -1   98.42    5.11
  -5   6  -1   35.39    3.12
  -5   6  -1   32.42    2.84
  -5   6  -1   31.30    3.75
  -5   6  -1   30.88    3.34
  -6   6  -1    5.73    2.37
  -6   6  -1    0.06    1.95
  -6   6  -1    0.61    1.55
  -6   6  -1    0.46    1.35
  -7   6  -1   41.84    4.50
  -7   6  -1   42.98    4.45
  -7   6  -1   46.68    4.48
  -7   6  -1   44.22    3.31
  -8   6  -1   -1.18    1.66
  -8   6  -1    1.94    2.36
  10   5  -1   -2.10    1.19
  10   5  -1    0.91    0.90
  10   5  -1   -0.74    1.78
  10   5  -1   -1.69    2.29
   9   5  -1   10.39    1.60
   9   5  -1   13.07    2.80
   9   5  -1    6.90    1.18
   9   5  -1   12.35    3.02
   8   5  -1   17.51    1.66
   8   5  -1   16.46    2.68
   8   5  -1   16.99    1.46
   8   5  -1   18.21    3.09
   7   5  -1   22.76    2.78
   7   5  -1   26.89    3.31
   7   5  -1   26.39    2.71
   6   5  -1  419.15   11.08
   6   5  -1  405.25   11.26
   6   5  -1  408.73   11.85
   5   5  -1   89.15    3.87
   5   5  -1   95.80    4.30
   5   5  -1   93.86    3.75
   5   5  -1   93.81    4.52
   4   5  -1   23.17    1.82
   4   5  -1   25.01    2.10
   4   5  -1   23.13    2.55
   4   5  -1   23.63    1.71
   3   5  -1  122.24    3.57
   3   5  -1  120.27    3.42
   3   5  -1  118.61    5.10
   2   5  -1  293.73    6.54
   2   5  -1  305.72    6.70
   2   5  -1  291.08    9.05
   0   5  -1  372.11   10.77
   0   5  -1  370.98    8.55
   0   5  -1  366.46    8.46
  -1   5  -1  161.73    6.30
  -1   5  -1  166.75    4.83
  -1   5  -1  167.12    4.75
  -1   5  -1  172.53    4.97
  -2   5  -1  122.71    4.56
  -2   5  -1  127.80    4.58
  -2   5  -1  127.42    5.40
  -2   5  -1  125.04    4.44
   2  -5   1  130.71    4.14
  -3   5  -1   36.56    2.85
  -3   5  -1   36.59    2.25
  -3   5  -1   36.83    2.91
  -3   5  -1   35.90    2.09
  -3   5  -1   38.22    3.10
  -3   5  -1   27.67    2.42
   3  -5   1   31.32    2.33
  -4   5  -1   40.69    3.43
  -4   5  -1   39.86    3.22
  -4   5  -1   36.45    2.67
  -4   5  -1   27.53    2.86
  -4   5  -1   38.87    2.13
  -4   5  -1   34.29    2.82
  -4   5  -1   40.48    3.43
  -4   5  -1   36.39    1.89
   4  -5   1   35.93    2.83
  -5   5  -1   -1.16    1.09
  -5   5  -1   -1.36    1.38
  -5   5  -1   -1.77    1.57
  -5   5  -1   -1.96    1.39
  -5   5  -1    0.44    1.55
   5  -5   1   -2.20    1.37
  -6   5  -1    0.16    1.66
  -6   5  -1    1.59    1.36
  -6   5  -1    1.66    1.80
  -6   5  -1    0.20    1.84
  -6   5  -1   -0.43    1.66
   6  -5   1    1.65    1.61
  -7   5  -1   14.41    2.15
  -7   5  -1   18.25    3.00
  -7   5  -1   20.74    3.10
  -7   5  -1   12.24    3.03
   7  -5   1   19.96    2.97
  -8   5  -1    4.27    2.58
  -8   5  -1    3.82    1.75
   8  -5   1    7.51    2.26
  10   4  -1   12.00    2.14
  10   4  -1   12.24    2.90
  10   4  -1   13.33    3.42
   9   4  -1  126.01    5.45
   9   4  -1  136.57    7.06
   9   4  -1  136.88    7.86
   8   4  -1   69.14    3.71
   8   4  -1   76.54    5.68
   8   4  -1   79.16    5.06
   7   4  -1   74.39    4.40
   7   4  -1   69.38    5.16
   7   4  -1   69.64    3.41
   7   4  -1   72.83    4.56
  -7  -4   1   77.99    6.56
   6   4  -1 1459.69   31.48
   6   4  -1 1459.79   33.06
   6   4  -1 1478.28   32.81
   6   4  -1 1450.97   33.54
  -6  -4   1 1438.01   32.53
   5   4  -1  601.38   14.42
   5   4  -1  597.85   12.89
   5   4  -1  596.89   14.94
   5   4  -1  591.42   14.62
  -5  -4   1  576.33   14.09
   4   4  -1   88.58    3.68
   4   4  -1   88.85    3.49
   4   4  -1   81.12    3.78
   4   4  -1   85.21    3.30
   3   4  -1  762.12   16.54
   3   4  -1  762.16   16.42
   3   4  -1  721.25   16.31
   3   4  -1  727.87   17.81
   2   4  -1   32.49    1.30
   2   4  -1   31.62    2.38
   2   4  -1   34.86    1.46
   1   4  -1  304.88    6.50
   1   4  -1  286.06    8.46
   0   4  -1  585.22   12.54
   0   4  -1  564.84   12.49
   0   4  -1  568.72   14.28
  -1   4  -1 2017.29   42.51
  -1   4  -1 2017.66   42.60
  -1   4  -1 2030.46   42.42
  -1   4  -1 1999.23   44.03
  -2   4  -1 1073.94   23.86
  -2   4  -1 1063.29   24.69
  -2   4  -1 1079.10   23.07
  -2   4  -1 1081.45   23.01
  -2   4  -1 1064.19   23.72
  -2   4  -1 1065.25   23.84
   2  -4   1 1041.30   23.21
  -3   4  -1    3.81    1.20
  -3   4  -1    1.58    0.63
  -3   4  -1    4.07    1.21
  -3   4  -1    2.76    0.83
  -3   4  -1    3.32    1.44
  -3   4  -1    2.91    1.24
  -3   4  -1    4.49    1.31
  -3   4  -1    2.96    1.01
   3  -4   1    4.30    1.12
  -4   4  -1  219.30    6.92
  -4   4  -1  220.61    7.64
  -4   4  -1  211.22    6.10
  -4   4  -1  224.32    7.08
  -4   4  -1  206.60    7.34
  -4   4  -1  222.22    7.30
  -4   4  -1  221.57    7.23
  -4   4  -1  217.68    6.18
   4  -4   1  215.01    6.81
  -5   4  -1  184.56    6.83
  -5   4  -1  185.34    6.97
  -5   4  -1  179.98    6.64
  -5   4  -1  174.31    6.83
  -5   4  -1  191.65    6.00
  -5   4  -1  183.27    7.19
   5  -4   1  184.34    6.57
  -6   4  -1    7.11    2.19
  -6   4  -1   10.28    2.33
  -6   4  -1    9.06    2.01
  -6   4  -1    6.19    2.27
  -6   4  -1    5.52    1.57
   6  -4   1    9.12    2.09
  -7   4  -1    0.86    1.42
  -7   4  -1    0.43    1.97
  -7   4  -1    3.30    2.09
  -7   4  -1    5.11    1.85
   7  -4   1    1.03    1.60
  -8   4  -1    0.05    1.51
  -8   4  -1   -0.64    2.12
  -9   4  -1    0.12    1.60
  -9   4  -1    0.97    2.40
  10   3  -1   14.93    2.60
  10   3  -1   24.56    3.71
   9   3  -1  101.82    6.21
   9   3  -1   87.43    6.64
   9   3  -1   88.20    5.04
  -9  -3   1  106.55    6.46
   8   3  -1    1.31    2.02
   8   3  -1    3.64    1.52
   8   3  -1   -1.40    1.67
  -8  -3   1    3.98    2.11
   7   3  -1   -0.56    1.90
   7   3  -1   -0.80    1.14
   7   3  -1    0.78    1.62
   7   3  -1    0.59    1.62
  -7  -3   1   -0.01    1.59
   6   3  -1  987.43   23.40
   6   3  -1 1000.77   22.89
   6   3  -1 1000.76   24.21
   6   3  -1  981.26   23.66
  -6  -3   1  998.99   23.22
   5   3  -1   12.28    2.08
   5   3  -1   13.40    1.83
   5   3  -1   12.61    1.47
   5   3  -1   10.71    1.55
  -5  -3   1    7.66    1.34
   4   3  -1   57.07    2.77
   4   3  -1   62.52    2.33
   4   3  -1   58.86    3.16
   4   3  -1   58.25    2.90
   4   3  -1   58.81    2.80
  -4  -3   1   61.59    2.60
   3   3  -1  227.31    5.91
   3   3  -1  209.16    5.60
   3   3  -1  204.60    5.72
   3   3  -1  210.51    6.18
   2   3  -1  250.11    6.00
   2   3  -1  244.95    6.93
   2   3  -1  254.54    5.90
   1   3  -1  314.86    6.81
   1   3  -1  310.88    8.25
   0   3  -1 4963.85  103.48
  -1   3  -1  882.53   20.25
  -1   3  -1  888.56   19.33
  -1   3  -1  886.20   19.18
  -1   3  -1  884.73   18.70
  -1   3  -1  898.77   18.74
  -1   3  -1  881.76   19.26
  -2   3  -1   94.07    2.76
  -2   3  -1   94.01    3.78
  -2   3  -1   85.86    3.41
  -2   3  -1   89.95    2.69
  -2   3  -1   88.38    3.45
  -2   3  -1   91.35    3.39
  -2   3  -1   89.03    3.22
  -2   3  -1   92.32    3.18
   2  -3   1  110.24    3.24
  -3   3  -1 3009.49   63.77
  -3   3  -1 3082.80   63.45
  -3   3  -1 3006.52   63.66
  -3   3  -1 3100.58   63.64
  -3   3  -1 3033.85   62.72
  -3   3  -1 2724.21   63.68
  -3   3  -1 3037.61   63.51
   3  -3   1 2985.52   63.11
  -4   3  -1 1056.57   24.45
  -4   3  -1 1040.77   23.34
  -4   3  -1 1029.13   24.06
  -4   3  -1 1046.54   23.83
  -4   3  -1 1042.79   24.21
  -4   3  -1 1054.02   24.19
   4  -3   1 1032.74   23.68
   4  -3   1 1026.30   24.47
  -5   3  -1  974.76   22.52
  -5   3  -1  988.09   23.35
  -5   3  -1  957.45   23.33
  -5   3  -1  962.24   22.33
  -5   3  -1  968.37   23.23
   5  -3   1  964.19   22.69
   5  -3   1  965.42   23.66
  -6   3  -1  554.21   15.23
  -6   3  -1  554.07   15.24
  -6   3  -1  541.07   14.18
  -6   3  -1  545.70   16.39
  -6   3  -1  553.58   14.06
   6  -3   1  551.68   14.63
  -7   3  -1   18.60    2.96
  -7   3  -1   18.76    3.02
  -7   3  -1   18.33    2.27
  -7   3  -1   21.06    2.73
   7  -3   1   14.86    2.40
  -8   3  -1   18.07    3.28
  -8   3  -1   16.01    2.59
  -9   3  -1    3.84    2.03
  -9   3  -1    0.85    2.31
  10   2  -1   87.56    5.74
 -10  -2   1   82.92    6.54
   9   2  -1    5.22    2.01
   9   2  -1    7.07    2.75
   9   2  -1    9.44    2.60
  -9  -2   1   14.21    3.01
   8   2  -1  130.56    6.65
   8   2  -1  134.22    7.19
   8   2  -1  126.54    6.05
  -8  -2   1  132.11    6.57
   7   2  -1  544.33   15.40
   7   2  -1  567.60   16.18
   7   2  -1  560.73   15.07
  -7  -2   1  570.08   15.13
   6   2  -1  149.24    6.56
   6   2  -1  154.27    6.13
   6   2  -1  148.06    5.74
   6   2  -1  152.71    5.89
  -6  -2   1  150.85    5.80
   5   2  -1  291.13    9.01
   5   2  -1  304.67    8.60
   5   2  -1  310.13    8.87
   5   2  -1  299.05    8.45
  -5  -2   1  295.12    8.35
   4   2  -1   10.69    1.37
   4   2  -1   10.56    1.56
   4   2  -1    7.93    0.99
   4   2  -1   14.17    1.99
   4   2  -1    9.26    1.37
  -4  -2   1    9.61    1.33
   3   2  -1   12.15    1.40
   3   2  -1   12.91    1.53
   3   2  -1    8.86    1.17
   3   2  -1   11.88    1.21
   3   2  -1   12.05    1.17
  -3  -2   1   11.50    1.11
   2   2  -1  199.39    4.61
   2   2  -1  200.44    5.09
   2   2  -1  203.03    4.60
   2   2  -1  196.43    5.33
   2   2  -1  206.25    5.08
   2   2  -1  196.42    4.96
   1   2  -1 1344.94   28.80
   1   2  -1 1340.00   27.90
  -2   2  -1 9999.00  205.85
  -3   2  -1    1.34    0.90
  -3   2  -1    0.07    0.76
  -3   2  -1   -0.21    0.92
  -3   2  -1    1.17    0.82
  -3   2  -1    0.52    0.91
   3  -2   1    1.83    0.85
   3  -2   1   -0.57    0.68
  -4   2  -1 1000.27   22.97
  -4   2  -1  980.26   22.18
  -4   2  -1  997.13   23.17
  -4   2  -1  982.85   22.39
  -4   2  -1 1004.21   23.14
   4  -2   1 1014.78   22.55
   4  -2   1  978.61   23.22
  -5   2  -1  395.91   11.44
  -5   2  -1  401.11   10.24
  -5   2  -1  415.22   11.57
  -5   2  -1  394.33   11.24
  -5   2  -1  411.83   10.80
   5  -2   1  407.28   11.65
   5  -2   1  409.23   10.90
   5  -2   1  406.14   11.70
   5  -2   1  395.52   11.52
  -6   2  -1    0.75    1.39
  -6   2  -1    5.02    1.49
  -6   2  -1    3.34    1.13
  -6   2  -1    1.25    1.46
  -6   2  -1    0.81    1.47
   6  -2   1    2.17    1.52
   6  -2   1    0.10    1.17
  -7   2  -1   48.76    4.31
  -7   2  -1   41.71    4.74
  -7   2  -1   49.04    3.76
  -7   2  -1   43.78    2.84
   7  -2   1   50.81    4.39
  -8   2  -1    1.41    2.16
  -8   2  -1    0.07    1.66
  -9   2  -1   17.20    2.96
 -10   2  -1   -1.25    1.93
  10   1  -1    0.78    2.04
 -10  -1   1    2.48    2.59
   9   1  -1   22.77    3.47
  -9  -1   1   29.04    4.00
   8   1  -1   16.41    3.12
   8   1  -1   11.71    2.76
   8   1  -1   11.31    2.49
  -8  -1   1   14.22    2.74
   7   1  -1    0.68    1.65
   7   1  -1    0.11    1.99
   7   1  -1    0.03    1.82
  -7  -1   1    1.13    1.97
   6   1  -1   42.41    3.85
   6   1  -1   41.58    3.44
   6   1  -1   37.29    3.19
  -6  -1   1   37.54    3.16
  -6  -1   1   37.77    3.37
   5   1  -1  675.19   16.77
   5   1  -1  665.38   15.77
   5   1  -1  679.38   17.14
   5   1  -1  680.12   16.64
  -5  -1   1  678.02   16.35
   4   1  -1    3.89    1.21
   4   1  -1    7.19    1.61
   4   1  -1    3.88    1.16
   4   1  -1    4.73    1.14
   4   1  -1    4.55    0.98
  -4  -1   1    4.82    1.12
   3   1  -1 2149.27   45.11
   3   1  -1 2071.34   44.87
   3   1  -1 2129.36   44.73
   3   1  -1 2073.14   44.23
   3   1  -1 2091.58   44.77
  -3  -1   1 2147.39   44.54
   2   1  -1  603.90   13.14
   2   1  -1  609.39   13.18
   2   1  -1  615.40   13.55
   2   1  -1  615.19   13.68
   2   1  -1  592.22   13.49
   2   1  -1  624.43   13.78
  -2  -1   1  604.50   13.34
   0   1  -1   15.07    0.67
   0   1  -1   14.25    0.48
   0   1  -1   15.41    0.89
   0   1  -1   15.17    0.65
   0   1  -1   15.33    0.69
   0   1  -1   15.22    0.65
   0   1  -1   14.95    0.48
  -3   1  -1    0.16    0.68
  -3   1  -1    0.70    0.68
  -3   1  -1   -0.01    0.61
   3  -1   1    0.22    0.64
   3  -1   1   -0.15    0.65
   3  -1   1   -0.26    0.56
   3  -1   1   -0.50    0.58
  -4   1  -1  769.20   17.05
  -4   1  -1  770.15   17.70
  -4   1  -1  759.31   18.28
  -4   1  -1  777.03   18.06
   4  -1   1  764.26   18.31
   4  -1   1  748.01   17.56
   4  -1   1  763.55   18.28
   4  -1   1  762.40   18.14
  -5   1  -1    1.48    1.06
  -5   1  -1    1.09    0.82
  -5   1  -1    1.95    1.24
  -5   1  -1    1.56    1.09
   5  -1   1    0.57    0.84
   5  -1   1   -0.03    1.06
   5  -1   1    1.31    1.09
   5  -1   1    1.13    1.12
  -6   1  -1   20.38    2.35
  -6   1  -1   17.85    1.61
  -6   1  -1   16.19    2.41
  -6   1  -1   24.15    2.70
   6  -1   1   18.03    2.33
   6  -1   1   16.59    2.31
   6  -1   1   17.05    2.35
  -7   1  -1  256.59    9.48
  -7   1  -1  270.93    8.77
  -7   1  -1  245.41    6.93
   7  -1   1  248.52    9.35
  -8   1  -1   -0.31    1.60
  -8   1  -1   -1.04    1.84
   8  -1   1    0.21    1.67
  -9   1  -1    9.69    2.70
   9  -1   1   13.50    3.38
 -10   1  -1    8.97    2.81
  10   0  -1  135.07    7.99
 -10   0   1  157.19    8.36
   9   0  -1   27.11    3.94
  -9   0   1   29.94    4.01
   8   0  -1  125.19    6.59
  -8   0   1  130.91    6.52
   7   0  -1    6.97    2.02
   7   0  -1    4.78    2.08
   7   0  -1    4.07    1.36
   7   0  -1    5.85    2.00
  -7   0   1    5.35    1.96
  -7   0   1    6.70    2.16
   6   0  -1    3.32    1.46
   6   0  -1    3.31    1.19
   6   0  -1    3.22    1.52
   6   0  -1    2.14    1.74
  -6   0   1    3.29    1.51
  -6   0   1    2.44    1.49
  -6   0   1    3.04    1.64
   5   0  -1    1.17    1.03
   5   0  -1    0.62    0.86
   5   0  -1   -0.93    1.14
   5   0  -1    0.74    1.01
  -5   0   1    2.20    1.17
  -5   0   1   -0.61    1.06
  -5   0   1   -0.22    0.98
   4   0  -1  188.57    5.59
   4   0  -1  189.22    6.15
   4   0  -1  191.57    6.15
   4   0  -1  188.98    6.40
  -4   0   1  188.50    5.84
  -4   0   1  188.85    6.03
   3   0  -1 1230.06   27.29
   3   0  -1 1243.91   27.17
   3   0  -1 1216.79   27.09
   3   0  -1 1250.20   26.66
  -3   0   1 1221.09   27.98
  -3   0   1 1237.55   26.80
   2   0  -1 3224.00   66.62
   2   0  -1 3210.57   66.98
   2   0  -1 3165.66   67.09
   2   0  -1 3202.22   67.00
  -2   0   1 3248.21   66.71
   1   0  -1 1979.12   43.73
   1   0  -1 2144.55   43.47
   1   0  -1 2115.48   43.66
  -1   0   1 2125.62   43.49
  -1   0  -1 1430.05   30.07
  -1   0  -1 1470.06   29.94
   1   0   1 1410.03   30.07
   1   0   1 1438.05   30.07
   1   0   1 1429.01   30.07
  -2   0  -1   23.36    1.37
  -2   0  -1   25.38    1.48
  -2   0  -1   23.22    1.52
   2   0   1   24.00    1.56
   2   0   1   24.69    1.50
   2   0   1   22.04    1.47
  -3   0  -1  446.09   10.93
  -3   0  -1  439.38   10.52
  -3   0  -1  441.73   10.67
   3   0   1  441.78   10.94
   3   0   1  451.10   10.81
   3   0   1  436.12   10.83
  -4   0  -1    5.43    1.17
  -4   0  -1    5.74    1.15
  -4   0  -1   10.00    1.55
   4   0   1    5.30    1.26
   4   0   1    4.90    1.19
   4   0   1    6.65    1.25
  -5   0  -1   47.15    3.19
  -5   0  -1   46.12    2.90
  -5   0  -1   43.61    2.94
   5   0   1   48.69    3.14
   5   0   1   46.91    3.24
   5   0   1   47.84    3.08
  -6   0  -1  158.14    5.92
  -6   0  -1  158.56    6.09
  -6   0  -1  162.07    6.50
   6   0   1  159.43    6.33
   6   0   1  153.94    6.42
   6   0   1  147.79    6.06
  -7   0  -1    7.35    1.90
  -7   0  -1    5.91    2.05
  -7   0  -1    7.49    1.22
   7   0   1    2.59    1.87
   7   0   1    5.52    1.97
   7   0   1    3.68    1.81
  -8   0  -1    8.19    2.37
   8   0   1   12.47    2.51
  -9   0  -1   12.57    3.03
   9   0   1   13.35    2.82
 -10   0  -1    7.75    2.76
  10   0   1    6.49    2.63
 -10   1   1    0.69    2.35
   9  -1  -1   14.54    3.13
  -9   1   1    8.47    2.70
   8  -1  -1   12.66    2.70
   8  -1  -1   14.44    2.25
  -8   1   1   20.41    2.97
  -8   1   1   12.83    4.81
   7  -1  -1   41.70    3.36
   7  -1  -1   37.21    3.75
  -7   1   1   46.95    3.97
  -7   1   1   44.89    4.36
   6  -1  -1   78.73    4.51
   6  -1  -1   73.25    4.47
   6  -1  -1   80.23    4.03
   6  -1  -1   84.74    4.85
  -6   1   1   81.42    4.69
  -6   1   1   86.55    4.45
  -6   1   1   82.93    4.42
   5  -1  -1   19.63    2.41
   5  -1  -1   21.19    2.09
   5  -1  -1   15.88    2.08
   5  -1  -1   20.99    2.44
  -5   1   1   16.91    2.19
  -5   1   1   21.98    2.43
  -5   1   1   20.46    2.20
   4  -1  -1  367.88   10.12
   4  -1  -1  359.20    9.95
   4  -1  -1  357.49    9.33
   4  -1  -1  351.15    9.85
  -4   1   1  348.68    9.41
  -4   1   1  352.99    9.94
  -4   1   1  366.16    9.72
   3  -1  -1  691.52   16.50
   3  -1  -1  702.64   15.98
   3  -1  -1  706.00   16.58
   3  -1  -1  694.02   16.42
  -3   1   1  712.74   14.97
  -3   1   1  705.96   16.51
  -3   1   1  706.74   16.26
  -3   1   1  704.38   16.05
   2  -1  -1 2755.12   58.31
   2  -1  -1 2786.02   58.36
   2  -1  -1 2793.24   57.94
  -2   1   1 2753.71   58.12
  -2   1   1 2765.51   57.34
  -2   1   1 2806.25   57.96
  -2   1   1 2788.77   58.26
   1  -1  -1   61.13    1.90
   1  -1  -1   62.83    2.13
  -1   1   1   62.23    2.11
  -1   1   1   61.17    1.95
  -1   1   1   64.60    1.90
  -1   1   1   64.26    2.05
   0  -1  -1 1227.82   25.27
   0   1   1 1202.03   25.36
   0   1   1 1213.21   25.22
   0   1   1 1231.90   25.46
   0   1   1 1223.83   25.35
   0   1   1 1228.52   25.21
  -1  -1  -1 2720.96   56.38
   1   1   1 2759.10   56.52
  -2  -1  -1  102.50    2.94
   2   1   1   97.03    3.03
   2   1   1  101.31    3.10
   2   1   1  105.25    3.06
   2   1   1  103.11    3.19
   2   1   1  103.56    3.14
  -3  -1  -1   18.02    1.56
  -3  -1  -1   19.82    1.40
   3   1   1   18.78    1.41
   3   1   1   15.10    1.39
   3   1   1   18.40    1.46
   3   1   1   20.17    1.61
  -4  -1  -1   39.27    2.54
  -4  -1  -1   39.24    2.31
   4   1   1   37.92    2.38
   4   1   1   36.51    2.32
   4   1   1   39.44    2.57
  -5  -1  -1    9.78    1.61
  -5  -1  -1   12.80    1.96
   5   1   1    9.62    1.74
   5   1   1   11.82    1.72
   5   1   1    6.44    1.36
  -6  -1  -1    1.17    1.26
  -6  -1  -1    1.75    1.22
   6   1   1    0.24    1.25
   6   1   1    1.03    1.19
   6   1   1   -0.56    1.05
  -7  -1  -1  157.10    7.59
  -7  -1  -1  192.84    7.12
   7   1   1  181.53    7.74
   7   1   1  185.25    7.29
   7   1   1  180.62    7.19
  -8  -1  -1   17.72    2.94
   8   1   1   21.85    3.07
   8   1   1   16.47    2.84
   8   1   1   18.30    3.19
  -9  -1  -1  142.66    7.21
   9   1   1  143.00    7.15
 -10  -1  -1   21.11    3.66
  10   1   1   16.56    3.19
  -9   2   1   26.10    3.62
   8  -2  -1    2.24    1.68
  -8   2   1   -2.42    1.89
  -8   2   1   -2.19    1.42
   7  -2  -1   79.47    5.36
   7  -2  -1   81.09    4.72
  -7   2   1   80.71    4.86
  -7   2   1   91.68    5.70
   6  -2  -1  152.87    5.94
   6  -2  -1  151.03    6.63
   6  -2  -1  180.07    8.18
  -6   2   1  149.27    5.94
  -6   2   1  152.85    6.70
  -6   2   1  146.42    6.30
  -6   2   1  146.13    4.17
   5  -2  -1   -1.73    0.88
   5  -2  -1    1.80    1.33
   5  -2  -1    0.50    1.32
   5  -2  -1   -0.01    1.23
  -5   2   1   -0.49    1.03
  -5   2   1   -1.76    1.12
  -5   2   1    0.29    1.22
  -5   2   1    0.92    1.21
  -5   2   1    0.42    0.70
   4  -2  -1 1577.01   35.76
   4  -2  -1 1611.00   35.05
   4  -2  -1 1660.41   37.04
  -4   2   1 1628.29   35.75
  -4   2   1 1616.63   34.96
  -4   2   1 1593.89   34.00
  -4   2   1 1584.45   35.45
  -4   2   1 1540.58   35.50
   3  -2  -1  118.11    3.92
   3  -2  -1  112.72    4.33
  -3   2   1  114.48    3.85
  -3   2   1  110.25    4.18
  -3   2   1  112.76    3.49
  -3   2   1  107.81    4.17
  -3   2   1  114.14    4.12
   2  -2  -1    0.52    0.66
  -2   2   1    1.76    0.69
  -2   2   1    0.54    0.87
  -2   2   1    0.04    0.78
  -2   2   1    0.11    0.92
  -2   2   1    0.75    0.63
  -2   2   1    0.54    0.95
  -2   2   1    0.47    0.76
   1  -2  -1 1067.14   23.55
  -1   2   1 1122.11   24.11
  -1   2   1 1111.80   23.80
  -1   2   1 1128.42   23.83
  -1   2   1 1123.71   23.97
  -1   2   1 1117.31   23.40
  -1   2   1 1143.07   23.96
  -1   2   1 1120.79   23.43
  -1   2   1 1130.03   23.75
   0   2   1 3086.27   64.34
   2   2   1 2057.24   43.13
   2   2   1 2072.17   43.15
   2   2   1 2068.47   43.14
  -3  -2  -1 2087.77   43.46
   3   2   1 2072.39   43.49
   3   2   1 2045.43   43.73
   3   2   1 2064.53   43.73
   3   2   1 2072.72   43.91
  -4  -2  -1  643.06   14.90
   4   2   1  651.10   15.21
   4   2   1  644.04   15.22
   4   2   1  639.97   14.98
   4   2   1  642.20   15.46
  -5  -2  -1  118.95    4.43
   5   2   1  124.75    4.76
   5   2   1  117.04    4.62
   5   2   1  112.65    4.40
   5   2   1  107.38    4.80
  -6  -2  -1  300.01    9.82
  -6  -2  -1  319.12    9.26
   6   2   1  324.41    9.60
   6   2   1  319.16    9.93
   6   2   1  321.84    9.36
   6   2   1  334.66    9.58
  -7  -2  -1   95.64    4.84
   7   2   1   78.12    4.37
   7   2   1   72.41    4.54
   7   2   1   79.33    5.10
  -8  -2  -1  122.77    5.98
   8   2   1  121.53    6.64
   8   2   1  104.28    5.85
   8   2   1  118.44    5.76
  -9  -2  -1   13.14    2.97
   9   2   1   16.44    3.10
   9   2   1   14.17    2.60
   9   2   1   12.65    2.98
 -10  -2  -1   -0.89    2.21
  10   2   1   -0.86    1.62
   9  -3  -1   -1.23    1.86
  -9   3   1    1.19    1.91
  -9   3   1    1.49    2.35
   8  -3  -1   25.13    3.33
  -8   3   1   23.99    3.02
  -8   3   1   27.24    3.93
   7  -3  -1  162.19    6.80
  -7   3   1  160.34    6.60
  -7   3   1  162.78    7.92
  -7   3   1  163.57    7.52
   6  -3  -1    1.94    1.64
   6  -3  -1    1.57    1.86
  -6   3   1    3.36    1.23
  -6   3   1    3.70    1.85
  -6   3   1    3.71    1.99
  -6   3   1    3.63    1.70
   5  -3  -1   78.07    4.61
   5  -3  -1   79.34    4.09
  -5   3   1   74.44    4.28
  -5   3   1   78.95    3.33
  -5   3   1   82.44    4.59
  -5   3   1   78.84    4.31
  -5   3   1   83.72    3.95
   4  -3  -1 2754.56   58.18
   4  -3  -1 2728.91   58.98
  -4   3   1 2816.41   57.72
  -4   3   1 2760.66   58.71
  -4   3   1 2764.66   58.64
  -4   3   1 2810.98   58.70
  -4   3   1 2372.58   58.68
  -4   3   1 2772.50   57.86
   3  -3  -1  283.97    7.58
  -3   3   1  269.52    8.18
  -3   3   1  281.15    7.57
  -3   3   1  269.05    8.06
  -3   3   1  269.86    7.82
  -3   3   1  285.95    7.85
  -3   3   1  285.66    7.92
  -3   3   1  287.89    7.30
   2  -3  -1 1478.35   32.27
  -2   3   1 1511.96   32.94
  -2   3   1 1533.00   31.94
  -2   3   1 1523.57   32.88
  -2   3   1 1475.69   32.63
  -2   3   1 1471.39   32.50
  -2   3   1 1529.28   31.91
  -2   3   1 1557.44   32.51
  -2   3   1 1549.42   32.89
  -1   3   1 2009.09   43.74
  -1   3   1 2081.20   44.46
  -1   3   1 2094.11   43.68
  -1   3   1 2093.31   43.28
  -1   3   1 2112.54   43.80
  -1   3   1 2097.29   43.25
   0   3   1  288.71    6.54
   0   3   1  286.66    7.68
   1   3   1  357.53    9.24
   1   3   1  366.01    7.82
   2   3   1  820.54   17.87
   2   3   1  865.20   17.67
   2   3   1  827.32   17.89
   3   3   1  170.45    4.76
   3   3   1  167.84    4.71
   3   3   1  174.32    4.85
  -4  -3  -1   36.96    2.12
   4   3   1   40.03    2.61
   4   3   1   41.56    2.38
   4   3   1   38.10    2.32
   4   3   1   39.17    1.92
  -5  -3  -1  771.76   18.22
   5   3   1  800.49   18.66
   5   3   1  790.33   19.02
   5   3   1  776.79   17.14
   5   3   1  792.90   18.64
   5   3   1  799.10   18.08
  -6  -3  -1   46.14    3.20
   6   3   1   48.07    2.38
   6   3   1   48.12    3.68
   6   3   1   49.74    2.92
   6   3   1   48.47    3.23
   6   3   1   49.83    3.32
  -7  -3  -1  555.66   14.68
   7   3   1  557.39   15.01
   7   3   1  554.70   14.45
   7   3   1  543.18   15.50
   7   3   1  565.16   15.08
  -8  -3  -1    0.99    1.76
   8   3   1    0.47    1.29
   8   3   1    0.71    1.76
   8   3   1    0.88    1.69
  -9  -3  -1    7.35    2.51
   9   3   1    1.69    2.00
   9   3   1    6.92    2.60
   9   3   1    2.15    1.49
 -10  -3  -1    0.76    2.25
  10   3   1   -1.56    1.76
  10   3   1   -1.22    1.27
   9  -4  -1    9.49    2.82
  -9   4   1   14.68    3.50
  -9   4   1    9.72    2.40
   8  -4  -1   23.45    3.36
  -8   4   1   19.98    3.49
  -8   4   1   23.78    3.01
   7  -4  -1   63.13    4.74
  -7   4   1   75.63    5.22
  -7   4   1   65.72    5.01
  -7   4   1   55.79    4.00
   6  -4  -1  221.89    7.95
  -6   4   1  224.61    8.38
  -6   4   1  214.08    8.28
  -6   4   1  217.05    6.95
  -6   4   1  210.81    7.22
   5  -4  -1   -1.27    1.12
  -5   4   1   -1.70    1.25
  -5   4   1   -0.38    1.33
  -5   4   1    2.96    1.72
  -5   4   1   -0.76    1.12
  -5   4   1   -0.80    1.06
  -5   4   1   -0.83    1.31
   4  -4  -1  393.31   10.61
  -4   4   1  356.33   10.99
  -4   4   1  388.93   10.70
  -4   4   1  397.03    9.96
  -4   4   1  400.96   10.67
  -4   4   1  395.24   11.04
  -4   4   1  405.93   10.91
  -4   4   1  404.85   11.74
   3  -4  -1  358.72    9.38
  -3   4   1  366.19   10.23
  -3   4   1  359.41    9.77
  -3   4   1  373.63    9.51
  -3   4   1  369.43    8.71
  -3   4   1  369.05    9.95
  -3   4   1  327.49    9.78
  -3   4   1  360.60    9.50
  -3   4   1  373.60    8.74
   2  -4  -1   79.96    2.90
  -2   4   1   84.54    2.98
  -2   4   1   76.27    3.65
  -2   4   1   78.03    3.46
  -2   4   1   78.83    2.87
  -2   4   1   72.96    3.31
  -2   4   1   79.33    3.24
  -1   4   1  669.41   15.09
  -1   4   1  685.07   16.35
  -1   4   1  672.41   15.22
  -1   4   1  670.60   15.19
   0   4   1    5.04    0.65
   0   4   1    4.25    1.21
   1   4   1 1755.96   38.44
   1   4   1 1754.59   36.25
   2   4   1  740.03   15.73
   2   4   1  742.49   15.76
   2   4   1  735.08   17.67
   3   4   1 4674.74   95.87
   3   4   1 4595.21   95.81
   4   4   1 1671.13   36.10
   4   4   1 1685.87   36.28
   4   4   1 1680.67   36.09
  -5  -4  -1   64.95    3.04
   5   4   1   62.46    2.26
   5   4   1   66.03    3.60
   5   4   1   66.07    3.26
   5   4   1   62.11    3.19
  -6  -4  -1   13.10    1.85
   6   4   1   11.58    1.81
   6   4   1   12.27    1.89
   6   4   1   13.39    1.46
   6   4   1   15.90    2.32
  -7  -4  -1  509.26   14.03
   7   4   1  519.47   13.20
   7   4   1  547.88   14.35
   7   4   1  532.26   15.03
   7   4   1  536.97   14.41
   8   4   1   87.72    5.63
   8   4   1   81.63    4.05
   8   4   1   84.33    5.11
   9   4   1   -2.31    1.93
   9   4   1   -2.81    1.53
   9   4   1   -1.14    1.11
  10   4   1    4.27    2.56
  10   4   1    4.43    2.31
  10   4   1    1.78    1.44
   8  -5  -1    3.27    2.20
  -8   5   1    4.83    1.78
  -8   5   1    3.72    2.43
   7  -5  -1    4.38    2.10
  -7   5   1    2.09    1.54
  -7   5   1    4.61    2.44
  -7   5   1    0.20    2.06
   6  -5  -1   36.12    3.54
  -6   5   1   41.81    4.58
  -6   5   1   44.59    4.06
  -6   5   1   37.62    2.92
  -6   5   1   39.93    4.08
  -6   5   1   39.55    3.46
   5  -5  -1   18.54    2.43
  -5   5   1   17.72    2.68
  -5   5   1   19.02    2.57
  -5   5   1   13.73    1.79
  -5   5   1   21.26    2.56
  -5   5   1   21.17    2.61
   4  -5  -1   45.35    3.24
  -4   5   1   45.91    2.39
  -4   5   1   48.58    3.93
  -4   5   1   50.70    3.68
  -4   5   1   50.88    3.56
  -4   5   1   53.82    3.39
  -4   5   1   50.52    3.57
  -4   5   1   46.58    3.19
  -4   5   1   51.41    2.48
   3  -5  -1  227.77    6.80
  -3   5   1  234.27    7.77
  -3   5   1  240.97    6.66
  -3   5   1  229.92    7.40
  -3   5   1  224.19    7.16
  -3   5   1  237.62    7.72
  -3   5   1  237.17    6.60
   2  -5  -1   34.24    1.96
  -2   5   1   37.83    1.61
  -2   5   1   37.54    2.61
  -2   5   1   37.42    1.53
  -2   5   1   35.91    2.33
  -2   5   1   37.20    3.02
  -2   5   1   38.50    2.50
  -1   5   1   10.15    1.26
  -1   5   1   12.80    1.49
  -1   5   1   11.60    1.99
  -1   5   1   11.56    1.26
   0   5   1   39.47    1.68
   0   5   1   42.11    3.10
   1   5   1  311.36    9.41
   1   5   1  325.16    6.97
   2   5   1   13.50    2.08
   2   5   1   12.73    0.73
   3   5   1  104.16    3.11
   3   5   1  105.18    3.06
   4   5   1  179.58    5.17
   4   5   1  173.16    5.07
   4   5   1  182.18    5.30
   5   5   1  243.27    7.31
   5   5   1  236.40    6.91
   5   5   1  237.30    6.91
   6   5   1   11.62    1.84
   6   5   1    9.81    1.70
   6   5   1   14.64    2.29
   7   5   1  112.81    5.28
   7   5   1  123.52    5.34
   7   5   1  116.56    5.85
   8   5   1   10.10    2.17
   8   5   1    7.08    1.15
   8   5   1   12.32    2.67
   9   5   1   14.68    2.72
   9   5   1   15.12    3.08
   9   5   1   10.54    1.53
  10   5   1    3.43    2.12
  10   5   1    1.95    1.07
  10   5   1    0.43    2.30
   8  -6  -1   11.98    3.01
  -8   6   1    9.22    2.04
  -8   6   1   11.63    3.05
   7  -6  -1    3.96    2.24
  -7   6   1    0.82    2.12
  -7   6   1   -0.07    2.14
  -7   6   1    2.95    1.57
   6  -6  -1   17.38    2.82
  -6   6   1   17.95    2.65
  -6   6   1   17.51    2.01
  -6   6   1   18.77    2.75
  -6   6   1   15.91    2.97
  -6   6   1   17.72    2.88
   5  -6  -1   23.20    2.89
  -5   6   1   18.77    2.37
  -5   6   1   16.47    2.71
  -5   6   1   21.20    2.52
  -5   6   1   18.92    2.86
  -5   6   1   21.93    1.83
   4  -6  -1   -0.60    1.17
  -4   6   1   -1.09    1.18
  -4   6   1   -1.66    1.31
  -4   6   1    0.48    1.62
  -4   6   1   -1.54    1.33
  -4   6   1    0.02    1.05
   3  -6  -1  130.90    4.79
  -3   6   1  125.95    5.13
  -3   6   1  132.20    5.97
  -3   6   1  134.48    5.37
  -3   6   1  130.42    5.65
  -3   6   1  139.64    4.01
   2  -6  -1   10.37    1.64
  -2   6   1   11.17    2.18
  -2   6   1   11.00    1.55
  -2   6   1    9.41    1.59
  -2   6   1   10.98    1.69
  -1   6   1  243.01    6.64
  -1   6   1  240.13    6.79
  -1   6   1  250.64    8.56
   0   6   1  408.09    9.38
   0   6   1  413.91   12.06
   0   6   1  397.72    9.06
   1   6   1  263.08    8.84
   2   6   1  221.29    8.05
   3   6   1  104.17    2.83
   3   6   1  100.68    2.87
   3   6   1  106.03    5.23
   4   6   1    7.13    1.02
   4   6   1    6.75    0.94
   4   6   1    9.76    1.29
   5   6   1   56.79    2.77
   5   6   1   60.12    3.26
   5   6   1   58.30    2.78
   6   6   1   17.38    2.29
   6   6   1   16.56    1.93
   6   6   1   18.74    2.00
   7   6   1    5.47    1.56
   7   6   1    4.10    1.55
   7   6   1    8.15    2.02
   8   6   1    1.90    1.43
   8   6   1    1.57    1.41
   8   6   1   -0.60    1.59
   9   6   1   17.33    2.81
   9   6   1   20.67    3.36
  10   6   1    0.97    2.17
  -7   7   1   13.40    2.51
  -7   7   1   10.53    3.04
  -6   7   1   -0.32    2.14
  -6   7   1    2.99    2.11
  -6   7   1    1.64    1.69
  -6   7   1    1.93    1.52
  -5   7   1   85.98    5.58
  -5   7   1   87.01    4.04
  -5   7   1   77.51    3.75
  -5   7   1   89.35    5.38
  -4   7   1   -1.51    0.93
  -4   7   1    0.56    0.76
  -4   7   1   -0.14    1.73
  -4   7   1    0.06    1.60
  -4   7   1    0.77    1.42
  -3   7   1   72.88    4.97
  -3   7   1   71.03    4.04
  -3   7   1   66.84    3.81
  -3   7   1   75.55    4.46
  -2   7   1   31.12    2.67
  -2   7   1   28.07    2.37
  -2   7   1   29.20    3.48
  -2   7   1   22.60    2.40
  -1   7   1   45.36    2.46
  -1   7   1   54.32    4.21
  -1   7   1   45.77    2.74
   0   7   1  418.66    9.78
   0   7   1  428.42   12.92
   0   7   1  406.94    9.69
   1   7   1    9.03    2.34
   2   7   1  276.00    9.79
   3   7   1  516.86   14.99
   4   7   1   24.47    1.39
   4   7   1   24.39    1.47
   5   7   1   96.17    3.56
   5   7   1   98.52    3.99
   5   7   1  100.62    3.53
   6   7   1  251.67    7.38
   6   7   1  246.93    7.97
   6   7   1  253.33    7.37
   7   7   1   51.14    3.34
   7   7   1   46.51    3.24
   7   7   1   49.46    3.86
   8   7   1   64.08    4.03
   8   7   1   49.68    4.41
   8   7   1   55.21    3.88
   9   7   1    0.76    1.92
   9   7   1    1.44    1.68
  -6   8   1   -0.97    2.42
  -6   8   1    4.72    2.44
  -6   8   1    2.50    1.15
  -6   8   1    1.84    1.29
  -5   8   1   44.23    4.16
  -5   8   1   48.90    5.06
  -4   8   1    2.52    2.33
  -4   8   1   -1.81    1.43
  -4   8   1    1.99    1.57
  -3   8   1   27.29    2.72
  -3   8   1   29.27    3.99
  -3   8   1   36.40    4.75
  -2   8   1    8.24    2.61
  -2   8   1    6.75    1.40
  -2   8   1    4.61    1.62
  -1   8   1    2.69    1.28
  -1   8   1    4.35    2.30
  -1   8   1    3.00    0.98
   0   8   1  303.95   10.99
   0   8   1  304.33    7.88
   0   8   1  309.89    7.51
   1   8   1   79.87    5.42
   2   8   1  106.70    6.26
   3   8   1  213.08    8.89
   5   8   1   20.40    1.46
   5   8   1   19.89    1.96
   5   8   1   21.74    1.60
   6   8   1   11.08    1.43
   6   8   1   12.33    1.93
   6   8   1   11.88    1.56
   7   8   1   -0.55    1.32
   7   8   1    1.00    1.09
   7   8   1   -0.01    1.11
   8   8   1   -1.02    1.55
   8   8   1   -0.39    1.16
   8   8   1   -1.56    1.18
   9   8   1    4.70    2.29
  -5   9   1   49.59    5.49
  -5   9   1   49.90    4.44
  -4   9   1   28.51    3.20
  -4   9   1   28.52    4.33
  -3   9   1   39.05    4.95
  -3   9   1   30.06    2.94
  -2   9   1   76.03    4.64
  -2   9   1   80.25    3.88
  -2   9   1   78.48    5.96
  -1   9   1    2.81    1.49
  -1   9   1    2.20    1.05
  -1   9   1    6.54    2.74
   0   9   1  186.80    4.90
   0   9   1  179.49    5.70
   0   9   1  181.63    8.65
   1   9   1  125.19    7.15
   2   9   1   61.12    5.22
   3   9   1  173.84    8.47
   5   9   1   17.97    1.80
   6   9   1   52.82    3.38
   6   9   1   49.62    2.36
   6   9   1   51.43    2.31
   7   9   1    2.01    1.54
   7   9   1    1.41    0.98
   7   9   1   -1.55    0.94
   8   9   1    3.62    1.44
   8   9   1    4.71    1.95
   8   9   1    4.69    1.42
  -4  10   1    0.16    1.53
  -4  10   1    2.75    2.81
  -3  10   1    7.64    3.17
  -3  10   1    5.26    1.66
  -2  10   1   14.85    1.91
  -2  10   1   26.93    4.33
  -1  10   1   14.85    1.63
  -1  10   1   22.83    4.17
  -1  10   1   17.22    2.45
   0  10   1   -1.28    1.21
   0  10   1   -1.66    2.54
   1  10   1   30.39    4.60
   2  10   1   52.59    5.79
   3  10   1   -4.61    2.07
   6  10   1   68.82    3.69
   7  10   1    3.28    1.68
   7  10   1    0.13    0.87
   7  10   1    0.42    0.75
  -2  11   1   56.25    3.45
  -2  11   1   63.33    6.77
  -1  11   1   40.67    2.39
  -1  11   1   36.44    3.53
  -1  11   1   45.72    5.92
   0  11   1    3.48    1.69
   0  11   1    6.45    3.30
   1  11   1   39.85    5.35
   2  11   1    0.85    2.62
   4  11  -2   -3.21    2.22
   3  11  -2   -0.50    2.57
   2  11  -2   10.20    3.73
   1  11  -2    4.03    1.18
   1  11  -2    0.59    2.84
   0  11  -2   -0.21    3.14
   0  11  -2    1.61    1.36
  -1  11  -2   22.16    4.73
   6  10  -2    1.42    1.52
   6  10  -2    2.67    2.74
   5  10  -2   30.08    4.71
   5  10  -2   30.16    2.70
   4  10  -2   32.70    4.83
   3  10  -2    0.54    2.51
   2  10  -2  122.63    7.91
   1  10  -2   79.36    3.27
   1  10  -2   80.17    6.79
   0  10  -2    8.12    3.25
   0  10  -2    6.95    1.55
  -1  10  -2   70.65    4.34
  -1  10  -2   63.83    3.56
  -1  10  -2   54.51    6.07
  -2  10  -2    2.66    1.65
  -2  10  -2    1.34    2.69
  -3  10  -2    0.80    1.75
  -3  10  -2    2.54    2.93
  -3  10  -2    0.83    1.46
   7   9  -2    0.92    1.85
   7   9  -2    2.40    1.10
   7   9  -2   -0.40    1.07
   6   9  -2   28.63    4.35
   6   9  -2   30.11    2.91
   6   9  -2   34.02    2.07
   6   9  -2   33.96    2.18
   5   9  -2   29.96    4.35
   5   9  -2   34.19    3.03
   4   9  -2   46.37    5.06
   3   9  -2   18.34    3.59
   2   9  -2   93.99    6.57
   1   9  -2   31.75    4.54
   0   9  -2    3.46    2.55
   0   9  -2    5.26    1.21
   0   9  -2    4.93    1.15
  -1   9  -2  119.71    4.75
  -1   9  -2  117.51    5.01
  -1   9  -2  122.93    7.38
  -2   9  -2   56.56    3.42
  -2   9  -2   54.28    4.18
  -2   9  -2   62.92    5.63
  -2   9  -2   56.51    3.85
  -3   9  -2   10.53    3.17
  -3   9  -2    9.72    1.91
  -3   9  -2    7.48    2.12
  -4   9  -2   76.30    4.76
  -4   9  -2   78.24    6.55
  -5   9  -2    2.46    1.95
  -5   9  -2    3.55    2.87
   8   8  -2    8.46    1.96
   8   8  -2    6.27    2.28
   8   8  -2    9.99    1.92
   7   8  -2   27.41    2.65
   7   8  -2   30.12    3.39
   7   8  -2   23.59    2.34
   6   8  -2   63.84    3.28
   6   8  -2   60.18    4.08
   6   8  -2   63.23    5.30
   6   8  -2   68.42    3.17
   5   8  -2    5.55    1.61
   5   8  -2    3.28    0.91
   5   8  -2    0.99    2.10
   5   8  -2    1.17    0.83
   4   8  -2   69.40    2.29
   4   8  -2   67.26    2.97
   4   8  -2   63.82    5.12
   3   8  -2   68.32    5.46
   2   8  -2   19.88    3.34
   1   8  -2    4.24    2.18
   0   8  -2   -0.08    1.83
   0   8  -2    0.78    0.80
   0   8  -2    2.11    0.94
  -1   8  -2   11.74    1.68
  -1   8  -2   11.01    1.62
  -1   8  -2    9.08    2.74
  -2   8  -2   12.13    3.00
  -2   8  -2   19.89    2.39
  -2   8  -2   19.55    2.07
  -2   8  -2   18.35    2.36
  -3   8  -2    0.75    1.18
  -3   8  -2   -0.33    2.03
  -3   8  -2   -0.61    1.48
  -4   8  -2    1.81    1.51
  -4   8  -2    0.01    1.89
  -4   8  -2   -0.69    2.18
  -5   8  -2    5.19    2.83
  -5   8  -2    6.43    2.16
  -6   8  -2    3.52    1.13
  -6   8  -2    0.59    2.64
  -6   8  -2    3.43    2.23
   9   7  -2   -0.20    2.15
   9   7  -2   -1.25    1.51
   8   7  -2   18.59    2.41
   8   7  -2   23.34    3.30
   8   7  -2   19.22    2.75
   7   7  -2   -0.05    1.21
   7   7  -2   -0.47    1.72
   7   7  -2    0.14    1.16
   6   7  -2  476.54   12.96
   6   7  -2  457.47   11.78
   6   7  -2  457.31   14.02
   6   7  -2  452.25   12.08
   5   7  -2    1.90    1.93
   5   7  -2   -0.37    1.32
   5   7  -2    1.52    0.92
   5   7  -2    0.54    1.03
   4   7  -2  445.51   13.72
   4   7  -2  441.07   10.64
   4   7  -2  448.50   10.39
   4   7  -2  449.62   10.95
   3   7  -2  420.19    9.33
   3   7  -2  426.38    9.51
   3   7  -2  402.43   12.98
   2   7  -2   79.27    5.10
   1   7  -2  483.02   10.78
   1   7  -2  477.36   14.53
   0   7  -2  370.65    9.18
   0   7  -2  373.61   12.28
   0   7  -2  380.93    9.09
  -1   7  -2  117.79    6.26
  -1   7  -2  113.04    4.28
  -1   7  -2  111.71    4.04
  -1   7  -2  111.69    4.17
  -2   7  -2   86.24    5.46
  -2   7  -2   87.43    4.22
  -2   7  -2   84.21    4.09
  -2   7  -2   84.96    3.84
  -3   7  -2    6.50    1.88
  -3   7  -2    4.47    1.66
  -3   7  -2    7.68    2.42
  -3   7  -2    5.48    1.51
  -4   7  -2    8.05    2.13
  -4   7  -2    5.46    1.81
  -4   7  -2    5.57    2.46
  -5   7  -2   32.34    3.57
  -5   7  -2   35.82    4.58
  -5   7  -2   33.52    2.76
  -5   7  -2   29.38    2.41
  -6   7  -2    4.14    1.70
  -6   7  -2    4.99    2.42
  -6   7  -2    2.88    2.53
  -6   7  -2    5.66    1.81
  -7   7  -2    2.59    2.31
  -7   7  -2    3.16    2.68
  -7   7  -2    2.61    2.64
  -7   7  -2    4.24    1.96
   9   6  -2   19.29    3.13
   9   6  -2   16.72    3.46
   8   6  -2   -1.17    1.77
   8   6  -2   -0.72    1.46
   7   6  -2    4.64    1.53
   7   6  -2    4.76    1.67
   7   6  -2    7.27    2.28
   6   6  -2  455.12   12.28
   6   6  -2  462.60   12.88
   6   6  -2  449.67   11.81
   6   6  -2  442.58   13.06
   5   6  -2    0.25    1.40
   5   6  -2   -0.16    1.55
   5   6  -2    1.40    0.95
   5   6  -2    1.63    1.10
   4   6  -2  376.52   11.72
   4   6  -2  387.92    9.64
   4   6  -2  389.87    9.36
   4   6  -2  382.48    9.81
   3   6  -2  315.51   10.17
   3   6  -2  312.95    7.47
   3   6  -2  314.62    7.70
   2   6  -2   12.56    0.98
   2   6  -2   13.00    2.38
   1   6  -2  244.94    5.97
   1   6  -2  252.99    8.81
   0   6  -2  209.47    5.40
   0   6  -2  208.77    7.93
   0   6  -2  212.24    5.66
  -1   6  -2  144.70    4.70
  -1   6  -2  150.91    4.75
  -1   6  -2  154.34    4.87
  -1   6  -2  151.88    6.54
  -2   6  -2   68.88    3.48
  -2   6  -2   60.16    3.21
  -2   6  -2   67.61    4.41
  -2   6  -2   65.22    3.37
  -3   6  -2    1.31    1.34
  -3   6  -2   -0.91    1.01
  -3   6  -2   -0.50    1.05
  -3   6  -2   -0.38    1.49
  -3   6  -2    0.63    0.74
  -4   6  -2   88.76    3.80
  -4   6  -2   89.79    3.64
  -4   6  -2   79.26    4.56
  -4   6  -2   95.09    4.93
  -4   6  -2   77.27    5.08
  -5   6  -2   96.70    5.42
  -5   6  -2   95.82    4.76
  -5   6  -2  106.69    5.99
  -5   6  -2   91.28    4.36
  -6   6  -2   12.59    2.48
  -6   6  -2   12.76    1.79
  -6   6  -2   12.12    2.60
  -6   6  -2    8.97    2.06
  -6   6  -2    9.26    2.72
  -7   6  -2    0.13    2.21
  -7   6  -2    1.16    1.97
  -7   6  -2    4.26    1.81
  -7   6  -2    4.20    2.40
  -8   6  -2   -0.57    2.26
  -8   6  -2    2.54    1.93
   9   5  -2    5.49    2.59
   9   5  -2    3.69    2.15
   9   5  -2    6.45    1.28
   9   5  -2    3.55    0.98
   8   5  -2   25.77    3.58
   8   5  -2   27.21    3.25
   7   5  -2   51.31    3.73
   7   5  -2   54.36    4.64
   7   5  -2   57.62    4.15
   6   5  -2   54.63    4.38
   6   5  -2   52.19    3.47
   6   5  -2   56.08    3.83
   5   5  -2    1.65    1.21
   5   5  -2    0.39    1.35
   5   5  -2    0.32    1.32
   5   5  -2    1.01    1.00
   4   5  -2   50.75    3.46
   4   5  -2   50.69    2.71
   4   5  -2   54.53    2.98
   4   5  -2   48.91    2.45
   3   5  -2    0.14    0.53
   3   5  -2   -0.48    1.08
   3   5  -2    1.46    0.82
   2   5  -2  149.10    3.87
   2   5  -2  142.69    5.76
   1   5  -2  198.18    7.01
   1   5  -2  195.78    4.89
   0   5  -2  591.72   13.42
   0   5  -2  583.92   15.62
   0   5  -2  612.14   13.20
  -1   5  -2  537.43   12.56
  -1   5  -2  553.69   14.58
  -1   5  -2  527.31   12.57
  -1   5  -2  523.38   12.63
  -2   5  -2   25.79    2.17
  -2   5  -2   23.35    2.10
  -2   5  -2   25.97    2.10
  -2   5  -2   22.07    2.71
   2  -5   2   32.82    1.99
  -3   5  -2  273.83    7.19
  -3   5  -2  265.59    7.28
  -3   5  -2  267.61    8.99
  -3   5  -2  276.12    8.10
  -3   5  -2  258.64    8.12
  -3   5  -2  261.76    8.29
   3  -5   2  261.38    7.55
  -4   5  -2   51.85    3.04
  -4   5  -2   57.23    3.94
  -4   5  -2   57.01    3.33
  -4   5  -2   53.85    3.59
  -4   5  -2   52.95    2.41
  -4   5  -2   51.12    3.74
  -4   5  -2   51.72    3.84
   4  -5   2   50.80    3.24
  -5   5  -2  609.27   14.39
  -5   5  -2  592.57   16.20
  -5   5  -2  613.88   15.87
  -5   5  -2  592.84   16.51
  -5   5  -2  607.12   15.58
   5  -5   2  607.59   15.77
  -6   5  -2   69.22    4.76
  -6   5  -2   66.28    4.45
  -6   5  -2   58.30    4.54
  -6   5  -2   70.83    5.08
  -6   5  -2   63.76    3.64
   6  -5   2   70.96    4.52
  -7   5  -2  118.23    6.06
  -7   5  -2  123.57    6.29
  -7   5  -2  108.91    4.91
  -7   5  -2  116.36    6.74
  -8   5  -2   20.93    2.63
  -8   5  -2   26.93    3.65
  10   4  -2   12.45    3.50
  10   4  -2   14.96    3.21
  10   4  -2   12.56    2.19
   9   4  -2   64.38    3.92
   9   4  -2   71.05    6.37
   9   4  -2   67.78    5.48
   8   4  -2  514.03   15.00
   8   4  -2  523.15   15.86
   8   4  -2  486.93   13.14
   7   4  -2  141.67    4.87
   7   4  -2  134.78    6.80
   7   4  -2  137.08    4.95
   7   4  -2  138.97    6.30
   7   4  -2  137.01    5.93
   6   4  -2  579.60   15.10
   6   4  -2  596.44   13.91
   6   4  -2  591.93   15.59
   6   4  -2  586.01   16.05
   6   4  -2  619.72   13.85
  -6  -4   2  581.83   14.96
   5   4  -2 1015.03   21.62
   5   4  -2 1026.79   23.18
   5   4  -2 1002.00   23.50
   5   4  -2  996.72   23.38
   5   4  -2 1057.71   21.71
   5   4  -2 1011.77   23.83
  -5  -4   2  990.05   22.88
   4   4  -2    1.32    1.21
   4   4  -2    1.68    1.12
   4   4  -2    1.68    0.89
   4   4  -2    2.42    1.09
   3   4  -2  132.48    5.14
   3   4  -2  143.62    4.41
   3   4  -2  144.93    4.42
   3   4  -2  144.29    4.17
   2   4  -2  286.64    6.63
   2   4  -2  264.06    8.09
   1   4  -2   15.37    1.98
   0   4  -2 1599.44   33.49
   0   4  -2 1594.74   33.75
   0   4  -2 1599.16   35.68
  -1   4  -2  143.77    4.34
  -1   4  -2  141.47    4.38
  -1   4  -2  139.51    5.47
  -1   4  -2  143.84    4.22
  -2   4  -2  104.69    3.89
  -2   4  -2  103.16    3.98
  -2   4  -2  101.03    3.34
  -2   4  -2  100.92    3.45
  -2   4  -2  104.35    3.91
   2  -4   2  100.34    3.51
  -3   4  -2  152.56    5.48
  -3   4  -2  159.46    5.95
  -3   4  -2  158.74    5.05
  -3   4  -2  151.96    5.07
  -3   4  -2  153.47    4.32
  -3   4  -2  147.04    4.21
  -3   4  -2  140.63    5.26
  -3   4  -2  152.22    5.60
   3  -4   2  152.82    5.00
  -4   4  -2   11.05    1.97
  -4   4  -2   15.52    1.91
  -4   4  -2   12.69    1.88
  -4   4  -2   14.00    2.16
  -4   4  -2   17.98    1.76
  -4   4  -2   22.08    2.59
  -4   4  -2   16.03    1.52
  -4   4  -2   14.38    1.95
   4  -4   2   12.93    1.79
  -5   4  -2  276.24    8.95
  -5   4  -2  268.19    9.32
  -5   4  -2  267.19    8.96
  -5   4  -2  276.79    8.74
  -5   4  -2  268.19    7.84
  -5   4  -2  281.11    9.00
   5  -4   2  279.20    8.58
  -6   4  -2  124.91    6.16
  -6   4  -2  126.91    6.00
  -6   4  -2  122.18    8.13
  -6   4  -2  123.05    5.69
  -6   4  -2  116.39    4.89
  -7   4  -2   20.58    3.17
  -7   4  -2   25.62    3.08
  -7   4  -2   22.01    3.12
  -7   4  -2   19.68    2.42
  -8   4  -2   42.00    4.39
  -8   4  -2   29.24    3.05
  -9   4  -2   -1.32    2.22
  -9   4  -2   -0.07    1.56
  10   3  -2    2.66    1.70
  10   3  -2    0.85    2.30
   9   3  -2    1.30    2.53
   9   3  -2    0.79    1.46
   9   3  -2    4.17    2.38
  -9  -3   2    2.20    2.55
   8   3  -2    2.43    2.33
   8   3  -2    1.99    1.79
   8   3  -2    2.20    1.41
  -8  -3   2    4.99    2.20
   7   3  -2    0.85    1.24
   7   3  -2    1.06    2.09
   7   3  -2   -1.10    1.73
   7   3  -2   -0.58    1.53
  -7  -3   2   -0.67    1.57
   6   3  -2  282.20    8.28
   6   3  -2  276.75    9.54
   6   3  -2  283.04    8.70
   6   3  -2  275.74    9.05
  -6  -3   2  276.00    8.58
   5   3  -2  153.84    4.98
   5   3  -2  148.04    5.91
   5   3  -2  146.73    5.26
   5   3  -2  152.23    5.60
   5   3  -2  157.32    4.90
  -5  -3   2  146.68    5.17
   4   3  -2   19.00    1.49
   4   3  -2   20.02    1.98
   4   3  -2   23.82    2.34
   4   3  -2   19.76    1.48
   4   3  -2   19.99    1.81
   4   3  -2   20.99    1.86
  -4  -3   2   19.18    1.70
   3   3  -2  588.49   12.51
   3   3  -2  584.71   13.30
   3   3  -2  567.92   12.44
   3   3  -2  572.84   13.88
   3   3  -2  579.93   13.53
   3   3  -2  580.48   13.59
   2   3  -2  343.91    7.98
   2   3  -2  335.35    8.91
   1   3  -2 1718.57   37.31
   1   3  -2 1715.67   35.90
   0   3  -2  231.15    5.52
   0   3  -2  228.17    6.78
   0   3  -2  236.61    5.69
  -1   3  -2 1250.91   26.87
  -1   3  -2 1273.04   27.24
  -1   3  -2 1274.86   28.33
  -1   3  -2 1252.63   27.33
  -1   3  -2 1283.53   27.35
  -1   3  -2 1277.26   26.92
   1  -3   2 1283.23   27.74
  -2   3  -2    6.57    1.40
  -2   3  -2    1.93    0.86
  -2   3  -2    0.42    0.54
  -2   3  -2    2.33    0.89
  -2   3  -2    1.27    0.84
  -2   3  -2   -0.05    0.81
  -2   3  -2    0.93    0.68
  -2   3  -2    2.03    0.96
   2  -3   2    1.80    0.78
  -3   3  -2 3263.54   70.08
  -3   3  -2 3324.29   69.96
  -3   3  -2 3288.29   70.20
  -3   3  -2 3346.08   69.95
  -3   3  -2 3330.97   69.07
  -3   3  -2 3331.66   69.76
  -3   3  -2 3243.46   70.21
   3  -3   2 3310.45   69.47
  -4   3  -2 1650.49   35.61
  -4   3  -2 1638.28   36.35
  -4   3  -2 1624.35   36.44
  -4   3  -2 1643.60   36.76
  -4   3  -2 1676.58   36.41
  -4   3  -2 1641.70   36.58
   4  -3   2 1642.87   36.85
   4  -3   2 1596.73   35.90
  -5   3  -2  176.52    6.68
  -5   3  -2  177.48    6.62
  -5   3  -2  178.14    6.24
  -5   3  -2  182.20    6.75
  -5   3  -2  168.12    5.85
   5  -3   2  179.26    6.20
   5  -3   2  161.11    6.76
  -6   3  -2  250.90    8.09
  -6   3  -2  237.09    7.88
  -6   3  -2  253.14    8.78
  -6   3  -2  260.22    8.86
  -7   3  -2   -0.34    1.38
  -7   3  -2    2.05    1.96
  -7   3  -2    0.68    1.50
  -7   3  -2    1.83    2.00
  -8   3  -2    0.91    1.70
  -8   3  -2    4.89    2.35
  -9   3  -2    3.68    2.09
  -9   3  -2    7.85    2.85
  10   2  -2  158.30    7.76
 -10  -2   2  177.15    8.81
   9   2  -2    2.28    2.51
   9   2  -2   -0.37    1.90
   9   2  -2    0.88    1.64
  -9  -2   2    5.25    2.73
   8   2  -2  474.10   15.03
   8   2  -2  449.41   14.06
   8   2  -2  446.73   13.49
  -8  -2   2  455.53   13.73
   7   2  -2   20.70    2.75
   7   2  -2   23.60    3.14
   7   2  -2   20.70    3.30
  -7  -2   2   21.99    2.92
   6   2  -2    5.48    1.78
   6   2  -2    3.26    1.42
   6   2  -2    6.76    1.68
   6   2  -2    5.15    2.16
  -6  -2   2    6.09    1.81
   5   2  -2   60.66    3.83
   5   2  -2   62.86    3.60
   5   2  -2   66.39    3.43
   5   2  -2   66.49    3.34
  -5  -2   2   62.23    3.29
   4   2  -2  883.04   20.02
   4   2  -2  886.66   19.98
   4   2  -2  863.41   20.29
   4   2  -2  877.85   19.21
  -4  -2   2  867.88   19.83
   3   2  -2    0.83    0.66
   3   2  -2    0.27    0.82
   3   2  -2    2.07    1.18
   3   2  -2    1.07    0.72
   3   2  -2   -0.38    0.53
   3   2  -2    0.86    0.44
  -3  -2   2    0.51    0.64
   2   2  -2  509.26   12.13
   2   2  -2  522.83   11.81
   2   2  -2  543.97   12.11
   2   2  -2  518.92   11.63
   2   2  -2  520.98   11.55
   1   2  -2   72.91    2.02
   1   2  -2   72.81    2.72
   1   2  -2   72.79    2.23
   1   2  -2   70.48    1.96
   0   2  -2  270.25    6.31
   0   2  -2  264.48    6.09
   0   2  -2  250.51    6.06
   0   2  -2  274.30    6.25
   0   2  -2  273.43    6.97
  -1   2  -2  503.06   11.15
  -1   2  -2  516.99   11.71
  -1   2  -2  518.10   12.19
  -1   2  -2  512.91   11.20
  -1   2  -2  516.08   11.65
  -1   2  -2  519.37   11.59
  -1   2  -2  515.77   11.71
  -1   2  -2  506.26   11.60
  -2   2  -2 2864.16   60.76
  -2   2  -2 2844.81   60.16
  -2   2  -2 2890.99   60.75
  -2   2  -2 2835.72   60.78
  -2   2  -2 2863.60   60.65
  -2   2  -2 2901.33   60.72
  -2   2  -2 2959.76   61.00
   2  -2   2 2955.20   60.39
  -3   2  -2    2.43    0.97
  -3   2  -2    3.20    1.23
  -3   2  -2    2.02    1.03
  -3   2  -2    2.67    0.98
  -3   2  -2    4.56    0.97
  -3   2  -2    1.34    0.92
   3  -2   2    2.71    0.88
   3  -2   2    2.36    0.99
  -4   2  -2  304.45    9.04
  -4   2  -2  312.59    8.48
  -4   2  -2  310.56    8.96
  -4   2  -2  315.69    8.93
  -4   2  -2  316.30    8.55
   4  -2   2  317.58    9.23
  -5   2  -2   10.13    1.86
  -5   2  -2   11.38    1.63
  -5   2  -2    9.52    1.83
  -5   2  -2    9.83    1.88
  -5   2  -2    9.76    1.60
   5  -2   2   10.81    1.96
  -6   2  -2   40.78    3.59
  -6   2  -2   42.56    2.78
  -6   2  -2   42.42    3.15
  -6   2  -2   39.18    3.62
  -6   2  -2   38.08    4.49
   6  -2   2   37.67    3.59
  -7   2  -2    2.96    2.59
  -7   2  -2    7.21    1.69
  -7   2  -2    7.20    2.15
  -7   2  -2    5.70    1.79
   7  -2   2    3.68    1.93
  -8   2  -2   34.14    4.02
  -8   2  -2   34.13    3.48
  -9   2  -2    5.22    2.23
  -9   2  -2    7.81    4.43
 -10   2  -2    3.10    2.29
  10   1  -2    2.69    2.32
 -10  -1   2    7.78    3.14
   9   1  -2   77.05    5.63
  -9  -1   2   81.74    6.15
   8   1  -2   35.49    4.01
   8   1  -2   26.88    3.99
   8   1  -2   34.71    3.71
  -8  -1   2   34.01    3.89
   7   1  -2  171.41    7.28
   7   1  -2  171.99    7.92
   7   1  -2  166.76    6.98
  -7  -1   2  168.03    6.88
   6   1  -2  228.59    8.52
   6   1  -2  232.12    7.00
   6   1  -2  234.73    8.14
   6   1  -2  228.71    7.92
  -6  -1   2  233.19    7.73
   5   1  -2  499.46   13.24
   5   1  -2  450.23   11.30
   5   1  -2  441.86   12.09
   5   1  -2  455.91   12.70
   5   1  -2  447.48   12.27
  -5  -1   2  437.89   11.80
   4   1  -2  935.68   22.29
   4   1  -2 1012.39   23.09
   4   1  -2  994.31   22.71
   4   1  -2  987.85   22.56
   4   1  -2  984.15   21.85
  -4  -1   2 1000.44   22.27
   3   1  -2 1496.30   32.10
   3   1  -2 1407.38   32.32
   3   1  -2 1490.89   32.22
   3   1  -2 1473.17   30.96
   3   1  -2 1507.58   31.97
   3   1  -2 1477.34   31.52
  -3  -1   2 1495.56   31.81
   2   1  -2 1653.12   35.20
   2   1  -2 1646.67   34.73
   2   1  -2 1661.70   35.12
   2   1  -2 1653.04   34.81
  -2  -1   2 1675.81   34.99
   1   1  -2  172.47    4.39
   1   1  -2  177.24    4.51
   1   1  -2  171.27    4.46
   1   1  -2  177.53    4.68
   1   1  -2  170.73    4.43
   0   1  -2 1463.57   31.08
   0   1  -2 1490.24   31.08
   0   1  -2 1476.84   31.05
   0   1  -2 1495.59   31.08
   0   1  -2 1474.78   30.85
  -1   1  -2 4947.84  103.08
  -1   1  -2 4981.54  102.55
  -2   1  -2   48.02    2.19
  -2   1  -2   48.25    2.15
  -2   1  -2   45.89    1.96
  -2   1  -2   45.53    2.16
   2  -1   2   47.82    2.22
  -3   1  -2  219.24    6.04
  -3   1  -2  221.95    6.44
  -3   1  -2  219.33    6.33
  -3   1  -2  221.68    6.63
   3  -1   2  221.66    6.50
   3  -1   2  213.48    6.33
   3  -1   2  231.83    7.18
  -4   1  -2   15.59    1.83
  -4   1  -2   15.07    1.76
  -4   1  -2   15.50    1.69
   4  -1   2   14.95    1.78
   4  -1   2   16.78    1.85
   4  -1   2   15.07    1.78
  -5   1  -2   61.79    3.34
  -5   1  -2   62.05    3.70
  -5   1  -2   62.54    3.57
   5  -1   2   62.02    3.66
   5  -1   2   65.90    3.67
   5  -1   2   64.95    3.75
  -6   1  -2    4.02    1.19
  -6   1  -2    5.84    1.68
  -6   1  -2    3.10    1.30
  -6   1  -2    4.48    1.57
   6  -1   2    5.48    1.71
   6  -1   2    3.84    1.55
   6  -1   2    3.81    1.53
  -7   1  -2  381.06   11.14
  -7   1  -2  367.91   11.89
  -7   1  -2  361.62    9.83
   7  -1   2  363.93   11.77
  -8   1  -2   26.71    3.85
  -8   1  -2   21.70    3.08
   8  -1   2   27.33    3.69
  -9   1  -2   17.48    3.12
 -10   1  -2    3.53    2.60
  10   0  -2   82.51    6.61
 -10   0   2   99.25    7.23
   9   0  -2   10.53    2.88
  -9   0   2   18.74    3.37
   8   0  -2   22.39    2.56
   8   0  -2   24.73    3.36
  -8   0   2   28.87    3.55
   7   0  -2   26.72    3.25
   7   0  -2   26.53    3.61
   7   0  -2   22.78    3.02
   7   0  -2   21.06    2.44
  -7   0   2   19.98    3.04
  -7   0   2   23.80    3.10
   6   0  -2    2.80    1.79
   6   0  -2    0.92    1.33
   6   0  -2    0.58    1.35
   6   0  -2    1.39    1.14
  -6   0   2   -1.46    1.11
  -6   0   2    1.91    1.56
  -6   0   2   -0.36    1.34
   5   0  -2  425.18   10.90
   5   0  -2  411.55   11.62
   5   0  -2  414.00   12.00
   5   0  -2  396.40   11.47
  -5   0   2  429.41   11.26
  -5   0   2  418.45   11.40
   4   0  -2 1730.65   37.90
   4   0  -2 1779.62   38.68
   4   0  -2 1772.37   38.66
   4   0  -2 1728.62   38.90
  -4   0   2 1775.90   38.18
  -4   0   2 1747.80   38.54
   3   0  -2 1479.11   32.42
   3   0  -2 1559.04   33.14
   3   0  -2 1496.71   33.00
  -3   0   2 1508.64   32.62
   2   0  -2 4563.68  104.86
   2   0  -2 5545.77  104.98
   0   0  -2  309.71    7.24
   0   0  -2  311.93    7.01
   0   0  -2  309.74    7.22
   0   0   2  300.27    7.11
   0   0   2  305.97    7.18
  -2   0  -2  608.58   13.93
  -2   0  -2  612.48   13.60
  -2   0  -2  619.38   13.81
   2   0   2  607.66   13.90
   2   0   2  596.82   13.88
   2   0   2  609.84   13.79
  -3   0  -2  410.86   10.34
  -3   0  -2  404.93   10.13
  -3   0  -2  407.93    9.96
   3   0   2  416.57   10.33
   3   0   2  411.09   10.34
   3   0   2  412.28   10.19
  -4   0  -2  156.25    5.16
  -4   0  -2  149.12    5.35
  -4   0  -2  156.76    5.04
   4   0   2  155.61    5.42
   4   0   2  149.53    5.27
   4   0   2  147.78    5.18
  -5   0  -2   48.25    3.30
  -5   0  -2   49.09    2.95
  -5   0  -2   55.55    3.22
   5   0   2   56.98    3.39
   5   0   2   50.51    3.19
   5   0   2   49.55    3.31
  -6   0  -2   56.56    3.86
  -6   0  -2   51.79    3.47
  -6   0  -2   56.67    3.51
   6   0   2   55.94    3.69
   6   0   2   51.48    3.79
   6   0   2   57.59    3.76
  -7   0  -2   54.18    3.86
  -7   0  -2   50.77    4.21
   7   0   2   50.63    4.10
   7   0   2   46.72    3.93
   7   0   2   50.62    4.20
  -8   0  -2   81.46    5.16
  -8   0  -2   77.91    5.19
   8   0   2   79.11    5.35
  -9   0  -2   12.64    2.89
   9   0   2    8.63    2.68
 -10   0  -2    9.67    3.00
  10   0   2    8.07    2.67
 -10   1   2    0.98    2.58
   9  -1  -2   34.11    4.22
  -9   1   2   41.00    4.46
   8  -1  -2    1.83    1.52
   8  -1  -2    3.74    2.14
  -8   1   2    3.05    2.06
   7  -1  -2    2.68    1.46
   7  -1  -2    0.31    1.54
  -7   1   2    1.86    1.96
  -7   1   2    1.72    1.72
   6  -1  -2   13.30    2.36
   6  -1  -2   14.57    2.39
   6  -1  -2   13.87    2.02
   6  -1  -2   22.23    3.08
  -6   1   2   15.66    2.32
  -6   1   2   15.97    2.56
  -6   1   2   14.34    2.35
   5  -1  -2   38.02    3.40
   5  -1  -2   30.74    2.98
   5  -1  -2   32.83    2.55
   5  -1  -2   31.05    2.90
  -5   1   2   35.29    2.89
  -5   1   2   39.87    3.12
  -5   1   2   36.11    2.89
   4  -1  -2  461.45   11.76
   4  -1  -2  469.91   12.35
   4  -1  -2  475.71   12.65
   4  -1  -2  468.90   12.47
  -4   1   2  485.67   12.01
  -4   1   2  463.79   12.14
   3  -1  -2  356.34    9.72
   3  -1  -2  360.45    9.58
   3  -1  -2  365.92    9.64
   3  -1  -2  364.68    9.11
  -3   1   2  357.76    9.20
  -3   1   2  367.62    9.40
   2  -1  -2 1574.68   34.31
   2  -1  -2 1632.53   34.33
   2  -1  -2 1587.84   34.42
   2  -1  -2 1563.74   33.82
  -2   1   2 1605.94   34.08
  -2   1   2 1587.44   33.90
   1  -1  -2 1818.25   39.19
   1  -1  -2 1774.34   38.87
   1  -1  -2 2023.58   40.18
  -1   1   2 1864.68   39.05
  -1   1   2 1869.82   39.19
  -1   1   2 1805.28   38.91
   0  -1  -2  871.61   18.59
   0  -1  -2  855.93   18.36
   0   1   2  867.71   18.44
   0   1   2  859.28   18.50
   0   1   2  860.87   18.34
   0   1   2  853.18   18.52
  -1  -1  -2 3669.59   76.27
  -1  -1  -2 3663.75   75.74
   1   1   2 3676.08   75.93
  -2  -1  -2  606.49   13.73
  -2  -1  -2  597.25   13.42
   2   1   2  603.36   13.59
   2   1   2  596.54   13.72
   2   1   2  610.20   13.63
   2   1   2  619.80   13.74
  -3  -1  -2  294.61    7.45
  -3  -1  -2  296.57    7.82
   3   1   2  287.65    7.61
   3   1   2  292.93    7.63
   3   1   2  298.58    7.86
  -4  -1  -2  132.89    4.48
  -4  -1  -2  132.64    4.88
   4   1   2  137.75    4.74
   4   1   2  131.79    4.71
   4   1   2  136.63    4.88
   4   1   2  132.51    4.90
  -5  -1  -2  273.85    7.98
  -5  -1  -2  274.38    8.51
   5   1   2  274.40    8.55
   5   1   2  280.75    8.31
   5   1   2  287.43    8.39
  -6  -1  -2   42.89    3.07
  -6  -1  -2   37.96    3.26
   6   1   2   42.67    3.23
   6   1   2   45.36    3.24
   6   1   2   36.19    3.31
  -7  -1  -2  680.64   19.55
  -7  -1  -2  724.23   18.20
   7   1   2  718.11   19.14
   7   1   2  706.25   18.65
   7   1   2  728.26   18.67
  -8  -1  -2   32.72    3.48
   8   1   2   31.58    3.78
   8   1   2   34.99    3.64
   8   1   2   32.50    3.76
  -9  -1  -2   14.35    3.09
   9   1   2   14.56    2.81
 -10  -1  -2   39.19    4.45
  10   1   2   39.24    4.38
 -10   2   2   -1.65    2.28
   9  -2  -2   82.10    5.52
  -9   2   2   66.48    5.51
   8  -2  -2   18.70    2.80
  -8   2   2   21.32    3.58
  -8   2   2   18.24    2.96
   7  -2  -2  182.64    7.13
   7  -2  -2  180.89    7.96
  -7   2   2  179.32    7.20
  -7   2   2  177.90    7.99
   6  -2  -2  481.45   13.19
   6  -2  -2  495.87   14.22
  -6   2   2  476.34   14.02
  -6   2   2  474.57   13.21
  -6   2   2  491.01   13.75
   5  -2  -2   55.80    3.97
   5  -2  -2   57.60    3.34
   5  -2  -2   58.90    3.80
   5  -2  -2   59.11    3.92
  -5   2   2   68.47    4.04
  -5   2   2   59.83    3.66
  -5   2   2   58.88    3.48
   4  -2  -2  630.96   15.27
   4  -2  -2  638.27   16.05
   4  -2  -2  632.85   16.00
   4  -2  -2  631.34   16.17
  -4   2   2  614.33   15.68
  -4   2   2  630.29   15.66
  -4   2   2  618.36   15.87
  -4   2   2  632.30   15.23
   3  -2  -2  756.39   18.03
   3  -2  -2  751.71   17.42
  -3   2   2  760.18   17.99
  -3   2   2  756.95   17.76
  -3   2   2  763.43   17.42
  -3   2   2  774.87   17.81
   2  -2  -2   27.00    1.62
   2  -2  -2   29.51    1.96
  -2   2   2   25.16    1.64
  -2   2   2   28.19    1.87
  -2   2   2   28.93    1.81
   1  -2  -2   26.76    1.33
  -1   2   2   27.92    1.74
  -1   2   2   25.93    1.46
  -1   2   2   27.24    1.49
  -1   2   2   25.58    1.33
   0   2   2   26.83    1.07
   0   2   2   26.25    1.24
   0   2   2   27.90    1.02
   0   2   2   25.41    1.26
   0   2   2   25.05    1.21
   1   2   2 1515.91   31.13
   1   2   2 1493.78   30.54
   1   2   2 1457.24   31.05
   1   2   2 1459.67   31.04
   1   2   2 1474.49   30.53
   1   2   2 1473.63   30.93
  -2  -2  -2   60.58    2.09
   2   2   2   59.85    1.86
   2   2   2   60.24    2.26
   2   2   2   61.16    2.22
   2   2   2   61.68    2.32
   2   2   2   63.00    2.14
   2   2   2   63.52    2.23
  -3  -2  -2  375.05    9.07
   3   2   2  393.14    9.22
   3   2   2  375.91    9.26
   3   2   2  387.37    9.36
   3   2   2  368.03    8.76
   3   2   2  381.27    9.49
   3   2   2  381.25    9.32
  -4  -2  -2   86.52    3.35
   4   2   2   90.15    3.56
   4   2   2   88.52    3.57
   4   2   2   86.39    3.41
   4   2   2   82.32    3.66
  -5  -2  -2  497.55   12.56
   5   2   2  510.20   12.94
   5   2   2  506.88   12.73
   5   2   2  495.87   13.24
   5   2   2  504.02   12.91
  -6  -2  -2    3.29    1.37
  -6  -2  -2    2.97    1.46
   6   2   2    1.20    1.26
   6   2   2    2.74    1.22
   6   2   2    3.34    1.40
   6   2   2    1.65    1.24
  -7  -2  -2   24.63    2.85
   7   2   2   23.75    2.68
   7   2   2   20.00    2.68
   7   2   2   24.30    3.08
  -8  -2  -2   16.09    2.69
   8   2   2   15.67    2.61
   8   2   2   13.77    2.69
   8   2   2   17.92    3.09
   9   2   2    3.09    1.86
   9   2   2    5.52    3.05
   9   2   2    4.05    2.19
 -10  -2  -2    6.55    2.64
  10   2   2    2.74    1.93
   9  -3  -2    9.18    2.81
  -9   3   2    7.61    2.39
  -9   3   2    4.59    2.80
   8  -3  -2    9.46    2.44
  -8   3   2   10.47    3.05
  -8   3   2   12.55    2.61
   7  -3  -2   12.48    2.49
  -7   3   2   12.03    2.35
  -7   3   2   14.75    2.99
   6  -3  -2   59.53    4.08
   6  -3  -2   57.41    5.13
  -6   3   2   55.50    4.50
  -6   3   2   49.68    4.01
  -6   3   2   52.72    3.79
   5  -3  -2   74.90    3.99
   5  -3  -2   76.67    4.54
  -5   3   2   75.22    4.28
  -5   3   2   82.41    4.54
  -5   3   2   78.67    4.28
  -5   3   2   72.91    3.85
   4  -3  -2   43.06    3.42
   4  -3  -2   38.93    2.97
  -4   3   2   40.74    3.29
  -4   3   2   35.60    2.78
  -4   3   2   37.20    3.12
  -4   3   2   46.17    2.46
  -4   3   2   37.43    3.10
   3  -3  -2  645.73   16.27
   3  -3  -2  653.41   15.40
  -3   3   2  647.47   15.70
  -3   3   2  658.27   15.13
  -3   3   2  654.25   15.66
  -3   3   2  658.09   15.83
  -3   3   2  662.63   15.19
   2  -3  -2   65.63    2.65
  -2   3   2   68.65    2.91
  -2   3   2   69.04    2.93
  -2   3   2   68.69    2.50
  -2   3   2   70.41    2.91
  -2   3   2   65.99    2.90
  -2   3   2   64.46    3.18
   1  -3  -2   91.16    2.86
  -1   3   2   90.39    3.31
  -1   3   2  100.57    2.55
  -1   3   2   94.77    2.95
  -1   3   2   92.39    3.10
  -1   3   2   94.40    3.52
  -1   3   2   94.09    3.02
  -1   3   2   95.41    2.52
   0   3   2    6.23    0.89
   0   3   2    6.15    0.70
   0   3   2    5.95    0.50
   0   3   2    6.55    0.58
   0   3   2    6.23    0.69
   1   3   2  946.30   19.83
   1   3   2  921.21   19.88
   2   3   2  164.79    4.35
   2   3   2  162.02    4.29
   2   3   2  162.59    4.34
  -3  -3  -2  689.61   15.39
   3   3   2  690.00   15.45
   3   3   2  676.52   15.46
   3   3   2  671.92   14.88
   3   3   2  692.56   15.63
  -4  -3  -2  863.22   19.05
   4   3   2  844.23   19.36
   4   3   2  858.30   18.90
   4   3   2  819.30   18.04
   4   3   2  856.13   19.66
   4   3   2  852.95   19.33
  -5  -3  -2  722.06   16.66
   5   3   2  678.92   15.56
   5   3   2  722.51   16.94
   5   3   2  701.06   17.29
   5   3   2  706.78   16.44
   5   3   2  679.74   16.82
  -6  -3  -2   74.90    3.95
   6   3   2   75.70    3.74
   6   3   2   84.10    4.21
   6   3   2   79.20    3.18
   6   3   2   78.01    4.45
   6   3   2   76.30    4.10
  -7  -3  -2    1.03    1.49
   7   3   2    2.57    1.56
   7   3   2    2.78    1.61
   7   3   2    2.13    1.34
   7   3   2    1.69    1.59
  -8  -3  -2   48.39    4.15
   8   3   2   41.48    3.45
   8   3   2   49.12    4.49
   8   3   2   41.60    3.90
  -9  -3  -2   18.54    3.17
   9   3   2   14.59    2.89
   9   3   2   12.25    2.31
   9   3   2   13.18    2.87
 -10  -3  -2   -0.71    2.16
  10   3   2   -1.82    1.31
  10   3   2    0.89    2.58
   9  -4  -2   20.28    3.62
  -9   4   2   25.27    3.29
  -9   4   2   29.27    4.44
   8  -4  -2   12.52    2.84
  -8   4   2   10.81    2.44
  -8   4   2   21.76    3.68
   7  -4  -2    0.80    1.70
  -7   4   2   -0.57    2.00
  -7   4   2    0.88    1.49
  -7   4   2   -0.01    1.99
   6  -4  -2  224.99    8.15
  -6   4   2  214.10    7.40
  -6   4   2  215.34    8.47
  -6   4   2  225.11    8.54
   5  -4  -2   83.05    4.31
  -5   4   2   82.07    3.93
  -5   4   2   81.09    4.53
  -5   4   2   72.44    4.43
  -5   4   2   80.89    3.71
  -5   4   2   74.58    4.52
   4  -4  -2    3.70    1.33
   4  -4  -2    3.47    2.05
  -4   4   2    3.28    1.45
  -4   4   2    7.77    1.68
  -4   4   2    3.81    1.53
  -4   4   2    4.69    1.28
  -4   4   2    4.27    1.43
  -4   4   2    4.25    1.63
   3  -4  -2  351.67    9.28
  -3   4   2  361.21    8.72
  -3   4   2  324.34    9.67
  -3   4   2  352.41    9.60
  -3   4   2  353.10    8.62
  -3   4   2  365.55    9.44
  -3   4   2  346.29    9.64
  -3   4   2  343.84   10.08
  -3   4   2  351.89    9.50
   2  -4  -2    0.10    0.65
  -2   4   2    1.29    0.54
  -2   4   2    0.25    0.49
  -2   4   2    0.59    0.73
  -2   4   2    0.15    0.70
  -2   4   2    1.28    0.84
  -2   4   2   -0.10    0.99
  -2   4   2    1.39    1.01
  -1   4   2  173.16    5.16
  -1   4   2  168.24    5.71
  -1   4   2  168.72    4.94
  -1   4   2  177.20    4.32
  -1   4   2  179.98    4.38
   0   4   2  146.95    3.87
   0   4   2  147.30    4.06
   0   4   2  143.61    3.96
   1   4   2 1242.79   26.49
   1   4   2 1271.59   26.31
   2   4   2  127.61    3.37
   2   4   2  128.67    3.43
   2   4   2  123.65    3.47
   2   4   2  127.36    3.53
   3   4   2   87.42    3.03
   3   4   2   90.14    3.00
   3   4   2   83.17    3.03
   4   4   2  523.98   12.56
   4   4   2  520.59   12.54
   4   4   2  528.19   12.78
  -5  -4  -2  348.10    9.13
   5   4   2  353.75    9.49
   5   4   2  347.43    8.42
   5   4   2  347.66    9.75
   5   4   2  341.93    9.35
  -6  -4  -2  129.84    5.05
   6   4   2  127.46    5.59
   6   4   2  127.92    4.43
   6   4   2  133.39    5.25
   6   4   2  134.34    5.32
  -7  -4  -2   -2.43    1.24
   7   4   2   -1.40    1.18
   7   4   2    0.13    0.94
   7   4   2    0.41    1.38
   7   4   2    0.53    1.54
   8   4   2   60.63    4.37
   8   4   2   63.39    4.98
   8   4   2   53.64    3.42
   9   4   2  110.68    5.28
   9   4   2  122.85    7.04
   9   4   2  123.46    6.42
  10   4   2    2.99    2.17
  10   4   2    2.44    2.36
  10   4   2    0.65    1.36
   8  -5  -2   -0.69    1.90
  -8   5   2   -0.74    2.32
  -8   5   2   -2.37    1.43
   7  -5  -2    4.47    2.11
  -7   5   2    3.71    2.22
  -7   5   2   -0.57    2.06
  -7   5   2    2.44    1.57
   6  -5  -2   56.08    4.35
  -6   5   2   64.39    4.57
  -6   5   2   60.34    4.66
  -6   5   2   64.63    3.66
  -6   5   2   55.04    3.75
   5  -5  -2  152.63    6.15
  -5   5   2  146.30    6.13
  -5   5   2  144.90    5.15
  -5   5   2  151.12    5.92
  -5   5   2  151.59    6.53
  -5   5   2  152.93    6.19
   4  -5  -2    5.15    1.52
  -4   5   2    4.98    1.80
  -4   5   2    5.34    1.23
  -4   5   2    6.05    1.55
  -4   5   2    5.15    1.07
  -4   5   2    5.27    1.54
  -4   5   2    7.54    1.88
  -4   5   2    5.77    1.73
  -4   5   2    7.26    1.82
   3  -5  -2  581.67   14.47
  -3   5   2  595.68   15.29
  -3   5   2  620.34   13.18
  -3   5   2  631.01   14.36
  -3   5   2  597.85   14.33
  -3   5   2  590.47   14.92
  -3   5   2  551.26   15.26
   2  -5  -2   74.32    3.05
  -2   5   2   81.73    4.09
  -2   5   2   70.82    3.60
  -2   5   2   71.49    3.33
  -2   5   2   83.30    2.80
  -2   5   2   81.44    2.79
  -1   5   2    2.83    1.01
  -1   5   2   -0.85    1.10
  -1   5   2   -1.07    0.63
   0   5   2  539.16   14.09
   0   5   2  541.20   12.22
   0   5   2  541.78   12.05
   0   5   2  536.54   12.24
   1   5   2  207.86    7.10
   1   5   2  212.96    5.14
   2   5   2   60.61    2.03
   2   5   2   61.72    2.08
   3   5   2  152.05    4.27
   3   5   2  151.16    4.20
   3   5   2  149.52    4.26
   4   5   2  111.84    3.76
   4   5   2  112.22    4.03
   4   5   2  110.05    3.82
   5   5   2   51.69    3.13
   5   5   2   55.42    2.96
   5   5   2   55.67    2.90
   6   5   2  260.83    8.08
   6   5   2  261.11    8.02
   6   5   2  273.92    8.65
   7   5   2   37.97    3.29
   7   5   2   42.63    3.84
   7   5   2   37.52    1.99
   7   5   2   43.01    3.38
   8   5   2   28.23    2.14
   8   5   2   27.15    3.44
   8   5   2   36.89    3.41
   9   5   2   -0.28    0.91
   9   5   2    0.67    1.99
   9   5   2   -1.96    1.38
  10   5   2   11.06    1.74
  10   5   2   19.16    3.24
  10   5   2   13.46    3.14
   8  -6  -2    7.62    2.89
  -8   6   2    4.79    1.87
  -8   6   2   15.14    3.24
   7  -6  -2   13.06    2.87
  -7   6   2    9.64    2.69
  -7   6   2    8.96    1.90
  -7   6   2    9.08    2.70
   6  -6  -2   -0.94    1.75
  -6   6   2    3.97    1.86
  -6   6   2    3.07    1.96
  -6   6   2    2.34    1.95
  -6   6   2    4.60    2.22
   5  -6  -2   51.01    3.95
  -5   6   2   53.44    2.73
  -5   6   2   53.06    3.78
  -5   6   2   49.92    4.35
  -5   6   2   51.76    3.71
  -5   6   2   49.40    4.03
   4  -6  -2   -0.07    1.22
  -4   6   2    1.35    1.61
  -4   6   2    2.54    1.35
  -4   6   2    0.28    1.52
  -4   6   2    0.87    1.15
   3  -6  -2   43.09    2.82
  -3   6   2   41.88    3.45
  -3   6   2   44.71    3.68
  -3   6   2   41.69    3.02
  -3   6   2   41.39    2.35
  -3   6   2   39.69    2.23
   2  -6  -2   31.75    2.11
  -2   6   2   41.84    3.45
  -2   6   2   33.83    2.75
  -2   6   2   30.82    2.38
  -1   6   2   32.22    2.43
  -1   6   2   36.88    2.18
  -1   6   2   34.28    3.21
   0   6   2 1072.94   25.60
   0   6   2 1059.23   22.82
   0   6   2 1031.50   23.02
   0   6   2 1068.86   22.98
   1   6   2  367.17   11.16
   1   6   2  371.57    8.47
   2   6   2  238.92    5.67
   2   6   2  236.86    5.61
   3   6   2  867.33   19.50
   3   6   2  935.91   19.47
   3   6   2  902.74   19.48
   5   6   2   -0.13    0.83
   5   6   2   -0.31    0.94
   5   6   2    0.08    0.76
   6   6   2  102.23    4.40
   6   6   2  102.99    4.33
   6   6   2  104.60    4.83
   7   6   2   46.56    3.39
   7   6   2   43.32    3.29
   7   6   2   45.46    3.81
   8   6   2    1.02    1.60
   8   6   2    1.11    1.37
   8   6   2   -0.77    1.27
   9   6   2   83.76    5.22
   9   6   2   86.78    5.92
  -7   7   2   43.47    2.86
  -7   7   2   48.41    4.55
  -7   7   2   50.37    5.16
  -6   7   2    1.54    2.35
  -6   7   2    1.46    1.58
  -6   7   2    0.40    1.56
  -6   7   2    0.97    2.06
  -5   7   2   95.72    5.66
  -5   7   2   99.63    5.71
  -5   7   2   96.58    4.40
  -5   7   2   97.01    4.35
  -4   7   2   78.90    5.10
  -4   7   2   67.36    2.95
  -4   7   2   72.71    3.16
  -4   7   2   68.99    4.39
  -3   7   2  107.04    4.94
  -3   7   2  118.03    5.59
  -3   7   2  113.68    5.90
  -2   7   2  130.84    5.45
  -2   7   2  131.10    6.28
  -2   7   2  132.77    4.96
  -1   7   2   59.38    2.87
  -1   7   2   56.07    3.17
  -1   7   2   56.19    4.43
   0   7   2  268.10    6.87
   0   7   2  275.94    6.99
   0   7   2  267.25    7.19
   0   7   2  270.86    9.60
   1   7   2   73.61    2.38
   1   7   2   64.37    4.57
   2   7   2    0.04    0.40
   3   7   2  104.06    2.92
   4   7   2   33.34    1.85
   4   7   2   32.98    1.74
   4   7   2   33.77    2.09
   5   7   2    4.02    1.07
   5   7   2    2.61    1.16
   5   7   2    2.91    0.90
   6   7   2    1.10    1.07
   6   7   2    2.28    1.08
   6   7   2   -0.02    1.22
   7   7   2    7.68    1.65
   7   7   2    6.90    1.91
   7   7   2    7.05    1.59
   8   7   2    0.21    1.37
   8   7   2    1.44    1.70
   8   7   2   -1.11    1.15
   9   7   2   12.54    2.39
   9   7   2   10.14    2.71
  -6   8   2    5.43    1.56
  -6   8   2    3.54    1.25
  -6   8   2    5.37    2.40
  -5   8   2   15.39    1.47
  -5   8   2   18.47    3.50
  -5   8   2   17.80    2.90
  -4   8   2    2.38    2.32
  -4   8   2    0.23    1.57
  -3   8   2   -1.85    1.82
  -3   8   2    0.36    1.34
  -2   8   2    4.56    1.38
  -2   8   2    3.64    1.61
  -2   8   2    6.56    2.47
  -1   8   2    3.23    1.32
  -1   8   2    1.12    2.00
  -1   8   2    2.13    1.01
   0   8   2   21.35    3.44
   0   8   2   19.05    1.88
   0   8   2   16.07    1.51
   1   8   2  243.50    9.54
   1   8   2  241.55    5.83
   4   8   2  254.84    6.50
   4   8   2  233.60    5.83
   5   8   2   22.30    1.75
   5   8   2   23.48    2.20
   5   8   2   20.49    1.62
   6   8   2   60.91    3.11
   6   8   2   60.34    2.97
   6   8   2   66.65    3.72
   7   8   2    2.97    1.52
   7   8   2    3.23    1.32
   7   8   2    1.61    1.08
   8   8   2   10.69    2.01
   8   8   2   10.46    2.33
   8   8   2   14.54    2.15
  -5   9   2   -0.88    1.79
  -5   9   2   -0.39    2.55
  -4   9   2   79.32    5.02
  -4   9   2   84.25    6.28
  -3   9   2    1.82    1.42
  -3   9   2    3.51    2.54
  -2   9   2   88.39    4.19
  -2   9   2   88.78    5.03
  -2   9   2   89.60    6.26
  -1   9   2    2.55    1.05
  -1   9   2    4.26    2.45
  -1   9   2    0.73    1.39
   0   9   2   14.90    3.45
   0   9   2   14.91    1.92
   0   9   2   14.17    1.37
   1   9   2   54.34    5.42
   1   9   2   42.43    2.41
   1   9   2   41.24    2.01
   5   9   2   11.41    1.56
   6   9   2   14.81    2.03
   6   9   2   14.51    1.56
   6   9   2   12.28    1.35
   7   9   2   19.62    2.02
   7   9   2   16.82    2.47
   7   9   2   20.84    2.02
   8   9   2    0.71    1.51
   8   9   2   -0.82    1.19
   8   9   2    0.07    1.11
  -4  10   2   30.32    4.71
  -4  10   2   23.81    3.07
  -3  10   2    2.61    1.66
  -3  10   2    1.34    2.79
  -2  10   2   10.79    3.50
  -2  10   2    8.55    1.76
  -1  10   2    0.45    1.01
  -1  10   2    0.94    1.58
  -1  10   2   -0.78    2.37
   0  10   2    6.02    0.98
   0  10   2    8.98    1.85
   0  10   2    9.06    3.26
   1  10   2   10.02    1.57
   1  10   2    8.15    3.16
   5  10   2    5.73    1.27
   6  10   2    1.49    1.26
   7  10   2   34.41    2.15
   7  10   2   36.30    2.29
   7  10   2   40.81    3.53
  -2  11   2    6.16    1.67
  -2  11   2    8.10    3.66
  -1  11   2  135.66    6.77
  -1  11   2  125.64    4.57
  -1  11   2  130.32    8.54
   0  11   2   48.03    5.92
   0  11   2   42.51    3.61
   1  11   2   -0.37    1.35
   5  11   2    1.26    1.00
   3  11  -3   -1.38    0.79
   3  11  -3    1.14    2.76
   2  11  -3    9.87    3.74
   2  11  -3    5.82    1.27
   1  11  -3    5.69    3.38
   1  11  -3    6.73    1.44
   0  11  -3    1.50    1.34
   0  11  -3    2.17    2.85
   5  10  -3   10.48    1.98
   5  10  -3    9.72    3.26
   4  10  -3   13.01    3.57
   4  10  -3   16.00    1.90
   3  10  -3   13.76    1.47
   3  10  -3   14.21    3.75
   2  10  -3    1.09    0.86
   2  10  -3    0.86    2.51
   1  10  -3  156.97    9.12
   1  10  -3  169.72    5.53
   0  10  -3   70.99    6.38
   0  10  -3   62.83    3.71
   0  10  -3   56.93    3.02
  -1  10  -3    9.47    3.40
  -1  10  -3   10.45    2.15
  -1  10  -3    6.87    1.73
  -2  10  -3   32.12    3.11
  -2  10  -3   39.70    5.35
  -3  10  -3   12.78    2.62
  -3  10  -3   21.04    4.32
   7   9  -3   -0.80    1.01
   7   9  -3   -1.29    1.73
   7   9  -3   -1.19    1.05
   6   9  -3  139.62    6.17
   6   9  -3  137.19    4.54
   6   9  -3  138.17    4.84
   6   9  -3  145.37    8.00
   5   9  -3    4.08    2.49
   5   9  -3    2.48    1.49
   5   9  -3    1.02    0.73
   5   9  -3    0.95    0.78
   4   9  -3   97.54    4.16
   4   9  -3  110.32    6.97
   3   9  -3   -1.48    2.17
   2   9  -3   13.19    3.23
   2   9  -3   14.19    1.39
   1   9  -3   87.49    2.98
   1   9  -3   86.70    3.50
   1   9  -3   85.51    6.30
   0   9  -3    0.74    2.25
   0   9  -3    1.19    1.11
   0   9  -3    1.97    1.16
  -1   9  -3   74.06    6.22
  -1   9  -3   67.47    3.94
  -1   9  -3   69.24    3.86
  -2   9  -3   35.61    4.90
  -2   9  -3   33.78    3.13
  -3   9  -3   -0.48    1.30
  -3   9  -3    0.65    2.50
  -3   9  -3   -1.27    1.62
  -4   9  -3    5.11    1.84
  -4   9  -3    3.87    3.06
   8   8  -3   -0.07    1.28
   8   8  -3    1.10    1.57
   8   8  -3   -0.21    2.16
   7   8  -3    2.20    2.02
   7   8  -3    1.43    1.42
   7   8  -3    4.46    1.38
   6   8  -3   46.72    2.90
   6   8  -3   47.62    4.87
   6   8  -3   48.79    3.95
   6   8  -3   48.11    3.20
   5   8  -3    7.90    1.41
   5   8  -3    9.46    2.04
   5   8  -3   13.70    3.26
   5   8  -3   10.40    1.37
   4   8  -3   14.54    1.47
   4   8  -3   18.47    1.96
   4   8  -3   12.34    1.24
   4   8  -3   14.10    3.22
   3   8  -3   57.52    2.36
   3   8  -3   59.60    2.16
   3   8  -3   64.21    5.19
   2   8  -3   34.17    1.71
   2   8  -3   34.03    4.32
   2   8  -3   35.83    1.98
   1   8  -3   31.45    4.16
   1   8  -3   25.52    1.81
   1   8  -3   27.57    1.90
   0   8  -3    7.57    1.34
   0   8  -3    6.82    2.74
   0   8  -3    7.02    1.30
  -1   8  -3   17.04    2.07
  -1   8  -3   13.95    1.89
  -1   8  -3   18.12    3.72
  -2   8  -3   -0.55    1.14
  -2   8  -3    0.33    2.05
  -2   8  -3    0.18    1.13
  -2   8  -3    0.45    1.39
  -3   8  -3    1.70    1.59
  -3   8  -3   -0.97    1.95
  -3   8  -3   -1.76    1.14
  -4   8  -3    0.25    2.14
  -4   8  -3   -0.32    1.32
  -5   8  -3   10.58    3.31
  -5   8  -3    6.51    2.13
  -6   8  -3   -1.84    1.82
  -6   8  -3    0.77    2.62
   8   7  -3   36.69    4.27
   8   7  -3   43.61    3.92
   8   7  -3   46.04    5.48
   7   7  -3    6.63    2.28
   7   7  -3    5.24    1.53
   7   7  -3    5.89    1.79
   6   7  -3  123.76    4.84
   6   7  -3  116.18    5.88
   6   7  -3  120.62    5.28
   6   7  -3  114.73    6.31
   5   7  -3  181.53    5.73
   5   7  -3  169.01    7.79
   5   7  -3  184.90    6.16
   5   7  -3  196.10    6.94
   4   7  -3   28.13    3.72
   4   7  -3   30.94    2.33
   4   7  -3   29.04    2.52
   4   7  -3   32.15    2.07
   3   7  -3  124.94    3.88
   3   7  -3  129.49    6.56
   3   7  -3  127.96    4.20
   2   7  -3  558.20   16.22
   2   7  -3  539.84   12.37
   1   7  -3   27.95    3.56
   1   7  -3   23.79    1.78
   1   7  -3   25.05    1.76
   0   7  -3  108.97    3.92
   0   7  -3  109.66    3.89
   0   7  -3  114.99    6.27
  -1   7  -3   12.03    1.62
  -1   7  -3   10.47    1.68
  -1   7  -3   13.01    2.86
  -2   7  -3    2.31    1.27
  -2   7  -3    1.67    1.30
  -2   7  -3    3.17    1.29
  -2   7  -3    4.18    2.31
  -3   7  -3   33.70    4.07
  -3   7  -3   38.84    3.16
  -3   7  -3   35.15    3.27
  -3   7  -3   39.27    4.28
  -4   7  -3   -1.27    1.87
  -4   7  -3    1.94    1.56
  -4   7  -3    1.97    1.79
  -5   7  -3   94.23    4.10
  -5   7  -3   94.86    5.63
  -5   7  -3   90.79    3.84
  -5   7  -3   99.69    6.53
  -6   7  -3    4.49    2.84
  -6   7  -3    6.88    2.51
  -6   7  -3    5.19    1.73
  -6   7  -3    6.25    1.93
  -7   7  -3   11.57    2.50
  -7   7  -3   11.24    3.12
  -7   7  -3    9.96    3.26
   9   6  -3   -1.50    1.74
   9   6  -3    0.87    2.33
   8   6  -3   21.20    2.99
   8   6  -3   20.32    3.45
   7   6  -3   50.04    3.89
   7   6  -3   46.85    3.49
   7   6  -3   50.75    4.48
   6   6  -3  189.22    6.46
   6   6  -3  188.98    7.49
   6   6  -3  188.79    6.98
   6   6  -3  193.47    7.61
   5   6  -3  117.89    5.40
   5   6  -3  115.54    4.85
   5   6  -3  118.15    4.46
   5   6  -3  115.07    5.80
   4   6  -3  420.22   10.90
   4   6  -3  410.93   10.20
   4   6  -3  431.80   10.72
   4   6  -3  390.63   12.29
   3   6  -3  305.90    7.65
   3   6  -3  306.57   10.23
   2   6  -3   15.86    2.52
   2   6  -3   12.83    1.20
   1   6  -3   93.22    3.15
   1   6  -3   90.43    5.02
   1   6  -3   96.90    3.08
   0   6  -3   18.18    1.56
   0   6  -3   17.95    1.47
   0   6  -3   20.22    2.94
  -1   6  -3    0.36    0.82
  -1   6  -3    0.68    1.48
  -1   6  -3    1.55    0.85
  -2   6  -3   29.42    3.57
  -2   6  -3   28.46    2.48
  -2   6  -3   24.39    2.26
  -2   6  -3   28.98    2.58
  -3   6  -3   -0.25    0.81
  -3   6  -3    0.58    1.18
  -3   6  -3    5.03    2.04
  -3   6  -3   -0.10    0.80
  -3   6  -3    0.12    1.31
  -3   6  -3    0.19    1.20
  -4   6  -3   19.86    2.72
  -4   6  -3   22.19    3.39
  -4   6  -3   22.47    2.17
  -4   6  -3   23.76    2.76
  -4   6  -3   24.07    2.28
  -5   6  -3   18.19    2.47
  -5   6  -3   20.28    2.36
  -5   6  -3   18.89    3.24
  -5   6  -3   14.19    2.62
  -6   6  -3   26.08    3.02
  -6   6  -3   26.22    3.18
  -6   6  -3   28.70    2.51
  -6   6  -3   25.89    3.78
  -6   6  -3   24.09    3.39
  -7   6  -3   92.94    6.18
  -7   6  -3  101.90    6.81
  -7   6  -3   95.93    4.46
  -7   6  -3  102.35    5.82
  -8   6  -3   -0.72    2.33
   9   5  -3    3.80    0.97
   9   5  -3    0.26    2.39
   9   5  -3    3.94    2.15
   9   5  -3    2.40    1.05
   8   5  -3   23.45    3.66
   8   5  -3   21.09    3.13
   7   5  -3  117.86    5.92
   7   5  -3  119.78    6.52
   7   5  -3  113.32    5.29
   6   5  -3  609.66   16.12
   6   5  -3  628.33   15.78
   6   5  -3  646.86   16.44
   5   5  -3  528.33   13.54
   5   5  -3  506.10   14.00
   5   5  -3  503.36   12.98
   5   5  -3  550.35   14.30
   4   5  -3  707.74   16.93
   4   5  -3  678.20   17.75
   4   5  -3  720.90   16.79
   4   5  -3  705.55   16.30
   3   5  -3   10.36    1.20
   3   5  -3   13.35    2.10
   2   5  -3    9.99    1.90
   2   5  -3    8.05    0.98
   1   5  -3    4.33    1.56
   1   5  -3    5.60    0.85
   1   5  -3    5.11    0.81
   0   5  -3  182.78    5.01
   0   5  -3  180.23    5.12
   0   5  -3  164.73    6.70
  -1   5  -3  209.04    6.19
  -1   5  -3  228.68    6.43
  -1   5  -3  222.63    7.96
  -2   5  -3  126.39    4.80
  -2   5  -3  121.59    4.72
  -2   5  -3  129.52    4.72
  -2   5  -3  129.76    5.88
  -2   5  -3  127.27    3.58
  -2   5  -3  131.06    3.72
   2  -5   3  133.43    4.37
  -3   5  -3  112.12    4.02
  -3   5  -3  109.14    4.69
  -3   5  -3  106.64    5.45
  -3   5  -3  118.52    4.22
  -3   5  -3  107.33    4.85
  -3   5  -3  114.47    4.91
   3  -5   3  110.17    4.30
  -4   5  -3   21.11    2.95
  -4   5  -3   23.07    2.55
  -4   5  -3   23.41    2.27
  -4   5  -3   19.11    1.54
  -4   5  -3   22.87    2.73
  -4   5  -3   13.68    3.44
  -4   5  -3   20.82    2.26
  -4   5  -3   18.49    1.46
   4  -5   3   15.05    2.04
  -5   5  -3  210.82    7.38
  -5   5  -3  215.00    8.51
  -5   5  -3  216.63    7.66
  -5   5  -3  207.90    8.03
  -5   5  -3  218.49    6.41
  -6   5  -3   40.54    3.02
  -6   5  -3   39.06    3.77
  -6   5  -3   35.33    4.03
  -6   5  -3   42.48    4.22
  -6   5  -3   39.33    4.11
  -7   5  -3   35.45    3.17
  -7   5  -3   42.64    4.63
  -7   5  -3   40.26    4.27
  -7   5  -3   31.06    3.59
  -8   5  -3   44.43    3.81
  -8   5  -3   39.31    4.22
   9   4  -3    5.70    2.47
   9   4  -3    3.22    1.53
   9   4  -3    2.07    2.52
   9   4  -3    4.84    1.88
   8   4  -3  322.20    9.01
   8   4  -3  286.90   11.41
   8   4  -3  297.54   10.78
   8   4  -3  282.15    8.86
   7   4  -3    4.84    2.40
   7   4  -3    4.25    1.23
   7   4  -3    7.08    1.51
   7   4  -3    6.01    2.19
   7   4  -3    5.38    2.13
   6   4  -3    5.70    1.64
   6   4  -3    6.28    2.48
   6   4  -3    1.46    1.04
   6   4  -3    2.62    1.78
   6   4  -3    4.55    1.57
   6   4  -3    3.55    1.22
  -6  -4   3    2.18    1.92
   5   4  -3   72.93    3.67
   5   4  -3   70.49    2.67
   5   4  -3   66.11    2.62
   5   4  -3   75.17    4.16
   5   4  -3   73.67    3.71
   5   4  -3   71.65    4.46
  -5  -4   3   69.01    3.49
   4   4  -3   26.14    2.43
   4   4  -3   27.75    2.39
   4   4  -3   25.98    2.04
   4   4  -3   31.29    2.89
  -4  -4   3   24.57    1.94
   3   4  -3  123.65    4.04
   3   4  -3  129.61    5.04
   3   4  -3  130.65    4.50
   2   4  -3  187.73    5.00
   2   4  -3  170.52    6.16
   1   4  -3   27.48    1.49
   1   4  -3   28.11    2.45
   1   4  -3   25.65    1.56
   0   4  -3   22.04    1.55
   0   4  -3   21.16    1.42
   0   4  -3   20.97    2.28
  -1   4  -3 2096.13   45.09
  -1   4  -3 2195.04   46.13
  -1   4  -3 2155.35   46.11
  -1   4  -3 2221.06   47.78
  -1   4  -3 2174.65   45.14
  -2   4  -3   56.09    2.98
  -2   4  -3   63.90    2.79
  -2   4  -3   54.63    3.57
  -2   4  -3   60.21    3.02
  -2   4  -3   58.94    2.70
  -2   4  -3   63.98    3.16
  -3   4  -3   39.85    2.87
  -3   4  -3   38.59    2.64
  -3   4  -3   36.94    2.00
  -3   4  -3   39.25    1.91
  -3   4  -3   37.50    2.86
  -3   4  -3   37.64    2.51
  -3   4  -3   40.90    2.89
  -4   4  -3   27.33    2.81
  -4   4  -3   28.10    3.03
  -4   4  -3   26.48    1.97
  -4   4  -3   26.75    2.57
  -4   4  -3   27.05    2.79
  -4   4  -3   25.33    2.59
  -4   4  -3   26.94    2.53
  -5   4  -3  297.01    8.27
  -5   4  -3  291.94    9.49
  -5   4  -3  288.06    9.08
  -5   4  -3  276.93    9.15
  -5   4  -3  288.11    9.55
  -6   4  -3   11.19    2.39
  -6   4  -3    7.38    2.10
  -6   4  -3   10.91    2.34
  -6   4  -3    9.16    1.72
  -7   4  -3   32.97    3.73
  -7   4  -3   30.93    3.67
  -7   4  -3   32.49    3.69
  -7   4  -3   25.49    2.72
  -8   4  -3    2.24    3.07
  -8   4  -3    1.08    1.51
  -8   4  -3   -1.85    1.93
  -9   4  -3    1.67    2.41
  -9   4  -3    1.67    1.79
  10   3  -3   17.72    5.04
  10   3  -3   11.15    2.36
   9   3  -3   85.34    6.04
   9   3  -3   72.41    6.67
   9   3  -3   69.96    4.74
   8   3  -3    0.38    2.27
   8   3  -3    2.32    2.03
   8   3  -3    2.17    1.61
  -8  -3   3   -0.89    2.04
   7   3  -3  471.20   14.55
   7   3  -3  477.70   13.92
   7   3  -3  467.11   12.88
  -7  -3   3  460.89   13.35
   6   3  -3  432.30   12.36
   6   3  -3  429.66   11.48
   6   3  -3  413.48   12.70
   6   3  -3  423.89   11.81
  -6  -3   3  420.15   11.76
   5   3  -3  440.84   11.11
   5   3  -3  443.72   11.95
   5   3  -3  418.40   10.81
   5   3  -3  438.68   10.88
   5   3  -3  440.24   12.32
   5   3  -3  428.33   11.40
  -5  -3   3  423.89   11.29
   4   3  -3  265.24    7.84
   4   3  -3  270.60    7.55
   4   3  -3  270.25    7.01
   4   3  -3  257.33    8.15
   4   3  -3  273.78    7.15
   4   3  -3  269.74    7.50
  -4  -3   3  262.85    7.33
   3   3  -3  573.81   12.85
   3   3  -3  588.95   13.95
   3   3  -3  564.83   13.86
   3   3  -3  564.26   13.36
   3   3  -3  558.99   12.69
   2   3  -3  154.31    5.19
   2   3  -3  155.81    4.45
   2   3  -3  159.88    3.88
   2   3  -3  150.83    3.79
   1   3  -3  341.30    7.29
   1   3  -3  332.27    8.00
   1   3  -3  319.14    8.96
   1   3  -3  332.90    7.95
   0   3  -3   96.96    2.80
   0   3  -3   99.15    4.00
   0   3  -3   96.29    2.78
   0   3  -3  100.36    3.16
   0   3  -3   97.27    3.20
  -1   3  -3 4447.36   91.18
  -1   3  -3 4305.75   90.00
  -1   3  -3 4372.29   92.14
  -1   3  -3 4409.23   90.85
  -1   3  -3 4366.52   91.15
  -2   3  -3  227.68    5.77
  -2   3  -3  221.60    6.51
  -2   3  -3  229.31    6.40
  -2   3  -3  224.93    6.56
  -2   3  -3  218.92    6.26
  -2   3  -3  211.73    5.64
  -2   3  -3  221.94    7.01
  -2   3  -3  233.02    6.59
  -3   3  -3  420.77   10.81
  -3   3  -3  423.12   11.32
  -3   3  -3  413.01   11.00
  -3   3  -3  420.40   10.18
  -3   3  -3  423.51   10.96
  -3   3  -3  397.41   10.96
  -3   3  -3  400.83   11.08
  -4   3  -3  212.75    7.11
  -4   3  -3  211.82    7.22
  -4   3  -3  208.21    7.04
  -4   3  -3  210.35    6.32
  -4   3  -3  213.85    7.02
  -4   3  -3  213.73    7.11
   4  -3   3  209.75    7.31
  -5   3  -3  168.10    5.77
  -5   3  -3  170.87    6.59
  -5   3  -3  174.09    6.54
  -5   3  -3  163.95    6.58
  -5   3  -3  165.55    6.28
   5  -3   3  169.04    6.79
  -6   3  -3   31.43    3.30
  -6   3  -3   27.92    2.91
  -6   3  -3   25.66    2.92
  -6   3  -3   24.97    2.57
  -7   3  -3  214.37    7.69
  -7   3  -3  225.65    9.41
  -7   3  -3  226.17    7.98
  -7   3  -3  230.86    8.90
  -8   3  -3   18.15    2.69
  -8   3  -3   25.50    3.13
  -8   3  -3   21.93    3.58
  -9   3  -3   -1.21    1.60
  -9   3  -3    1.60    2.47
  10   2  -3   37.91    4.50
 -10  -2   3   40.87    5.12
   9   2  -3    1.45    2.15
   9   2  -3    1.50    1.85
  -9  -2   3   -1.00    2.35
   8   2  -3   44.62    4.15
   8   2  -3   54.03    4.96
   8   2  -3   39.39    4.76
  -8  -2   3   48.04    4.57
   7   2  -3    5.11    2.10
   7   2  -3    1.34    1.50
   7   2  -3    1.63    2.07
  -7  -2   3    3.72    1.92
   6   2  -3   11.31    2.71
   6   2  -3   10.35    1.94
   6   2  -3    9.06    2.09
   6   2  -3   12.50    2.04
  -6  -2   3   11.04    2.05
   5   2  -3    6.23    1.45
   5   2  -3    6.97    1.51
   5   2  -3    8.11    1.08
   5   2  -3   10.71    2.24
   5   2  -3    7.02    1.65
   5   2  -3    6.57    1.11
  -5  -2   3    6.33    1.53
   4   2  -3   10.90    1.49
   4   2  -3   11.60    1.54
   4   2  -3   12.51    1.30
   4   2  -3   10.72    2.08
   4   2  -3   14.86    2.01
   4   2  -3    9.83    1.12
  -4  -2   3   10.23    1.46
   3   2  -3  389.90    9.82
   3   2  -3  404.77    9.69
   3   2  -3  404.46    9.90
   3   2  -3  397.37    9.72
   3   2  -3  391.33    9.17
  -3  -2   3  389.46    9.69
   2   2  -3  196.48    5.41
   2   2  -3  196.47    5.41
   2   2  -3  201.36    5.31
   2   2  -3  199.70    4.87
   2   2  -3  216.85    5.97
   2   2  -3  194.19    5.62
   1   2  -3    4.01    0.70
   1   2  -3    5.56    0.84
   1   2  -3    3.59    0.49
   1   2  -3    5.02    0.73
   1   2  -3    4.20    0.88
   1   2  -3    4.18    0.72
   0   2  -3  168.85    4.73
   0   2  -3  174.59    4.30
   0   2  -3  182.87    5.35
   0   2  -3  179.77    4.80
   0   2  -3  179.59    4.81
   0   2  -3  173.24    4.68
  -1   2  -3 2845.59   61.14
  -1   2  -3 2881.18   60.62
  -1   2  -3 3025.67   60.31
  -1   2  -3 2886.12   60.64
  -1   2  -3 2884.32   60.60
  -1   2  -3 2850.95   60.09
  -1   2  -3 2870.95   60.58
  -2   2  -3   17.33    1.66
  -2   2  -3   17.70    1.70
  -2   2  -3   12.76    1.63
  -2   2  -3   11.82    1.38
  -2   2  -3   14.31    1.50
  -2   2  -3   15.30    1.57
  -3   2  -3  176.39    5.66
  -3   2  -3  171.59    5.18
  -3   2  -3  177.77    5.75
  -3   2  -3  169.56    5.72
  -3   2  -3  172.73    5.65
  -3   2  -3  178.95    6.62
   3  -2   3  161.58    5.68
  -4   2  -3  128.81    4.89
  -4   2  -3  126.28    5.06
  -4   2  -3  124.10    5.00
  -4   2  -3  132.35    5.11
  -4   2  -3  127.26    4.60
   4  -2   3  127.77    5.20
  -5   2  -3   -0.44    0.96
  -5   2  -3    0.69    1.02
  -5   2  -3    1.47    1.15
  -5   2  -3    1.04    1.18
  -5   2  -3    1.11    1.27
   5  -2   3    1.46    1.28
  -6   2  -3    0.41    1.23
  -6   2  -3   -1.07    1.24
  -6   2  -3    0.83    1.40
  -6   2  -3    1.70    1.28
   6  -2   3    1.07    1.45
  -7   2  -3    8.76    1.90
  -7   2  -3   11.02    2.11
  -7   2  -3   11.86    2.58
  -8   2  -3   14.88    2.62
  -8   2  -3   12.87    3.04
  -8   2  -3   16.54    2.42
  -9   2  -3   18.28    5.15
  -9   2  -3   28.84    3.65
 -10   2  -3    5.63    2.66
  10   1  -3   -1.50    2.10
 -10  -1   3   -3.31    2.46
   9   1  -3   59.09    5.25
  -9  -1   3   74.42    6.21
   8   1  -3    5.29    2.29
   8   1  -3    3.78    1.91
   8   1  -3    2.29    2.59
  -8  -1   3    5.04    2.50
   7   1  -3   30.40    2.67
   7   1  -3   30.51    3.64
   7   1  -3   31.39    3.36
   7   1  -3   30.70    3.85
  -7  -1   3   35.18    3.51
   6   1  -3   69.34    4.23
   6   1  -3   69.78    3.49
   6   1  -3   79.99    4.59
   6   1  -3   78.96    4.93
  -6  -1   3   65.40    4.13
   5   1  -3   -0.47    1.04
   5   1  -3   -0.92    1.06
   5   1  -3    0.52    0.87
   5   1  -3   -0.72    1.45
   5   1  -3    0.18    1.08
  -5  -1   3   -0.75    1.11
   4   1  -3  198.39    5.01
   4   1  -3  201.82    7.07
   4   1  -3  206.20    5.97
   4   1  -3  201.65    6.37
   4   1  -3  209.80    6.62
   4   1  -3  214.33    6.88
  -4  -1   3  210.05    6.36
   3   1  -3  413.17    9.97
   3   1  -3  324.74   10.29
   3   1  -3  402.27   10.11
   3   1  -3  404.09    9.12
   3   1  -3  398.97   10.25
   3   1  -3  401.97    9.55
  -3  -1   3  406.67    9.86
   2   1  -3   47.56    2.19
   2   1  -3   43.41    2.22
   2   1  -3   45.31    2.13
   2   1  -3   46.91    1.94
   2   1  -3   43.89    1.86
   2   1  -3   49.12    2.58
  -2  -1   3   42.67    2.04
   1   1  -3 1210.51   25.86
   1   1  -3 1203.06   25.52
   1   1  -3 1162.48   25.89
   1   1  -3 1226.50   25.87
   1   1  -3 1195.12   25.76
   0   1  -3  564.19   12.62
   0   1  -3  550.47   12.39
   0   1  -3  569.49   12.71
   0   1  -3  571.39   12.72
   0   1  -3  541.29   12.68
  -1   1  -3    6.47    0.90
  -1   1  -3    7.30    0.88
  -1   1  -3    9.34    1.07
   1  -1   3    8.80    1.03
  -2   1  -3  263.40    7.10
  -2   1  -3  262.85    6.79
  -2   1  -3  270.32    7.25
  -2   1  -3  270.70    7.22
   2  -1   3  266.55    7.24
  -3   1  -3  268.23    7.67
  -3   1  -3  269.58    7.20
  -3   1  -3  262.89    7.49
  -3   1  -3  266.87    7.59
   3  -1   3  263.57    7.63
   3  -1   3  270.64    8.32
   3  -1   3  272.74    7.53
  -4   1  -3  369.87    9.70
  -4   1  -3  360.83   10.01
  -4   1  -3  362.54   10.17
   4  -1   3  374.99   10.10
   4  -1   3  360.33   10.05
   4  -1   3  372.87   10.28
  -5   1  -3  105.14    4.86
  -5   1  -3  103.94    4.40
  -5   1  -3  107.87    4.75
   5  -1   3  110.19    4.96
   5  -1   3  111.93    4.88
   5  -1   3  112.53    4.92
  -6   1  -3   -2.72    0.86
  -6   1  -3   -0.35    1.10
  -6   1  -3   -1.38    1.10
   6  -1   3    0.67    1.22
   6  -1   3   -0.11    1.19
   6  -1   3    0.35    1.19
  -7   1  -3   94.52    4.37
  -7   1  -3   98.07    5.68
  -7   1  -3  101.05    5.12
   7  -1   3   98.38    5.59
  -8   1  -3   13.20    2.66
  -8   1  -3   18.49    2.34
  -8   1  -3   16.78    3.25
   8  -1   3   18.30    3.10
  -9   1  -3   -1.30    1.82
 -10   1  -3    0.83    2.25
  10   0  -3    4.51    2.76
 -10   0   3   10.19    3.69
   9   0  -3   37.59    4.35
  -9   0   3   34.84    4.43
   8   0  -3    2.74    1.60
   8   0  -3    1.17    1.78
  -8   0   3    2.50    2.35
   7   0  -3   54.43    4.45
   7   0  -3   58.63    5.15
   7   0  -3   59.88    3.71
   7   0  -3   53.34    4.29
  -7   0   3   51.09    4.32
   6   0  -3   51.05    4.41
   6   0  -3   48.21    3.90
   6   0  -3   42.74    3.03
   6   0  -3   42.88    3.64
  -6   0   3   44.21    3.52
   5   0  -3  693.05   17.72
   5   0  -3  709.43   18.24
   5   0  -3  693.09   17.70
   5   0  -3  696.89   16.84
  -5   0   3  689.05   17.40
  -5   0   3  702.82   17.24
   4   0  -3  456.41   12.16
   4   0  -3  449.07   11.36
   4   0  -3  465.95   12.17
  -4   0   3  447.48   12.37
  -4   0   3  451.61   11.64
   3   0  -3  217.36    6.03
   3   0  -3  216.71    6.56
   3   0  -3  175.07    6.29
   3   0  -3  218.84    6.90
  -3   0   3  224.52    6.24
   2   0  -3 1038.63   23.44
   2   0  -3 1073.65   23.84
   2   0  -3 1041.78   22.95
  -2   0   3 1063.08   23.12
   1   0  -3    2.38    0.69
   1   0  -3    1.22    0.74
   1   0  -3    2.57    1.01
   1   0  -3    1.46    0.55
  -1   0   3    3.99    0.78
   0   0  -3 2761.61   58.39
   0   0  -3 2784.29   57.53
   0   0   3 2801.03   57.41
   0   0   3 2808.86   57.51
   0   0   3 2570.41   57.82
  -1   0  -3 2789.47   57.44
  -1   0  -3 2730.66   57.73
   1   0   3 2729.17   57.73
   1   0   3 2733.51   57.54
   1   0   3 2784.48   57.65
  -2   0  -3  624.65   14.60
  -2   0  -3  641.49   14.29
  -2   0  -3  620.48   14.51
   2   0   3  619.35   14.58
   2   0   3  624.80   14.49
   2   0   3  648.12   14.48
  -3   0  -3  117.01    3.94
  -3   0  -3  117.09    4.07
  -3   0  -3  113.28    4.20
   3   0   3  113.94    4.05
   3   0   3  116.86    4.20
   3   0   3  110.46    4.10
  -4   0  -3    0.41    0.85
  -4   0  -3   -0.02    0.68
  -4   0  -3    0.11    0.87
   4   0   3    1.48    0.94
   4   0   3    0.03    0.75
   4   0   3   -0.48    0.78
  -5   0  -3   15.97    1.86
  -5   0  -3   22.96    2.25
  -5   0  -3   25.36    2.61
   5   0   3   21.98    2.40
   5   0   3   29.53    2.71
   5   0   3   24.12    2.56
  -6   0  -3   62.44    3.87
  -6   0  -3   63.33    3.69
  -6   0  -3   65.40    4.14
   6   0   3   62.61    4.08
   6   0   3   63.71    4.01
   6   0   3   66.47    4.00
  -7   0  -3    4.59    1.74
  -7   0  -3    2.43    1.75
   7   0   3    0.46    1.55
   7   0   3    3.09    1.72
   7   0   3    2.44    1.61
  -8   0  -3   66.56    4.81
   8   0   3   62.54    5.01
  -9   0  -3   33.78    3.98
   9   0   3   30.54    4.06
 -10   0  -3    0.65    2.37
  10   0   3   -0.85    2.10
 -10   1   3    0.65    2.67
   9  -1  -3    9.48    2.77
   9  -1  -3   11.11    2.46
   8  -1  -3    4.91    1.73
   8  -1  -3    5.39    2.23
  -8   1   3    2.13    1.96
   7  -1  -3  100.09    5.09
   7  -1  -3  103.28    5.91
  -7   1   3  106.96    5.71
  -7   1   3  104.61    6.10
   6  -1  -3   72.33    5.08
   6  -1  -3   67.51    4.56
   6  -1  -3   67.78    4.51
   6  -1  -3   74.80    4.07
  -6   1   3   68.59    4.33
  -6   1   3   66.50    4.24
  -6   1   3   74.71    4.70
   5  -1  -3  169.09    6.91
   5  -1  -3  171.33    6.57
   5  -1  -3  158.66    6.49
   5  -1  -3  166.68    5.89
  -5   1   3  177.43    6.40
  -5   1   3  166.19    6.15
   4  -1  -3  142.40    5.48
   4  -1  -3  137.22    5.68
   4  -1  -3  141.80    5.46
   4  -1  -3  138.03    4.91
  -4   1   3  143.80    5.28
  -4   1   3  135.93    5.04
   3  -1  -3 3418.25   72.92
   3  -1  -3 3447.65   72.33
   3  -1  -3 3372.42   72.87
  -3   1   3 3449.16   72.42
  -3   1   3 3526.89   72.77
   2  -1  -3    4.71    0.89
   2  -1  -3    0.68    1.13
   2  -1  -3    3.30    0.97
  -2   1   3    3.36    0.84
  -2   1   3    3.41    0.92
   1  -1  -3  865.08   19.04
   1  -1  -3  753.50   19.08
   1  -1  -3  861.75   18.68
  -1   1   3  885.98   19.43
  -1   1   3  885.57   18.86
  -1   1   3  862.69   18.72
   0  -1  -3  113.27    3.46
   0  -1  -3  120.98    3.74
   0  -1  -3  143.35    4.58
   0   1   3  122.70    3.64
   0   1   3  117.82    3.50
   0   1   3  117.27    3.67
   0   1   3  118.54    3.55
  -1  -1  -3   63.66    2.47
  -1  -1  -3   58.95    2.22
   1   1   3   65.82    2.48
   1   1   3   63.76    2.35
   1   1   3   60.21    2.36
   1   1   3   62.42    2.44
  -2  -1  -3 1715.05   36.50
  -2  -1  -3 1719.71   36.85
   2   1   3 1726.89   36.67
   2   1   3 1701.71   36.81
   2   1   3 1742.43   36.81
   2   1   3 1718.38   36.82
  -3  -1  -3  233.85    6.87
  -3  -1  -3  243.34    6.55
   3   1   3  245.16    6.91
   3   1   3  234.54    6.86
   3   1   3  248.69    6.76
   3   1   3  251.37    6.84
  -4  -1  -3  976.15   22.09
  -4  -1  -3  973.54   22.61
   4   1   3  976.96   22.65
   4   1   3  974.86   22.40
   4   1   3  976.51   22.43
  -5  -1  -3    8.16    1.44
  -5  -1  -3    6.50    1.39
   5   1   3    9.89    1.69
   5   1   3    8.86    1.62
   5   1   3    8.32    1.59
   5   1   3    7.24    1.43
  -6  -1  -3   33.12    3.20
  -6  -1  -3   32.20    2.88
   6   1   3   33.15    3.03
   6   1   3   37.70    3.28
   6   1   3   37.63    3.16
  -7  -1  -3  108.58    5.34
  -7  -1  -3   83.67    6.95
   7   1   3  112.41    5.81
   7   1   3  112.79    5.55
   7   1   3  104.44    5.37
  -8  -1  -3  201.42    8.00
   8   1   3  235.38   10.64
   8   1   3  199.16    8.23
   8   1   3  194.16    8.25
  -9  -1  -3   -2.27    1.75
   9   1   3   -1.12    1.69
 -10  -1  -3   26.76    4.03
  10   1   3   20.83    3.60
   9  -2  -3   26.39    3.63
  -9   2   3   22.23    3.70
   8  -2  -3   33.50    3.70
  -8   2   3   37.68    4.14
  -8   2   3   41.55    5.01
   7  -2  -3    0.79    1.61
   7  -2  -3   -1.21    1.69
  -7   2   3   -0.67    1.87
  -7   2   3   -0.58    1.60
   6  -2  -3  245.24    9.13
   6  -2  -3  245.46    8.30
  -6   2   3  245.52    8.36
  -6   2   3  240.43    8.70
  -6   2   3  245.17    9.10
   5  -2  -3   24.45    2.89
   5  -2  -3   23.50    2.69
   5  -2  -3   25.70    2.56
   5  -2  -3   18.29    2.49
  -5   2   3   26.14    2.92
  -5   2   3   22.87    2.52
  -5   2   3   24.11    2.57
   4  -2  -3  215.45    7.48
   4  -2  -3  215.63    7.27
   4  -2  -3  221.43    6.81
   4  -2  -3  207.97    7.31
  -4   2   3  228.41    6.89
  -4   2   3  206.17    7.00
  -4   2   3  219.01    7.47
   3  -2  -3  456.06   11.51
   3  -2  -3  469.69   12.17
   3  -2  -3  510.98   13.66
  -3   2   3  424.82   11.78
  -3   2   3  453.89   11.49
  -3   2   3  470.07   11.86
   2  -2  -3    4.24    0.89
   2  -2  -3    2.64    0.96
  -2   2   3    1.48    0.89
  -2   2   3    1.84    0.83
  -2   2   3    1.79    0.81
   1  -2  -3  266.10    6.80
   1  -2  -3  265.07    7.25
  -1   2   3  273.78    6.76
  -1   2   3  276.33    6.98
  -1   2   3  275.27    7.04
  -1   2   3  270.08    7.01
   0   2   3 4545.09   94.60
   0   2   3 4595.59   94.89
  -1  -2  -3 1213.91   25.49
   1   2   3 1135.33   25.48
   1   2   3 1216.29   25.74
   1   2   3 1191.78   25.65
   1   2   3 1216.24   25.34
   1   2   3 1197.14   25.63
  -2  -2  -3   33.67    1.63
   2   2   3   33.10    1.80
   2   2   3   30.54    1.69
   2   2   3   33.02    1.71
   2   2   3   32.65    1.75
   2   2   3   33.72    1.80
  -3  -2  -3  284.23    7.49
   3   2   3  299.05    7.81
   3   2   3  294.07    7.68
   3   2   3  293.24    7.72
   3   2   3  305.52    7.98
   3   2   3  289.86    7.79
  -4  -2  -3  149.51    4.84
   4   2   3  151.32    5.28
   4   2   3  157.41    5.13
   4   2   3  146.48    5.13
   4   2   3  147.45    4.96
   4   2   3  144.45    5.04
  -5  -2  -3    4.79    1.19
  -5  -2  -3    6.13    1.47
   5   2   3    7.54    1.44
   5   2   3    4.11    1.29
   5   2   3    3.36    1.25
   5   2   3    5.27    1.37
   5   2   3    8.44    1.52
  -6  -2  -3   25.12    2.84
  -6  -2  -3   31.36    2.75
   6   2   3   25.16    2.74
   6   2   3   27.69    2.74
   6   2   3   28.19    2.64
   6   2   3   24.98    2.60
  -7  -2  -3   11.61    2.12
   7   2   3   11.54    2.19
   7   2   3   11.03    2.20
   7   2   3   11.24    2.24
  -8  -2  -3   43.35    3.97
   8   2   3   42.64    4.08
   8   2   3   41.91    4.21
   8   2   3   46.04    3.94
  -9  -2  -3   12.73    2.89
   9   2   3   17.25    2.96
   9   2   3   17.00    4.34
 -10  -2  -3   20.01    3.47
  10   2   3   21.96    3.44
   9  -3  -3    5.70    2.65
  -9   3   3    5.06    2.34
   8  -3  -3   32.46    3.82
  -8   3   3   24.81    3.35
  -8   3   3   32.13    4.50
   7  -3  -3   15.85    2.68
  -7   3   3   12.07    2.43
  -7   3   3   13.92    3.28
   6  -3  -3   85.12    4.76
  -6   3   3   82.25    4.96
  -6   3   3   80.90    5.21
  -6   3   3   75.13    4.47
   5  -3  -3  228.09    7.64
   5  -3  -3  228.94    8.43
  -5   3   3  231.43    8.04
  -5   3   3  217.71    8.08
  -5   3   3  235.22    7.54
  -5   3   3  236.03    8.03
   4  -3  -3    0.54    1.06
   4  -3  -3   -2.22    0.99
  -4   3   3   -1.30    1.15
  -4   3   3    0.14    1.01
  -4   3   3    0.27    1.11
  -4   3   3    0.75    1.13
   3  -3  -3  605.65   14.80
   3  -3  -3  613.64   15.49
  -3   3   3  616.63   15.37
  -3   3   3  626.52   15.16
  -3   3   3  621.87   15.23
  -3   3   3  622.40   14.67
   2  -3  -3   -0.02    0.63
  -2   3   3    0.08    0.76
  -2   3   3    0.86    0.75
  -2   3   3   -1.12    0.88
  -2   3   3   -1.38    0.62
   1  -3  -3    2.40    0.66
  -1   3   3    3.73    0.69
  -1   3   3    3.06    1.13
  -1   3   3    3.10    0.78
  -1   3   3    3.66    0.69
  -1   3   3    2.74    0.76
  -1   3   3    1.79    0.67
   0  -3  -3 1028.14   22.63
   0   3   3 1028.68   22.82
   0   3   3 1027.79   22.65
   0   3   3 1118.04   23.30
   0   3   3 1062.40   22.18
   0   3   3 1037.21   22.90
   0   3   3 1084.80   22.15
   1   3   3    9.34    1.12
   1   3   3    9.52    0.85
   1   3   3    9.31    0.96
   1   3   3   11.00    1.00
  -2  -3  -3  269.65    6.64
   2   3   3  280.63    7.05
   2   3   3  270.12    6.65
   2   3   3  271.13    6.90
   2   3   3  277.41    7.02
  -3  -3  -3 1356.63   29.31
   3   3   3 1352.31   29.21
   3   3   3 1372.50   29.67
   3   3   3 1357.52   28.55
   3   3   3 1389.30   29.84
   3   3   3 1340.48   29.54
   3   3   3 1374.21   29.36
  -4  -3  -3    0.35    0.80
   4   3   3    2.13    0.94
   4   3   3   -0.72    0.72
   4   3   3    0.04    0.61
   4   3   3   -0.43    0.73
   4   3   3    0.37    0.56
  -5  -3  -3    8.11    1.49
   5   3   3   10.14    1.66
   5   3   3    9.91    1.68
   5   3   3    8.36    1.34
   5   3   3    9.26    1.18
   5   3   3    8.94    1.46
  -6  -3  -3  484.66   12.60
   6   3   3  448.09   11.51
   6   3   3  476.53   12.93
   6   3   3  488.27   13.41
   6   3   3  475.36   12.48
   6   3   3  477.87   12.87
  -7  -3  -3    6.98    1.90
   7   3   3    3.03    1.73
   7   3   3    6.27    1.67
   7   3   3    3.82    1.86
  -8  -3  -3    5.30    2.03
   8   3   3    4.61    1.67
   8   3   3    5.60    2.08
   8   3   3    0.46    1.85
  -9  -3  -3    7.43    2.44
   9   3   3    1.60    2.10
   9   3   3    1.82    1.64
   9   3   3    2.81    2.12
 -10  -3  -3   -2.75    1.90
  10   3   3    0.37    1.62
   9  -4  -3    4.96    2.70
  -9   4   3    2.40    1.95
  -9   4   3    5.98    2.97
   8  -4  -3   61.72    5.37
  -8   4   3   44.58    4.09
  -8   4   3   50.72    5.24
   7  -4  -3    5.05    2.13
  -7   4   3    5.67    2.41
  -7   4   3    5.35    1.85
   6  -4  -3   79.11    4.97
  -6   4   3   84.37    5.23
  -6   4   3   85.20    5.52
  -6   4   3   79.28    4.49
   5  -4  -3  265.99    8.62
  -5   4   3  270.55    8.16
  -5   4   3  271.74    9.05
  -5   4   3  256.90    9.05
  -5   4   3  259.53    8.79
   4  -4  -3  141.44    5.37
   4  -4  -3  136.83    5.94
  -4   4   3  143.40    5.01
  -4   4   3  143.31    5.55
  -4   4   3  135.80    5.66
  -4   4   3  139.85    5.67
   3  -4  -3    4.28    1.19
  -3   4   3    1.49    1.53
  -3   4   3    3.78    1.36
  -3   4   3    4.26    1.41
  -3   4   3    4.45    1.36
  -3   4   3    3.11    1.04
   2  -4  -3  248.16    7.04
  -2   4   3  268.12    6.58
  -2   4   3  262.70    6.50
  -2   4   3  263.94    7.86
  -2   4   3  265.59    7.32
  -2   4   3  263.94    7.17
  -2   4   3  262.09    7.47
   1  -4  -3  230.88    6.11
  -1   4   3  225.46    6.63
  -1   4   3  232.15    6.39
  -1   4   3  227.17    6.35
  -1   4   3  243.13    6.04
  -1   4   3  228.10    6.09
   0   4   3    7.80    0.98
   0   4   3    6.10    0.60
   0   4   3    8.89    1.35
   0   4   3    7.49    0.93
   0   4   3    8.53    0.77
   1   4   3  105.39    3.25
   1   4   3  103.45    3.26
   2   4   3  563.40   12.81
   2   4   3  561.71   12.87
   3   4   3  551.27   13.00
   3   4   3  540.16   12.75
   3   4   3  552.41   12.88
  -4  -4  -3  171.07    5.17
   4   4   3  170.33    5.64
   4   4   3  175.70    5.39
   4   4   3  170.00    4.56
   4   4   3  181.98    5.52
  -5  -4  -3   17.80    1.89
   5   4   3   18.68    2.18
   5   4   3   20.04    2.08
   5   4   3   20.72    1.66
   5   4   3   24.30    2.23
  -6  -4  -3  165.98    6.05
   6   4   3  185.82    6.86
   6   4   3  170.41    6.28
   6   4   3  168.32    4.37
   6   4   3  178.11    5.63
   6   4   3  169.83    6.24
  -7  -4  -3   85.98    4.64
   7   4   3   83.87    5.09
   7   4   3   79.52    2.97
   7   4   3   80.85    4.62
   7   4   3   85.27    4.70
   7   4   3   82.65    3.94
  -8  -4  -3   12.44    3.00
   8   4   3   11.26    2.53
   8   4   3    8.01    2.16
   8   4   3    8.20    1.76
   9   4   3   71.52    5.77
   9   4   3   63.26    4.12
   9   4   3   67.01    5.06
  10   4   3   -0.12    2.23
  10   4   3    1.40    1.44
  10   4   3   -0.47    1.83
   8  -5  -3   31.12    4.06
  -8   5   3   29.31    4.19
  -8   5   3   27.04    3.16
   7  -5  -3    2.01    2.11
  -7   5   3    1.71    3.03
  -7   5   3    2.32    1.58
  -7   5   3    0.68    2.06
   6  -5  -3   18.86    2.85
  -6   5   3   15.38    3.00
  -6   5   3   16.10    2.83
  -6   5   3   16.77    2.35
   5  -5  -3   86.89    4.75
  -5   5   3   94.23    4.87
  -5   5   3   92.23    5.01
  -5   5   3   86.50    4.07
  -5   5   3   89.34    5.18
   4  -5  -3   62.81    3.70
  -4   5   3   63.61    3.96
  -4   5   3   72.56    3.88
  -4   5   3   70.29    3.20
  -4   5   3   63.57    3.86
   3  -5  -3  146.11    5.21
  -3   5   3  141.28    4.21
  -3   5   3  146.44    5.24
  -3   5   3  151.81    5.14
  -3   5   3  149.43    6.11
  -3   5   3  141.24    5.48
  -3   5   3  151.34    4.31
   2  -5  -3   62.45    2.93
  -2   5   3   65.42    3.27
  -2   5   3   74.51    2.92
  -2   5   3   71.17    2.94
  -2   5   3   62.48    3.67
   1  -5  -3  234.05    6.24
  -1   5   3  229.70    5.42
  -1   5   3  238.22    6.97
  -1   5   3  225.80    6.53
  -1   5   3  240.11    5.52
   0   5   3    7.75    1.04
   0   5   3    5.96    1.17
   0   5   3    5.64    0.91
   1   5   3   18.85    1.64
   1   5   3   19.57    1.37
   1   5   3   18.95    1.33
   2   5   3    2.13    0.73
   2   5   3    2.09    0.61
   2   5   3    1.88    0.61
   3   5   3  133.56    4.16
   3   5   3  137.20    4.32
   3   5   3  140.87    4.27
   4   5   3  174.03    5.62
   4   5   3  175.29    5.42
   4   5   3  178.10    5.35
  -5  -5  -3    3.40    1.19
   5   5   3    2.54    1.05
   5   5   3    2.29    1.04
   5   5   3    2.26    1.23
   6   5   3   22.20    2.38
   6   5   3   23.49    2.42
   6   5   3   20.85    1.35
   6   5   3   18.55    2.46
   7   5   3  104.24    5.08
   7   5   3   99.93    5.52
   7   5   3  106.59    5.18
   7   5   3   93.89    3.59
   8   5   3   20.96    3.18
   8   5   3   34.80    3.47
   8   5   3   27.69    2.31
   9   5   3    5.30    2.07
   9   5   3    1.79    1.12
   9   5   3    6.67    2.50
  10   5   3    0.86    1.15
  10   5   3    3.94    2.16
  10   5   3    1.00    2.23
  -8   6   3    0.88    2.35
  -8   6   3   -0.73    1.46
   7  -6  -3    1.79    2.10
  -7   6   3   -4.05    1.86
  -7   6   3    1.14    2.39
  -7   6   3   -1.88    1.31
   6  -6  -3    5.26    2.21
  -6   6   3    6.78    2.38
  -6   6   3    3.60    1.46
  -6   6   3    7.52    2.23
   5  -6  -3  111.42    5.55
  -5   6   3  105.28    5.20
  -5   6   3  115.88    4.14
  -5   6   3  111.12    5.26
  -5   6   3  114.03    5.97
   4  -6  -3   83.30    4.38
  -4   6   3   88.51    2.98
  -4   6   3   92.93    4.23
  -4   6   3   96.11    4.23
  -4   6   3   85.74    4.84
   3  -6  -3   63.78    3.42
  -3   6   3   65.46    3.05
  -3   6   3   68.51    3.09
  -3   6   3   65.59    3.76
  -3   6   3   62.84    4.17
   2  -6  -3    0.29    0.87
  -2   6   3    0.87    0.58
  -2   6   3    1.13    1.36
  -2   6   3    1.94    1.07
  -1   6   3    2.94    1.25
  -1   6   3    2.55    1.03
   0   6   3   64.03    2.72
   0   6   3   60.43    2.64
   0   6   3   63.13    3.06
   1   6   3  148.24    4.54
   1   6   3  153.72    4.42
   1   6   3  156.83    4.40
   2   6   3   96.50    3.11
   2   6   3   95.32    3.13
   3   6   3   55.34    2.48
   3   6   3   51.12    2.28
   3   6   3   55.63    2.39
   4   6   3  287.78    7.67
   4   6   3  279.87    7.54
   4   6   3  294.77    7.97
   5   6   3    3.67    1.11
   5   6   3    2.47    1.11
   5   6   3    2.47    1.21
   6   6   3   77.53    3.85
   6   6   3   78.41    4.00
   6   6   3   81.02    4.37
   7   6   3   23.56    2.66
   7   6   3   18.94    2.67
   7   6   3   22.22    2.50
   8   6   3   10.96    2.45
   8   6   3   14.08    2.27
   9   6   3    8.13    2.52
   9   6   3    6.65    2.17
  -7   7   3   29.06    4.23
  -7   7   3   36.31    2.70
  -7   7   3   32.50    3.76
  -6   7   3    0.45    2.08
  -6   7   3    1.69    1.77
  -6   7   3   -0.45    1.47
  -5   7   3   -0.64    1.79
  -5   7   3   -1.48    1.24
  -5   7   3   -0.28    1.30
  -4   7   3  130.62    4.67
  -4   7   3  125.67    6.09
  -4   7   3  140.21    4.83
  -3   7   3  113.17    5.21
  -3   7   3  127.03    7.04
  -2   7   3  198.11    7.25
  -2   7   3  214.26    6.87
  -1   7   3    7.10    1.37
  -1   7   3    2.69    1.41
   0   7   3   18.80    1.64
   0   7   3   16.69    1.59
   0   7   3   19.02    2.02
   1   7   3  215.63    6.12
   1   7   3  228.07    5.99
   1   7   3  231.38    5.97
   2   7   3  108.36    3.40
   2   7   3  114.55    3.72
   2   7   3  115.11    3.51
   2   7   3  111.21    3.48
   3   7   3    8.43    1.03
   3   7   3    9.26    1.10
   3   7   3    8.75    1.14
   4   7   3   22.74    1.70
   4   7   3   23.67    2.01
   4   7   3   21.44    1.74
   5   7   3  105.65    4.10
   5   7   3  101.50    4.37
   5   7   3  103.84    3.92
   6   7   3   97.64    4.33
   6   7   3  105.07    4.85
   6   7   3   91.97    4.08
   7   7   3   87.76    4.93
   7   7   3   88.16    4.46
   7   7   3   87.56    4.33
   8   7   3    5.85    1.71
   8   7   3    6.48    2.09
   8   7   3    4.34    1.67
   9   7   3   19.13    2.81
   9   7   3   17.26    3.12
  -6   8   3    2.02    1.34
  -6   8   3    0.71    1.30
  -6   8   3    1.66    2.19
  -5   8   3    4.93    1.11
  -5   8   3    4.90    2.34
  -5   8   3    8.02    1.47
  -4   8   3   93.23    5.34
  -3   8   3   -0.11    1.32
  -2   8   3   74.92    4.46
  -2   8   3   66.29    3.74
  -1   8   3   19.79    2.33
  -1   8   3   20.27    1.99
   0   8   3   38.64    2.39
   0   8   3   44.40    2.94
   0   8   3   45.69    2.45
   1   8   3    9.58    1.51
   1   8   3   10.90    1.23
   1   8   3    7.15    1.06
   2   8   3  679.95   15.55
   2   8   3  700.10   15.71
   2   8   3  694.25   15.29
   2   8   3  701.60   15.28
   3   8   3    7.12    1.02
   3   8   3    4.46    0.97
   3   8   3    6.87    1.23
   3   8   3    7.42    1.36
   4   8   3   25.67    1.82
   4   8   3   21.41    2.02
   4   8   3   19.74    1.59
   5   8   3   27.91    2.00
   5   8   3   27.36    2.44
   5   8   3   29.39    2.16
   6   8   3    0.35    1.15
   6   8   3   -0.69    0.76
   6   8   3   -0.24    0.94
   7   8   3   39.78    3.07
   7   8   3   36.06    2.83
   7   8   3   29.98    3.12
   8   8   3    5.69    1.69
   8   8   3    1.64    1.73
   8   8   3    4.77    1.58
  -5   9   3    1.76    1.96
  -4   9   3    1.49    1.90
  -3   9   3   18.05    2.58
  -2   9   3   35.35    3.11
  -1   9   3  201.63    6.45
  -1   9   3  200.58    7.26
   0   9   3    0.59    1.38
   0   9   3    1.27    0.91
   1   9   3  222.95    6.56
   1   9   3  215.65    6.19
   1   9   3  218.70    5.75
   2   9   3  170.89    5.02
   2   9   3  177.93    5.35
   3   9   3   34.71    2.00
   3   9   3   33.61    2.18
   4   9   3    1.75    0.91
   5   9   3    7.79    1.10
   5   9   3    9.18    1.50
   5   9   3    7.28    1.01
   6   9   3   26.13    2.17
   6   9   3   30.50    2.81
   6   9   3   27.61    2.04
   7   9   3    9.90    1.55
   7   9   3   11.89    1.78
   7   9   3   11.56    2.11
   8   9   3    1.60    1.73
   8   9   3    0.46    1.27
   8   9   3    1.72    1.27
  -4  10   3   -0.16    1.68
  -3  10   3    2.09    1.64
  -2  10   3   42.28    3.38
  -1  10   3   47.75    4.12
  -1  10   3   46.22    2.96
   0  10   3   38.03    2.35
   0  10   3   41.17    3.50
   1  10   3  173.67    5.82
   1  10   3  163.41    5.31
   2  10   3    1.27    0.84
   2  10   3    1.63    1.24
   3  10   3   35.20    2.32
   3  10   3   36.06    2.18
   4  10   3    7.43    1.27
   5  10   3    8.33    1.47
   6  10   3    3.24    0.83
   6  10   3    1.15    0.84
   6  10   3    0.71    1.15
   7  10   3   17.58    2.48
   7  10   3   19.01    1.96
   7  10   3   17.54    1.71
  -2  11   3    1.41    1.42
  -1  11   3  107.27    4.46
   0  11   3   10.99    1.33
   0  11   3   16.38    2.67
   1  11   3    4.33    1.68
   2  11   3   -0.08    1.20
   2  11   3    0.23    0.80
   3  11   3   38.59    2.50
   4  11   3    3.49    1.03
   5  11   3   24.66    2.29
   5  10  -4    0.34    2.68
   5  10  -4    3.45    1.70
   4  10  -4    8.58    3.39
   4  10  -4    5.32    1.34
   4  10  -4    4.77    1.51
   3  10  -4   21.21    2.05
   3  10  -4   19.31    4.15
   2  10  -4    3.68    2.81
   2  10  -4    6.04    1.40
   1  10  -4   15.89    2.08
   1  10  -4   23.40    4.53
   0  10  -4   20.28    4.32
   0  10  -4   22.23    2.16
   0  10  -4   24.08    2.66
  -1  10  -4   17.17    4.18
  -1  10  -4   12.32    2.12
  -2  10  -4    0.33    1.63
  -2  10  -4    3.87    3.15
   6   9  -4    0.86    1.82
   6   9  -4    1.09    1.08
   6   9  -4    4.14    1.33
   6   9  -4    5.24    2.66
   5   9  -4   32.61    4.59
   5   9  -4   25.06    2.11
   5   9  -4   28.64    2.35
   5   9  -4   26.46    2.94
   4   9  -4    8.14    1.68
   4   9  -4    7.23    3.02
   4   9  -4    6.59    1.17
   4   9  -4    8.03    1.09
   3   9  -4   77.39    3.54
   3   9  -4   74.32    2.69
   3   9  -4   76.75    6.12
   3   9  -4   79.60    2.99
   2   9  -4   35.24    1.99
   2   9  -4   36.42    4.71
   2   9  -4   36.20    2.57
   1   9  -4   45.04    5.32
   1   9  -4   40.73    2.77
   1   9  -4   29.69    2.28
   0   9  -4  121.22    4.70
   0   9  -4  120.06    4.98
   0   9  -4  122.45    7.70
  -1   9  -4    0.87    1.40
  -1   9  -4    2.37    1.52
  -1   9  -4    4.23    2.92
  -2   9  -4   40.32    5.32
  -2   9  -4   36.64    3.38
  -3   9  -4    5.04    3.20
  -3   9  -4    5.82    2.09
  -4   9  -4   -2.10    1.67
  -4   9  -4    0.18    2.44
   7   8  -4    5.05    1.56
   7   8  -4    3.47    1.70
   7   8  -4    8.22    2.78
   6   8  -4    1.47    2.22
   6   8  -4    1.82    1.94
   6   8  -4    2.22    1.23
   6   8  -4    3.41    1.50
   5   8  -4   60.38    5.28
   5   8  -4   61.44    3.50
   5   8  -4   59.91    3.13
   5   8  -4   64.48    4.21
   4   8  -4    1.23    0.92
   4   8  -4   -1.77    2.06
   4   8  -4    2.59    1.41
   4   8  -4    1.88    1.17
   3   8  -4   35.69    2.15
   3   8  -4   38.05    4.55
   2   8  -4   69.96    2.92
   2   8  -4   64.35    5.56
   2   8  -4   64.36    3.13
   1   8  -4   89.87    3.64
   1   8  -4   96.37    3.88
   1   8  -4   96.31    6.38
   0   8  -4  120.29    7.12
   0   8  -4  115.68    4.52
   0   8  -4  115.98    4.71
  -1   8  -4   28.63    2.66
  -1   8  -4   32.01    4.36
  -1   8  -4   32.49    2.90
  -2   8  -4   -0.77    2.11
  -2   8  -4   -1.26    1.40
  -3   8  -4    2.27    2.39
  -3   8  -4    2.78    1.71
  -4   8  -4    1.04    2.32
  -4   8  -4    5.69    2.00
  -5   8  -4    0.30    1.85
  -5   8  -4    1.11    2.60
   8   7  -4   36.37    3.84
   8   7  -4   22.26    3.73
   7   7  -4    0.54    2.00
   7   7  -4    1.14    1.37
   7   7  -4    1.46    1.58
   7   7  -4    2.85    2.13
   6   7  -4    1.89    1.96
   6   7  -4   -1.34    1.83
   6   7  -4    4.92    1.68
   6   7  -4    2.56    1.29
   5   7  -4  889.17   21.14
   5   7  -4  898.59   21.91
   5   7  -4  879.50   20.58
   5   7  -4  882.14   23.42
   4   7  -4  248.77    8.04
   4   7  -4  267.69    7.34
   4   7  -4  263.19    9.99
   4   7  -4  266.16    7.83
   3   7  -4  343.19   11.97
   3   7  -4  362.50    9.04
   2   7  -4  407.60   10.35
   2   7  -4  425.31   13.50
   2   7  -4  415.15   10.20
   1   7  -4    6.45    1.27
   1   7  -4    6.37    1.26
   1   7  -4    8.29    2.46
   0   7  -4   14.95    1.74
   0   7  -4   15.17    2.96
   0   7  -4   14.53    1.67
  -1   7  -4  121.92    4.85
  -1   7  -4  119.55    4.87
  -1   7  -4  129.11    6.92
  -2   7  -4   21.69    2.49
  -2   7  -4   22.65    3.54
  -2   7  -4   19.75    2.36
  -3   7  -4    2.91    2.23
  -3   7  -4    0.73    1.35
  -3   7  -4    3.84    1.74
  -4   7  -4   10.13    2.89
  -4   7  -4    8.50    2.15
  -5   7  -4    1.08    1.33
  -5   7  -4    2.08    1.39
  -5   7  -4    3.29    2.09
  -5   7  -4   -0.67    2.21
  -6   7  -4    3.39    2.20
  -6   7  -4    3.39    1.67
  -6   7  -4    5.12    2.74
   9   6  -4    1.16    2.51
   8   6  -4   30.23    3.66
   8   6  -4   30.49    4.10
   7   6  -4    5.12    1.97
   7   6  -4    7.82    1.83
   7   6  -4    5.21    2.33
   6   6  -4    1.03    1.64
   6   6  -4    1.53    1.80
   6   6  -4    1.43    1.27
   6   6  -4   -1.70    1.72
   5   6  -4   -2.66    1.83
   5   6  -4   -0.55    1.24
   5   6  -4   -1.64    1.56
   5   6  -4    2.88    1.92
   4   6  -4   -0.42    1.28
   4   6  -4   -2.49    1.14
   4   6  -4    1.79    1.75
   4   6  -4   -0.41    0.93
   3   6  -4   88.24    5.15
   3   6  -4   81.53    3.35
   2   6  -4    7.35    1.20
   2   6  -4    4.87    1.00
   2   6  -4    6.91    2.03
   1   6  -4   95.16    3.53
   1   6  -4   92.07    3.50
   1   6  -4  105.60    5.52
   0   6  -4    1.79    1.60
   0   6  -4   -0.15    0.68
   0   6  -4   -0.40    0.75
  -1   6  -4  401.13   12.76
  -1   6  -4  390.88   10.48
  -1   6  -4  395.58   10.48
  -2   6  -4  274.45    8.58
  -2   6  -4  285.36    8.61
  -2   6  -4  286.11   10.34
  -3   6  -4   80.52    4.48
  -3   6  -4   78.54    4.33
  -3   6  -4   79.79    4.68
  -3   6  -4   79.91    5.35
  -3   6  -4   74.23    2.83
  -3   6  -4   80.42    3.13
  -4   6  -4   24.78    2.99
  -4   6  -4   18.87    3.32
  -4   6  -4   21.73    2.31
  -4   6  -4   25.69    2.41
  -4   6  -4   25.89    3.69
  -5   6  -4   15.12    2.70
  -5   6  -4   22.99    2.55
  -5   6  -4   21.03    2.61
  -5   6  -4   21.80    3.57
  -6   6  -4   78.74    5.66
  -6   6  -4   65.11    4.88
  -6   6  -4   69.74    3.22
  -6   6  -4   73.37    5.87
  -6   6  -4   77.79    4.81
  -7   6  -4  109.66    7.04
  -7   6  -4   99.55    6.78
  -7   6  -4  113.40    6.34
   9   5  -4   16.42    3.63
   9   5  -4   20.91    3.47
   9   5  -4   19.92    1.71
   8   5  -4    2.26    1.99
   8   5  -4    1.98    2.60
   7   5  -4  196.84    8.05
   7   5  -4  205.09    8.78
   6   5  -4   48.50    4.52
   6   5  -4   43.94    3.38
   6   5  -4   50.86    4.17
   6   5  -4   53.41    3.74
   5   5  -4  477.73   12.94
   5   5  -4  465.63   12.20
   5   5  -4  471.90   13.48
   5   5  -4  464.15   13.13
   4   5  -4  111.43    5.24
   4   5  -4  107.37    4.27
   4   5  -4  114.67    4.82
   4   5  -4  111.68    5.02
   3   5  -4  146.05    5.26
   3   5  -4  134.33    5.87
   3   5  -4  147.56    4.74
   2   5  -4   11.14    2.08
   2   5  -4   11.46    1.28
   1   5  -4   22.34    2.80
   1   5  -4   22.97    1.72
   1   5  -4   23.52    1.75
   0   5  -4   92.07    4.97
   0   5  -4   93.46    3.53
   0   5  -4   96.04    3.59
  -1   5  -4   71.57    3.24
  -1   5  -4   64.10    4.28
  -1   5  -4   63.57    3.14
  -2   5  -4   -0.70    1.46
  -2   5  -4    1.27    1.06
  -2   5  -4    0.94    0.96
  -2   5  -4    1.19    0.88
  -2   5  -4    0.49    0.76
  -2   5  -4   -0.31    0.96
  -3   5  -4   10.41    1.72
  -3   5  -4    6.53    1.55
  -3   5  -4    7.41    2.11
  -3   5  -4    6.05    1.57
  -3   5  -4    9.07    1.59
  -3   5  -4    6.79    1.61
  -4   5  -4   13.63    1.27
  -4   5  -4   13.22    1.44
  -4   5  -4   12.89    1.93
  -4   5  -4   12.24    2.18
  -4   5  -4   15.87    2.17
  -4   5  -4   12.41    2.59
  -4   5  -4   10.22    2.05
  -5   5  -4    3.34    1.89
  -5   5  -4    1.68    1.50
  -5   5  -4    1.46    1.43
  -5   5  -4    3.13    1.34
  -5   5  -4   -0.65    1.54
  -6   5  -4   28.70    3.82
  -6   5  -4   28.39    2.64
  -6   5  -4   29.21    3.61
  -6   5  -4   30.79    3.38
  -7   5  -4    5.52    2.30
  -7   5  -4    8.14    2.74
  -7   5  -4    6.94    2.76
  -8   5  -4   21.47    2.81
  -8   5  -4   18.54    3.38
  -8   5  -4   19.67    3.53
   9   4  -4   23.14    2.61
   9   4  -4   20.22    3.91
   9   4  -4   28.98    3.92
   9   4  -4   29.44    2.92
   8   4  -4   -1.12    2.51
   8   4  -4   -0.59    2.25
   8   4  -4   -1.21    1.34
   7   4  -4    0.67    2.27
   7   4  -4   -0.79    1.02
   7   4  -4    1.16    1.35
   7   4  -4   -1.01    1.76
   6   4  -4   31.72    2.67
   6   4  -4   29.76    2.33
   6   4  -4   29.39    2.40
   6   4  -4   37.59    4.04
   6   4  -4   35.67    3.05
   6   4  -4   32.73    3.37
   5   4  -4   92.47    3.46
   5   4  -4  113.19    3.73
   5   4  -4   98.82    5.58
   5   4  -4  112.07    5.27
   5   4  -4  103.75    4.51
   5   4  -4  102.85    4.47
  -5  -4   4   99.11    4.46
   4   4  -4    0.16    0.99
   4   4  -4   -1.79    1.10
   4   4  -4   -1.44    0.71
   4   4  -4   -0.24    0.51
   4   4  -4   -0.41    1.32
  -4  -4   4   -0.42    0.84
   3   4  -4   98.27    4.43
   3   4  -4   96.56    3.67
   3   4  -4   95.31    4.20
   2   4  -4   22.04    2.49
   2   4  -4   23.87    1.71
   1   4  -4   97.13    4.62
   1   4  -4   98.04    3.51
   1   4  -4   98.72    3.47
   0   4  -4   15.82    1.02
   0   4  -4   11.17    1.93
   0   4  -4   14.20    1.48
   0   4  -4   15.52    1.49
  -1   4  -4  219.02    6.49
  -1   4  -4  215.94    5.85
  -1   4  -4  225.97    5.90
  -1   4  -4  219.59    6.51
  -1   4  -4  224.25    7.68
  -2   4  -4   35.50    3.15
  -2   4  -4   29.73    1.45
  -2   4  -4   34.10    2.29
  -2   4  -4   34.63    2.60
  -2   4  -4   30.28    1.52
  -2   4  -4   35.67    2.55
  -2   4  -4   29.53    2.24
  -3   4  -4   80.67    3.09
  -3   4  -4   77.99    3.99
  -3   4  -4   77.96    4.54
  -3   4  -4   76.57    4.03
  -3   4  -4   78.94    3.64
  -3   4  -4   77.29    2.93
  -3   4  -4   77.86    3.72
  -3   4  -4   82.60    4.09
  -4   4  -4    2.44    1.20
  -4   4  -4    3.01    1.54
  -4   4  -4    3.89    1.46
  -4   4  -4    4.01    1.49
  -4   4  -4    4.55    1.12
  -4   4  -4    4.47    2.50
  -4   4  -4    2.38    1.37
  -4   4  -4    0.82    1.50
  -5   4  -4   64.27    4.31
  -5   4  -4   61.75    4.23
  -5   4  -4   68.46    4.53
  -5   4  -4   70.96    4.22
  -5   4  -4   69.96    3.53
  -6   4  -4   35.80    3.79
  -6   4  -4   43.41    4.20
  -6   4  -4   45.89    3.21
  -6   4  -4   26.98    3.25
  -7   4  -4   -0.47    1.75
  -7   4  -4   -0.16    1.88
  -7   4  -4   -0.20    1.75
  -7   4  -4    0.83    1.47
  -8   4  -4    0.79    2.17
  -8   4  -4   -0.04    1.41
  -8   4  -4   -0.14    1.98
  -9   4  -4    7.65    2.13
  -9   4  -4    1.99    2.60
   9   3  -4   91.68    6.67
   9   3  -4   90.79    5.50
   9   3  -4   81.48    7.32
   8   3  -4   17.87    3.60
   8   3  -4   18.21    3.20
   8   3  -4   17.67    2.65
  -8  -3   4   25.67    3.80
   7   3  -4   40.25    3.25
   7   3  -4   35.92    3.69
   7   3  -4   38.30    4.46
   7   3  -4   41.93    3.47
  -7  -3   4   45.95    4.07
   6   3  -4   95.73    4.31
   6   3  -4   86.74    4.31
   6   3  -4   87.84    4.54
   6   3  -4   91.59    3.60
   6   3  -4   97.90    5.19
   6   3  -4   87.95    5.51
  -6  -3   4   81.71    4.63
   5   3  -4    9.35    1.77
   5   3  -4    5.85    2.07
   5   3  -4    7.38    1.36
   5   3  -4    4.52    1.75
   5   3  -4    7.22    1.43
   5   3  -4    4.86    1.35
  -5  -3   4    4.22    1.48
   4   3  -4    3.74    1.97
   4   3  -4    2.82    0.95
   4   3  -4    3.87    1.02
   4   3  -4    3.43    1.09
   4   3  -4    6.86    1.63
   4   3  -4    2.22    1.04
  -4  -3   4    2.51    1.08
   3   3  -4   53.97    2.99
   3   3  -4   57.33    2.56
   3   3  -4   54.87    2.43
   3   3  -4   56.17    2.73
   3   3  -4   60.02    3.44
   2   3  -4  285.09    8.26
   2   3  -4  286.06    7.56
   2   3  -4  289.44    7.19
   1   3  -4  209.53    5.42
   1   3  -4  209.85    6.67
   1   3  -4  208.54    5.82
   1   3  -4  206.26    5.51
   1   3  -4  213.08    5.88
   0   3  -4   14.19    1.35
   0   3  -4   13.23    1.78
   0   3  -4   19.40    1.53
   0   3  -4   15.88    1.47
   0   3  -4   17.19    1.55
  -1   3  -4   48.95    3.01
  -1   3  -4   51.80    2.47
  -1   3  -4   51.57    1.92
  -1   3  -4   49.00    2.44
  -1   3  -4   51.06    2.60
  -1   3  -4   47.44    1.93
  -1   3  -4   52.03    2.64
  -2   3  -4  965.66   22.78
  -2   3  -4  972.24   21.89
  -2   3  -4  965.30   22.01
  -2   3  -4  976.41   21.08
  -2   3  -4  955.05   21.77
  -2   3  -4  943.44   20.98
  -2   3  -4  937.23   22.03
  -3   3  -4  361.98    9.28
  -3   3  -4  360.57   10.51
  -3   3  -4  356.68   10.07
  -3   3  -4  365.03   10.07
  -3   3  -4  372.99    9.95
  -3   3  -4  357.34   10.24
  -3   3  -4  362.97   10.20
  -4   3  -4    4.34    1.38
  -4   3  -4    5.13    1.55
  -4   3  -4    4.50    1.34
  -4   3  -4    3.03    1.41
  -4   3  -4    4.56    1.46
  -4   3  -4    3.17    1.42
   4  -3   4    3.47    1.36
  -5   3  -4  124.93    5.67
  -5   3  -4  124.30    5.51
  -5   3  -4  125.61    5.57
  -5   3  -4  117.42    4.84
  -5   3  -4  117.14    5.48
  -6   3  -4   44.83    3.58
  -6   3  -4   39.55    3.67
  -6   3  -4   51.79    3.37
  -6   3  -4   48.84    4.05
  -7   3  -4    1.71    2.11
  -7   3  -4    4.92    2.01
  -7   3  -4    5.67    1.73
  -8   3  -4    0.64    1.86
  -8   3  -4    5.36    2.33
  -8   3  -4    1.24    1.63
  -9   3  -4    3.21    2.54
  -9   3  -4    0.44    1.81
 -10  -2   4   -0.99    2.94
   9   2  -4   83.05    5.78
  -9  -2   4  100.47    6.80
   8   2  -4    6.12    2.79
   8   2  -4   13.04    2.58
   8   2  -4    9.14    2.76
  -8  -2   4   12.05    3.00
   7   2  -4   10.22    2.30
   7   2  -4    7.56    2.81
   7   2  -4   11.22    2.48
  -7  -2   4    8.63    2.43
   6   2  -4   40.83    4.15
   6   2  -4   44.52    3.68
   6   2  -4   41.74    2.60
   6   2  -4   47.79    4.50
   6   2  -4   37.71    3.27
  -6  -2   4   40.31    3.53
   5   2  -4    0.35    1.11
   5   2  -4    2.31    0.91
   5   2  -4   -0.70    0.85
   5   2  -4    2.58    0.83
   5   2  -4    2.15    1.48
   5   2  -4    3.24    1.66
  -5  -2   4    1.01    1.23
   4   2  -4   90.58    4.83
   4   2  -4  103.38    3.58
   4   2  -4  102.80    4.10
   4   2  -4  104.14    4.59
   4   2  -4  103.02    3.66
   4   2  -4  111.95    4.36
   4   2  -4  103.25    4.16
  -4  -2   4  102.80    4.16
   3   2  -4    9.39    1.08
   3   2  -4    8.97    1.34
   3   2  -4    8.93    1.44
   3   2  -4    6.37    1.14
   3   2  -4    6.55    1.21
  -3  -2   4    9.84    1.41
   2   2  -4  488.26   11.39
   2   2  -4  501.83   11.90
   2   2  -4  501.12   12.08
   2   2  -4  502.82   12.02
   2   2  -4  480.07   12.14
   2   2  -4  540.04   12.81
   1   2  -4  540.76   12.37
   1   2  -4  521.99   12.14
   1   2  -4  505.27   12.19
   1   2  -4  512.00   12.18
   1   2  -4  525.17   11.68
   1   2  -4  515.91   12.68
   0   2  -4  105.50    3.17
   0   2  -4  105.33    3.59
   0   2  -4  104.13    4.01
   0   2  -4   95.38    3.55
   0   2  -4  106.14    3.55
   0   2  -4  100.76    3.55
  -1   2  -4  449.98   10.92
  -1   2  -4  411.65   10.72
  -1   2  -4  435.69   10.77
  -1   2  -4  448.05   10.83
  -1   2  -4  450.22   10.33
  -2   2  -4  222.48    6.84
  -2   2  -4  231.84    6.93
  -2   2  -4  239.73    6.95
   2  -2   4  268.25    8.16
  -3   2  -4  148.10    5.35
  -3   2  -4  153.40    5.37
  -3   2  -4  144.74    5.30
  -3   2  -4  152.62    4.90
  -3   2  -4  146.66    6.22
   3  -2   4  142.00    5.37
  -4   2  -4   38.92    2.99
  -4   2  -4   39.09    2.93
  -4   2  -4   39.78    3.02
  -4   2  -4   36.81    2.54
   4  -2   4   37.39    3.02
  -5   2  -4    3.42    1.61
  -5   2  -4    5.47    1.65
  -5   2  -4    2.83    1.48
  -5   2  -4    8.06    1.80
  -5   2  -4    6.33    1.45
   5  -2   4    5.05    1.55
  -6   2  -4   15.57    2.34
  -6   2  -4   12.70    2.33
  -6   2  -4   13.15    2.04
  -6   2  -4   13.73    2.46
   6  -2   4   13.25    2.42
  -7   2  -4   -1.21    1.76
  -7   2  -4   -0.17    1.41
  -7   2  -4   -0.94    1.34
  -8   2  -4   66.07    4.56
  -8   2  -4   65.62    4.34
  -8   2  -4   69.74    5.51
  -9   2  -4   -4.60    1.57
 -10  -1   4    4.58    3.33
   9   1  -4    1.61    2.13
  -9  -1   4   -2.75    2.42
   8   1  -4    2.79    1.93
   8   1  -4    4.54    2.53
   8   1  -4    3.19    1.50
  -8  -1   4    7.31    2.67
   7   1  -4    4.18    2.39
   7   1  -4    3.52    1.75
   7   1  -4    5.56    2.14
   7   1  -4    5.12    1.46
  -7  -1   4    6.31    2.19
   6   1  -4  186.10    7.22
   6   1  -4  171.21    7.72
   6   1  -4  197.30    7.53
   6   1  -4  179.96    6.21
  -6  -1   4  184.39    7.06
   5   1  -4  122.17    4.63
   5   1  -4  129.07    5.87
   5   1  -4  126.55    5.40
   5   1  -4  121.40    5.48
  -5  -1   4  127.06    5.22
   4   1  -4   13.96    2.10
   4   1  -4   11.71    1.16
   4   1  -4   11.57    1.44
   4   1  -4   13.22    1.88
   4   1  -4   12.33    1.67
   4   1  -4   12.57    2.45
  -4  -1   4   11.85    1.77
   3   1  -4 4226.27   89.46
   3   1  -4 4336.24   88.81
   3   1  -4 4169.31   89.17
   3   1  -4 4272.38   90.20
   3   1  -4 4238.53   88.36
  -3  -1   4 4295.72   89.13
   2   1  -4    6.45    1.03
   2   1  -4    6.66    1.16
   2   1  -4    5.41    1.24
   2   1  -4    5.84    1.06
   2   1  -4    7.74    1.69
  -2  -1   4    6.35    1.14
   1   1  -4 1513.83   33.33
   1   1  -4 1530.02   33.06
   1   1  -4 1515.38   32.77
   1   1  -4 1548.93   33.21
   1   1  -4 1592.03   33.65
  -1  -1   4 1530.51   33.30
   0   1  -4  355.93    8.68
   0   1  -4  363.19    9.10
   0   1  -4  366.44    9.06
   0  -1   4  357.42    9.13
  -1   1  -4   59.85    2.43
  -1   1  -4   54.10    2.62
  -1   1  -4   59.60    2.69
   1  -1   4   56.90    2.67
  -2   1  -4   40.83    2.39
  -2   1  -4   38.31    2.35
  -2   1  -4   40.13    2.12
   2  -1   4   37.03    2.34
  -3   1  -4  254.20    7.04
  -3   1  -4  255.29    7.55
  -3   1  -4  243.89    7.50
  -3   1  -4  253.13    7.40
   3  -1   4  260.91    7.37
   3  -1   4  251.84    8.17
   3  -1   4  240.27    7.44
  -4   1  -4  139.31    5.41
  -4   1  -4  132.25    4.79
  -4   1  -4  127.49    5.08
   4  -1   4  135.96    5.35
   4  -1   4  137.85    5.20
  -5   1  -4   19.80    2.18
  -5   1  -4   26.29    2.71
  -5   1  -4   19.65    2.36
   5  -1   4   18.74    2.38
   5  -1   4   20.37    2.27
   5  -1   4   21.80    2.36
  -6   1  -4   39.49    3.66
  -6   1  -4   40.03    3.60
   6  -1   4   37.25    3.46
  -7   1  -4    1.18    1.77
  -7   1  -4   -1.07    1.38
   7  -1   4    1.58    1.58
  -8   1  -4   58.53    3.88
  -8   1  -4   61.41    5.57
  -8   1  -4   58.31    4.66
  -9   1  -4    5.77    2.56
 -10   1  -4    0.93    2.49
 -10   0   4   21.34    4.34
   9   0  -4    6.65    2.71
   9   0  -4    8.55    2.19
  -9   0   4    8.73    3.17
   8   0  -4   40.29    3.60
   8   0  -4   32.01    3.80
  -8   0   4   39.30    4.24
   7   0  -4    4.56    2.38
   7   0  -4    5.28    1.62
   7   0  -4    2.39    1.79
   7   0  -4    4.45    2.14
  -7   0   4    3.56    1.97
   6   0  -4  137.17    5.56
   6   0  -4  144.11    6.49
   6   0  -4  145.75    6.91
   6   0  -4  133.54    6.45
  -6   0   4  137.98    6.11
   5   0  -4   99.95    5.01
   5   0  -4   91.81    4.14
   5   0  -4   94.83    4.88
   5   0  -4   91.96    5.29
  -5   0   4   94.51    4.67
  -5   0   4   92.32    4.55
   4   0  -4  148.92    5.18
   4   0  -4  154.24    3.86
   4   0  -4  158.44    5.92
   4   0  -4  142.85    5.74
   4   0  -4  151.03    6.27
  -4   0   4  153.59    5.54
  -4   0   4  145.84    5.63
   3   0  -4   27.73    2.98
   3   0  -4   29.72    2.17
   3   0  -4   27.49    2.52
  -3   0   4   28.19    2.74
  -3   0   4   25.17    2.22
   2   0  -4   27.78    2.16
   2   0  -4   29.44    1.91
  -2   0   4   28.71    2.57
  -2   0   4   31.80    2.05
   1   0  -4    0.10    0.68
   1   0  -4   -0.48    0.53
   1   0  -4    0.91    1.08
   1   0  -4   -0.21    0.66
  -1   0   4   -0.05    0.78
   0   0  -4  352.61    8.76
   0   0  -4  359.36    9.14
   0   0   4  355.08    9.09
   0   0   4  369.90    8.94
   0   0   4  370.39    9.05
  -1   0  -4   20.85    1.50
  -1   0  -4   28.33    1.80
   1   0   4   24.45    1.64
   1   0   4   23.81    1.60
   1   0   4   23.20    1.71
  -2   0  -4  253.44    6.97
  -2   0  -4  268.17    7.41
   2   0   4  268.88    7.42
   2   0   4  268.33    7.28
   2   0   4  264.65    7.17
  -3   0  -4  421.57   10.63
  -3   0  -4  419.03   10.95
  -3   0  -4  437.26   11.16
   3   0   4  426.61   11.09
   3   0   4  422.48   10.97
   3   0   4  431.32   10.92
  -4   0  -4   95.27    4.07
  -4   0  -4   94.50    3.89
  -4   0  -4   89.23    4.15
   4   0   4   89.99    4.09
   4   0   4   91.43    4.19
   4   0   4   96.25    4.08
  -5   0  -4   28.85    2.61
  -5   0  -4   32.29    2.70
  -5   0  -4   36.20    3.06
   5   0   4   31.27    2.83
   5   0   4   29.75    2.67
   5   0   4   28.89    2.79
  -6   0  -4  144.60    5.66
  -6   0  -4  136.26    5.89
  -6   0  -4  139.64    6.21
   6   0   4  139.84    6.16
   6   0   4  132.65    5.93
   6   0   4  138.11    6.10
  -7   0  -4   21.31    2.73
  -7   0  -4   17.81    2.76
   7   0   4   23.83    3.12
  -8   0  -4  156.09    7.02
   8   0   4  155.87    7.56
  -9   0  -4   31.01    3.86
   9   0   4   29.44    3.89
 -10   0  -4   -2.82    2.18
   9  -1  -4    2.25    1.99
   9  -1  -4    0.83    2.30
  -9   1   4    1.65    2.47
   8  -1  -4    3.35    2.15
   8  -1  -4    5.35    1.98
  -8   1   4    5.09    2.54
   7  -1  -4    4.99    1.85
   7  -1  -4    3.97    2.09
  -7   1   4   10.25    2.55
  -7   1   4    3.79    2.44
   6  -1  -4   33.72    3.48
   6  -1  -4   33.13    3.54
   6  -1  -4   27.26    3.50
   6  -1  -4   29.35    2.95
  -6   1   4   27.17    3.18
   5  -1  -4   99.92    4.49
   5  -1  -4  101.82    5.42
   5  -1  -4   99.59    5.09
   5  -1  -4   98.13    5.10
  -5   1   4   96.07    4.77
  -5   1   4   98.27    4.73
   4  -1  -4  115.99    4.65
   4  -1  -4  123.38    5.28
   4  -1  -4  124.04    5.29
   4  -1  -4  110.75    5.39
  -4   1   4  120.25    4.94
  -4   1   4  124.65    4.90
   3  -1  -4  940.47   22.76
   3  -1  -4  968.38   22.54
   3  -1  -4  936.77   21.77
   3  -1  -4  954.40   22.49
  -3   1   4  985.23   22.00
  -3   1   4  969.05   22.13
   2  -1  -4  507.03   12.69
   2  -1  -4  495.15   12.17
  -2   1   4  509.63   12.42
  -2   1   4  525.64   12.37
   1  -1  -4  118.27    4.21
   1  -1  -4  131.40    4.58
   1  -1  -4  120.70    3.92
  -1   1   4  124.39    4.14
  -1   1   4  126.14    4.03
  -1   1   4  125.66    4.08
   0  -1  -4 1865.79   39.86
   0  -1  -4 1975.70   40.51
   0  -1  -4 1847.26   40.27
   0   1   4 1859.96   40.88
   0   1   4 1857.00   39.96
   0   1   4 1859.06   40.08
  -1  -1  -4  339.36    8.68
  -1  -1  -4  339.40    8.36
   1   1   4  338.82    8.47
   1   1   4  339.58    8.67
   1   1   4  341.84    8.58
   1   1   4  329.65    8.61
  -2  -1  -4    0.59    0.73
  -2  -1  -4    0.91    0.67
   2   1   4    0.57    0.64
   2   1   4    0.45    0.64
   2   1   4    0.98    0.74
   2   1   4    1.48    0.74
  -3  -1  -4   70.10    3.39
  -3  -1  -4   73.90    3.12
   3   1   4   74.27    3.24
   3   1   4   73.35    3.34
   3   1   4   70.62    3.30
   3   1   4   70.03    3.34
  -4  -1  -4   25.40    2.36
  -4  -1  -4   25.43    2.17
   4   1   4   23.71    2.30
   4   1   4   20.44    2.13
   4   1   4   24.69    2.37
   4   1   4   24.10    2.26
  -5  -1  -4    1.06    1.07
  -5  -1  -4    0.66    1.18
   5   1   4    0.50    1.09
   5   1   4    0.44    1.02
   5   1   4    1.32    1.24
   5   1   4    1.36    1.14
  -6  -1  -4   97.64    4.63
  -6  -1  -4  100.54    5.06
   6   1   4   92.49    4.98
   6   1   4   98.50    4.93
   6   1   4   98.96    5.16
   6   1   4   94.87    4.85
  -7  -1  -4    7.77    2.01
   7   1   4    7.66    2.05
   7   1   4    7.26    2.10
   7   1   4    6.42    2.06
  -8  -1  -4   67.77    4.90
   8   1   4   62.56    4.89
  -9  -1  -4   17.90    3.22
   9   1   4   17.28    3.09
 -10  -1  -4   -1.20    2.32
  10   1   4    0.42    2.09
   9  -2  -4    5.73    2.48
  -9   2   4    7.48    2.85
   8  -2  -4   14.79    2.78
  -8   2   4   18.37    3.22
   7  -2  -4   -1.19    1.34
   7  -2  -4   -0.04    1.80
  -7   2   4   -1.16    1.57
  -7   2   4   -1.82    1.63
   6  -2  -4    9.63    2.07
   6  -2  -4    8.92    2.40
  -6   2   4    5.35    2.37
  -6   2   4   12.35    2.42
  -6   2   4    9.15    2.85
   5  -2  -4   54.23    4.06
   5  -2  -4   68.77    4.31
   5  -2  -4   63.44    3.77
   5  -2  -4   63.08    4.51
  -5   2   4   62.69    3.89
  -5   2   4   59.38    3.85
   4  -2  -4    8.77    2.05
   4  -2  -4    8.55    1.77
   4  -2  -4    5.90    1.41
   4  -2  -4    9.99    1.88
  -4   2   4    8.06    1.66
  -4   2   4    7.21    1.58
   3  -2  -4  152.58    5.90
   3  -2  -4  158.17    5.75
   3  -2  -4  131.62    5.67
   3  -2  -4  155.88    5.20
  -3   2   4  153.07    5.42
  -3   2   4  148.30    5.19
  -3   2   4  156.32    5.56
   2  -2  -4  148.60    5.15
   2  -2  -4  148.73    4.77
  -2   2   4  153.28    4.86
  -2   2   4  149.75    4.97
  -2   2   4  140.94    5.02
   1  -2  -4  215.64    5.94
   1  -2  -4  214.21    6.32
  -1   2   4  212.94    6.16
  -1   2   4  213.57    5.89
  -1   2   4  207.80    6.01
  -1   2   4  217.09    6.20
   0  -2  -4 1128.30   24.57
   0  -2  -4 1108.01   24.95
   0   2   4 1125.05   24.43
   0   2   4 1127.74   24.81
   0   2   4 1149.44   24.82
   0   2   4 1124.91   24.66
  -1  -2  -4 2869.51   59.32
   1   2   4 2816.43   59.58
   1   2   4 2844.47   59.57
   1   2   4 2827.38   59.16
   1   2   4 2795.15   59.43
  -2  -2  -4  929.80   20.32
   2   2   4  917.18   20.70
   2   2   4  903.67   20.60
   2   2   4  911.99   20.54
   2   2   4  918.56   20.56
   2   2   4  903.35   20.47
  -3  -2  -4   45.32    2.41
  -3  -2  -4   47.87    3.22
   3   2   4   44.33    2.51
   3   2   4   43.65    2.46
   3   2   4   47.29    2.62
   3   2   4   49.57    2.53
   3   2   4   42.74    2.53
  -4  -2  -4    1.20    0.84
  -4  -2  -4    1.09    0.95
   4   2   4    0.57    0.90
   4   2   4   -0.24    0.71
   4   2   4   -0.20    0.79
   4   2   4   -0.23    0.79
   4   2   4    0.89    0.81
  -5  -2  -4   48.84    3.28
  -5  -2  -4   47.73    2.99
   5   2   4   50.76    3.14
   5   2   4   48.60    3.31
   5   2   4   49.80    3.14
   5   2   4   52.51    3.18
   5   2   4   50.50    3.36
  -6  -2  -4    7.88    1.95
  -6  -2  -4    9.34    1.75
   6   2   4    9.45    1.87
   6   2   4    3.20    1.44
   6   2   4   11.25    1.99
   6   2   4    6.74    1.76
   6   2   4    4.79    1.50
  -7  -2  -4   32.58    3.23
   7   2   4   28.93    3.28
   7   2   4   27.73    3.06
   7   2   4   28.87    3.18
  -8  -2  -4    6.86    2.32
   8   2   4    9.63    2.46
   8   2   4    6.29    2.09
   8   2   4   10.40    2.61
  -9  -2  -4   10.97    2.78
   9   2   4   11.01    2.61
 -10  -2  -4   -3.85    2.09
  10   2   4   -0.33    1.83
   9  -3  -4   -2.00    2.13
  -9   3   4   -0.12    2.01
   8  -3  -4   48.51    4.67
  -8   3   4   49.36    5.65
  -8   3   4   53.19    4.75
   7  -3  -4   11.96    2.51
  -7   3   4   17.98    2.88
  -7   3   4   16.21    3.24
   6  -3  -4   23.45    2.86
  -6   3   4   29.32    3.73
  -6   3   4   24.71    3.21
  -6   3   4   26.65    3.04
   5  -3  -4   -0.54    1.36
   5  -3  -4    0.92    1.28
  -5   3   4   -0.83    1.22
  -5   3   4   -1.22    1.20
  -5   3   4    1.74    1.73
  -5   3   4    0.57    1.32
   4  -3  -4  264.22    8.78
   4  -3  -4  267.52    8.25
  -4   3   4  264.91    8.49
  -4   3   4  277.68    8.63
  -4   3   4  277.30    8.15
   3  -3  -4  176.26    5.82
   3  -3  -4  170.03    6.32
  -3   3   4  190.00    6.26
  -3   3   4  174.20    6.09
  -3   3   4  171.96    5.70
   2  -3  -4   31.36    2.13
   2  -3  -4   32.25    2.43
  -2   3   4   32.33    2.32
  -2   3   4   33.59    2.28
  -2   3   4   28.67    2.08
   1  -3  -4 1034.31   23.39
  -1   3   4 1086.61   23.68
  -1   3   4 1084.61   24.15
  -1   3   4 1059.16   23.16
  -1   3   4 1057.38   23.62
  -1   3   4 1038.87   23.70
   0  -3  -4  971.60   21.84
   0   3   4  983.22   22.14
   0   3   4  996.73   21.52
   0   3   4 1029.27   21.49
   0   3   4  993.18   22.40
   0   3   4 1007.34   22.00
   0   3   4  989.44   22.03
  -1  -3  -4 1769.97   37.95
   1   3   4 1822.13   37.52
   1   3   4 1794.83   37.55
   1   3   4 1783.19   38.32
   1   3   4 1759.81   38.02
   1   3   4 1802.41   38.19
  -2  -3  -4   -1.28    0.56
   2   3   4    0.17    0.64
   2   3   4   -0.20    0.61
   2   3   4   -0.18    0.56
   2   3   4    0.28    0.64
   2   3   4   -0.25    0.49
  -3  -3  -4   85.71    3.23
   3   3   4   83.73    3.21
   3   3   4   84.19    2.82
   3   3   4   80.79    3.38
   3   3   4   84.36    3.37
   3   3   4   85.89    3.38
   3   3   4   86.08    3.57
  -4  -3  -4  510.08   12.41
   4   3   4  508.38   12.66
   4   3   4  515.49   12.81
   4   3   4  507.44   12.60
   4   3   4  488.83   11.77
   4   3   4  514.69   13.00
   4   3   4  490.99   12.39
  -5  -3  -4   10.87    1.64
   5   3   4    6.91    1.49
   5   3   4    7.95    1.70
   5   3   4   10.38    1.63
   5   3   4    7.87    1.23
   5   3   4    7.47    1.42
   5   3   4    8.31    1.55
  -6  -3  -4   39.50    3.17
   6   3   4   38.63    3.50
   6   3   4   46.32    3.61
   6   3   4   39.20    3.23
   6   3   4   42.63    3.08
   6   3   4   37.19    3.17
  -7  -3  -4  291.10    9.38
   7   3   4  281.65    9.50
   7   3   4  291.81   10.09
   7   3   4  291.35    9.29
  -8  -3  -4    3.63    2.00
   8   3   4    3.90    2.13
   8   3   4    0.93    1.72
   8   3   4    1.21    1.37
  -9  -3  -4   24.71    3.55
   9   3   4   19.69    3.45
   9   3   4   23.07    3.40
   9   3   4   20.48    2.92
 -10  -3  -4   22.07    3.61
  10   3   4   18.74    2.98
   8  -4  -4   16.62    3.29
  -8   4   4   12.70    2.67
  -8   4   4   19.03    3.78
   7  -4  -4   55.87    4.75
  -7   4   4   55.17    4.29
  -7   4   4   53.87    5.33
   6  -4  -4   46.98    4.16
  -6   4   4   49.23    3.73
  -6   4   4   49.27    4.52
  -6   4   4   53.81    4.56
   5  -4  -4   -1.62    1.30
  -5   4   4   -0.60    1.58
  -5   4   4   -1.34    1.26
  -5   4   4   -1.92    1.18
  -5   4   4   -1.65    1.30
   4  -4  -4  577.00   15.08
  -4   4   4  589.57   15.62
  -4   4   4  592.28   14.62
  -4   4   4  571.70   15.44
  -4   4   4  602.33   15.43
   3  -4  -4  136.30    5.01
  -3   4   4  126.25    5.21
  -3   4   4  133.02    4.60
  -3   4   4  126.66    5.13
  -3   4   4  134.56    5.08
   2  -4  -4   14.08    1.66
  -2   4   4   18.13    1.49
  -2   4   4   21.24    2.05
  -2   4   4   16.55    1.84
  -2   4   4   15.36    1.49
  -2   4   4   19.23    2.39
   1  -4  -4  387.50    9.83
  -1   4   4  400.38    9.23
  -1   4   4  403.57    9.87
  -1   4   4  400.84   10.60
  -1   4   4  382.27   10.04
  -1   4   4  406.58    9.14
  -1   4   4  394.46   10.17
   0  -4  -4   87.36    3.14
   0   4   4   86.76    3.54
   0   4   4   89.22    3.34
   0   4   4   88.07    3.36
   0   4   4   87.40    3.01
  -1  -4  -4 1996.59   42.12
   1   4   4 2003.20   41.84
   1   4   4 1930.14   42.60
   1   4   4 2010.77   42.43
   1   4   4 2027.86   42.54
  -2  -4  -4   24.32    1.61
   2   4   4   25.43    1.75
   2   4   4   26.24    1.81
   2   4   4   24.54    1.46
  -3  -4  -4  445.87   10.67
   3   4   4  450.98   11.08
   3   4   4  440.33   10.41
   3   4   4  438.76   10.94
   3   4   4  439.97   11.17
  -4  -4  -4  648.85   15.13
   4   4   4  650.17   15.52
   4   4   4  643.05   15.71
   4   4   4  626.55   14.62
   4   4   4  636.33   15.33
  -5  -4  -4   13.06    1.77
   5   4   4   14.29    1.23
   5   4   4   13.49    2.01
   5   4   4   16.05    1.97
   5   4   4   15.34    1.98
   5   4   4   15.30    1.60
  -6  -4  -4   17.04    2.20
   6   4   4   14.41    1.83
   6   4   4   15.88    1.43
   6   4   4   12.23    2.23
   6   4   4   15.17    2.15
   6   4   4   13.73    2.01
  -7  -4  -4   72.50    4.34
   7   4   4   61.78    4.26
   7   4   4   64.92    4.66
   7   4   4   72.19    3.89
  -8  -4  -4    2.05    1.87
   8   4   4    2.45    1.76
   8   4   4    2.15    2.00
   8   4   4    1.43    1.36
   9   4   4    6.88    2.51
   9   4   4    5.44    2.16
   9   4   4    6.55    1.79
  10   4   4   -0.61    1.83
  10   4   4    0.34    1.38
   8  -5  -4    8.98    2.83
  -8   5   4    9.88    3.13
  -8   5   4    9.64    2.32
   7  -5  -4   13.90    2.83
  -7   5   4   18.29    3.37
  -7   5   4   16.03    2.52
   6  -5  -4    1.69    1.64
  -6   5   4    0.28    1.32
  -6   5   4    0.76    1.78
  -6   5   4    1.64    2.03
   5  -5  -4    8.22    2.07
  -5   5   4    8.93    2.27
  -5   5   4    9.16    2.22
  -5   5   4    5.85    1.55
  -5   5   4    7.59    2.02
   4  -5  -4  131.05    5.51
  -4   5   4  125.90    5.72
  -4   5   4  129.51    4.71
  -4   5   4  126.54    5.67
  -4   5   4  132.69    5.47
   3  -5  -4  192.53    6.45
  -3   5   4  196.67    6.37
  -3   5   4  186.88    5.40
  -3   5   4  189.46    6.71
  -3   5   4  194.73    7.17
  -3   5   4  189.16    6.50
  -3   5   4  194.74    5.53
   2  -5  -4   20.10    1.95
  -2   5   4   24.81    2.13
  -2   5   4   21.52    1.38
  -2   5   4   22.14    1.36
  -2   5   4   22.50    2.22
  -2   5   4   24.34    2.67
  -2   5   4   23.67    2.14
   1  -5  -4  409.80   10.47
  -1   5   4  420.31   10.83
  -1   5   4  416.57   10.78
  -1   5   4  421.91   10.18
  -1   5   4  439.65   11.41
  -1   5   4  430.47   10.05
   0   5   4   23.87    2.24
   0   5   4   21.53    1.15
   0   5   4   22.48    1.75
   0   5   4   21.89    1.80
   1   5   4   72.44    3.13
   1   5   4   80.09    2.98
   1   5   4   73.63    2.96
   2   5   4   46.88    2.30
   2   5   4   43.35    2.22
   3   5   4   53.39    2.56
   3   5   4   50.25    2.67
   3   5   4   56.30    2.66
  -4  -5  -4   84.11    3.44
   4   5   4   80.30    3.56
   4   5   4   90.74    3.89
   4   5   4   83.36    3.53
  -5  -5  -4  411.40   10.97
   5   5   4  434.18   11.41
   5   5   4  433.90   11.78
   5   5   4  422.77   11.24
   6   5   4   26.04    1.80
   6   5   4   30.61    2.86
   6   5   4   23.86    2.87
   6   5   4   24.24    2.57
   7   5   4  343.57   10.54
   7   5   4  315.72   10.78
   7   5   4  344.83   10.37
   7   5   4  321.43    8.83
   8   5   4   29.55    3.73
   8   5   4   28.15    3.27
   8   5   4   28.38    2.50
   9   5   4    2.84    1.84
   9   5   4    2.64    1.30
   9   5   4    3.31    2.10
  10   5   4   39.49    3.32
  10   5   4   34.34    4.36
  10   5   4   40.74    4.28
   7  -6  -4    4.92    2.18
  -7   6   4   -0.41    1.45
  -7   6   4    1.72    2.19
   6  -6  -4   11.58    2.61
  -6   6   4   12.09    1.99
  -6   6   4    8.25    2.53
  -6   6   4   12.74    2.77
   5  -6  -4    0.14    1.65
  -5   6   4    0.34    1.21
  -5   6   4    0.60    1.50
  -5   6   4    3.10    1.96
  -5   6   4    2.28    1.72
   4  -6  -4   75.31    4.42
  -4   6   4   81.69    4.28
  -4   6   4   77.06    3.05
  -4   6   4   75.16    4.59
  -4   6   4   75.45    4.06
   3  -6  -4   32.13    2.77
  -3   6   4   33.38    3.04
  -3   6   4   36.30    3.62
  -3   6   4   34.46    2.58
  -3   6   4   33.87    2.60
   2  -6  -4   66.24    3.39
  -2   6   4   71.49    4.10
  -2   6   4   74.02    2.93
  -2   6   4   66.61    3.63
  -2   6   4   72.33    2.85
   1  -6  -4  144.70    4.78
  -1   6   4  142.94    5.04
  -1   6   4  146.90    5.50
   0   6   4   56.23    2.78
   0   6   4   61.01    3.35
   0   6   4   58.66    2.86
   1   6   4   79.85    3.11
   1   6   4   75.32    3.10
   1   6   4   75.08    3.31
   2   6   4  586.80   13.66
   2   6   4  583.65   13.84
   2   6   4  585.46   13.81
   3   6   4    0.53    0.81
   3   6   4    3.28    0.97
   3   6   4   -0.17    0.79
   4   6   4  124.95    4.72
   4   6   4  120.72    4.37
   4   6   4  123.15    4.49
   5   6   4  112.60    4.56
   5   6   4  119.05    4.73
   5   6   4  118.58    5.09
   6   6   4    2.56    1.40
   6   6   4    3.20    1.65
   6   6   4    2.93    1.34
   7   6   4   85.68    4.69
   7   6   4   91.43    5.20
   7   6   4   84.44    4.56
   8   6   4    1.95    1.55
   8   6   4    1.80    1.75
   9   6   4    0.28    1.54
   9   6   4    0.22    1.85
  -7   7   4   12.86    1.94
  -7   7   4   12.28    2.84
  -7   7   4   12.61    4.02
  -6   7   4   27.58    3.28
  -6   7   4   22.70    3.67
  -6   7   4   28.65    4.47
  -5   7   4   -0.20    1.32
  -5   7   4   -1.50    1.63
  -5   7   4    0.88    1.48
  -4   7   4    3.50    1.44
  -4   7   4    2.46    1.80
  -4   7   4    1.39    1.22
  -3   7   4  101.53    5.15
  -3   7   4  105.45    3.59
  -3   7   4  106.50    3.61
  -2   7   4    0.58    1.48
  -2   7   4    0.57    1.27
  -1   7   4  168.70    5.65
  -1   7   4  154.02    5.98
   0   7   4   26.49    2.51
   0   7   4   22.81    1.98
   0   7   4   19.29    1.88
   1   7   4   21.81    1.80
   1   7   4   28.06    2.44
   1   7   4   21.24    1.82
   2   7   4    9.01    1.39
   2   7   4   11.67    1.34
   2   7   4   10.06    1.34
   3   7   4    0.78    0.82
   3   7   4    0.48    0.85
   3   7   4    0.84    0.81
   4   7   4   23.32    2.25
   4   7   4   23.41    2.07
   4   7   4   26.49    2.08
   5   7   4   15.59    1.93
   5   7   4   11.74    1.95
   5   7   4   15.49    1.90
   6   7   4   53.00    3.70
   6   7   4   53.27    3.25
   6   7   4   50.83    3.33
   7   7   4    4.91    1.85
   7   7   4    4.12    1.58
   7   7   4    6.33    1.60
   8   7   4   38.76    3.52
   8   7   4   36.33    3.92
   9   7   4   -0.47    1.78
   9   7   4   -0.41    1.75
  -6   8   4    3.92    1.62
  -6   8   4   10.01    2.88
  -6   8   4    6.28    1.81
  -5   8   4   30.98    2.55
  -5   8   4   31.83    2.51
  -5   8   4   27.00    3.73
  -4   8   4    2.74    1.88
  -3   8   4   12.20    2.29
  -2   8   4   -2.46    0.99
  -2   8   4   -0.71    1.41
  -1   8   4   33.45    2.73
  -1   8   4   33.12    3.17
   0   8   4  304.39    8.40
   0   8   4  296.59    8.52
   0   8   4  313.39    9.02
   1   8   4  269.22    7.38
   1   8   4  285.00    8.07
   1   8   4  265.23    7.55
   2   8   4  144.16    5.00
   2   8   4  144.38    4.56
   2   8   4  144.27    4.81
   3   8   4 1237.02   27.02
   3   8   4 1244.99   27.47
   3   8   4 1246.81   27.18
   4   8   4   -2.38    0.84
   4   8   4   -1.94    0.97
   4   8   4   -1.81    0.80
   5   8   4   64.71    3.19
   5   8   4   60.83    3.52
   5   8   4   67.82    3.11
   6   8   4    9.86    1.60
   6   8   4    7.32    1.38
   6   8   4    7.02    1.69
   7   8   4    0.58    1.10
   7   8   4    0.81    1.43
   7   8   4    1.54    1.31
   8   8   4   15.04    2.71
   8   8   4   12.50    2.26
   8   8   4   16.00    2.40
  -5   9   4   -1.05    1.92
  -4   9   4   29.90    3.59
  -3   9   4   13.41    2.52
  -2   9   4    9.46    2.04
  -1   9   4   63.84    3.67
  -1   9   4   65.72    4.37
   0   9   4   53.12    3.02
   0   9   4   57.27    3.73
   1   9   4  103.55    3.84
   1   9   4  109.71    4.67
   1   9   4  103.68    4.13
   2   9   4  100.61    4.19
   2   9   4  110.52    3.68
   2   9   4  110.41    4.10
   2   9   4  111.79    3.74
   3   9   4   36.03    2.59
   3   9   4   32.64    2.00
   3   9   4   35.29    2.01
   3   9   4   30.98    2.35
   4   9   4    2.46    0.90
   4   9   4    1.07    0.99
   4   9   4    1.24    0.77
   5   9   4    3.64    0.98
   5   9   4    5.24    1.41
   5   9   4    3.71    1.12
   6   9   4    1.50    1.12
   6   9   4    2.98    1.39
   6   9   4    3.36    1.09
   7   9   4    0.26    1.08
   7   9   4    0.72    1.14
   7   9   4    0.20    1.40
   8   9   4   18.01    2.46
   8   9   4   13.66    2.08
   8   9   4   14.33    2.58
  -3  10   4   14.00    2.53
  -2  10   4  168.61    6.65
  -1  10   4   10.13    1.88
   0  10   4   86.04    3.77
   0  10   4   88.21    4.82
   1  10   4   58.81    3.86
   1  10   4   59.77    3.19
   1  10   4   50.16    2.66
   2  10   4   19.79    2.08
   2  10   4   24.13    1.57
   2  10   4   23.44    1.61
   2  10   4   19.98    1.95
   3  10   4  114.69    4.35
   3  10   4  119.07    4.60
   4  10   4    1.83    1.06
   5  10   4    0.77    0.70
   5  10   4   -1.07    0.68
   5  10   4    0.22    1.06
   6  10   4   18.20    1.76
   6  10   4   16.73    2.29
   6  10   4   14.60    1.53
   7  10   4    5.98    1.40
  -1  11   4    0.82    1.36
   0  11   4   -1.33    1.65
   0  11   4   -1.40    1.00
   1  11   4    4.79    0.93
   1  11   4    6.46    1.86
   2  11   4   10.00    1.76
   2  11   4    7.57    1.42
   3  11   4   66.73    3.29
   3  11   4   69.97    3.61
   4  11   4    0.83    1.10
   5  11   4   19.90    2.17
   4  10  -5    0.13    1.40
   3  10  -5    8.32    3.41
   3  10  -5    9.52    1.72
   2  10  -5   28.22    4.89
   2  10  -5   29.67    2.82
   1  10  -5   81.18    4.48
   1  10  -5   84.61    3.69
   1  10  -5   82.32    7.12
   0  10  -5    0.78    1.38
   0  10  -5    2.79    3.04
  -1  10  -5  158.47    9.61
  -1  10  -5  143.76    6.18
   6   9  -5    7.53    2.42
   5   9  -5   22.16    2.24
   5   9  -5   24.21    2.11
   5   9  -5   15.98    3.71
   5   9  -5   25.73    3.13
   4   9  -5    0.44    1.32
   4   9  -5   -0.70    0.92
   4   9  -5    0.58    1.42
   4   9  -5    1.59    2.50
   4   9  -5    0.53    1.20
   3   9  -5   87.13    4.23
   3   9  -5   86.21    3.48
   3   9  -5   90.34    6.65
   2   9  -5    6.06    1.56
   2   9  -5    9.84    1.48
   2   9  -5    6.63    2.99
   1   9  -5   36.79    5.11
   1   9  -5   41.13    2.77
   1   9  -5   37.05    3.06
   0   9  -5   47.38    5.72
   0   9  -5   42.77    3.45
   0   9  -5   45.66    3.26
  -1   9  -5    2.03    1.48
  -1   9  -5    8.49    3.29
  -2   9  -5   11.62    2.35
  -2   9  -5   13.90    3.98
  -3   9  -5    0.42    2.61
   7   8  -5   26.31    3.14
   7   8  -5   27.61    3.80
   7   8  -5   31.39    3.05
   6   8  -5    5.68    2.33
   6   8  -5    7.68    1.62
   6   8  -5    3.87    2.56
   6   8  -5   10.17    2.07
   5   8  -5    5.70    1.69
   5   8  -5    4.93    1.35
   5   8  -5    5.36    2.68
   5   8  -5    7.28    2.15
   4   8  -5   63.82    5.56
   4   8  -5   60.88    4.03
   4   8  -5   59.23    3.67
   4   8  -5   62.33    3.31
   3   8  -5  144.63    7.80
   3   8  -5  143.09    4.98
   3   8  -5  153.10    5.46
   2   8  -5    0.33    1.06
   2   8  -5   -0.93    1.03
   2   8  -5    3.20    2.23
   1   8  -5  199.53    6.28
   1   8  -5  196.43    9.22
   1   8  -5  197.13    6.54
   0   8  -5   22.20    3.70
   0   8  -5   17.37    2.22
   0   8  -5   15.11    2.04
  -1   8  -5   55.97    3.79
  -1   8  -5   63.68    5.71
  -1   8  -5   63.31    3.96
  -2   8  -5    0.67    1.59
  -2   8  -5   -1.09    2.25
  -3   8  -5   -1.54    2.15
  -3   8  -5    2.42    2.29
  -4   8  -5    1.76    2.31
  -5   8  -5    1.20    2.77
  -5   8  -5    3.54    2.29
   7   7  -5   33.07    3.30
   7   7  -5   29.65    3.87
   7   7  -5   33.40    3.60
   6   7  -5    2.32    1.41
   6   7  -5    1.73    2.01
   6   7  -5    2.30    1.59
   6   7  -5    3.93    2.34
   5   7  -5   60.28    3.49
   5   7  -5   61.66    5.12
   5   7  -5   48.03    3.91
   5   7  -5   59.98    4.44
   4   7  -5   30.11    3.08
   4   7  -5   30.43    3.16
   4   7  -5   33.32    2.72
   4   7  -5   42.64    4.64
   3   7  -5    2.34    1.17
   3   7  -5    3.89    1.26
   3   7  -5    2.99    2.28
   2   7  -5   -1.18    0.86
   2   7  -5    1.04    1.80
   2   7  -5   -1.03    0.88
   1   7  -5   -0.44    1.60
   1   7  -5    1.06    0.98
   1   7  -5    1.27    1.04
   0   7  -5   21.53    2.14
   0   7  -5   25.40    2.41
   0   7  -5   27.01    3.87
  -1   7  -5    7.46    2.74
  -1   7  -5    7.08    1.62
  -1   7  -5    7.83    1.58
  -2   7  -5   48.20    5.32
  -2   7  -5   58.77    3.97
  -3   7  -5   -0.86    2.04
  -3   7  -5   -1.24    1.45
  -4   7  -5   41.93    5.05
  -5   7  -5   38.38    4.00
  -5   7  -5   20.54    2.27
  -5   7  -5   29.16    4.39
  -5   7  -5   30.40    2.55
  -6   7  -5    4.67    2.70
  -6   7  -5   -0.60    1.51
  -6   7  -5   -1.97    2.15
  -6   7  -5    0.26    1.63
   8   6  -5    5.71    2.35
   8   6  -5   10.36    3.16
   7   6  -5   18.47    3.29
   7   6  -5   18.56    2.85
   6   6  -5   11.28    2.68
   6   6  -5    5.75    1.99
   6   6  -5   14.02    2.72
   6   6  -5   10.48    1.94
   5   6  -5   55.69    4.13
   5   6  -5   57.14    4.68
   5   6  -5   60.21    3.59
   5   6  -5   59.53    4.44
   4   6  -5   69.51    3.54
   4   6  -5   71.48    4.32
   4   6  -5   71.30    4.72
   3   6  -5  296.92   10.33
   3   6  -5  295.15    8.43
   3   6  -5  299.69    8.29
   2   6  -5    0.42    0.90
   2   6  -5   -1.29    0.84
   2   6  -5    1.33    1.59
   1   6  -5   13.76    1.68
   1   6  -5   17.21    2.84
   1   6  -5   14.53    1.67
   0   6  -5    7.35    2.16
   0   6  -5    9.91    1.53
   0   6  -5    9.69    1.49
  -1   6  -5   32.08    2.67
  -1   6  -5   31.05    3.90
  -1   6  -5   29.29    2.53
  -2   6  -5   48.57    3.48
  -2   6  -5   43.80    4.64
  -2   6  -5   46.98    3.44
  -3   6  -5    5.43    1.33
  -3   6  -5    5.77    2.40
  -3   6  -5    6.99    1.98
  -3   6  -5    4.18    1.29
  -4   6  -5   30.68    2.90
  -4   6  -5   33.94    4.30
  -4   6  -5   30.97    2.67
  -4   6  -5   28.49    3.22
  -5   6  -5   57.43    3.76
  -5   6  -5   60.57    4.23
  -5   6  -5   64.44    4.95
  -5   6  -5   46.67    5.10
  -6   6  -5    2.79    2.04
  -6   6  -5    0.29    2.03
  -6   6  -5    1.91    1.23
  -6   6  -5    0.48    2.28
  -6   6  -5    1.85    2.29
  -7   6  -5   23.39    2.36
  -7   6  -5   21.05    3.96
  -7   6  -5   26.72    3.70
  -7   6  -5   19.36    3.43
   9   5  -5   34.83    5.08
   8   5  -5   26.04    4.25
   8   5  -5   31.83    3.95
   7   5  -5   20.38    3.15
   7   5  -5   30.09    4.13
   6   5  -5   42.46    3.52
   6   5  -5   40.30    3.71
   6   5  -5   42.85    4.33
   6   5  -5   41.56    3.30
   5   5  -5   19.67    3.15
   5   5  -5   21.89    2.87
   5   5  -5   18.11    2.19
   5   5  -5   20.19    2.76
   4   5  -5   27.09    2.50
   4   5  -5   31.15    3.30
   4   5  -5   29.22    3.18
   3   5  -5  108.16    4.95
   3   5  -5  100.61    4.03
   3   5  -5  105.46    5.22
   2   5  -5   41.78    2.46
   2   5  -5   38.43    3.37
   2   5  -5   40.94    2.51
   1   5  -5   14.19    1.58
   1   5  -5   12.82    2.35
   1   5  -5   14.41    1.61
   0   5  -5    1.14    0.90
   0   5  -5    1.03    0.82
   0   5  -5   -0.89    1.28
  -1   5  -5    2.17    1.09
  -1   5  -5    0.16    1.65
  -1   5  -5    2.07    1.05
  -2   5  -5  105.30    3.85
  -2   5  -5  112.64    4.85
  -2   5  -5  105.96    3.96
  -2   5  -5  106.14    4.73
  -2   5  -5  105.29    5.74
  -3   5  -5   11.69    1.82
  -3   5  -5   12.91    2.24
  -3   5  -5   14.28    2.86
  -3   5  -5   16.25    2.04
  -4   5  -5    5.19    1.66
  -4   5  -5    8.41    1.34
  -4   5  -5    5.48    1.45
  -4   5  -5    2.50    1.72
  -4   5  -5    7.63    2.42
  -5   5  -5    1.60    1.53
  -5   5  -5    2.65    1.58
  -5   5  -5    3.45    2.11
  -5   5  -5   -0.44    1.77
  -5   5  -5    1.89    1.25
  -6   5  -5    4.39    2.30
  -6   5  -5    1.13    1.45
  -6   5  -5    6.83    2.30
  -6   5  -5    4.10    2.36
  -7   5  -5   11.46    2.91
  -7   5  -5    9.64    2.00
  -7   5  -5   11.96    2.99
  -7   5  -5    7.51    3.05
  -8   5  -5   12.92    2.46
  -8   5  -5   17.78    3.63
   9   4  -5   28.79    3.06
   9   4  -5   25.89    2.83
   9   4  -5   24.23    4.35
   9   4  -5   29.50    4.24
   8   4  -5    1.72    1.48
   8   4  -5    2.93    1.42
   8   4  -5    4.00    2.79
   8   4  -5    2.64    2.26
   7   4  -5   -3.49    1.70
   7   4  -5   -1.80    1.05
   7   4  -5   -2.31    1.16
   7   4  -5   -4.72    2.17
   6   4  -5    2.35    1.53
   6   4  -5    4.05    1.26
   6   4  -5    3.66    1.34
   6   4  -5    4.57    2.44
   6   4  -5    1.10    1.78
   6   4  -5    5.25    1.60
   5   4  -5   33.95    2.28
   5   4  -5   30.07    2.71
   5   4  -5   31.58    3.30
   5   4  -5   34.34    3.84
   5   4  -5   35.95    2.89
   5   4  -5   30.59    2.21
   4   4  -5   26.79    2.35
   4   4  -5   23.24    1.75
   4   4  -5   30.15    2.68
   4   4  -5   28.15    3.06
   4   4  -5   21.20    1.72
  -4  -4   5   23.55    2.27
   3   4  -5  119.67    5.11
   3   4  -5  114.32    5.12
   3   4  -5  116.75    4.37
   3   4  -5  112.71    3.48
   3   4  -5  117.09    3.41
   2   4  -5    0.64    0.82
   2   4  -5    0.87    0.57
   2   4  -5    1.66    1.23
   2   4  -5    1.02    0.86
   1   4  -5   60.37    2.22
   1   4  -5   65.37    3.06
   1   4  -5   67.91    3.88
   1   4  -5   64.92    3.03
   1   4  -5   61.79    2.30
   0   4  -5  344.33    8.56
   0   4  -5  353.20    9.42
   0   4  -5  357.26    9.38
   0   4  -5  349.47    8.57
   0   4  -5  362.07   10.74
  -1   4  -5  941.03   23.03
  -1   4  -5  936.11   20.97
  -1   4  -5  933.90   21.61
  -1   4  -5  946.06   20.97
  -1   4  -5  909.79   21.63
  -2   4  -5  570.34   15.43
  -2   4  -5  567.60   12.66
  -2   4  -5  555.55   14.30
  -2   4  -5  558.92   12.60
  -2   4  -5  569.20   13.81
  -2   4  -5  543.10   14.36
  -2   4  -5  563.41   13.84
  -3   4  -5  297.90    9.91
  -3   4  -5  315.95    8.91
  -3   4  -5  299.03    9.27
  -3   4  -5  297.52    7.74
  -3   4  -5  300.53    8.85
  -3   4  -5  281.23    9.22
  -4   4  -5    8.01    2.09
  -4   4  -5    5.64    1.83
  -4   4  -5    8.93    1.54
  -4   4  -5    7.02    2.05
  -4   4  -5    6.90    1.84
  -4   4  -5    6.47    1.67
  -5   4  -5   -0.33    1.50
  -5   4  -5    0.73    1.23
  -5   4  -5    0.28    1.59
  -5   4  -5   -0.61    1.50
  -5   4  -5   -0.31    1.32
  -6   4  -5   11.76    2.67
  -6   4  -5   13.61    2.62
  -6   4  -5   12.02    2.74
  -6   4  -5   15.37    2.22
  -7   4  -5   -1.33    1.84
  -7   4  -5    0.43    1.95
  -7   4  -5    0.08    1.41
  -8   4  -5   27.71    3.77
  -8   4  -5   34.69    4.28
  -8   4  -5   30.12    3.29
   9   3  -5   18.72    3.62
   9   3  -5   18.12    6.43
   9   3  -5   19.04    3.06
   8   3  -5   82.59    6.95
   8   3  -5   89.11    5.18
   8   3  -5   87.17    6.24
   7   3  -5   33.49    3.22
   7   3  -5   25.42    3.55
   7   3  -5   33.70    4.48
   7   3  -5   33.79    3.15
  -7  -3   5   33.29    3.80
   6   3  -5   15.63    2.73
   6   3  -5   15.38    3.18
   6   3  -5   18.56    2.40
   6   3  -5   15.95    2.18
  -6  -3   5   14.19    2.48
   5   3  -5   38.57    2.01
   5   3  -5   34.73    2.74
   5   3  -5   41.50    2.66
   5   3  -5   37.41    2.99
   5   3  -5   40.75    4.13
   5   3  -5   35.58    2.79
   5   3  -5   44.33    3.79
  -5  -3   5   36.76    3.11
   4   3  -5    1.86    1.01
   4   3  -5    2.59    1.91
   4   3  -5    1.98    1.01
   4   3  -5    2.44    1.20
   4   3  -5    2.43    1.02
   4   3  -5    1.09    0.63
  -4  -3   5    1.13    1.09
   3   3  -5  376.42    9.58
   3   3  -5  390.58   10.97
   3   3  -5  368.67   10.00
   3   3  -5  379.22    8.70
   3   3  -5  376.85   10.47
   3   3  -5  379.66    9.83
   2   3  -5  525.03   11.50
   2   3  -5  538.38   12.85
   2   3  -5  531.24   13.00
   2   3  -5  512.16   12.49
   2   3  -5  523.47   12.38
   2   3  -5  504.65   13.42
   1   3  -5 1270.21   27.50
   1   3  -5 1248.06   27.59
   1   3  -5 1300.32   28.06
   1   3  -5 1240.94   27.82
   1   3  -5 1263.06   26.60
   1   3  -5 1240.87   28.78
   0   3  -5   -0.31    0.80
   0   3  -5   -0.57    0.96
   0   3  -5   -1.33    0.78
   0   3  -5   -0.29    0.91
   0   3  -5    0.30    0.57
   0   3  -5   -1.74    0.58
   0   3  -5    0.59    1.11
  -1   3  -5  166.10    5.31
  -1   3  -5  158.55    5.39
  -1   3  -5  157.06    4.57
  -1   3  -5  159.15    5.46
  -1   3  -5  162.40    4.53
  -1   3  -5  164.78    5.33
  -1   3  -5  163.59    6.11
  -2   3  -5  137.00    5.14
  -2   3  -5  137.80    5.11
  -2   3  -5  134.93    5.63
  -2   3  -5  138.05    4.37
  -2   3  -5  130.21    4.94
  -2   3  -5  134.21    5.14
  -2   3  -5  135.18    4.38
  -3   3  -5   92.91    3.69
  -3   3  -5   86.78    4.16
  -3   3  -5   90.79    4.63
  -3   3  -5   84.41    4.22
  -3   3  -5   92.13    4.31
  -4   3  -5   17.94    2.07
  -4   3  -5   17.21    2.43
  -4   3  -5   18.77    2.44
  -4   3  -5   18.44    2.57
  -4   3  -5   18.80    2.37
  -4   3  -5   16.21    2.33
  -5   3  -5    0.70    1.33
  -5   3  -5   -0.03    1.34
  -5   3  -5   -0.47    1.14
  -5   3  -5    1.01    1.53
  -5   3  -5    0.61    1.43
  -6   3  -5   83.63    5.17
  -6   3  -5   78.94    4.89
  -6   3  -5   91.41    4.49
  -6   3  -5   88.82    5.22
  -7   3  -5    0.23    1.58
  -7   3  -5    1.46    1.83
  -7   3  -5    0.04    1.85
  -8   3  -5   36.34    4.10
  -8   3  -5   44.20    3.92
  -8   3  -5   39.45    4.21
  -9   3  -5    1.98    2.65
  -9   3  -5   -2.39    1.56
   9   2  -5   16.89    3.25
  -9  -2   5   22.70    4.14
   8   2  -5   52.63    5.14
   8   2  -5   56.01    4.60
   8   2  -5   50.32    5.33
  -8  -2   5   59.97    5.24
   7   2  -5    2.99    1.24
   7   2  -5    1.55    2.35
   7   2  -5   -0.17    1.49
   7   2  -5    1.17    1.98
  -7  -2   5    0.52    1.97
   6   2  -5   41.54    2.71
   6   2  -5   37.53    3.75
   6   2  -5   42.02    3.54
   6   2  -5   44.34    4.60
  -6  -2   5   48.89    4.10
   5   2  -5   -0.38    1.10
   5   2  -5   -0.38    0.80
   5   2  -5    1.73    1.21
   5   2  -5    0.95    0.79
   5   2  -5    0.95    1.46
   5   2  -5    2.41    2.36
   5   2  -5    0.47    1.05
  -5  -2   5    1.15    1.28
   4   2  -5    1.59    0.99
   4   2  -5    2.21    1.22
   4   2  -5    4.82    2.10
   4   2  -5    2.91    0.88
   4   2  -5    2.31    1.17
   4   2  -5    2.09    0.95
  -4  -2   5    1.66    1.13
   3   2  -5  116.40    4.41
   3   2  -5  118.03    3.91
   3   2  -5  110.07    5.08
   3   2  -5  113.10    4.55
   3   2  -5  115.85    4.27
   3   2  -5  111.23    4.35
  -3  -2   5  115.89    4.40
   2   2  -5  179.81    5.61
   2   2  -5  180.07    5.86
   2   2  -5  181.01    5.68
   2   2  -5  178.27    5.83
   2   2  -5  181.57    5.13
   2   2  -5  186.34    5.85
   2   2  -5  175.21    6.33
   1   2  -5  323.79    8.71
   1   2  -5  322.42    8.03
   1   2  -5  330.63    8.56
   1   2  -5  327.68    9.02
   1   2  -5  319.46    8.56
   1   2  -5  319.76    8.69
   0   2  -5  509.23   11.96
   0   2  -5  488.76   11.33
   0   2  -5  474.71   11.96
   0   2  -5  485.69   11.82
   0   2  -5  447.04   11.86
  -1   2  -5  717.60   17.20
  -1   2  -5  714.43   17.05
  -1   2  -5  717.96   16.48
  -1   2  -5  754.00   17.24
  -1   2  -5  725.54   17.10
  -2   2  -5   51.12    3.02
  -2   2  -5   50.26    2.63
  -2   2  -5   51.64    2.94
   2  -2   5   52.37    3.04
  -3   2  -5  539.80   13.22
  -3   2  -5  545.71   13.99
  -3   2  -5  539.33   13.91
   3  -2   5  526.65   14.02
  -4   2  -5   31.89    3.03
  -4   2  -5   32.85    2.96
  -4   2  -5   32.76    3.06
  -4   2  -5   28.89    2.54
   4  -2   5   30.96    3.09
  -5   2  -5   -1.49    1.15
  -5   2  -5   -0.17    1.37
  -5   2  -5   -0.60    1.22
  -5   2  -5    0.72    1.23
   5  -2   5    0.40    1.34
  -6   2  -5   59.16    4.25
  -6   2  -5   51.39    4.23
  -6   2  -5   62.48    3.80
  -6   2  -5   57.14    4.08
  -7   2  -5    7.07    1.97
  -7   2  -5    6.48    2.41
  -7   2  -5    4.60    1.88
  -8   2  -5   34.04    3.58
  -8   2  -5   39.28    4.40
  -8   2  -5   44.93    3.98
  -9   2  -5    0.33    1.86
   9   1  -5    2.96    2.34
  -9  -1   5    2.04    2.39
   8   1  -5   -0.49    1.23
   8   1  -5   -2.58    1.53
  -8  -1   5   -2.63    1.97
   7   1  -5    0.09    1.13
   7   1  -5   -0.98    1.80
   7   1  -5   -1.15    2.11
   7   1  -5   -3.69    1.28
  -7  -1   5   -1.68    1.65
   6   1  -5   53.57    4.09
   6   1  -5   56.51    4.35
   6   1  -5   49.52    4.53
   6   1  -5   51.63    3.26
  -6  -1   5   53.62    4.15
   5   1  -5   62.83    4.07
   5   1  -5   58.97    3.21
   5   1  -5   64.05    4.18
   5   1  -5   59.73    4.58
   5   1  -5   56.43    2.31
  -5  -1   5   64.23    3.95
   4   1  -5    1.01    0.91
   4   1  -5    2.04    0.81
   4   1  -5    0.73    1.12
   4   1  -5    2.61    1.41
   4   1  -5    2.27    1.10
   4   1  -5    1.93    1.21
   4   1  -5    1.60    2.07
  -4  -1   5    1.42    1.18
   3   1  -5   37.82    2.88
   3   1  -5   35.81    2.06
   3   1  -5   31.00    2.47
   3   1  -5   37.43    2.60
   3   1  -5   33.13    2.25
  -3  -1   5   34.93    2.54
   2   1  -5   67.71    3.33
   2   1  -5   65.02    3.52
   2   1  -5   62.67    3.16
   2   1  -5   62.23    2.93
   2   1  -5   60.80    3.90
  -2  -1   5   65.08    3.18
   1   1  -5   -0.94    1.12
   1   1  -5   -0.57    0.63
   1   1  -5    0.27    0.91
   1   1  -5   -0.56    0.73
   1   1  -5   -1.20    0.61
  -1  -1   5    0.00    0.72
   0   1  -5    8.43    1.44
   0   1  -5    4.78    1.07
   0   1  -5    3.83    0.90
   0  -1   5    5.95    1.13
  -1   1  -5  252.68    7.29
  -1   1  -5  258.34    7.41
  -1   1  -5  251.92    6.92
   1  -1   5  252.87    7.39
  -2   1  -5  158.19    5.11
  -2   1  -5  161.32    5.55
  -2   1  -5  171.72    5.62
   2  -1   5  160.51    5.56
  -3   1  -5    1.83    0.96
  -3   1  -5    1.66    1.06
  -3   1  -5    3.04    1.15
   3  -1   5    0.10    0.83
   3  -1   5    1.57    0.94
   3  -1   5    0.84    0.92
  -4   1  -5  379.77   10.31
  -4   1  -5  386.70   10.99
  -4   1  -5  381.49   10.83
   4  -1   5  385.07   11.03
   4  -1   5  373.18   10.67
   4  -1   5  374.12   10.66
  -5   1  -5   21.60    2.63
  -5   1  -5   18.39    2.19
  -5   1  -5   20.55    2.65
   5  -1   5   21.90    2.56
   5  -1   5   22.34    2.74
   5  -1   5   21.90    2.60
  -6   1  -5   39.96    3.75
  -6   1  -5   28.17    2.87
  -6   1  -5   33.35    3.54
   6  -1   5   36.52    3.69
  -7   1  -5   46.62    4.47
  -7   1  -5   44.92    3.85
   7  -1   5   45.19    4.32
  -8   1  -5    2.88    1.86
  -8   1  -5   -1.19    2.83
  -8   1  -5    0.08    1.87
  -9   1  -5    3.90    2.41
  -9   1  -5    3.23    2.54
   9   0  -5   25.02    4.00
   9   0  -5   22.15    3.10
  -9   0   5   24.04    4.25
   8   0  -5   32.64    4.12
   8   0  -5   33.84    3.41
  -8   0   5   33.71    4.18
   7   0  -5    1.81    1.85
   7   0  -5    1.86    1.41
  -7   0   5   -0.73    1.86
   6   0  -5   -0.24    1.43
   6   0  -5    0.10    1.08
   6   0  -5    1.09    1.65
   6   0  -5    3.80    2.22
  -6   0   5   -1.29    1.51
   5   0  -5  142.97    5.54
   5   0  -5  155.15    6.60
   5   0  -5  148.64    6.36
  -5   0   5  140.57    5.96
   4   0  -5   81.55    2.80
   4   0  -5   79.13    4.42
   4   0  -5   80.30    3.81
   4   0  -5   83.23    4.95
   4   0  -5   80.38    4.36
  -4   0   5   82.94    4.22
  -4   0   5   85.23    4.17
   3   0  -5    3.72    2.00
   3   0  -5    5.75    1.28
   3   0  -5    3.88    1.33
  -3   0   5    3.07    1.22
  -3   0   5    4.14    1.23
   2   0  -5  522.44   13.31
   2   0  -5  494.43   12.18
   2   0  -5  482.92   12.68
   2   0  -5  489.77   12.51
  -2   0   5  495.88   12.62
  -2   0   5  502.23   12.35
   1   0  -5  573.00   14.39
   1   0  -5  605.46   13.97
   1   0  -5  577.04   14.71
  -1   0   5  605.85   14.10
   0   0  -5 1282.96   28.76
   0   0  -5 1308.29   28.31
   0   0   5 1320.24   28.61
   0   0   5 1281.30   28.68
   0   0   5 1281.35   28.46
  -1   0  -5 1416.33   31.60
  -1   0  -5 1413.82   31.06
   1   0   5 1431.29   31.35
   1   0   5 1435.18   31.25
   1   0   5 1441.02   31.56
  -2   0  -5   61.47    3.16
  -2   0  -5   58.42    2.79
   2   0   5   58.93    2.97
   2   0   5   63.48    2.97
   2   0   5   61.15    3.14
  -3   0  -5    1.52    0.91
  -3   0  -5    1.50    1.00
   3   0   5    1.77    0.99
   3   0   5    1.05    0.79
   3   0   5    1.31    0.88
  -4   0  -5   62.92    3.35
  -4   0  -5   63.46    3.67
   4   0   5   65.73    3.53
   4   0   5   63.27    3.60
   4   0   5   66.16    3.60
  -5   0  -5   19.06    2.38
  -5   0  -5   16.30    2.35
  -5   0  -5   17.01    2.12
   5   0   5   19.70    2.40
   5   0   5   19.92    2.51
   5   0   5   16.70    2.30
  -6   0  -5   70.52    4.57
  -6   0  -5   62.48    3.89
   6   0   5   66.73    4.33
   6   0   5   60.34    4.10
   6   0   5   62.09    4.30
  -7   0  -5   57.70    4.29
  -7   0  -5   57.08    4.67
   7   0   5   56.73    4.55
  -8   0  -5    1.16    2.09
   8   0   5   -0.91    1.86
  -9   0  -5   26.90    3.88
   9   0   5   23.16    3.76
   9  -1  -5   -2.29    1.90
   9  -1  -5   -0.30    1.74
  -9   1   5   -3.54    2.33
   8  -1  -5   17.35    3.29
   8  -1  -5   15.75    2.72
  -8   1   5   19.98    3.52
   7  -1  -5    2.20    1.96
   7  -1  -5    4.32    1.84
  -7   1   5    3.35    2.09
   6  -1  -5   -0.64    1.07
   6  -1  -5   -0.73    1.59
  -6   1   5   -2.30    1.47
   5  -1  -5   94.51    5.62
   5  -1  -5  101.74    5.31
   5  -1  -5   90.52    5.18
   5  -1  -5   99.88    4.65
  -5   1   5   95.60    4.86
  -5   1   5   94.37    4.85
   4  -1  -5  404.48   11.56
   4  -1  -5  405.19   10.77
   4  -1  -5  324.79   11.47
   4  -1  -5  413.84   11.60
  -4   1   5  397.65   11.12
  -4   1   5  389.62   10.89
   3  -1  -5   60.37    3.59
   3  -1  -5   60.54    3.17
   3  -1  -5   63.39    4.04
  -3   1   5   55.41    3.19
  -3   1   5   58.25    3.25
   2  -1  -5  778.17   18.79
   2  -1  -5  780.15   19.28
   2  -1  -5  787.15   18.20
  -2   1   5  779.50   18.24
  -2   1   5  789.06   18.40
   1  -1  -5  491.90   12.53
   1  -1  -5  470.99   11.70
   1  -1  -5  487.81   12.44
  -1   1   5  473.59   11.85
  -1   1   5  479.22   12.00
  -1   1   5  475.10   11.73
   0  -1  -5 3564.59   75.91
   0  -1  -5 3574.81   76.42
   0  -1  -5 3786.77   76.76
   0   1   5 3544.06   76.05
   0   1   5 3648.90   76.30
  -1  -1  -5    1.31    0.96
  -1  -1  -5    0.33    0.93
   1   1   5    1.66    0.92
   1   1   5    0.30    0.85
   1   1   5    3.07    1.10
  -2  -1  -5 1712.45   37.27
  -2  -1  -5 1706.95   37.76
   2   1   5 1787.63   38.44
   2   1   5 1707.62   37.71
   2   1   5 1698.59   37.61
   2   1   5 1735.68   37.52
  -3  -1  -5  677.06   16.40
  -3  -1  -5  657.88   15.83
   3   1   5  673.88   16.30
   3   1   5  655.86   16.30
   3   1   5  669.57   16.05
   3   1   5  662.55   16.24
  -4  -1  -5  377.45   10.29
  -4  -1  -5  387.01   10.88
   4   1   5  380.83   10.85
   4   1   5  381.60   10.78
   4   1   5  392.43   10.81
   4   1   5  381.27   10.54
  -5  -1  -5   10.56    1.76
  -5  -1  -5    8.07    1.83
  -5  -1  -5   12.95    2.04
   5   1   5    6.01    1.60
   5   1   5   11.34    1.88
   5   1   5    9.76    1.83
   5   1   5    9.76    1.86
  -6  -1  -5   68.63    4.58
  -6  -1  -5   74.92    4.35
   6   1   5   74.07    4.46
   6   1   5   79.60    6.77
   6   1   5   66.53    4.26
   6   1   5   73.18    4.55
  -7  -1  -5  215.73    8.12
   7   1   5  220.99    8.69
   7   1   5  216.48    8.43
   7   1   5  212.95    8.22
  -8  -1  -5   27.91    3.49
   8   1   5   22.14    3.24
  -9  -1  -5   58.48    5.26
   9   1   5   53.91    5.15
 -10  -1  -5   22.93    3.95
  10   1   5   20.89    3.62
   9  -2  -5   23.65    3.73
  -9   2   5   26.10    4.26
   8  -2  -5   -0.92    1.83
  -8   2   5   -2.28    1.91
   7  -2  -5   19.87    4.28
   7  -2  -5   16.72    2.66
  -7   2   5   15.65    3.29
  -7   2   5   24.21    3.43
   6  -2  -5   28.44    3.08
   6  -2  -5   21.42    3.20
  -6   2   5   25.42    3.04
   5  -2  -5   42.92    3.43
   5  -2  -5   43.76    3.96
  -5   2   5   44.26    3.57
  -5   2   5   38.60    3.45
   4  -2  -5  109.74    5.33
   4  -2  -5  105.31    4.72
   4  -2  -5  111.21    5.31
   4  -2  -5  119.53    5.78
  -4   2   5  109.31    4.84
  -4   2   5   96.41    4.84
   3  -2  -5   42.46    2.76
   3  -2  -5   35.60    3.52
   3  -2  -5   38.65    3.06
  -3   2   5   44.15    3.60
  -3   2   5   39.63    2.78
  -3   2   5   41.68    2.84
   2  -2  -5  151.79    5.86
   2  -2  -5  154.56    5.14
   2  -2  -5  157.01    5.66
  -2   2   5  145.33    5.07
  -2   2   5  150.40    5.25
  -2   2   5  151.55    5.39
   1  -2  -5   37.07    2.26
   1  -2  -5   42.68    2.64
  -1   2   5   40.26    2.34
  -1   2   5   42.05    2.42
  -1   2   5   38.41    2.49
  -1   2   5   41.22    2.50
   0  -2  -5  623.03   14.55
   0  -2  -5  607.69   14.95
   0   2   5  615.51   14.80
   0   2   5  614.94   14.43
   0   2   5  616.84   14.64
   0   2   5  632.07   14.86
  -1  -2  -5 1698.57   36.24
   1   2   5 1681.13   36.55
   1   2   5 1700.02   36.59
   1   2   5 1636.04   36.27
  -2  -2  -5  932.63   21.07
  -2  -2  -5  932.38   21.53
   2   2   5  941.24   21.27
   2   2   5  924.62   21.41
   2   2   5  942.43   21.49
   2   2   5  939.94   21.39
  -3  -2  -5  166.08    5.86
  -3  -2  -5  171.81    5.49
   3   2   5  170.66    5.78
   3   2   5  177.46    5.78
   3   2   5  176.31    5.83
   3   2   5  188.59    6.72
   3   2   5  176.37    5.68
  -4  -2  -5  213.84    6.72
  -4  -2  -5  220.90    7.25
   4   2   5  222.47    7.16
   4   2   5  214.83    7.89
   4   2   5  214.35    7.15
   4   2   5  226.57    7.01
   4   2   5  214.86    6.96
  -5  -2  -5   21.70    2.39
  -5  -2  -5   22.13    2.38
   5   2   5   13.41    1.99
   5   2   5   17.36    2.37
   5   2   5   19.56    2.35
   5   2   5   21.46    2.38
  -6  -2  -5    3.03    1.53
   6   2   5    6.76    1.85
   6   2   5    4.27    1.69
   6   2   5    3.96    1.65
   6   2   5    5.47    1.72
  -7  -2  -5  121.17    5.83
   7   2   5  110.12    5.76
   7   2   5  122.96    5.90
   7   2   5  116.70    6.26
  -8  -2  -5   11.48    2.68
   8   2   5    9.42    2.37
   8   2   5    8.23    2.68
   8   2   5   13.02    2.68
  -9  -2  -5    1.93    2.33
   9   2   5   -0.68    1.73
 -10  -2  -5   32.86    4.23
  10   2   5   28.73    3.94
  -9   3   5    3.58    2.37
   8  -3  -5   -1.31    1.98
  -8   3   5   -0.90    2.49
  -8   3   5    2.13    2.21
   7  -3  -5   12.46    2.60
  -7   3   5    8.58    2.38
  -7   3   5   16.33    3.38
   6  -3  -5   22.36    2.89
  -6   3   5   22.96    3.02
  -6   3   5   23.64    3.48
   5  -3  -5   11.11    2.13
   5  -3  -5   12.15    2.61
  -5   3   5   13.35    2.24
  -5   3   5   10.96    2.24
   4  -3  -5   18.37    2.38
   4  -3  -5   16.58    2.53
  -4   3   5   18.36    2.34
  -4   3   5   15.49    2.24
  -4   3   5   16.97    2.28
   3  -3  -5   -0.04    1.05
   3  -3  -5    0.50    0.94
  -3   3   5    0.82    1.02
  -3   3   5    0.79    1.05
  -3   3   5   -1.02    0.96
   2  -3  -5  228.59    7.43
   2  -3  -5  230.33    6.95
  -2   3   5  235.69    7.25
  -2   3   5  230.06    7.13
  -2   3   5  232.50    6.81
   1  -3  -5   25.39    2.24
   1  -3  -5   29.29    2.03
  -1   3   5   25.87    2.07
  -1   3   5   22.15    2.06
  -1   3   5   24.20    1.98
  -1   3   5   25.60    1.95
   0  -3  -5 1304.90   28.74
   0   3   5 1329.54   28.88
   0   3   5 1314.67   28.41
   0   3   5 1284.48   29.35
   0   3   5 1309.27   29.05
   0   3   5 1316.44   28.90
  -1  -3  -5  264.80    7.12
   1   3   5  254.87    7.36
   1   3   5  256.85    7.21
   1   3   5  258.24    6.78
   1   3   5  268.68    7.32
  -2  -3  -5  631.03   14.79
   2   3   5  641.12   14.46
   2   3   5  653.06   15.10
   2   3   5  567.78   15.08
   2   3   5  655.60   15.30
   2   3   5  651.06   15.03
  -3  -3  -5    5.57    1.13
   3   3   5    5.81    1.13
   3   3   5    8.27    1.34
   3   3   5    6.83    1.58
   3   3   5    7.07    1.23
   3   3   5    7.72    1.25
   3   3   5    8.84    1.29
  -4  -3  -5  146.78    5.20
   4   3   5  144.45    5.20
   4   3   5  148.93    5.38
   4   3   5  142.73    5.50
   4   3   5  148.99    5.48
   4   3   5  147.81    5.32
  -5  -3  -5  333.94    9.59
   5   3   5  334.49    9.89
   5   3   5  354.89   10.09
   5   3   5  333.04    9.65
   5   3   5  340.50   10.27
   5   3   5  344.67    9.92
  -6  -3  -5    2.82    1.64
   6   3   5    6.64    1.85
   6   3   5    3.20    1.55
   6   3   5    1.87    1.69
   6   3   5    1.59    1.34
   6   3   5    2.26    1.61
  -7  -3  -5  145.90    6.33
   7   3   5  137.55    6.73
   7   3   5  132.24    6.03
   7   3   5  140.04    6.41
  -8  -3  -5    0.74    1.86
   8   3   5    1.82    2.05
   8   3   5    0.78    1.54
   8   3   5    2.32    1.84
  -9  -3  -5    2.01    2.30
   9   3   5    1.17    1.76
   9   3   5    1.58    2.08
 -10  -3  -5   34.66    4.32
  10   3   5   28.77    3.60
   8  -4  -5   -1.27    2.15
  -8   4   5   -1.30    2.64
  -8   4   5    1.93    2.01
   7  -4  -5   77.97    5.56
  -7   4   5   87.13    6.32
  -7   4   5   71.84    4.91
   6  -4  -5   68.75    4.82
  -6   4   5   65.77    5.32
  -6   4   5   64.88    4.37
  -6   4   5   76.23    5.54
   5  -4  -5    0.52    1.48
  -5   4   5   -2.39    1.14
  -5   4   5   -2.03    1.55
  -5   4   5   -3.25    1.26
   4  -4  -5   26.58    2.77
  -4   4   5   21.33    2.59
  -4   4   5   24.30    2.51
  -4   4   5   26.35    2.99
   3  -4  -5  331.83   10.49
   3  -4  -5  357.49    9.98
  -3   4   5  344.58   10.18
  -3   4   5  346.36   10.02
  -3   4   5  352.92    9.48
   2  -4  -5   21.31    2.14
  -2   4   5   21.49    2.66
  -2   4   5   22.67    2.01
  -2   4   5   25.94    2.42
  -2   4   5   20.89    2.17
   1  -4  -5   22.61    1.90
  -1   4   5   17.26    1.81
  -1   4   5   20.31    1.54
  -1   4   5   21.73    1.70
  -1   4   5   16.73    1.81
  -1   4   5   19.09    1.84
   0  -4  -5    0.92    0.75
   0   4   5    2.91    0.69
   0   4   5    1.66    0.78
   0   4   5    2.20    0.83
   0   4   5    1.48    0.69
   0   4   5    2.30    1.11
   0   4   5    2.74    0.95
  -1  -4  -5   28.66    1.87
   1   4   5   29.56    2.01
   1   4   5   26.51    1.77
   1   4   5   24.97    1.44
   1   4   5   26.68    2.02
   1   4   5   25.63    2.21
   1   4   5   27.75    1.39
  -2  -4  -5  658.63   15.34
   2   4   5  664.72   15.30
   2   4   5  659.19   15.79
   2   4   5  671.21   14.38
   2   4   5  655.59   14.33
   2   4   5  656.62   15.57
  -3  -4  -5  172.10    5.43
   3   4   5  171.40    4.47
   3   4   5  171.67    5.80
   3   4   5  177.41    5.70
   3   4   5  176.39    5.79
   3   4   5  183.84    4.58
   3   4   5  175.52    5.42
  -4  -4  -5  224.98    6.88
   4   4   5  232.67    7.41
   4   4   5  225.31    6.56
   4   4   5  228.82    7.05
   4   4   5  227.39    5.82
   4   4   5  225.22    5.78
   4   4   5  231.74    6.84
   4   4   5  231.23    7.20
  -5  -4  -5  379.42   10.42
   5   4   5  378.17   10.12
   5   4   5  364.94   10.52
   5   4   5  377.67   10.71
   5   4   5  372.83    9.12
   5   4   5  381.13   11.09
   5   4   5  384.14   10.34
  -6  -4  -5   45.75    3.57
   6   4   5   44.16    3.56
   6   4   5   49.64    3.25
   6   4   5   49.27    3.62
   6   4   5   50.06    3.96
   6   4   5   46.34    2.57
  -7  -4  -5   59.93    4.34
   7   4   5   61.77    4.42
   7   4   5   71.27    4.01
   7   4   5   76.14    5.13
  -8  -4  -5    2.64    2.04
   8   4   5    0.59    1.82
   8   4   5    1.41    1.43
   8   4   5   -1.65    1.59
   9   4   5    7.93    2.56
   9   4   5    8.72    2.06
   9   4   5    7.60    2.29
  10   4   5   -0.66    1.37
   8  -5  -5   -2.40    2.18
  -8   5   5   -0.96    2.73
  -8   5   5   -0.69    1.64
   7  -5  -5   22.05    3.51
  -7   5   5   21.77    3.92
  -7   5   5   18.05    2.70
   6  -5  -5   20.90    3.10
  -6   5   5   24.05    3.45
  -6   5   5   26.48    3.70
  -6   5   5   24.55    2.81
   5  -5  -5   16.94    2.64
  -5   5   5   26.64    3.37
  -5   5   5   20.24    2.38
  -5   5   5   28.58    3.56
   4  -5  -5   86.69    4.72
  -4   5   5   86.99    4.94
  -4   5   5   92.63    5.03
  -4   5   5   93.99    4.74
  -4   5   5   96.00    4.17
   3  -5  -5  304.61    9.34
  -3   5   5  311.99    9.73
  -3   5   5  314.52    9.31
  -3   5   5  312.67    8.47
  -3   5   5  345.86    9.20
  -3   5   5  315.55    9.60
   2  -5  -5   75.83    3.66
  -2   5   5   78.60    3.87
  -2   5   5   77.71    3.00
  -2   5   5   75.63    3.61
  -2   5   5   77.40    2.88
  -2   5   5   76.16    3.76
  -2   5   5   76.72    4.47
   1  -5  -5  137.71    4.82
  -1   5   5  137.64    4.99
  -1   5   5  143.76    3.62
  -1   5   5  135.75    4.52
  -1   5   5  133.63    3.62
  -1   5   5  130.97    5.01
  -1   5   5  131.33    5.52
   0  -5  -5    2.34    0.89
   0   5   5    2.09    1.14
   0   5   5    3.27    1.02
   0   5   5    3.07    0.82
   0   5   5    3.60    1.04
  -1  -5  -5    5.83    1.05
   1   5   5    7.90    1.25
   1   5   5    6.29    1.18
   1   5   5    9.45    1.00
   1   5   5    9.68    1.54
  -2  -5  -5   -1.23    0.64
   2   5   5   -0.30    0.68
   2   5   5   -0.32    0.68
   2   5   5    0.60    0.55
  -3  -5  -5  184.38    5.60
   3   5   5  186.34    5.92
   3   5   5  181.29    4.83
   3   5   5  188.33    5.85
   3   5   5  182.05    5.96
  -4  -5  -5    8.01    1.55
   4   5   5    3.68    1.32
   4   5   5    4.19    1.54
   4   5   5    4.12    1.36
  -5  -5  -5    7.57    1.68
   5   5   5    7.30    1.88
   5   5   5    8.22    1.78
   5   5   5    9.77    1.78
   6   5   5  478.02   13.22
   6   5   5  487.05   13.69
   6   5   5  456.44   11.62
   6   5   5  473.44   13.03
   7   5   5   29.34    3.43
   7   5   5   26.96    3.06
   7   5   5   27.27    2.52
   8   5   5  190.51    7.67
   8   5   5  186.01    8.25
   8   5   5  171.62    6.28
   9   5   5    3.27    1.40
   9   5   5    4.98    2.03
   9   5   5    8.41    2.65
   7  -6  -5   16.22    3.29
  -7   6   5   24.22    2.84
  -7   6   5   30.35    4.14
   6  -6  -5    6.58    2.29
  -6   6   5    4.69    2.43
  -6   6   5    6.81    1.82
  -6   6   5    7.24    2.67
   5  -6  -5    0.93    1.64
  -5   6   5    1.61    1.56
  -5   6   5    2.22    1.31
  -5   6   5    4.95    2.10
  -5   6   5    0.29    1.86
  -4   6   5  246.56    6.89
  -4   6   5  255.35    8.90
  -4   6   5  244.05    8.12
  -4   6   5  235.90    8.27
   3  -6  -5   16.09    2.22
  -3   6   5   15.06    2.20
  -3   6   5   20.08    1.54
  -3   6   5   17.57    1.44
  -3   6   5   14.03    2.27
  -3   6   5   23.14    2.41
   2  -6  -5    3.25    1.25
  -2   6   5    5.45    1.56
  -2   6   5    2.51    1.64
  -2   6   5    4.71    1.17
  -2   6   5    6.21    1.32
   1  -6  -5   66.43    3.30
  -1   6   5   67.91    2.61
  -1   6   5   70.02    4.07
  -1   6   5   68.89    2.76
  -1   6   5   60.79    3.43
   0  -6  -5    0.92    0.87
   0   6   5    2.59    1.01
   0   6   5    2.89    1.13
   0   6   5    4.46    1.32
   1   6   5  141.42    4.82
   1   6   5  142.75    5.18
   1   6   5  141.00    4.94
   2   6   5  155.02    5.12
   2   6   5  156.75    5.29
   3   6   5 1310.59   29.03
   3   6   5 1285.12   29.28
   3   6   5 1337.15   29.23
   4   6   5  637.05   15.95
   4   6   5  639.28   15.68
   4   6   5  637.71   15.51
   5   6   5  422.91   11.92
   5   6   5  413.60   11.45
   5   6   5  422.33   11.39
   6   6   5    5.61    1.81
   6   6   5    3.95    1.55
   6   6   5    9.41    1.82
   7   6   5   13.55    2.44
   7   6   5   11.75    2.43
   7   6   5   11.41    2.13
   8   6   5   35.28    3.87
   8   6   5   31.40    3.40
   9   6   5    7.06    2.56
   9   6   5    4.58    1.92
   9   6   5    6.00    1.15
  -6   7   5    2.90    2.08
  -6   7   5    8.41    2.77
  -6   7   5    8.50    1.61
  -5   7   5   -0.71    1.70
  -5   7   5   -2.11    1.25
  -5   7   5   -0.37    1.47
  -4   7   5   50.87    3.45
  -4   7   5   43.56    3.29
  -4   7   5   49.82    4.18
  -3   7   5  215.77    6.38
  -3   7   5  229.78    8.11
  -3   7   5  205.87    6.41
  -2   7   5   70.99    2.42
  -2   7   5   66.18    4.02
  -1   7   5   42.03    3.03
  -1   7   5   45.67    3.62
   0   7   5   16.28    1.88
   0   7   5   11.44    1.70
   0   7   5   13.80    2.19
   1   7   5  111.09    4.25
   1   7   5  105.80    4.29
   1   7   5  106.42    4.56
   2   7   5  920.93   21.50
   2   7   5  956.66   21.76
   2   7   5  918.19   21.19
   3   7   5  206.96    6.36
   3   7   5  196.69    6.24
   3   7   5  199.15    6.57
   4   7   5  329.05    9.45
   4   7   5  312.69    8.88
   4   7   5  320.32    9.04
   5   7   5  121.99    4.87
   5   7   5  120.00    5.31
   5   7   5  117.79    4.93
   6   7   5   69.26    3.96
   6   7   5   69.98    3.84
   6   7   5   67.98    4.26
   7   7   5   14.22    2.44
   7   7   5   13.76    2.12
   7   7   5   12.05    2.16
   8   7   5   23.77    3.03
   8   7   5   26.27    3.42
   9   7   5   16.68    3.17
   9   7   5   22.48    3.14
  -5   8   5    1.66    1.27
  -5   8   5    2.11    1.31
  -5   8   5    2.65    2.20
  -4   8   5    3.37    1.06
  -4   8   5    3.16    1.87
  -4   8   5    6.00    1.21
  -3   8   5   48.48    4.18
  -2   8   5   39.23    3.35
  -1   8   5   81.38    4.80
  -1   8   5   82.54    4.13
   0   8   5  532.91   13.52
   0   8   5  514.71   13.68
   0   8   5  546.85   14.35
   1   8   5   81.55    3.93
   1   8   5   78.72    4.12
   1   8   5   80.32    3.71
   2   8   5   79.58    3.97
   2   8   5   81.56    3.80
   2   8   5   86.32    3.65
   3   8   5  471.42   11.75
   3   8   5  479.00   11.92
   3   8   5  469.65   12.23
   4   8   5   14.13    1.77
   4   8   5   14.20    1.75
   4   8   5   15.19    1.99
   5   8   5    1.17    1.15
   5   8   5   -0.78    1.12
   5   8   5    1.30    1.06
   6   8   5   39.02    3.00
   6   8   5   45.64    3.61
   6   8   5   44.27    3.08
   7   8   5   16.42    2.64
   7   8   5   16.76    2.33
   7   8   5   16.80    2.25
   8   8   5   59.83    4.85
   8   8   5   58.94    4.08
  -4   9   5    2.83    2.00
  -3   9   5    3.17    1.81
  -2   9   5    1.23    1.46
  -1   9   5   36.23    3.09
   0   9   5    1.23    1.17
   0   9   5    2.82    1.23
   0   9   5    2.10    1.67
   1   9   5   94.51    4.45
   1   9   5   87.79    4.13
   1   9   5   92.16    3.90
   2   9   5  114.07    4.28
   2   9   5  120.10    4.98
   2   9   5  123.68    4.75
   3   9   5   62.49    3.11
   3   9   5   68.24    3.09
   3   9   5   64.89    3.49
   4   9   5   14.03    1.93
   4   9   5   13.66    1.60
   4   9   5   12.62    1.63
   5   9   5    4.41    1.27
   5   9   5    3.40    1.39
   5   9   5    4.52    1.28
   6   9   5   -1.13    1.08
   6   9   5    1.59    1.14
   6   9   5    0.64    1.00
   7   9   5    2.49    1.42
   7   9   5    0.52    1.05
   7   9   5    0.83    1.46
  -3  10   5    4.19    2.15
  -2  10   5   19.11    2.84
  -1  10   5   29.23    2.88
   0  10   5    3.35    1.96
   0  10   5    1.26    1.25
   1  10   5    1.32    1.09
   1  10   5    0.63    1.08
   2  10   5   10.41    1.44
   2  10   5   11.88    1.54
   2  10   5   10.62    1.91
   2  10   5    7.13    1.48
   3  10   5    1.46    0.90
   3  10   5    2.95    1.15
   3  10   5    1.22    0.88
   4  10   5   88.74    3.45
   4  10   5   88.50    4.23
   4  10   5   88.83    3.48
   5  10   5   -0.06    0.80
   5  10   5    1.37    1.01
   5  10   5   -0.28    1.14
   6  10   5   51.71    3.00
   6  10   5   54.96    3.84
   6  10   5   54.95    3.19
  -1  11   5   78.23    4.37
   0  11   5    1.49    1.24
   1  11   5   18.33    1.85
   1  11   5   17.92    2.22
   1  11   5   20.37    2.61
   2  11   5    4.01    1.33
   2  11   5    7.01    1.08
   2  11   5    4.68    1.07
   2  11   5    6.29    1.74
   3  11   5    4.51    1.28
   4  11   5   13.30    1.93
   5   9  -6    5.66    2.21
   4   9  -6   16.12    3.72
   4   9  -6   13.81    2.08
   4   9  -6   15.34    1.90
   4   9  -6   17.74    2.67
   3   9  -6    0.98    1.07
   3   9  -6    0.37    2.34
   2   9  -6   -1.61    1.01
   2   9  -6   -2.52    1.83
   2   9  -6    1.36    2.47
   1   9  -6    2.39    2.61
   1   9  -6    1.73    1.24
   0   9  -6   15.42    4.03
   0   9  -6    9.63    1.86
  -1   9  -6   11.90    3.81
  -1   9  -6    5.49    1.88
  -2   9  -6   29.29    5.11
  -2   9  -6   25.48    3.16
   6   8  -6    1.86    1.32
   6   8  -6    0.01    2.33
   6   8  -6    2.57    1.70
   6   8  -6    1.89    2.16
   5   8  -6   38.53    3.00
   5   8  -6   35.54    3.81
   5   8  -6   41.54    5.03
   5   8  -6   30.88    3.15
   4   8  -6   26.51    3.09
   4   8  -6   42.26    3.03
   4   8  -6   34.24    3.15
   4   8  -6   33.03    4.63
   3   8  -6   94.65    6.72
   3   8  -6   96.12    4.73
   3   8  -6   94.94    4.24
   2   8  -6    1.47    1.32
   2   8  -6    7.07    2.68
   2   8  -6    1.33    1.23
   1   8  -6   45.56    3.38
   1   8  -6   53.80    5.59
   1   8  -6   48.67    3.23
   0   8  -6   15.94    2.25
   0   8  -6   14.31    3.34
  -1   8  -6    0.63    2.32
  -1   8  -6    2.38    1.44
  -2   8  -6   87.49    6.86
  -2   8  -6   85.22    5.06
  -3   8  -6    0.22    2.47
  -4   8  -6    1.57    2.66
   7   7  -6   31.90    3.73
   7   7  -6   33.85    4.28
   6   7  -6   54.88    4.49
   6   7  -6   65.05    5.18
   6   7  -6   55.11    5.23
   6   7  -6   57.74    3.95
   5   7  -6   24.80    2.92
   5   7  -6   28.02    4.06
   5   7  -6   25.77    2.63
   4   7  -6   36.70    4.46
   4   7  -6   28.42    2.55
   4   7  -6   30.10    3.34
   3   7  -6   41.24    3.12
   3   7  -6   42.95    4.74
   3   7  -6   34.51    2.83
   2   7  -6   -0.43    1.97
   2   7  -6    3.03    1.30
   2   7  -6    0.42    1.13
   1   7  -6   12.32    3.04
   1   7  -6   12.69    1.85
   1   7  -6    9.04    1.65
   0   7  -6    1.17    2.10
   0   7  -6    1.96    1.26
   0   7  -6    2.46    1.25
  -1   7  -6   24.84    4.07
  -1   7  -6   25.64    2.69
  -2   7  -6   72.55    5.92
  -2   7  -6   69.18    4.49
  -3   7  -6    2.70    2.47
  -4   7  -6    2.00    2.55
  -5   7  -6    3.02    1.54
  -5   7  -6    1.52    2.82
  -5   7  -6    3.08    1.54
   8   6  -6    1.75    2.65
   7   6  -6   -1.68    2.12
   7   6  -6   -1.74    1.61
   6   6  -6    2.16    1.77
   6   6  -6    2.83    2.03
   6   6  -6    2.91    2.38
   6   6  -6    3.57    2.57
   5   6  -6   88.24    4.53
   5   6  -6   94.83    5.74
   5   6  -6   98.25    5.41
   5   6  -6   95.42    5.83
   4   6  -6    0.72    1.82
   4   6  -6    1.50    1.23
   4   6  -6    3.31    1.60
   4   6  -6    1.13    1.58
   3   6  -6  126.85    5.22
   3   6  -6  125.17    6.62
   3   6  -6  135.17    5.85
   3   6  -6  124.98    4.96
   2   6  -6   39.69    4.38
   2   6  -6   44.76    3.00
   2   6  -6   48.02    3.14
   1   6  -6    3.54    1.28
   1   6  -6    5.24    2.20
   1   6  -6    3.21    1.21
   0   6  -6   99.81    4.52
   0   6  -6  102.40    4.51
   0   6  -6  107.28    6.13
  -1   6  -6   15.01    3.07
  -1   6  -6   18.09    2.30
  -1   6  -6   16.36    2.20
  -2   6  -6  335.46   12.17
  -2   6  -6  337.83   10.34
  -3   6  -6   17.63    1.89
  -3   6  -6   16.15    1.84
  -3   6  -6   18.16    3.37
  -4   6  -6   39.60    4.83
  -4   6  -6   29.22    2.84
  -4   6  -6   32.47    2.96
  -5   6  -6   54.06    4.17
  -5   6  -6   46.88    5.21
  -5   6  -6   39.71    3.55
  -6   6  -6   26.39    3.38
  -6   6  -6   18.73    3.95
  -6   6  -6   17.34    3.25
   8   5  -6   38.26    4.98
   8   5  -6   31.08    3.92
   7   5  -6    2.65    2.56
   7   5  -6    2.02    1.98
   6   5  -6   31.23    4.20
   6   5  -6   40.09    4.06
   6   5  -6   34.48    3.57
   5   5  -6   50.87    4.05
   5   5  -6   52.67    4.91
   5   5  -6   54.97    3.65
   5   5  -6   59.31    4.47
   4   5  -6    0.16    1.69
   4   5  -6    1.69    1.60
   4   5  -6    1.53    1.20
   3   5  -6   36.44    2.71
   3   5  -6   39.41    3.97
   3   5  -6   35.06    3.54
   3   5  -6   32.65    2.76
   2   5  -6   15.06    2.65
   2   5  -6   17.36    1.97
   2   5  -6   18.85    2.07
   1   5  -6    1.68    1.00
   1   5  -6    1.89    1.53
   1   5  -6    1.82    0.97
   0   5  -6    7.36    1.43
   0   5  -6    8.11    2.25
   0   5  -6    5.93    1.41
  -1   5  -6   25.45    1.87
  -1   5  -6   28.75    3.60
  -1   5  -6   28.09    1.86
  -1   5  -6   24.68    2.49
  -1   5  -6   26.82    2.57
  -2   5  -6    5.30    1.44
  -2   5  -6    4.01    1.16
  -2   5  -6    2.76    1.45
  -2   5  -6    2.13    1.61
  -2   5  -6    3.28    2.01
  -3   5  -6    1.18    1.51
  -3   5  -6    3.31    1.57
  -3   5  -6    3.13    1.38
  -3   5  -6    4.04    2.09
  -4   5  -6    9.53    2.09
  -4   5  -6    9.36    1.39
  -4   5  -6   10.45    2.08
  -4   5  -6   10.42    2.82
  -5   5  -6    1.19    2.01
  -5   5  -6    3.06    1.92
  -5   5  -6    3.50    1.83
  -5   5  -6    2.54    1.35
  -5   5  -6    0.62    1.78
  -6   5  -6   32.23    4.33
  -6   5  -6   32.05    3.80
  -6   5  -6   28.20    2.65
  -6   5  -6   21.62    3.50
  -7   5  -6    0.63    1.54
  -7   5  -6   -1.63    2.20
  -7   5  -6   -1.32    2.11
   8   4  -6   10.59    2.08
   8   4  -6   10.82    3.55
   8   4  -6    8.16    2.69
   8   4  -6    7.87    1.88
   7   4  -6    6.41    2.50
   7   4  -6    3.72    1.57
   7   4  -6    6.46    3.02
   7   4  -6    3.65    1.46
   6   4  -6   17.53    3.45
   6   4  -6   14.75    2.81
   6   4  -6   10.20    1.66
   6   4  -6    9.75    1.66
   5   4  -6    1.14    1.69
   5   4  -6    0.01    0.90
   5   4  -6    0.14    0.99
   5   4  -6    0.59    2.07
   5   4  -6    1.76    1.37
   5   4  -6    1.23    1.25
   4   4  -6   -0.41    0.76
   4   4  -6   -1.24    0.86
   4   4  -6   -0.50    1.49
   4   4  -6   -0.63    1.00
   4   4  -6   -0.98    1.22
   3   4  -6   40.79    2.21
   3   4  -6   43.50    3.37
   3   4  -6   42.55    3.63
   3   4  -6   35.65    2.69
   3   4  -6   42.66    2.93
   3   4  -6   41.81    2.32
   2   4  -6  142.56    5.31
   2   4  -6  146.47    6.10
   2   4  -6  153.33    4.65
   2   4  -6  144.10    4.43
   2   4  -6  136.98    5.10
   1   4  -6    5.71    1.74
   1   4  -6    8.98    1.24
   1   4  -6    8.55    1.32
   1   4  -6    7.88    1.40
   1   4  -6    7.28    1.41
   0   4  -6  254.52    7.23
   0   4  -6  269.31    7.24
   0   4  -6  265.42    9.00
   0   4  -6  254.96    7.85
   0   4  -6  268.42    7.89
  -1   4  -6  400.21   10.35
  -1   4  -6  402.66   10.94
  -1   4  -6  395.54    9.00
  -1   4  -6  386.15   10.38
  -1   4  -6  389.11   10.96
  -1   4  -6  404.09   12.16
  -2   4  -6    0.29    1.13
  -2   4  -6    1.32    0.87
  -2   4  -6   -0.28    0.72
  -2   4  -6    0.78    1.14
  -2   4  -6   -1.27    1.04
  -2   4  -6   -1.49    1.26
  -2   4  -6   -0.79    1.44
  -3   4  -6  182.11    7.06
  -3   4  -6  196.62    6.93
  -3   4  -6  204.05    8.05
  -3   4  -6  187.26    6.82
  -3   4  -6  198.97    5.88
  -4   4  -6   97.51    4.94
  -4   4  -6   96.18    5.55
  -4   4  -6   93.40    4.06
  -4   4  -6   92.35    4.86
  -5   4  -6    5.09    2.12
  -5   4  -6   10.04    2.50
  -5   4  -6    9.90    2.32
  -5   4  -6    7.70    1.63
  -6   4  -6   18.21    3.20
  -6   4  -6   27.57    3.55
  -6   4  -6   19.24    2.43
  -6   4  -6   27.40    3.53
  -7   4  -6    2.83    1.65
  -7   4  -6   -2.02    1.79
  -7   4  -6   -0.05    1.99
  -8   4  -6    5.01    1.98
  -8   4  -6    6.36    3.04
  -8   4  -6    1.27    2.30
   9   3  -6    5.42    3.21
   8   3  -6   23.12    3.04
   8   3  -6   25.60    4.00
   8   3  -6   29.37    4.71
   7   3  -6   70.66    5.61
   7   3  -6   77.46    4.62
   7   3  -6   71.54    4.55
   7   3  -6   76.38    6.47
  -7  -3   6   71.99    6.49
   6   3  -6  161.63    6.31
   6   3  -6  177.75    8.26
   6   3  -6  154.50    6.35
   6   3  -6  173.38    7.67
   6   3  -6  158.52    5.11
  -6  -3   6  166.41    6.99
   5   3  -6  106.08    3.76
   5   3  -6  111.12    4.65
   5   3  -6  115.05    6.39
   5   3  -6  110.51    5.55
   5   3  -6  105.45    5.59
   5   3  -6  108.78    4.93
   5   3  -6  112.30    4.74
  -5  -3   6  106.41    5.18
   4   3  -6  108.55    5.65
   4   3  -6  105.12    3.55
   4   3  -6  106.12    4.68
   4   3  -6  111.00    4.72
   4   3  -6  104.48    4.33
   4   3  -6  105.75    4.61
  -4  -3   6  110.29    4.78
   3   3  -6    7.86    1.48
   3   3  -6    9.74    1.52
   3   3  -6   11.45    2.43
   3   3  -6    8.10    1.49
   3   3  -6    9.25    1.07
   3   3  -6    8.39    1.43
   3   3  -6    8.81    1.72
   2   3  -6  274.26    6.67
   2   3  -6  270.08    7.74
   2   3  -6  274.84    7.82
   2   3  -6  219.17    8.23
   2   3  -6  271.39    8.42
   2   3  -6  264.64    7.46
   2   3  -6  269.06    7.98
   1   3  -6    2.88    1.05
   1   3  -6    5.74    1.29
   1   3  -6    3.49    1.26
   1   3  -6    2.93    1.04
   1   3  -6    2.07    0.73
   1   3  -6    3.42    1.37
   0   3  -6   38.92    2.66
   0   3  -6   45.23    2.15
   0   3  -6   44.78    2.67
   0   3  -6   43.62    3.20
   0   3  -6   49.34    2.88
   0   3  -6   39.69    2.62
  -1   3  -6  526.04   12.07
  -1   3  -6  507.07   13.16
  -1   3  -6  508.13   13.31
  -1   3  -6  511.66   14.00
  -1   3  -6  518.81   13.02
  -1   3  -6  494.84   12.98
  -1   3  -6  519.73   12.17
  -2   3  -6   65.19    3.09
  -2   3  -6   72.14    3.74
  -2   3  -6   63.27    3.67
  -2   3  -6   68.19    3.79
  -2   3  -6   65.77    3.66
  -2   3  -6   66.38    4.11
  -3   3  -6   26.19    2.76
  -3   3  -6   21.35    2.47
  -3   3  -6   24.99    3.05
  -3   3  -6   23.58    2.53
  -3   3  -6   23.06    2.21
  -4   3  -6  208.62    7.78
  -4   3  -6  224.03    7.06
  -4   3  -6  220.89    8.17
  -4   3  -6  221.02    7.80
  -5   3  -6   12.21    2.45
  -5   3  -6   13.41    2.51
  -5   3  -6   11.08    1.96
  -5   3  -6   16.60    2.67
  -6   3  -6    7.39    2.27
  -6   3  -6    4.75    2.14
  -6   3  -6    6.44    2.30
  -6   3  -6    9.42    2.01
  -7   3  -6   30.69    3.32
  -7   3  -6   35.06    4.06
  -7   3  -6   28.91    3.71
  -8   3  -6    4.30    2.35
  -8   3  -6    6.20    2.09
  -8   3  -6    4.88    2.37
   9   2  -6    1.84    2.21
  -9  -2   6    1.56    2.73
   8   2  -6   57.11    3.59
   8   2  -6   57.92    4.95
   8   2  -6   49.32    4.95
  -8  -2   6   63.18    5.65
   7   2  -6   11.12    2.34
   7   2  -6   15.41    2.03
   7   2  -6   10.56    3.11
   7   2  -6   16.31    3.10
  -7  -2   6   16.48    3.15
   6   2  -6    3.59    1.26
   6   2  -6    6.89    1.90
   6   2  -6    3.73    1.79
   6   2  -6    4.89    2.53
   6   2  -6    4.65    2.18
  -6  -2   6    7.52    2.28
   5   2  -6   37.04    3.41
   5   2  -6   41.07    4.02
   5   2  -6   41.32    4.66
   5   2  -6   36.04    2.62
   5   2  -6   41.18    2.57
   5   2  -6   40.14    3.27
  -5  -2   6   41.22    3.45
   4   2  -6   -0.60    1.07
   4   2  -6    0.81    1.01
   4   2  -6   -0.45    1.89
   4   2  -6   -0.29    1.03
   4   2  -6   -0.78    0.88
   4   2  -6    0.24    0.77
  -4  -2   6    0.76    1.13
   3   2  -6    1.85    1.08
   3   2  -6    1.63    0.99
   3   2  -6    3.65    1.89
   3   2  -6   -0.79    1.05
   3   2  -6   -0.21    0.75
   3   2  -6    1.03    0.98
   3   2  -6    2.00    1.14
  -3  -2   6    2.59    1.18
   2   2  -6  189.02    6.38
   2   2  -6  189.72    6.32
   2   2  -6  185.57    6.25
   2   2  -6  188.26    5.61
   2   2  -6  190.05    6.15
   2   2  -6  191.59    7.03
   2   2  -6  194.72    6.20
   1   2  -6   19.90    1.73
   1   2  -6   15.81    1.97
   1   2  -6   17.57    1.94
   1   2  -6   14.33    1.75
   1   2  -6   16.77    1.87
   1   2  -6   16.42    2.15
   0   2  -6  121.54    4.80
   0   2  -6  128.47    5.35
   0   2  -6  124.05    4.65
   0   2  -6  126.17    4.25
   0   2  -6  122.97    4.65
  -1   2  -6  898.74   21.09
  -1   2  -6  896.20   20.98
  -1   2  -6  885.02   20.35
  -1   2  -6  897.35   21.04
   1  -2   6  910.68   21.39
  -2   2  -6  394.36   10.79
  -2   2  -6  389.07   10.94
  -2   2  -6  389.42   10.22
  -2   2  -6  392.81   10.87
   2  -2   6  397.69   11.10
  -3   2  -6    6.42    1.63
  -3   2  -6    6.58    1.51
  -3   2  -6    8.04    1.78
   3  -2   6    3.21    1.32
  -4   2  -6  404.02   11.74
  -4   2  -6  398.77   11.88
  -4   2  -6  404.90   11.05
   4  -2   6  411.32   12.07
  -5   2  -6   11.07    2.43
  -5   2  -6    9.58    1.97
  -5   2  -6    3.37    1.71
  -6   2  -6   -0.71    1.83
  -6   2  -6   -0.13    1.72
  -6   2  -6   -1.52    1.26
  -7   2  -6    4.68    1.91
  -7   2  -6   -0.28    1.69
  -7   2  -6    3.73    2.12
  -8   2  -6    0.96    1.73
  -8   2  -6   -0.70    2.12
  -8   2  -6    0.56    1.95
  -9   2  -6    7.76    2.52
  -9   2  -6   12.26    2.91
   9   1  -6    0.24    2.05
   9   1  -6   -1.98    1.22
  -9  -1   6   -0.99    2.48
   8   1  -6   -0.20    1.82
   8   1  -6    5.11    1.69
  -8  -1   6    4.53    2.69
   7   1  -6    0.84    2.77
   7   1  -6    4.07    2.37
   7   1  -6    1.70    1.79
   7   1  -6    2.11    1.37
  -7  -1   6    2.24    2.18
   6   1  -6   40.86    4.76
   6   1  -6   41.00    3.12
   6   1  -6   33.18    3.93
   6   1  -6   32.75    3.52
  -6  -1   6   40.11    4.03
   5   1  -6    2.20    1.17
   5   1  -6    1.33    1.57
   5   1  -6    0.82    0.86
   5   1  -6    0.84    2.30
   5   1  -6   -0.98    1.32
   5   1  -6    0.90    1.63
  -5  -1   6    0.67    1.50
   4   1  -6  104.43    4.30
   4   1  -6  101.13    3.81
   4   1  -6  100.00    4.70
   4   1  -6  102.32    5.03
  -4  -1   6  104.21    4.78
   3   1  -6   63.02    3.95
   3   1  -6   63.02    3.07
   3   1  -6   60.96    3.59
   3   1  -6   62.52    3.76
   3   1  -6   67.24    4.47
   3   1  -6   62.31    3.17
  -3  -1   6   64.28    3.53
   2   1  -6  508.83   12.88
   2   1  -6  491.25   12.99
   2   1  -6  498.33   13.66
   2   1  -6  500.59   12.32
  -2  -1   6  482.26   12.63
   1   1  -6  170.15    5.69
   1   1  -6  165.48    5.28
   1   1  -6  169.01    6.31
   1   1  -6  152.36    5.72
   0   1  -6    2.50    1.34
   0   1  -6    2.23    0.99
   0   1  -6    4.25    1.08
   0  -1   6    3.27    1.11
  -1   1  -6  605.88   14.70
  -1   1  -6  626.22   15.29
  -1   1  -6  604.40   15.30
   1  -1   6  623.99   15.43
  -2   1  -6   20.77    2.38
  -2   1  -6   15.65    1.96
  -2   1  -6   14.72    1.77
   2  -1   6   18.48    2.22
  -3   1  -6    1.80    1.15
  -3   1  -6    0.49    1.10
  -3   1  -6   -0.24    1.11
   3  -1   6    2.69    1.22
   3  -1   6    2.48    1.24
   3  -1   6    2.04    1.10
  -4   1  -6  553.40   15.07
  -4   1  -6  568.09   15.76
  -4   1  -6  579.67   14.50
   4  -1   6  554.96   14.88
   4  -1   6  554.19   15.20
   4  -1   6  589.69   14.96
  -5   1  -6    8.18    2.14
  -5   1  -6   10.17    2.07
  -5   1  -6   10.89    2.00
   5  -1   6    6.99    1.99
  -6   1  -6   71.01    4.84
  -6   1  -6   75.74    4.35
   6  -1   6   70.10    4.81
  -7   1  -6  142.68    7.08
  -7   1  -6  123.75    6.09
  -8   1  -6    3.62    1.96
  -9   1  -6    9.38    2.75
  -9   1  -6   14.57    2.80
   9   0  -6   34.68    4.50
   9   0  -6   36.30    3.86
  -9   0   6   38.63    5.01
   8   0  -6   -1.02    1.46
   8   0  -6   -1.75    1.72
  -8   0   6   -3.81    1.98
   7   0  -6  101.40    5.39
   7   0  -6  115.33    6.68
  -7   0   6  115.53    6.43
   6   0  -6   28.48    3.98
   6   0  -6   32.52    3.69
   6   0  -6   28.17    2.85
   6   0  -6   27.80    3.60
  -6   0   6   27.89    3.31
   5   0  -6   98.00    3.81
   5   0  -6  101.03    4.67
   5   0  -6   97.56    5.36
   5   0  -6   89.44    5.29
   5   0  -6   83.50    5.71
  -5   0   6   96.91    5.13
   4   0  -6  120.53    6.31
   4   0  -6  138.54    6.01
   4   0  -6  142.86    5.36
  -4   0   6  135.49    5.94
  -4   0   6  129.97    5.52
   3   0  -6  104.26    4.92
   3   0  -6  104.92    4.64
   3   0  -6  104.09    4.34
  -3   0   6   99.18    4.55
  -3   0   6  104.27    4.67
   2   0  -6   13.86    1.68
   2   0  -6   11.77    1.68
   2   0  -6   18.34    2.24
  -2   0   6   17.25    2.02
  -2   0   6   17.21    1.91
   1   0  -6  205.34    6.35
   1   0  -6  204.04    7.15
   1   0  -6  208.79    6.87
   1   0  -6  223.87    6.99
  -1   0   6  214.71    6.56
   0   0  -6  600.30   15.09
   0   0  -6  579.84   14.80
   0   0  -6  592.34   14.31
   0   0   6  585.28   14.54
   0   0   6  608.00   14.84
   0   0   6  598.96   14.51
  -1   0  -6   25.07    2.31
  -1   0  -6   28.41    2.18
   1   0   6   27.30    2.35
   1   0   6   28.37    2.24
   1   0   6   24.77    2.14
  -2   0  -6   67.53    3.31
  -2   0  -6   72.18    3.69
   2   0   6   77.23    3.62
   2   0   6   78.33    3.76
   2   0   6   70.74    3.43
  -3   0  -6   -0.15    0.94
  -3   0  -6   -1.45    0.95
   3   0   6    1.73    1.03
   3   0   6   -0.21    0.89
   3   0   6    8.10    1.61
  -4   0  -6    6.18    1.75
  -4   0  -6    4.29    1.42
   4   0   6    4.88    1.55
   4   0   6    4.44    1.32
   4   0   6    6.51    1.56
  -5   0  -6   36.99    3.06
  -5   0  -6   32.24    3.22
   5   0   6   36.06    3.24
   5   0   6   35.78    3.11
   5   0   6   38.11    3.43
  -6   0  -6    6.10    2.19
  -6   0  -6    5.34    1.80
   6   0   6    4.43    1.71
  -7   0  -6  108.12    5.65
  -7   0  -6   82.37    7.61
   7   0   6  113.25    6.22
  -8   0  -6   25.17    3.39
   8   0   6   32.88    4.11
  -9   0  -6    3.72    2.50
   9  -1  -6    0.82    1.84
  -9   1   6   -1.69    2.57
   8  -1  -6   -1.65    1.58
   8  -1  -6   -1.01    1.88
  -8   1   6   -0.07    2.20
   7  -1  -6    0.69    2.03
   7  -1  -6   -2.90    1.17
  -7   1   6   -2.49    1.72
   6  -1  -6    0.40    1.29
   6  -1  -6   -0.09    1.67
  -6   1   6    0.52    1.69
   5  -1  -6    1.67    2.46
   5  -1  -6    1.28    1.77
   5  -1  -6    2.65    1.35
   5  -1  -6    1.37    1.63
  -5   1   6    1.61    1.59
   4  -1  -6   78.18    4.68
   4  -1  -6   68.26    4.96
   4  -1  -6   70.88    4.56
   4  -1  -6   74.34    4.00
  -4   1   6   68.06    4.02
  -4   1   6   70.66    4.18
   3  -1  -6  316.89   10.49
   3  -1  -6  324.59    9.30
   3  -1  -6  334.39   10.11
  -3   1   6  323.83    9.61
  -3   1   6  321.34    9.47
   2  -1  -6    2.25    1.86
   2  -1  -6    1.24    0.95
   2  -1  -6    1.51    1.13
  -2   1   6    1.55    1.05
  -2   1   6    1.94    1.14
   1  -1  -6  980.61   21.94
   1  -1  -6  901.11   22.42
   1  -1  -6  990.62   22.93
  -1   1   6  968.41   22.25
  -1   1   6  941.44   21.92
  -1   1   6  953.36   22.08
   0  -1  -6  972.31   22.74
   0  -1  -6 1029.69   23.70
   0  -1  -6 1030.32   23.64
   0   1   6 1009.12   23.15
   0   1   6  982.55   22.94
  -1  -1  -6   56.96    3.19
  -1  -1  -6   55.08    2.88
   1   1   6   58.91    3.19
   1   1   6   60.72    3.04
   1   1   6   58.81    3.11
  -2  -1  -6  792.25   18.69
  -2  -1  -6  792.12   19.19
   2   1   6  794.51   18.83
   2   1   6  801.16   19.03
   2   1   6  810.36   19.22
  -3  -1  -6  256.25    7.49
  -3  -1  -6  244.18    7.89
   3   1   6  241.72   10.64
   3   1   6  255.41    7.88
   3   1   6  249.75    7.80
   3   1   6  238.50    7.53
  -4  -1  -6  325.93    9.51
  -4  -1  -6  331.09   10.14
   4   1   6  337.07   10.06
   4   1   6  348.37   10.16
   4   1   6  329.72    9.76
   4   1   6  341.81   10.37
  -5  -1  -6  307.73    9.38
  -5  -1  -6  312.18   10.07
   5   1   6  304.99   10.02
   5   1   6  307.25    9.92
   5   1   6  312.03    9.68
   5   1   6  322.59    9.98
  -6  -1  -6   11.21    2.40
  -6  -1  -6   11.13    2.22
   6   1   6    6.05    1.90
   6   1   6   10.82    2.14
   6   1   6    6.96    1.99
  -7  -1  -6   97.37    5.50
   7   1   6  108.82    5.97
  -8  -1  -6   34.14    3.94
   8   1   6   35.19    4.04
  -9  -1  -6   -2.86    2.17
   9   1   6    0.71    1.95
 -10  -1  -6   21.25    3.93
   8  -2  -6    4.92    2.45
  -8   2   6    5.79    2.92
   7  -2  -6    9.98    2.45
  -7   2   6   12.61    2.83
   6  -2  -6    3.96    2.10
   6  -2  -6    0.12    1.44
  -6   2   6    0.14    1.59
   5  -2  -6    5.57    2.08
   5  -2  -6    6.83    1.93
  -5   2   6    4.76    1.81
   4  -2  -6    4.94    1.83
   4  -2  -6    5.42    2.49
   4  -2  -6    3.51    1.49
   4  -2  -6    2.46    1.52
  -4   2   6    4.34    1.61
  -4   2   6    3.90    1.61
   3  -2  -6  508.81   13.10
   3  -2  -6  490.35   13.75
   3  -2  -6  484.68   14.04
  -3   2   6  485.31   12.98
  -3   2   6  499.22   13.30
   2  -2  -6    4.98    1.41
   2  -2  -6    3.30    1.17
   2  -2  -6    0.45    1.80
  -2   2   6    3.56    1.25
  -2   2   6    4.98    1.32
  -2   2   6    2.92    1.14
   1  -2  -6   62.92    3.13
   1  -2  -6   61.00    4.14
   1  -2  -6   63.24    3.58
  -1   2   6   69.93    3.43
  -1   2   6   66.15    3.47
  -1   2   6   66.55    3.28
  -1   2   6   64.63    3.20
   0  -2  -6  260.98    7.35
   0  -2  -6  253.91    7.74
   0   2   6  249.21    7.57
   0   2   6  249.03    7.18
   0   2   6  253.79    7.60
   0   2   6  251.31    7.42
  -1  -2  -6  482.15   12.66
  -1  -2  -6  481.96   12.12
   1   2   6  474.96   12.45
   1   2   6  491.90   12.30
   1   2   6  496.93   12.51
  -2  -2  -6  450.56   11.67
  -2  -2  -6  463.00   12.23
   2   2   6  458.36   11.99
   2   2   6  479.76   12.15
   2   2   6  461.47   11.90
   2   2   6  460.15   12.03
  -3  -2  -6  105.62    4.22
  -3  -2  -6  108.77    4.68
   3   2   6  101.77    4.47
   3   2   6  107.58    4.40
   3   2   6  109.85    4.56
   3   2   6  105.97    4.58
  -4  -2  -6   56.38    3.68
  -4  -2  -6   54.58    3.27
   4   2   6   57.59    3.57
   4   2   6   50.88    3.43
   4   2   6   58.33    3.52
   4   2   6   56.17    3.38
  -5  -2  -6  113.35    5.52
  -5  -2  -6  111.83    5.01
   5   2   6  108.31    5.32
   5   2   6  104.32    5.26
   5   2   6  112.97    5.21
   5   2   6  119.29    5.26
  -6  -2  -6    1.20    1.57
   6   2   6   -2.30    1.28
   6   2   6   -0.95    1.21
   6   2   6    0.11    2.33
   6   2   6   -0.92    1.18
   7   2   6   94.53    5.55
   7   2   6   93.38    5.48
   7   2   6   92.09    5.73
  -8  -2  -6   11.89    2.86
   8   2   6    6.77    2.21
  -9  -2  -6    1.20    2.40
   9   2   6   -0.06    1.68
 -10  -2  -6    2.09    2.83
   8  -3  -6   72.81    6.03
  -8   3   6   59.93    5.55
   7  -3  -6    3.98    2.13
  -7   3   6    2.29    2.04
  -7   3   6    4.64    2.59
   6  -3  -6   31.89    3.55
  -6   3   6   33.50    3.56
   5  -3  -6   37.68    3.59
  -5   3   6   32.21    3.31
  -5   3   6   31.55    3.40
   4  -3  -6  429.99   13.30
   4  -3  -6  452.99   12.57
  -4   3   6  442.10   12.86
  -4   3   6  453.16   12.42
   3  -3  -6  581.43   14.72
   3  -3  -6  566.33   15.46
  -3   3   6  557.72   14.90
  -3   3   6  571.74   14.98
  -3   3   6  551.21   14.44
   2  -3  -6  163.90    6.27
   2  -3  -6  163.97    5.79
  -2   3   6  164.30    5.94
  -2   3   6  170.87    6.08
  -2   3   6  165.20    5.69
   1  -3  -6    5.36    1.64
   1  -3  -6    5.09    1.21
  -1   3   6    4.02    1.09
  -1   3   6    6.38    1.41
  -1   3   6    4.38    1.22
  -1   3   6    3.80    1.16
   0  -3  -6   92.47    3.74
   0  -3  -6   88.20    4.03
   0   3   6   88.24    3.78
   0   3   6   93.17    3.91
   0   3   6   90.47    3.96
   0   3   6   88.32    3.54
  -1  -3  -6  679.70   16.24
   1   3   6  680.36   16.61
   1   3   6  679.11   15.90
   1   3   6  688.01   16.45
   1   3   6  694.35   16.52
  -2  -3  -6    2.26    1.03
   2   3   6    2.18    1.03
   2   3   6    2.81    0.98
   2   3   6    3.97    1.07
  -3  -3  -6  791.81   18.62
   3   3   6  775.96   18.88
   3   3   6  792.96   18.87
   3   3   6  784.93   19.03
   3   3   6  815.93   19.21
   3   3   6  776.29   18.69
  -4  -3  -6   -0.05    1.29
  -4  -3  -6    1.51    1.15
   4   3   6    0.25    1.05
   4   3   6   -0.98    0.91
   4   3   6   -0.23    1.07
   4   3   6   -0.60    1.05
   4   3   6    1.05    1.03
  -5  -3  -6   40.41    3.23
   5   3   6   40.30    3.18
   5   3   6   43.73    3.41
   5   3   6   36.24    3.32
   5   3   6   41.93    3.20
   5   3   6   38.51    3.46
  -6  -3  -6  436.03   12.36
   6   3   6  417.29   12.49
   6   3   6  429.28   12.46
   6   3   6  428.14   12.26
   6   3   6  415.09   12.82
  -7  -3  -6    1.58    1.97
   7   3   6    0.55    1.46
   7   3   6   -0.38    1.58
   7   3   6    1.00    1.86
  -8  -3  -6  382.53   12.08
   8   3   6  343.39   11.54
   8   3   6  346.70   12.43
  -9  -3  -6   -0.41    2.23
   9   3   6    1.62    1.72
 -10  -3  -6   40.95    4.85
   8  -4  -6   41.08    4.91
  -8   4   6   32.90    4.02
  -8   4   6   54.06    6.14
   7  -4  -6    0.34    1.94
  -7   4   6   -0.72    2.46
  -7   4   6   -0.69    1.85
   6  -4  -6  148.16    7.17
  -6   4   6  144.66    6.53
  -6   4   6  150.63    7.78
   5  -4  -6  173.60    7.20
  -5   4   6  165.64    6.66
  -5   4   6  166.81    7.36
   4  -4  -6  213.55    7.56
  -4   4   6  175.64    7.65
  -4   4   6  203.76    7.02
  -4   4   6  201.98    7.67
   3  -4  -6  434.55   12.11
  -3   4   6  451.33   12.43
  -3   4   6  431.70   11.68
  -3   4   6  430.12   12.39
   2  -4  -6  181.09    6.28
   2  -4  -6  181.97    6.81
  -2   4   6  182.28    6.45
  -2   4   6  182.43    5.95
  -2   4   6  183.05    6.53
   1  -4  -6    9.02    1.46
  -1   4   6   14.56    1.90
  -1   4   6   14.44    1.67
  -1   4   6   16.01    1.96
  -1   4   6   12.66    1.70
  -1   4   6   11.88    1.98
   0   4   6   57.12    3.16
   0   4   6   58.84    3.44
   0   4   6   56.71    2.97
   0   4   6   57.62    2.68
   0   4   6   54.31    3.02
   0   4   6   57.88    2.51
  -1  -4  -6   89.75    3.66
   1   4   6   87.56    3.64
   1   4   6   86.17    3.08
   1   4   6   85.80    3.75
   1   4   6   88.59    3.90
   1   4   6   89.98    3.25
  -2  -4  -6  144.83    4.98
   2   4   6  143.58    5.30
   2   4   6  147.94    4.39
   2   4   6  143.40    4.96
   2   4   6  148.02    4.34
   2   4   6  145.78    5.13
  -3  -4  -6 1104.86   24.86
   3   4   6 1095.45   23.85
   3   4   6 1087.99   23.84
   3   4   6 1102.73   24.90
   3   4   6 1066.82   25.29
   3   4   6 1097.34   25.28
   3   4   6 1092.88   25.05
  -4  -4  -6  344.95    9.65
   4   4   6  335.88    9.75
   4   4   6  348.12   10.14
   4   4   6  327.95    8.57
   4   4   6  324.07    9.25
   4   4   6  357.16   10.07
   4   4   6  348.97    8.65
   4   4   6  340.69    9.63
  -5  -4  -6   56.91    3.77
   5   4   6   64.55    3.97
   5   4   6   64.63    3.94
   5   4   6   61.38    4.17
   5   4   6   54.39    3.73
   5   4   6   57.35    3.47
   5   4   6   56.91    2.94
  -6  -4  -6   38.08    3.53
   6   4   6   36.99    3.50
   6   4   6   33.87    3.33
   6   4   6   33.53    3.43
   6   4   6   34.50    3.13
  -7  -4  -6   31.94    3.39
   7   4   6   23.03    3.10
   7   4   6   24.74    3.22
   7   4   6   21.80    2.60
  -8  -4  -6    3.68    2.09
   8   4   6    3.75    1.95
   8   4   6    5.17    2.29
   8   4   6    1.95    1.50
   9   4   6    0.53    2.16
   9   4   6   -0.85    1.54
   9   4   6   -0.21    1.29
   7  -5  -6    4.09    2.30
  -7   5   6    1.33    1.79
  -7   5   6    0.87    2.64
   6  -5  -6   13.75    2.83
  -6   5   6   13.02    3.08
  -6   5   6   13.08    2.32
   5  -5  -6   13.46    2.64
  -5   5   6   11.66    2.10
  -5   5   6    8.65    2.45
  -5   5   6   13.45    2.89
   4  -5  -6   59.67    4.20
  -4   5   6   57.94    4.40
  -4   5   6   65.06    4.41
  -4   5   6   58.25    4.10
  -4   5   6   51.92    3.43
   3  -5  -6   19.92    2.56
  -3   5   6   20.90    2.17
  -3   5   6   18.80    2.47
  -3   5   6   20.58    2.70
   2  -5  -6    2.59    1.30
  -2   5   6    5.39    1.55
  -2   5   6    4.55    1.63
  -2   5   6    4.65    1.76
  -2   5   6    4.42    1.10
  -2   5   6    2.49    1.15
   1  -5  -6  174.29    5.84
  -1   5   6  161.42    5.87
  -1   5   6  166.33    4.73
  -1   5   6  156.31    5.97
  -1   5   6  164.43    4.83
  -1   5   6  164.22    6.34
  -1   5   6  165.10    5.55
   0   5   6  156.43    5.54
   0   5   6  154.39    5.69
   0   5   6  159.50    5.95
   0   5   6  151.78    5.10
   0   5   6  158.79    4.17
   0   5   6  160.95    4.28
  -1  -5  -6    6.85    1.31
   1   5   6    7.76    1.40
   1   5   6    6.06    1.35
   1   5   6    9.15    1.64
   1   5   6    7.68    1.19
   2   5   6  106.18    4.31
   2   5   6  106.55    4.42
   2   5   6  103.01    3.76
  -3  -5  -6 1682.27   37.07
   3   5   6 1700.49   36.56
   3   5   6 1710.75   37.59
   3   5   6 1692.81   37.36
   3   5   6 1679.56   37.67
  -4  -5  -6  384.01   10.36
   4   5   6  374.51   10.84
   4   5   6  372.85   10.69
   4   5   6  370.53   10.50
   4   5   6  376.13    9.83
  -5  -5  -6   99.31    4.85
   5   5   6  122.56    5.36
   5   5   6  110.08    4.56
   5   5   6  109.40    5.06
   5   5   6  108.67    5.48
   6   5   6  991.20   23.25
   6   5   6 1024.13   24.54
   6   5   6 1014.51   25.40
   6   5   6 1036.12   25.30
   7   5   6   67.03    3.65
   7   5   6   68.96    4.94
   7   5   6   63.05    4.42
   8   5   6  124.94    6.32
   8   5   6  118.60    5.26
   8   5   6  133.21    7.07
   9   5   6   19.14    2.45
   9   5   6   24.90    3.72
   9   5   6   19.05    2.95
   7  -6  -6   51.95    5.10
  -7   6   6   47.96    5.17
  -7   6   6   43.81    3.88
   6  -6  -6   24.31    3.56
  -6   6   6   24.44    4.91
  -6   6   6   26.85    4.01
  -6   6   6   21.77    2.60
   5  -6  -6  100.89    5.91
  -5   6   6  101.31    5.89
  -5   6   6  100.90    6.01
  -5   6   6   96.43    4.42
   4  -6  -6   -0.50    1.46
  -4   6   6    1.82    1.53
  -4   6   6    2.62    1.79
  -4   6   6    0.33    1.12
  -4   6   6    2.42    1.73
   3  -6  -6   -1.11    1.31
  -3   6   6    1.20    1.50
  -3   6   6   -0.52    0.92
  -3   6   6   -0.43    1.19
  -3   6   6   -0.48    1.40
   2  -6  -6   46.49    3.30
  -2   6   6   39.80    3.27
  -2   6   6   40.65    3.03
  -2   6   6   40.06    1.81
  -2   6   6   37.20    2.74
   1  -6  -6   14.39    1.89
  -1   6   6   17.19    1.77
  -1   6   6   18.23    2.18
  -1   6   6   18.98    2.34
  -1   6   6   19.47    2.50
  -1   6   6   21.45    2.07
   0   6   6   19.41    2.20
   0   6   6   18.97    1.62
   0   6   6   22.63    2.38
   0   6   6   20.36    2.43
  -1  -6  -6    7.51    1.46
   1   6   6   11.90    1.71
   1   6   6    9.01    1.55
   1   6   6   11.31    1.04
   1   6   6   15.36    2.18
   2   6   6   15.59    1.91
   2   6   6   15.91    1.89
   3   6   6   13.75    2.00
   3   6   6   12.52    1.93
   3   6   6   16.17    1.96
   4   6   6  109.19    4.67
   4   6   6  106.99    4.79
   4   6   6  104.11    4.89
   5   6   6   11.83    2.05
   5   6   6    8.53    2.05
   5   6   6   11.35    2.02
   6   6   6    1.01    1.43
   6   6   6    1.59    1.39
   6   6   6    0.12    1.28
   7   6   6    9.69    2.29
   7   6   6    7.78    1.85
   8   6   6   47.29    4.58
   8   6   6   46.75    4.24
   9   6   6   14.37    2.71
   9   6   6    9.94    1.53
   9   6   6   16.77    3.19
  -6   7   6   11.77    1.86
  -6   7   6    7.59    2.94
  -6   7   6    9.20    2.74
  -5   7   6    8.96    1.42
  -5   7   6    8.04    2.63
  -5   7   6    8.43    2.14
  -5   7   6    4.76    2.08
  -4   7   6    4.94    1.62
  -4   7   6    5.08    1.76
  -4   7   6    2.97    2.00
  -3   7   6   13.45    2.60
  -3   7   6   11.08    1.85
  -3   7   6   12.62    1.90
  -2   7   6  230.40    8.12
  -2   7   6  234.37    6.65
  -2   7   6  225.81    6.44
  -1   7   6  258.11    8.07
  -1   7   6  220.96    8.94
   0   7   6   43.01    3.51
   0   7   6   46.15    3.26
   0   7   6   46.94    3.15
   1   7   6  679.71   17.18
   1   7   6  694.39   17.01
   1   7   6  676.65   16.66
   2   7   6  255.56    7.66
   2   7   6  248.41    7.93
   3   7   6  114.54    4.72
   3   7   6  116.54    4.83
   3   7   6  116.99    5.06
   4   7   6  351.03   10.12
   4   7   6  361.17   10.46
   4   7   6  349.81    9.90
   5   7   6    2.62    1.43
   5   7   6    5.36    1.54
   5   7   6    5.22    1.66
   6   7   6    4.40    1.52
   6   7   6    4.55    1.43
   6   7   6    4.20    1.63
   7   7   6   17.64    2.83
   7   7   6   22.10    2.76
   8   7   6    0.94    1.53
   8   7   6    2.88    1.98
  -5   8   6   15.11    2.19
  -5   8   6   13.67    2.28
  -5   8   6   13.83    2.98
  -4   8   6   -0.56    1.03
  -4   8   6   -0.32    1.03
  -4   8   6   -1.25    1.65
  -3   8   6    0.33    1.61
  -2   8   6   57.21    4.11
  -1   8   6   89.65    4.66
   0   8   6   19.68    2.34
   0   8   6   15.02    2.17
   0   8   6   14.85    2.39
   1   8   6   51.76    3.36
   1   8   6   46.87    3.60
   1   8   6   47.62    3.17
   2   8   6   91.10    4.54
   2   8   6   96.69    4.23
   2   8   6   92.51    4.38
   3   8   6  161.52    6.04
   3   8   6  159.58    5.69
   3   8   6  151.83    5.51
   4   8   6  312.32    9.08
   4   8   6  317.99    9.29
   4   8   6  321.36    9.71
   5   8   6    1.11    1.26
   5   8   6    2.81    1.43
   5   8   6    2.87    1.39
   6   8   6   90.55    4.66
   6   8   6   88.56    4.47
   6   8   6   90.33    5.04
   7   8   6    3.05    1.74
   7   8   6    1.39    1.38
   7   8   6    2.62    1.43
   8   8   6   11.93    2.64
   8   8   6    8.65    2.03
  -4   9   6   -2.31    1.63
  -3   9   6    8.94    2.50
  -2   9   6    5.15    1.94
  -1   9   6   78.31    4.43
   0   9   6    0.11    1.21
   0   9   6    0.05    1.13
   1   9   6   51.75    3.47
   1   9   6   52.64    3.24
   1   9   6   57.77    3.91
   2   9   6    6.92    1.88
   2   9   6    4.64    1.32
   2   9   6    6.29    1.56
   3   9   6   30.22    2.54
   3   9   6   29.47    2.53
   3   9   6   28.79    2.72
   4   9   6   63.03    3.84
   4   9   6   60.70    3.45
   4   9   6   60.23    3.35
   5   9   6   16.36    2.01
   5   9   6   19.37    2.46
   5   9   6   13.96    1.97
   6   9   6   14.15    2.05
   6   9   6   12.76    2.26
   6   9   6    8.67    1.71
   7   9   6   26.69    2.80
   7   9   6   31.38    3.12
   7   9   6   27.14    3.23
  -2  10   6   -1.98    1.51
  -1  10   6   59.14    4.14
   0  10   6   29.29    2.91
   1  10   6   -0.01    1.05
   1  10   6    2.07    1.22
   2  10   6   37.41    2.68
   2  10   6   36.63    3.40
   2  10   6   31.07    2.82
   3  10   6   18.06    2.27
   3  10   6   22.41    2.12
   3  10   6   21.66    2.11
   4  10   6   36.57    2.60
   4  10   6   37.31    2.64
   4  10   6   34.09    3.09
   5  10   6    0.67    1.11
   5  10   6    2.34    1.46
   5  10   6    2.30    1.13
   6  10   6   27.58    3.04
   6  10   6   23.85    2.49
   6  10   6   26.10    2.45
   0  11   6    0.61    1.45
   1  11   6    4.33    1.56
   1  11   6    4.49    1.46
   2  11   6   18.36    1.94
   2  11   6   18.30    1.90
   2  11   6   15.97    2.25
   3  11   6   12.18    1.59
   3  11   6   11.60    1.58
   3  11   6   11.10    1.93
   4  11   6   14.90    1.65
   4  11   6   11.73    1.50
   3   9  -7   13.95    3.75
   3   9  -7    6.75    1.69
   2   9  -7    0.67    1.23
   2   9  -7    0.68    2.50
   1   9  -7    1.66    2.46
   1   9  -7   -2.75    1.11
   0   9  -7   35.94    5.28
   0   9  -7   28.32    3.00
  -1   9  -7    8.98    3.64
   5   8  -7   61.04    5.72
   5   8  -7   59.58    3.90
   5   8  -7   54.23    4.91
   4   8  -7    3.70    1.48
   4   8  -7    6.32    2.94
   4   8  -7    0.97    1.92
   3   8  -7   36.42    3.14
   3   8  -7   38.14    4.91
   2   8  -7   25.70    2.66
   2   8  -7   28.76    4.50
   1   8  -7    2.54    1.55
   1   8  -7    7.41    2.92
   0   8  -7   26.18    4.36
   0   8  -7   26.76    2.90
  -1   8  -7    3.87    2.72
  -1   8  -7    2.83    1.67
  -2   8  -7   29.65    4.82
  -3   8  -7   10.42    3.63
   6   7  -7   10.08    2.92
   6   7  -7   10.58    2.63
   6   7  -7    1.92    2.67
   5   7  -7   19.38    3.61
   5   7  -7   15.39    2.42
   5   7  -7   15.68    2.80
   4   7  -7    8.19    2.79
   4   7  -7   10.06    1.90
   4   7  -7    6.27    2.31
   3   7  -7    2.40    2.35
   3   7  -7    3.26    2.04
   3   7  -7    1.02    1.21
   2   7  -7   42.48    3.25
   2   7  -7   43.26    4.94
   1   7  -7   -1.13    1.86
   1   7  -7   -1.63    1.09
   0   7  -7    4.06    1.61
   0   7  -7    5.36    2.40
  -1   7  -7   14.96    2.32
  -1   7  -7   13.45    3.32
  -2   7  -7    0.49    2.32
  -3   7  -7   33.74    4.98
  -4   7  -7   37.09    5.09
  -5   7  -7    0.37    2.64
  -5   7  -7    1.55    1.52
   7   6  -7   31.25    4.50
   7   6  -7   29.19    3.83
   6   6  -7   -1.16    2.23
   6   6  -7    2.73    2.11
   6   6  -7   -0.44    2.05
   5   6  -7   90.87    6.18
   5   6  -7   96.44    6.03
   5   6  -7  115.50    7.73
   4   6  -7  120.35    6.58
   4   6  -7  111.08    5.16
   4   6  -7  109.45    6.14
   3   6  -7   32.86    4.12
   3   6  -7   33.88    2.95
   3   6  -7   34.02    3.76
   2   6  -7  167.89    6.23
   2   6  -7  166.78    8.10
   1   6  -7   60.07    5.07
   1   6  -7   56.57    3.70
   0   6  -7   15.84    3.26
   0   6  -7   13.30    2.09
  -1   6  -7   82.70    5.88
  -1   6  -7   84.64    4.66
  -2   6  -7   16.46    3.32
  -2   6  -7    9.85    1.29
  -3   6  -7  153.95    8.25
  -3   6  -7  149.22    5.40
  -4   6  -7    8.10    3.03
  -4   6  -7    4.49    1.87
  -4   6  -7    2.48    1.69
  -5   6  -7   36.60    4.87
  -5   6  -7   33.60    3.49
  -6   6  -7    7.42    2.62
  -6   6  -7    7.02    3.09
   7   5  -7    3.91    2.38
   7   5  -7    7.92    3.19
   6   5  -7    3.05    2.67
   6   5  -7    4.79    2.26
   5   5  -7  130.58    6.73
   5   5  -7  128.15    6.32
   4   5  -7   61.54    3.77
   4   5  -7   60.85    4.56
   4   5  -7   57.54    4.70
   3   5  -7   21.40    3.17
   3   5  -7   22.96    3.34
   3   5  -7   18.46    2.22
   2   5  -7  265.23    8.75
   2   5  -7  272.65   10.00
   2   5  -7  274.65    8.44
   1   5  -7    2.42    1.98
   1   5  -7    3.24    1.25
   1   5  -7    2.96    0.79
   1   5  -7    4.48    1.41
   0   5  -7    6.15    1.04
   0   5  -7    4.13    1.39
   0   5  -7    5.24    1.51
   0   5  -7    8.25    2.40
   0   5  -7    6.49    1.15
  -1   5  -7   32.51    2.37
  -1   5  -7   36.90    4.21
  -1   5  -7   35.96    2.42
  -1   5  -7   37.79    3.21
  -2   5  -7   25.92    2.98
  -2   5  -7   34.90    4.32
  -2   5  -7   32.65    2.61
  -2   5  -7   33.39    2.79
  -3   5  -7   20.54    1.51
  -3   5  -7   21.46    3.55
  -3   5  -7   18.97    2.35
  -3   5  -7   21.97    2.67
  -4   5  -7   86.66    4.83
  -4   5  -7   84.16    6.13
  -4   5  -7   85.42    3.48
  -4   5  -7   80.01    4.59
  -5   5  -7    1.01    1.34
  -5   5  -7    3.72    2.38
  -5   5  -7   -0.69    1.74
  -6   5  -7   23.92    3.44
  -6   5  -7   16.15    3.43
  -6   5  -7   14.16    2.09
  -7   5  -7   19.91    4.12
  -7   5  -7   13.76    3.25
  -7   5  -7   11.15    2.18
   8   4  -7    2.74    1.70
   8   4  -7    2.19    1.61
   8   4  -7    1.58    2.99
   8   4  -7    3.66    2.55
   7   4  -7    9.64    1.86
   7   4  -7   14.34    3.57
   7   4  -7   13.94    3.03
   7   4  -7   13.09    2.10
   6   4  -7    8.92    1.77
   6   4  -7   11.77    3.30
   6   4  -7   13.08    2.83
   6   4  -7   11.52    1.88
   5   4  -7   -1.69    1.79
   5   4  -7    0.76    1.47
   5   4  -7    1.08    1.18
   5   4  -7   -0.08    0.95
   5   4  -7    0.71    1.86
   4   4  -7    0.94    1.91
   4   4  -7    2.25    1.14
   4   4  -7    3.18    1.18
   4   4  -7    1.22    1.64
   4   4  -7    3.11    1.42
   3   4  -7   36.73    2.44
   3   4  -7   33.21    2.83
   3   4  -7   42.93    4.17
   3   4  -7   35.72    3.75
   3   4  -7   42.10    2.72
   2   4  -7   97.70    4.36
   2   4  -7   93.41    3.83
   2   4  -7   90.85    5.08
   2   4  -7   92.48    3.71
   2   4  -7   87.33    4.37
   1   4  -7   68.68    3.40
   1   4  -7   68.97    4.52
   1   4  -7   70.81    3.30
   1   4  -7   73.03    3.82
   1   4  -7   69.76    3.78
   0   4  -7    3.44    1.71
   0   4  -7   -0.22    0.97
   0   4  -7    0.48    1.07
   0   4  -7   -0.51    1.00
   0   4  -7   -0.65    0.91
  -1   4  -7  387.54   10.42
  -1   4  -7  387.38   10.97
  -1   4  -7  378.65    9.00
  -1   4  -7  371.15   11.97
  -1   4  -7  377.66    9.03
  -1   4  -7  387.64   12.60
  -1   4  -7  363.31   10.37
  -2   4  -7   52.81    3.54
  -2   4  -7   52.44    3.75
  -2   4  -7   57.52    3.54
  -2   4  -7   54.80    4.35
  -2   4  -7   57.28    2.77
  -3   4  -7   56.34    4.62
  -3   4  -7   62.43    3.18
  -3   4  -7   54.57    3.81
  -3   4  -7   62.02    3.99
  -4   4  -7   64.01    4.44
  -4   4  -7   65.71    3.56
  -4   4  -7   69.18    5.12
  -4   4  -7   66.17    4.41
  -5   4  -7   17.94    3.24
  -5   4  -7   21.17    3.08
  -5   4  -7   18.03    2.32
  -6   4  -7   -0.82    1.77
  -6   4  -7   -1.36    1.25
  -6   4  -7   -0.89    1.98
  -7   4  -7    5.37    2.72
  -7   4  -7    2.42    2.36
  -7   4  -7    9.16    2.14
   8   3  -7    3.26    2.01
   8   3  -7    2.93    2.54
   8   3  -7   -2.20    3.84
   7   3  -7   21.54    3.51
   7   3  -7   15.91    4.04
   7   3  -7   15.12    2.57
   6   3  -7  114.58    5.56
   6   3  -7  105.47    4.17
   6   3  -7  111.93    6.56
   6   3  -7  118.63    7.40
   6   3  -7  110.51    5.32
  -6  -3   7  118.39    6.32
   5   3  -7   12.84    2.14
   5   3  -7    9.72    1.94
   5   3  -7    9.34    1.43
   5   3  -7   13.39    2.79
   5   3  -7    8.39    1.85
   5   3  -7   11.26    3.09
  -5  -3   7   11.05    2.39
   4   3  -7   93.07    4.37
   4   3  -7   85.18    4.49
   4   3  -7   95.61    3.58
   4   3  -7   97.13    5.82
   4   3  -7   90.04    4.61
   4   3  -7  103.00    6.65
  -4  -3   7   96.38    4.80
   3   3  -7   58.58    3.39
   3   3  -7   67.51    4.75
   3   3  -7   64.41    3.59
   3   3  -7   54.51    3.52
   3   3  -7   60.61    2.67
   3   3  -7   56.41    3.73
   2   3  -7  201.36    7.83
   2   3  -7  197.37    6.93
   2   3  -7  200.01    6.49
   2   3  -7  191.80    6.68
   2   3  -7  203.56    5.70
   2   3  -7  199.92    7.28
   2   3  -7  205.03    6.81
   1   3  -7  135.50    5.43
   1   3  -7  142.57    4.47
   1   3  -7  133.73    5.95
   1   3  -7  146.47    5.42
   1   3  -7  145.49    5.48
   1   3  -7  141.69    5.19
   0   3  -7    0.87    1.02
   0   3  -7    1.68    1.17
   0   3  -7    1.10    1.07
   0   3  -7    0.36    1.13
   0   3  -7    1.35    0.87
   0   3  -7    1.77    1.47
  -1   3  -7  179.18    5.52
  -1   3  -7  174.49    6.40
  -1   3  -7  183.10    6.30
  -1   3  -7  172.13    7.00
  -1   3  -7  172.25    6.47
  -1   3  -7  175.38    6.38
  -2   3  -7  148.22    6.55
  -2   3  -7  145.92    5.99
  -2   3  -7  145.18    5.11
  -2   3  -7  144.56    5.93
  -2   3  -7  152.12    5.97
  -3   3  -7   11.75    1.92
  -3   3  -7   10.21    2.47
  -3   3  -7    8.73    1.94
  -3   3  -7    9.84    2.30
  -4   3  -7  109.11    5.82
  -4   3  -7  116.09    6.03
  -4   3  -7  103.28    5.34
  -4   3  -7  110.02    4.79
  -5   3  -7    0.63    1.72
  -5   3  -7    1.39    1.34
  -5   3  -7    1.65    1.69
  -6   3  -7   14.39    2.95
  -6   3  -7   12.28    2.27
  -6   3  -7   18.83    3.24
  -7   3  -7    9.28    2.67
  -7   3  -7   11.24    2.86
  -7   3  -7    6.16    1.94
  -8   3  -7    9.06    3.07
  -8   3  -7    8.15    2.68
   8   2  -7   -0.59    1.80
   8   2  -7    0.45    1.27
  -8  -2   7    2.03    2.55
   7   2  -7   56.62    6.07
   7   2  -7   65.82    4.95
   7   2  -7   58.29    5.40
   7   2  -7   56.84    3.60
  -7  -2   7   68.50    5.60
   6   2  -7    0.96    1.57
   6   2  -7    1.25    1.13
   6   2  -7    0.98    2.45
   6   2  -7    1.88    2.09
  -6  -2   7    1.31    1.96
   5   2  -7   39.21    3.81
   5   2  -7   40.37    2.84
   5   2  -7   42.44    4.83
   5   2  -7   41.94    4.29
   5   2  -7   37.72    3.47
   5   2  -7   43.19    2.91
  -5  -2   7   43.62    3.90
   4   2  -7    4.98    2.86
   4   2  -7    5.95    1.35
   4   2  -7    8.83    1.68
   4   2  -7    5.22    1.61
   4   2  -7    4.37    1.67
  -4  -2   7    8.85    2.02
   3   2  -7    0.90    1.25
   3   2  -7    5.13    1.40
   3   2  -7    7.40    1.57
   3   2  -7    3.96    2.24
   3   2  -7    3.12    1.50
   3   2  -7    4.30    1.14
  -3  -2   7    4.02    1.41
   2   2  -7   69.12    3.74
   2   2  -7   69.29    4.00
   2   2  -7   71.22    3.28
   2   2  -7   78.61    3.84
   2   2  -7   64.99    4.45
   2   2  -7   77.01    3.86
   1   2  -7  366.44   10.43
   1   2  -7  373.64   10.21
   1   2  -7  354.66   10.11
   1   2  -7  364.45    9.54
  -1  -2   7  363.11   10.67
   0   2  -7   26.14    2.53
   0   2  -7   27.95    2.58
   0   2  -7   27.27    2.29
   0   2  -7   26.41    2.73
   0  -2   7   30.40    2.82
  -1   2  -7  203.25    6.31
  -1   2  -7  202.46    6.89
  -1   2  -7  205.83    7.03
  -1   2  -7  190.83    6.71
   1  -2   7  197.01    7.07
  -2   2  -7  413.41   11.71
  -2   2  -7  417.73   10.89
  -2   2  -7  408.79   11.54
  -2   2  -7  396.14   11.77
   2  -2   7  406.24   11.81
  -3   2  -7  109.50    5.32
  -3   2  -7  105.49    5.20
  -3   2  -7  105.54    4.59
   3  -2   7   97.94    5.16
  -4   2  -7   13.94    2.43
  -4   2  -7   18.10    2.38
  -5   2  -7  124.67    5.45
  -5   2  -7  118.75    6.02
  -6   2  -7   46.95    4.37
  -7   2  -7   34.27    4.01
  -7   2  -7   32.10    4.06
  -7   2  -7   27.26    3.26
  -8   2  -7   18.03    3.43
  -8   2  -7   12.08    2.77
  -8   2  -7   13.80    3.05
   8   1  -7   27.33    3.80
   8   1  -7   32.71    3.39
  -8  -1   7   44.32    5.00
   7   1  -7    5.93    1.74
   7   1  -7    4.92    2.30
  -7  -1   7    9.18    2.76
   6   1  -7   20.67    2.44
   6   1  -7   25.48    3.42
   6   1  -7   29.68    4.48
   6   1  -7   24.37    3.59
  -6  -1   7   23.74    3.33
   5   1  -7  168.26    6.31
   5   1  -7  179.99    7.44
   5   1  -7  167.35    8.26
   5   1  -7  176.98    7.80
   5   1  -7  171.71    5.72
  -5  -1   7  179.82    7.22
   4   1  -7   -0.18    1.44
   4   1  -7   -0.77    1.30
   4   1  -7    0.75    2.43
   4   1  -7    1.34    1.04
   4   1  -7   -0.61    0.88
  -4  -1   7    0.22    1.47
   3   1  -7  400.89   11.71
   3   1  -7  410.01   12.11
   3   1  -7  424.72   11.22
   3   1  -7  436.11   13.03
  -3  -1   7  412.61   11.63
   2   1  -7   22.94    2.26
   2   1  -7   29.65    3.50
   2   1  -7   26.39    2.85
   2   1  -7   24.61    2.58
  -2  -1   7   31.04    2.85
   1   1  -7  290.86    9.65
   1   1  -7  289.83    8.84
   1   1  -7  296.40    8.40
   1   1  -7  305.37    9.21
   0   1  -7  165.20    6.00
   0   1  -7  158.80    6.12
   0   1  -7  164.30    5.53
   0  -1   7  167.16    6.16
  -1   1  -7    7.10    1.45
  -1   1  -7    5.55    1.49
  -1   1  -7    7.21    1.56
   1  -1   7    5.44    1.53
  -2   1  -7  723.94   17.90
  -2   1  -7  682.14   17.07
  -2   1  -7  713.43   17.97
   2  -1   7  711.70   17.94
  -3   1  -7    2.52    1.33
  -3   1  -7    0.33    1.34
  -3   1  -7    1.07    1.17
   3  -1   7   -0.37    1.20
   3  -1   7    0.51    1.23
   3  -1   7    1.22    1.51
  -4   1  -7  395.97   11.86
  -4   1  -7  384.42   11.04
   4  -1   7  395.14   11.99
  -5   1  -7   69.00    4.22
  -5   1  -7   72.26    4.74
   5  -1   7   71.24    4.70
  -6   1  -7   19.59    2.75
  -6   1  -7   22.88    3.23
  -7   1  -7   16.29    2.73
  -7   1  -7   14.91    3.02
  -8   1  -7   11.07    2.82
  -9   1  -7    1.46    2.37
  -9   1  -7    1.28    2.15
   8   0  -7    8.14    2.23
   8   0  -7    8.67    2.94
  -8   0   7    5.89    3.00
   7   0  -7   19.47    3.49
   7   0  -7   21.84    2.96
  -7   0   7   29.04    4.00
   6   0  -7   22.27    2.79
   6   0  -7   21.45    3.27
  -6   0   7   29.13    3.80
   5   0  -7   54.77    5.26
   5   0  -7   48.30    4.38
   5   0  -7   54.77    4.55
   5   0  -7   54.21    3.69
  -5   0   7   53.76    4.30
   4   0  -7   -0.35    1.08
   4   0  -7   -0.89    2.55
   4   0  -7    0.30    1.58
  -4   0   7   -1.53    1.32
   3   0  -7  917.50   23.21
   3   0  -7  914.52   22.78
   3   0  -7  920.76   22.21
  -3   0   7 1044.53   24.64
  -3   0   7  921.47   22.61
   2   0  -7   51.03    3.97
   2   0  -7   52.33    3.65
   2   0  -7   53.13    3.20
  -2   0   7   48.10    3.33
  -2   0   7   51.84    3.26
   1   0  -7   33.63    3.49
   1   0  -7   27.04    2.59
   1   0  -7   28.69    2.43
   1   0  -7   27.24    2.66
  -1   0   7   31.72    2.44
   0   0  -7  210.95    6.66
   0   0  -7  224.61    7.41
   0   0  -7  216.93    7.71
   0   0   7  199.02    7.01
   0   0   7  215.19    6.91
   0   0   7  213.13    6.93
  -1   0  -7  884.24   20.72
  -1   0  -7  890.54   21.47
   1   0   7  867.51   20.92
   1   0   7  886.90   21.10
   1   0   7  903.31   21.49
  -2   0  -7   67.53    3.46
  -2   0  -7   65.96    4.02
   2   0   7   66.59    3.62
   2   0   7   67.16    3.56
   2   0   7   59.83    3.67
  -3   0  -7  245.77    7.80
  -3   0  -7  251.46    8.36
   3   0   7  246.60    8.07
   3   0   7  268.92    8.56
   3   0   7  245.07    8.08
  -4   0  -7    5.51    1.65
  -4   0  -7    3.19    1.66
   4   0   7    3.46    1.52
   4   0   7    0.91    1.24
   4   0   7    2.42    1.40
  -5   0  -7  149.85    6.70
  -5   0  -7  148.90    6.07
   5   0   7  149.53    6.73
  -6   0  -7    4.89    2.14
  -6   0  -7    8.91    2.26
   6   0   7    6.64    2.08
  -7   0  -7    6.65    2.14
   7   0   7    5.09    2.08
  -8   0  -7   13.23    2.90
  -9   0  -7    1.22    2.45
   8  -1  -7   15.52    3.04
   8  -1  -7   10.69    3.04
  -8   1   7   21.68    3.94
   7  -1  -7   14.31    3.18
   7  -1  -7   11.42    2.40
  -7   1   7   12.52    3.18
   6  -1  -7  100.72    5.54
   6  -1  -7  116.90    6.80
  -6   1   7  112.91    6.27
   5  -1  -7   38.84    4.00
   5  -1  -7   38.80    3.49
  -5   1   7   41.16    3.97
   4  -1  -7    1.63    2.55
   4  -1  -7   -0.06    1.37
   4  -1  -7    0.53    1.25
  -4   1   7    2.48    1.60
   3  -1  -7 1399.76   31.87
   3  -1  -7 1373.60   32.75
   3  -1  -7 1446.45   33.84
  -3   1   7 1401.86   32.00
  -3   1   7 1366.53   32.18
   2  -1  -7  317.17    9.25
   2  -1  -7  301.51    9.73
  -2   1   7  326.09    9.43
  -2   1   7  313.74    9.46
   1  -1  -7   21.21    2.76
   1  -1  -7   22.68    2.97
   1  -1  -7   20.67    2.21
  -1   1   7   25.18    2.47
  -1   1   7   23.11    2.37
  -1   1   7   18.77    2.09
   0  -1  -7  429.26   12.02
   0  -1  -7  416.13   11.65
   0  -1  -7  400.60   10.97
   0   1   7  410.25   11.28
   0   1   7  418.79   11.18
  -1  -1  -7 1035.20   23.83
  -1  -1  -7 1034.92   24.48
   1   1   7 1031.35   24.26
   1   1   7 1006.09   23.90
   1   1   7 1054.27   24.17
  -2  -1  -7  204.69    7.25
  -2  -1  -7  200.51    6.68
   2   1   7  207.38    7.05
   2   1   7  209.34    7.21
   2   1   7  218.53    6.99
  -3  -1  -7  164.31    5.89
  -3  -1  -7  159.16    6.31
   3   1   7  164.94    6.04
   3   1   7  162.66    6.26
   3   1   7  161.17    6.17
  -4  -1  -7  108.45    4.93
  -4  -1  -7  113.32    5.40
   4   1   7  114.72    5.33
   4   1   7  108.82    5.07
   4   1   7  109.70    5.27
  -5  -1  -7   72.28    4.61
  -5  -1  -7   73.65    4.35
   5   1   7   72.69    4.68
   5   1   7   62.95    4.43
   5   1   7   77.04    4.48
  -6  -1  -7  138.80    6.28
   6   1   7  147.84    6.83
  -7  -1  -7   26.84    3.29
   7   1   7   20.68    3.07
  -8  -1  -7  307.83   10.98
   8   1   7  307.23   11.47
  -9  -1  -7   -0.78    2.34
   9   1   7   -0.79    1.93
   8  -2  -7   -0.23    2.15
  -8   2   7   -2.56    2.26
   7  -2  -7    2.73    1.94
  -7   2   7    4.62    2.54
   6  -2  -7   13.13    2.52
   6  -2  -7   10.37    3.09
  -6   2   7   12.02    2.69
   5  -2  -7   22.86    2.94
   5  -2  -7   21.41    3.30
  -5   2   7   21.89    2.99
   4  -2  -7    3.87    1.95
   4  -2  -7    2.97    1.62
  -4   2   7    2.79    1.65
  -4   2   7    2.20    1.61
   3  -2  -7  374.57   10.71
   3  -2  -7  366.53   11.41
   3  -2  -7  334.33   11.78
  -3   2   7  359.20   10.86
  -3   2   7  363.57   10.63
   2  -2  -7    2.41    2.43
   2  -2  -7    3.71    1.64
   2  -2  -7    3.94    1.45
  -2   2   7    2.43    1.38
  -2   2   7    3.75    1.53
   1  -2  -7  114.46    5.19
   1  -2  -7  104.16    4.43
   1  -2  -7  100.60    5.33
  -1   2   7  107.44    4.75
  -1   2   7  110.46    4.58
  -1   2   7  107.49    4.59
  -1   2   7  107.55    4.71
   0  -2  -7   14.61    2.92
   0  -2  -7   18.95    2.40
   0  -2  -7   13.71    1.76
   0   2   7   11.32    1.68
   0   2   7   13.25    1.77
   0   2   7   11.68    1.69
   0   2   7   15.12    1.93
  -1  -2  -7   55.17    3.36
  -1  -2  -7   54.70    3.03
   1   2   7   54.59    3.22
   1   2   7   52.14    3.21
   1   2   7   54.61    3.12
  -2  -2  -7   42.48    3.02
  -2  -2  -7   44.37    2.86
   2   2   7   47.70    2.95
   2   2   7   45.21    3.06
   2   2   7   40.68    2.92
   2   2   7   43.32    3.01
  -3  -2  -7  537.28   14.07
  -3  -2  -7  562.44   14.79
   3   2   7  550.15   14.59
   3   2   7  543.34   14.58
   3   2   7  545.13   14.31
   3   2   7  568.36   14.65
  -4  -2  -7  249.01    7.97
  -4  -2  -7  249.39    8.54
   4   2   7  249.34    8.38
   4   2   7  250.96    8.19
   4   2   7  251.50    8.50
   4   2   7  246.89    8.47
  -5  -2  -7  133.46    5.76
   5   2   7  133.74    6.47
   5   2   7  124.60    5.75
   5   2   7  121.27    5.97
   5   2   7  133.49    5.95
  -6  -2  -7    1.24    1.72
   6   2   7   -1.34    1.38
   6   2   7    1.20    1.53
   6   2   7    0.84    1.67
  -7  -2  -7   21.86    3.12
   7   2   7   23.29    3.17
   7   2   7   26.04    4.39
  -8  -2  -7   14.66    2.88
   8   2   7   14.35    2.72
  -9  -2  -7   31.80    4.16
   9   2   7   24.93    3.62
   8  -3  -7   19.90    3.74
  -8   3   7   23.33    3.95
   7  -3  -7   69.28    5.69
  -7   3   7   69.43    5.50
   6  -3  -7   28.52    3.48
  -6   3   7   29.92    3.64
   5  -3  -7   65.46    4.77
  -5   3   7   64.47    4.55
   4  -3  -7  306.77    9.86
  -4   3   7  306.51    9.75
  -4   3   7  292.48    9.97
   3  -3  -7  120.34    5.50
   3  -3  -7  114.75    5.94
  -3   3   7  131.28    5.78
  -3   3   7  124.25    5.41
  -3   3   7  109.99    5.68
   2  -3  -7  284.35    9.39
   2  -3  -7  289.18    8.82
  -2   3   7  284.57    8.95
  -2   3   7  278.92    8.61
  -2   3   7  283.21    9.10
   1  -3  -7   76.38    4.34
   1  -3  -7   75.14    3.79
  -1   3   7   78.39    3.90
  -1   3   7   78.04    4.03
  -1   3   7   76.13    3.71
  -1   3   7   73.89    3.91
   0  -3  -7  225.65    7.17
   0  -3  -7  236.35    7.78
   0   3   7  229.97    7.26
   0   3   7  228.56    7.48
   0   3   7  232.92    7.39
   0   3   7  224.76    6.94
  -1  -3  -7    7.70    1.44
  -1  -3  -7    6.38    1.56
   1   3   7    6.49    1.35
   1   3   7    5.44    1.33
   1   3   7    4.18    1.20
   1   3   7    6.05    1.30
  -2  -3  -7  138.37    5.16
   2   3   7  129.49    4.79
   2   3   7  132.09    5.36
   2   3   7  146.04    5.31
   2   3   7  134.35    5.29
  -3  -3  -7   74.20    4.22
  -3  -3  -7   70.10    3.77
   3   3   7   71.73    4.01
   3   3   7   75.10    3.98
   3   3   7   75.58    3.95
   3   3   7   81.19    4.03
   3   3   7   75.01    4.14
  -4  -3  -7   39.25    3.09
   4   3   7   42.16    3.30
   4   3   7   40.57    3.27
   4   3   7   37.76    3.15
   4   3   7   42.10    3.17
   4   3   7   43.92    3.50
  -5  -3  -7  157.33    6.29
   5   3   7  158.58    6.73
   5   3   7  153.20    6.35
   5   3   7  148.58    6.43
   5   3   7  150.07    6.27
  -6  -3  -7  264.10    8.88
   6   3   7  259.96    9.40
   6   3   7  242.10    8.74
   6   3   7  245.76    8.87
  -7  -3  -7   40.90    4.04
   7   3   7   36.85    3.95
   7   3   7   40.46    3.83
   7   3   7   31.87    3.42
  -8  -3  -7  185.32    8.11
   8   3   7  179.50    7.87
  -9  -3  -7    5.08    2.44
   9   3   7    1.52    1.72
   7  -4  -7   28.34    4.02
  -7   4   7   29.86    4.80
  -7   4   7   24.67    3.48
   6  -4  -7   78.93    5.66
  -6   4   7   72.81    5.04
  -6   4   7   69.65    6.11
   5  -4  -7  127.76    6.57
  -5   4   7  128.09    6.00
   4  -4  -7  150.68    6.58
  -4   4   7  142.07    6.58
  -4   4   7  149.87    6.19
   3  -4  -7    1.13    1.56
  -3   4   7    1.58    1.61
  -3   4   7    0.30    1.40
  -3   4   7    2.02    1.56
   2  -4  -7   94.96    4.66
  -2   4   7   79.17    4.40
  -2   4   7   83.40    4.56
  -2   4   7   85.57    4.25
   1  -4  -7   53.20    3.32
   1  -4  -7   55.86    4.50
  -1   4   7   52.50    3.50
  -1   4   7   48.98    3.06
  -1   4   7   50.12    3.25
  -1   4   7   48.01    3.28
   0  -4  -7  156.41    5.74
   0   4   7  163.56    6.11
   0   4   7  166.80    5.41
   0   4   7  164.48    5.93
   0   4   7  159.58    5.82
  -1  -4  -7 1273.64   28.10
   1   4   7 1260.03   28.23
   1   4   7 1109.75   28.69
   1   4   7 1262.09   28.14
   1   4   7 1249.08   28.52
   1   4   7 1238.24   27.27
  -2  -4  -7   24.43    2.42
   2   4   7   27.31    2.53
   2   4   7   29.79    2.36
   2   4   7   26.09    2.09
   2   4   7   22.82    2.45
   2   4   7   30.43    2.69
  -3  -4  -7  367.84   10.43
   3   4   7  380.76   11.03
   3   4   7  385.73   10.99
   3   4   7  369.43    9.66
   3   4   7  380.08   10.74
   3   4   7  384.71    9.70
   3   4   7  378.89   10.60
  -4  -4  -7  636.35   15.90
   4   4   7  635.34   16.09
   4   4   7  598.47   15.54
   4   4   7  626.81   14.85
   4   4   7  629.16   16.29
   4   4   7  562.04   17.01
   4   4   7  645.78   16.06
   4   4   7  641.64   16.55
  -5  -4  -7  167.95    6.64
   5   4   7  166.97    7.03
   5   4   7  165.38    6.36
   5   4   7  166.54    6.68
   5   4   7  160.52    6.66
  -6  -4  -7    9.84    2.30
   6   4   7    7.86    2.06
   6   4   7    8.35    1.93
   6   4   7    9.44    2.17
   6   4   7   10.15    2.27
  -7  -4  -7  153.69    7.01
   7   4   7  149.48    6.82
   7   4   7  168.58    8.65
   7   4   7  155.44    6.60
   7   4   7  159.06    7.57
  -8  -4  -7   17.60    3.03
   8   4   7   15.75    2.94
   8   4   7   14.27    2.41
   8   4   7   13.41    2.63
   9   4   7    0.65    1.44
   7  -5  -7   30.20    4.14
  -7   5   7   26.03    3.34
  -7   5   7   32.23    4.77
   6  -5  -7  106.42    6.59
  -6   5   7   99.16    5.52
  -6   5   7  110.78    7.15
   5  -5  -7   13.14    2.61
  -5   5   7   14.52    2.33
  -5   5   7   15.75    3.17
  -5   5   7   13.67    2.89
   4  -5  -7   89.14    5.31
  -4   5   7   98.59    5.62
  -4   5   7   96.14    4.70
   3  -5  -7  274.06    9.16
  -3   5   7  270.54    8.22
  -3   5   7  267.84    9.03
  -3   5   7  276.89    9.42
   2  -5  -7  333.94   10.02
  -2   5   7  328.87    9.82
  -2   5   7  321.64    9.06
  -2   5   7  331.71   10.28
   1  -5  -7   48.60    3.27
  -1   5   7   38.67    2.58
  -1   5   7   39.80    3.30
  -1   5   7   38.72    2.89
  -1   5   7   43.12    3.21
  -1   5   7   45.54    2.68
   0  -5  -7  167.27    5.98
   0   5   7  163.77    6.24
   0   5   7  170.33    5.08
   0   5   7  167.47    6.14
   0   5   7  158.62    6.50
   0   5   7  167.20    4.94
   0   5   7  169.35    5.81
  -1  -5  -7  105.30    4.49
   1   5   7  107.84    3.59
   1   5   7  104.01    4.57
   1   5   7  102.90    4.71
   1   5   7  102.31    4.22
   1   5   7  109.56    3.46
  -2  -5  -7    0.39    1.02
   2   5   7    1.84    1.16
   2   5   7    1.54    0.69
   2   5   7    0.63    0.83
   2   5   7    0.48    1.07
   2   5   7   -0.40    0.86
  -3  -5  -7  145.04    5.50
   3   5   7  134.80    5.77
   3   5   7  145.16    5.91
   3   5   7  148.75    4.14
   3   5   7  144.34    5.61
   3   5   7  151.33    5.35
   3   5   7  144.75    4.05
  -4  -5  -7  788.81   19.83
   4   5   7  827.12   19.65
   4   5   7  803.02   20.29
   4   5   7  852.86   20.72
   4   5   7  840.30   17.92
   4   5   7  817.96   17.88
   4   5   7  820.99   20.16
  -5  -5  -7  129.95    6.03
   5   5   7  132.79    5.50
   5   5   7  142.17    6.32
   5   5   7  128.74    3.92
   5   5   7  137.16    4.02
   5   5   7  137.36    6.38
   5   5   7  130.65    5.80
   6   5   7   55.06    3.75
   6   5   7   61.00    2.61
   6   5   7   62.06    4.55
   6   5   7   62.68    3.60
   6   5   7   63.38    4.21
   7   5   7   27.15    3.39
   7   5   7   27.76    2.74
   7   5   7   29.02    3.14
   7   5   7   30.17    2.06
   8   5   7    0.90    1.26
   8   5   7    1.04    1.80
   8   5   7    0.68    1.62
   9   5   7   30.43    3.71
   9   5   7   23.72    3.58
   9   5   7   22.56    2.83
   6  -6  -7   -0.54    2.05
  -6   6   7    1.64    1.55
  -6   6   7   -0.82    2.58
   5  -6  -7    8.45    2.54
  -5   6   7    8.38    2.77
  -5   6   7    6.96    1.83
  -5   6   7    6.51    2.74
   4  -6  -7   -0.41    1.50
  -4   6   7   -0.22    1.19
  -4   6   7    1.07    1.69
  -4   6   7   -0.28    1.70
   3  -6  -7  125.23    6.05
  -3   6   7  141.54    5.83
  -3   6   7  126.35    5.90
  -3   6   7  124.04    6.09
  -3   6   7  131.75    4.74
   2  -6  -7    3.17    1.53
  -2   6   7    5.22    1.18
  -2   6   7    3.78    1.70
  -2   6   7    3.74    1.35
   1  -6  -7  174.30    6.52
  -1   6   7  169.55    6.72
  -1   6   7  180.88    6.66
  -1   6   7  178.16    5.95
   0  -6  -7    0.06    1.12
   0   6   7    1.98    1.25
   0   6   7    0.44    0.87
   0   6   7   -1.11    1.00
   0   6   7    0.96    1.39
  -1  -6  -7   28.46    3.26
   1   6   7   35.78    2.85
   1   6   7   33.28    2.88
   1   6   7   36.24    2.26
   2   6   7   17.04    2.21
   2   6   7   19.47    1.82
   2   6   7   21.49    2.34
   3   6   7  178.17    6.29
   3   6   7  164.60    6.40
   3   6   7  165.55    5.04
   3   6   7  165.38    6.44
   4   6   7  691.40   16.11
   4   6   7  712.91   18.25
   4   6   7  707.75   17.73
   4   6   7  714.70   17.94
   5   6   7   -0.01    1.25
   5   6   7   -0.74    1.29
   5   6   7   -1.77    1.11
   6   6   7   43.44    3.59
   6   6   7   50.06    4.10
   7   6   7    2.61    1.64
   7   6   7    2.74    1.79
   8   6   7    0.33    1.36
   8   6   7   -1.04    1.48
  -6   7   7   20.69    2.36
  -5   7   7   -0.89    1.99
  -5   7   7    0.30    1.18
  -5   7   7    0.23    1.97
  -4   7   7   38.90    4.18
  -4   7   7   36.93    3.45
  -4   7   7   41.40    3.90
  -3   7   7   59.64    3.92
  -3   7   7   61.03    3.69
  -3   7   7   63.13    4.54
  -2   7   7    1.63    1.19
  -2   7   7    0.25    1.54
  -2   7   7    2.24    1.38
  -1   7   7  295.09    7.93
  -1   7   7  292.23    9.45
  -1   7   7  284.21    7.65
   0   7   7   67.12    4.23
   0   7   7   70.48    2.54
   0   7   7   67.81    4.07
   1   7   7   66.14    4.41
   1   7   7   72.28    3.92
   1   7   7   73.65    4.17
   2   7   7   92.52    4.63
   2   7   7   92.77    4.41
   3   7   7  143.28    5.64
   3   7   7  151.60    5.91
   3   7   7  138.88    5.90
   4   7   7  146.33    6.29
   4   7   7  153.39    6.04
   4   7   7  156.12    6.01
   5   7   7    6.55    1.75
   5   7   7    7.69    1.80
   5   7   7    8.59    2.01
   6   7   7   10.82    2.27
   6   7   7   15.19    2.35
   7   7   7   20.16    2.73
   7   7   7   23.13    3.13
   8   7   7    9.13    2.59
   8   7   7    9.53    2.33
  -5   8   7    2.30    1.50
  -5   8   7    3.39    1.81
  -4   8   7   47.83    3.19
  -4   8   7   49.19    4.76
  -4   8   7   45.33    3.35
  -3   8   7    1.48    1.03
  -3   8   7    1.85    1.72
  -3   8   7    1.17    0.98
  -2   8   7  131.60    6.34
  -1   8   7  174.32    6.95
   0   8   7    2.72    1.60
   0   8   7   -0.11    1.19
   1   8   7   83.91    4.41
   1   8   7   94.42    4.81
   2   8   7  112.16    4.88
   2   8   7  105.94    5.08
   3   8   7   36.95    3.11
   3   8   7   39.09    3.25
   3   8   7   39.51    3.08
   4   8   7   64.61    3.80
   4   8   7   65.05    4.19
   4   8   7   63.61    3.88
   5   8   7   22.41    2.89
   5   8   7   20.18    2.46
   5   8   7   19.13    2.41
   6   8   7    6.55    1.83
   6   8   7    7.61    2.01
   6   8   7    7.00    1.79
   7   8   7    9.36    2.12
   7   8   7    6.26    2.06
  -3   9   7   21.99    3.32
  -2   9   7   15.29    2.71
  -1   9   7    7.40    2.13
   0   9   7   86.72    4.62
   0   9   7   81.24    4.69
   1   9   7    1.34    1.22
   1   9   7   -0.11    1.20
   2   9   7   26.64    2.69
   2   9   7   29.12    2.97
   3   9   7    4.71    1.51
   3   9   7    4.30    1.47
   3   9   7    3.62    1.40
   4   9   7    8.44    1.73
   4   9   7   10.47    1.87
   4   9   7    7.97    1.78
   5   9   7   18.07    2.32
   5   9   7   18.12    2.29
   5   9   7   17.20    2.62
   6   9   7    5.25    1.75
   6   9   7    3.82    1.57
   6   9   7    4.83    1.93
  -2  10   7    4.23    2.06
  -1  10   7    3.05    1.80
   0  10   7  102.87    5.24
   1  10   7    5.40    1.74
   1  10   7    4.41    1.75
   2  10   7   22.63    2.38
   2  10   7   26.54    2.86
   3  10   7   53.30    3.40
   3  10   7   52.03    3.79
   3  10   7   47.13    3.31
   4  10   7    0.35    1.27
   4  10   7   -0.50    1.07
   4  10   7   -0.34    1.08
   5  10   7    6.77    1.62
   5  10   7    4.12    1.76
   5  10   7    5.46    1.57
   4   8  -8   12.52    3.38
   4   8  -8    8.85    2.71
   3   8  -8   10.73    2.07
   3   8  -8   12.46    3.43
   3   8  -8   13.11    3.12
   2   8  -8   77.10    6.50
   2   8  -8   81.66    4.66
   1   8  -8   -0.01    2.21
   1   8  -8   -0.30    1.46
   0   8  -8   29.71    4.72
  -1   8  -8   41.24    5.80
  -2   8  -8   -2.92    2.43
   5   7  -8    5.36    2.74
   5   7  -8    9.68    3.07
   4   7  -8   54.35    5.66
   4   7  -8   40.59    4.63
   3   7  -8    0.93    2.21
   3   7  -8    1.96    1.57
   3   7  -8   -0.84    2.19
   2   7  -8   23.77    4.15
   2   7  -8   15.41    2.38
   1   7  -8    1.39    1.45
   1   7  -8    0.29    2.25
   0   7  -8    0.31    2.12
  -1   7  -8    4.94    2.76
  -2   7  -8    5.44    2.96
  -3   7  -8   28.24    4.63
  -4   7  -8   24.89    4.61
   6   6  -8    2.40    2.19
   6   6  -8    1.47    2.70
   5   6  -8   14.08    2.93
   5   6  -8   14.56    3.38
   5   6  -8   13.43    3.06
   4   6  -8   65.70    5.49
   4   6  -8   62.48    5.32
   3   6  -8   40.12    4.85
   3   6  -8   51.26    4.30
   3   6  -8   43.09    4.63
   2   6  -8   10.32    3.04
   2   6  -8   19.69    2.52
   1   6  -8   46.25    3.68
   1   6  -8   41.92    4.84
   0   6  -8   -1.49    1.64
   0   6  -8   -0.44    1.48
  -1   6  -8   54.35    5.72
  -2   6  -8    9.52    1.49
  -2   6  -8    8.60    1.46
  -2   6  -8   14.20    3.36
  -3   6  -8   22.57    2.40
  -3   6  -8   30.29    2.91
  -3   6  -8   26.28    4.52
  -4   6  -8   25.63    2.81
  -4   6  -8   26.63    4.43
  -4   6  -8   25.07    2.85
  -5   6  -8    0.21    1.70
  -5   6  -8   -0.78    1.77
  -5   6  -8    0.62    2.61
   7   5  -8    7.78    2.90
   7   5  -8   11.36    3.59
   7   5  -8    6.58    0.92
   6   5  -8   14.42    3.05
   6   5  -8   14.20    3.67
   5   5  -8    3.03    2.02
   5   5  -8   -0.77    2.32
   4   5  -8  142.12    7.54
   4   5  -8  141.31    7.09
   3   5  -8   43.62    4.51
   3   5  -8   43.34    4.56
   2   5  -8  109.14    5.15
   2   5  -8  102.53    3.52
   2   5  -8  107.33    3.68
   2   5  -8  107.31    6.16
   1   5  -8  139.10    4.43
   1   5  -8  136.41    7.02
   1   5  -8  128.09    4.43
   1   5  -8  140.37    5.88
   0   5  -8    4.85    1.67
   0   5  -8    8.31    1.55
   0   5  -8    8.80    1.51
   0   5  -8   10.68    2.66
  -1   5  -8   82.55    5.73
  -1   5  -8   93.44    4.07
  -1   5  -8   83.26    3.94
  -2   5  -8   22.32    2.49
  -2   5  -8   21.44    3.63
  -2   5  -8   24.68    2.75
  -3   5  -8   19.98    1.70
  -3   5  -8   17.36    2.43
  -3   5  -8   21.31    2.76
  -3   5  -8   21.53    3.65
  -4   5  -8   35.19    4.75
  -4   5  -8   30.80    3.50
  -4   5  -8   32.58    3.39
  -5   5  -8    1.95    1.43
  -5   5  -8    3.95    2.23
  -5   5  -8   -0.27    2.12
  -6   5  -8   -0.20    1.48
  -6   5  -8    3.80    2.45
  -6   5  -8   -0.90    2.37
   7   4  -8    7.74    1.88
   7   4  -8    7.73    1.91
   7   4  -8   13.37    3.82
   7   4  -8    6.36    2.75
   6   4  -8    0.57    1.24
   6   4  -8    2.61    2.28
   6   4  -8    1.49    1.42
   6   4  -8    0.66    2.62
   5   4  -8   11.84    2.48
   5   4  -8   10.37    1.83
   5   4  -8    3.76    2.57
   4   4  -8    7.45    2.20
   4   4  -8    6.66    1.61
   4   4  -8    7.06    2.71
   4   4  -8    4.33    1.48
   3   4  -8    7.25    1.49
   3   4  -8    8.61    2.72
   3   4  -8    8.77    1.70
   3   4  -8   10.27    2.58
   2   4  -8   15.50    2.18
   2   4  -8   14.65    2.01
   2   4  -8   16.99    2.02
   2   4  -8   18.27    2.97
   2   4  -8   17.45    3.12
   1   4  -8   39.42    2.87
   1   4  -8   39.05    3.03
   1   4  -8   38.72    3.26
   1   4  -8   37.36    3.98
   0   4  -8   43.68    4.01
   0   4  -8   49.58    2.15
   0   4  -8   51.19    2.24
   0   4  -8   43.18    3.17
   0   4  -8   45.92    3.50
   0   4  -8   47.06    3.22
  -1   4  -8    2.39    0.93
  -1   4  -8   -0.05    1.22
  -1   4  -8    1.83    1.51
  -1   4  -8    0.34    1.61
  -2   4  -8  189.21    5.75
  -2   4  -8  191.08    6.95
  -2   4  -8  178.63    8.06
  -2   4  -8  180.32    6.90
  -3   4  -8   10.03    2.62
  -3   4  -8    8.58    1.64
  -3   4  -8   11.08    2.24
  -3   4  -8   11.33    2.48
  -4   4  -8   65.52    5.13
  -4   4  -8   65.84    3.66
  -4   4  -8   64.75    4.45
  -5   4  -8   39.84    4.67
  -5   4  -8   36.37    3.24
  -5   4  -8   34.82    3.81
  -6   4  -8    4.55    2.53
  -6   4  -8    4.59    1.74
  -6   4  -8    8.38    2.77
  -7   4  -8   22.83    3.94
  -7   4  -8   23.48    2.81
  -7   4  -8   27.11    4.15
   7   3  -8    2.65    1.16
   7   3  -8   -4.19    2.55
   7   3  -8   -4.01    2.02
   7   3  -8   -0.35    1.71
   6   3  -8   83.20    3.63
   6   3  -8   56.48    5.34
   6   3  -8   84.17    6.82
   6   3  -8   78.73    5.00
   6   3  -8   86.84    6.27
   5   3  -8  100.36    7.19
   5   3  -8  121.32    4.50
   5   3  -8  128.04    5.67
   5   3  -8  123.99    5.93
   5   3  -8  124.42    5.63
  -5  -3   8  124.11    6.35
   4   3  -8  142.27    5.77
   4   3  -8  127.49    7.26
   4   3  -8  131.29    4.67
   4   3  -8  135.41    5.94
   4   3  -8  131.74    5.91
  -4  -3   8  138.16    6.19
   3   3  -8  429.05   11.97
   3   3  -8  449.50   11.00
   3   3  -8  445.83   12.41
   3   3  -8  433.99   13.81
   3   3  -8  420.45   12.72
   2   3  -8   20.25    2.75
   2   3  -8   20.36    3.33
   2   3  -8   17.29    2.45
   2   3  -8   15.79    2.83
   2   3  -8   15.03    1.69
   2   3  -8   16.21    2.20
   1   3  -8  584.75   13.89
   1   3  -8  574.34   15.99
   1   3  -8  577.27   15.08
   1   3  -8  575.52   14.83
   1   3  -8  579.66   15.22
   0   3  -8  107.44    4.19
   0   3  -8  116.45    5.62
   0   3  -8  104.02    4.93
   0   3  -8  100.96    5.05
   0   3  -8  107.34    5.09
  -1   3  -8   -1.97    1.65
  -1   3  -8    0.36    1.08
  -1   3  -8    0.71    1.28
  -1   3  -8   -0.26    1.39
  -2   3  -8  211.98    7.62
  -2   3  -8  195.28    7.49
  -2   3  -8  209.83    8.42
  -2   3  -8  213.65    6.75
  -3   3  -8   23.77    2.93
  -3   3  -8   21.29    3.37
  -3   3  -8   27.51    3.29
  -3   3  -8   22.30    2.38
  -4   3  -8    2.66    1.41
  -4   3  -8   -0.11    1.98
  -4   3  -8    1.67    1.86
  -5   3  -8    1.75    1.74
  -5   3  -8    5.98    2.31
  -5   3  -8    0.40    1.34
  -6   3  -8    1.04    1.56
  -6   3  -8    0.77    2.00
  -6   3  -8    5.19    2.43
  -7   3  -8   -1.99    1.84
  -7   3  -8   -1.30    1.48
  -7   3  -8    1.76    2.34
   8   2  -8   15.38    2.32
  -8  -2   8   19.95    3.93
   7   2  -8    3.45    1.48
   7   2  -8   -0.56    1.87
  -7  -2   8   -1.98    2.23
   6   2  -8    1.48    1.29
   6   2  -8    2.29    2.95
   6   2  -8    1.33    2.39
   6   2  -8   -0.12    1.72
  -6  -2   8    6.01    2.40
   5   2  -8   13.08    3.54
   5   2  -8   17.72    2.84
   5   2  -8   18.64    2.52
   5   2  -8   19.81    2.23
  -5  -2   8   20.46    3.03
   4   2  -8    5.87    1.69
   4   2  -8    7.05    3.31
   4   2  -8    7.67    2.14
   4   2  -8    6.37    1.52
   4   2  -8    4.02    1.64
  -4  -2   8    6.07    2.02
   3   2  -8  194.83    8.34
   3   2  -8  199.45    7.20
   3   2  -8  203.63    7.69
   3   2  -8  202.61    6.52
   3   2  -8  189.64    7.15
  -3  -2   8  204.18    7.43
   2   2  -8    3.85    1.27
   2   2  -8    3.75    1.50
   2   2  -8    2.08    1.60
   2   2  -8    3.52    2.41
   2   2  -8    3.05    1.49
   1   2  -8  196.99    7.02
   1   2  -8  186.58    7.90
   1   2  -8  204.31    7.09
   1   2  -8  205.30    6.47
   1   2  -8  209.17    7.38
   0   2  -8  300.75    8.53
   0   2  -8  270.20    9.18
   0   2  -8  305.07    9.25
   0   2  -8  300.44    9.21
  -1   2  -8   87.91    4.14
  -1   2  -8   91.60    4.94
  -1   2  -8   92.09    4.78
  -1   2  -8   99.51    6.88
  -2   2  -8  607.62   16.46
  -2   2  -8  606.60   16.32
  -2   2  -8  644.06   15.63
  -3   2  -8  223.39    7.56
  -3   2  -8  232.86    8.53
  -4   2  -8    4.85    1.70
  -4   2  -8    7.44    2.40
  -5   2  -8   93.05    5.62
  -5   2  -8  100.80    5.12
  -6   2  -8    5.82    1.89
  -6   2  -8    3.33    2.22
  -7   2  -8    1.83    2.10
  -7   2  -8    0.13    1.69
  -7   2  -8    1.23    1.96
  -8   2  -8   23.37    3.85
  -8   2  -8   23.98    4.07
   8   1  -8   17.60    2.64
   8   1  -8   12.68    3.09
  -8  -1   8   21.50    4.01
   7   1  -8    1.97    1.63
   7   1  -8    1.71    2.10
  -7  -1   8    0.94    2.38
   6   1  -8   20.11    3.40
   6   1  -8   22.06    2.73
  -6  -1   8   26.89    3.88
   5   1  -8   27.38    4.18
   5   1  -8   20.69    3.13
   5   1  -8   21.17    2.56
   5   1  -8   20.99    3.47
  -5  -1   8   30.71    3.77
   4   1  -8    1.84    1.27
   4   1  -8   -0.05    1.12
   4   1  -8    0.77    1.73
   4   1  -8   -0.96    2.74
  -4  -1   8    1.21    1.69
   3   1  -8  172.52    7.29
   3   1  -8  184.60    6.42
   3   1  -8  175.13    6.93
   3   1  -8  177.08    8.01
  -3  -1   8  175.68    6.87
   2   1  -8    6.64    1.59
   2   1  -8    9.67    2.91
   2   1  -8    9.46    1.87
   2   1  -8    8.01    2.17
  -2  -1   8    9.21    2.07
   1   1  -8   56.26    4.42
   1   1  -8   63.37    4.09
   1   1  -8   64.64    3.97
   1   1  -8   69.37    3.70
   0   1  -8   77.81    4.66
   0   1  -8   89.20    4.12
   0   1  -8   91.58    4.60
   0  -1   8   88.36    4.65
  -1   1  -8   44.63    3.56
  -1   1  -8   39.23    2.90
  -1   1  -8   38.79    3.27
   1  -1   8   45.42    3.55
  -2   1  -8  200.20    7.53
  -2   1  -8  193.91    7.35
  -2   1  -8  202.29    6.84
   2  -1   8  200.64    7.54
  -3   1  -8   48.52    3.49
  -3   1  -8   54.42    4.29
   3  -1   8   47.87    3.92
  -4   1  -8   15.88    2.56
  -4   1  -8   17.44    2.41
   4  -1   8   15.23    2.63
  -5   1  -8   54.15    4.47
  -5   1  -8   51.19    3.89
  -6   1  -8    4.19    1.93
  -6   1  -8    3.11    2.15
  -7   1  -8   11.86    2.64
  -7   1  -8   10.22    3.03
  -8   1  -8   46.00    4.70
   8   0  -8    6.30    2.76
   8   0  -8   11.53    2.61
  -8   0   8   18.09    3.89
   7   0  -8   35.81    3.64
   7   0  -8   33.62    4.41
  -7   0   8   37.53    4.82
   6   0  -8   22.14    2.94
   6   0  -8   17.35    3.26
  -6   0   8   26.10    3.69
   5   0  -8  204.38    8.87
   5   0  -8  209.01    7.72
  -5   0   8  214.57    8.45
   4   0  -8   28.59    4.48
   4   0  -8   28.27    3.56
   4   0  -8   22.91    2.76
  -4   0   8   29.50    3.37
   3   0  -8   54.87    3.72
   3   0  -8   60.89    4.58
   3   0  -8   49.77    5.48
  -3   0   8   57.97    4.13
   2   0  -8  287.34    8.71
   2   0  -8  264.54    9.35
   2   0  -8  283.54   10.11
  -2   0   8  271.74    8.88
   1   0  -8   18.25    3.16
   1   0  -8   21.93    2.66
   1   0  -8   19.05    2.92
   1   0  -8   17.46    2.25
  -1   0   8   15.86    2.20
  -1   0   8   17.89    2.47
   0   0  -8    3.43    1.95
   0   0  -8    6.31    2.33
   0   0  -8    2.00    1.20
   0   0  -8    0.48    1.32
   0   0   8   -0.51    1.00
   0   0   8    3.15    1.36
   0   0   8    1.40    1.16
  -1   0  -8   12.86    2.46
  -1   0  -8   11.98    1.92
   1   0   8    8.30    1.64
   1   0   8   14.95    2.31
   1   0   8   13.14    1.98
  -2   0  -8    9.95    1.83
  -2   0  -8   11.71    2.42
   2   0   8   13.45    2.16
   2   0   8   11.53    1.97
   2   0   8   11.79    2.01
  -3   0  -8   28.27    2.75
  -3   0  -8   22.27    2.67
   3   0   8   28.68    3.04
   3   0   8   28.35    3.09
  -4   0  -8   40.12    3.75
  -4   0  -8   32.07    3.14
   4   0   8   41.20    3.75
  -5   0  -8   37.77    3.97
  -5   0  -8   37.74    3.61
   5   0   8   27.67    3.30
  -6   0  -8    8.71    2.24
  -6   0  -8    9.89    2.76
   6   0   8    4.98    2.00
  -7   0  -8   16.85    2.82
  -8   0  -8    6.70    2.60
  -9   0  -8   11.74    3.25
   8  -1  -8    8.88    2.66
  -8   1   8    7.55    3.11
   7  -1  -8    3.83    1.97
   7  -1  -8    3.25    2.51
  -7   1   8    1.18    2.54
   6  -1  -8   48.85    4.91
   6  -1  -8   56.31    4.53
  -6   1   8   54.56    4.94
   5  -1  -8  223.56    8.30
   5  -1  -8  214.35    9.13
  -5   1   8  222.21    8.70
   4  -1  -8   22.76    2.79
   4  -1  -8   27.12    3.61
  -4   1   8   21.48    3.04
   3  -1  -8   14.50    2.75
   3  -1  -8   10.38    3.44
   3  -1  -8    7.13    1.88
  -3   1   8    8.70    2.14
   2  -1  -8 1760.94   37.98
   2  -1  -8 1493.27   39.26
   2  -1  -8 1746.59   38.98
  -2   1   8 1677.86   38.17
  -2   1   8 1731.46   38.06
   1  -1  -8  117.96    6.15
   1  -1  -8  126.69    6.00
   1  -1  -8  118.93    5.26
  -1   1   8  128.59    5.47
  -1   1   8  123.33    5.38
   0  -1  -8  721.55   18.03
   0  -1  -8  740.76   18.97
   0   1   8  725.33   18.29
   0   1   8  749.61   18.49
  -1  -1  -8  169.19    7.12
  -1  -1  -8  178.38    6.91
  -1  -1  -8  179.83    6.38
   1   1   8  189.87    6.85
   1   1   8  189.83    6.74
   1   1   8  179.52    6.54
  -2  -1  -8    0.75    1.64
  -2  -1  -8    0.58    1.17
   2   1   8    0.19    1.11
   2   1   8   -0.64    0.94
   2   1   8   -0.44    1.10
  -3  -1  -8  111.81    5.02
  -3  -1  -8  101.23    5.20
   3   1   8  111.18    5.23
   3   1   8  120.77    5.55
   3   1   8  114.38    5.12
  -4  -1  -8  197.02    7.83
  -4  -1  -8  195.46    7.23
   4   1   8  208.83    7.86
   4   1   8  188.42    7.32
   4   1   8  199.20    7.60
  -5  -1  -8  112.97    6.22
  -5  -1  -8  122.07    5.81
   5   1   8  117.87    6.09
  -6  -1  -8   91.76    5.42
   6   1   8   95.28    5.79
  -7  -1  -8   -4.43    1.74
   7   1   8    2.99    2.04
  -8  -1  -8    9.77    2.91
   8   1   8    7.17    2.56
  -9  -1  -8   -0.43    2.49
   9   1   8    3.92    2.26
   7  -2  -8   28.75    3.78
  -7   2   8   28.84    4.18
   6  -2  -8   -0.94    1.65
  -6   2   8   -0.22    2.13
   5  -2  -8    8.14    2.17
   5  -2  -8    5.77    2.55
  -5   2   8    4.75    2.17
   4  -2  -8  132.67    6.87
   4  -2  -8  133.72    6.21
  -4   2   8  130.45    6.14
   3  -2  -8  257.78    8.74
   3  -2  -8  250.07    9.33
  -3   2   8  272.82    9.71
  -3   2   8  248.39    8.66
   2  -2  -8   31.65    3.11
   2  -2  -8   31.09    3.50
  -2   2   8   31.93    3.17
  -2   2   8   32.62    3.32
   1  -2  -8   39.42    4.63
   1  -2  -8   48.09    4.02
   1  -2  -8   46.82    3.42
  -1   2   8   36.99    4.36
  -1   2   8   43.57    3.33
  -1   2   8   48.27    3.40
  -1   2   8   47.83    3.43
   0  -2  -8   12.81    2.52
   0  -2  -8   17.70    2.83
   0  -2  -8   13.70    1.96
   0   2   8   12.24    1.90
   0   2   8   13.28    2.05
   0   2   8   15.62    2.14
   0   2   8   15.71    2.09
  -1  -2  -8  215.60    7.72
  -1  -2  -8  214.20    7.18
   1   2   8  207.48    7.04
   1   2   8  215.41    7.46
   1   2   8  223.32    7.38
   1   2   8  214.75    7.51
  -2  -2  -8   29.79    3.25
  -2  -2  -8   28.75    2.74
   2   2   8   22.27    2.66
   2   2   8   21.59    2.52
   2   2   8   23.19    2.50
   2   2   8   23.34    2.52
  -3  -2  -8  129.27    5.47
  -3  -2  -8  132.85    5.96
   3   2   8  127.08    5.73
   3   2   8  134.50    5.85
   3   2   8  136.29    5.65
   3   2   8  142.08    5.91
  -4  -2  -8  293.73   10.84
  -4  -2  -8  301.21    9.62
   4   2   8  317.24   10.23
   4   2   8  306.00    9.88
   4   2   8  333.87   10.27
  -5  -2  -8  141.74    6.28
   5   2   8  137.41    6.60
   5   2   8  135.12    6.27
   5   2   8  139.21    6.50
  -6  -2  -8  191.27    7.74
   6   2   8  188.94    7.95
  -7  -2  -8   78.67    5.47
   7   2   8   72.13    5.24
  -8  -2  -8   -1.52    2.03
   8   2   8    1.42    1.86
   9   2   8   88.75    6.26
   7  -3  -8  126.95    7.59
  -7   3   8  113.15    7.18
   6  -3  -8   91.93    6.05
  -6   3   8   89.17    5.95
   5  -3  -8  132.19    6.73
  -5   3   8  129.45    6.55
   4  -3  -8  338.68   10.97
  -4   3   8  339.69   10.85
   3  -3  -8  170.16    7.03
  -3   3   8  162.69    6.72
  -3   3   8  158.30    7.00
   2  -3  -8 1234.58   29.96
   2  -3  -8 1242.14   28.75
  -2   3   8 1211.44   28.37
  -2   3   8 1196.07   28.83
   1  -3  -8  165.43    6.33
   1  -3  -8  160.21    7.04
  -1   3   8  166.71    6.47
  -1   3   8  159.65    6.44
  -1   3   8  156.62    6.08
  -1   3   8  178.21    6.66
   0  -3  -8   23.45    2.93
   0  -3  -8   23.23    2.47
   0   3   8   26.70    2.75
   0   3   8   26.38    2.54
   0   3   8   19.55    2.31
   0   3   8   23.96    2.57
  -1  -3  -8   97.09    4.89
  -1  -3  -8  105.38    4.70
   1   3   8  102.68    4.42
   1   3   8  108.60    4.97
   1   3   8  102.10    4.72
   1   3   8  107.69    4.88
  -2  -3  -8  192.87    6.61
  -2  -3  -8  171.50    7.03
   2   3   8  184.84    6.63
   2   3   8  178.49    6.78
   2   3   8  179.97    6.66
   2   3   8  180.43    6.20
  -3  -3  -8   29.14    2.80
   3   3   8   32.90    2.98
   3   3   8   35.69    3.02
   3   3   8   32.84    3.11
   3   3   8   26.00    2.69
  -4  -3  -8  329.94   10.21
   4   3   8  341.39   10.72
   4   3   8  344.87   10.54
   4   3   8  340.00   10.49
   4   3   8  346.84   10.90
  -5  -3  -8  116.60    5.59
   5   3   8  116.93    5.74
   5   3   8  119.99    5.85
   5   3   8  112.76    6.00
  -6  -3  -8    3.92    2.08
   6   3   8    5.16    2.14
   6   3   8    8.92    2.19
   6   3   8    7.87    2.19
  -7  -3  -8    6.38    2.42
   7   3   8    4.38    1.90
   7   3   8    3.02    1.89
  -8  -3  -8    1.20    2.18
   8   3   8    1.62    1.70
  -9  -3  -8    7.34    2.74
   9   3   8    4.83    2.04
   7  -4  -8   42.89    4.98
  -7   4   8   31.74    4.05
  -7   4   8   44.38    5.95
   6  -4  -8    3.03    2.46
  -6   4   8   -0.09    1.78
   5  -4  -8   -1.60    1.88
  -5   4   8   -0.90    1.66
   4  -4  -8   -0.48    1.61
  -4   4   8    0.60    1.67
  -4   4   8   -4.10    1.54
   3  -4  -8  189.16    7.46
  -3   4   8  178.37    7.42
  -3   4   8  186.98    6.99
   2  -4  -8   18.54    2.59
  -2   4   8   17.11    2.53
  -2   4   8   14.67    2.48
  -2   4   8   15.02    2.29
   1  -4  -8  148.46    5.95
  -1   4   8  138.31    5.43
  -1   4   8  129.35    5.73
  -1   4   8  141.58    5.90
  -1   4   8  147.97    6.13
   0  -4  -8   48.71    3.31
   0   4   8   43.55    3.36
   0   4   8   43.63    3.04
   0   4   8   47.52    3.33
   0   4   8   40.02    3.10
  -1  -4  -8  127.89    5.29
   1   4   8  134.10    5.44
   1   4   8  124.50    5.28
   1   4   8  126.21    5.53
   1   4   8  122.80    4.75
  -2  -4  -8   75.46    4.10
   2   4   8   83.37    4.30
   2   4   8   84.10    3.78
   2   4   8   80.99    4.42
   2   4   8   78.08    4.15
  -3  -4  -8  103.30    4.92
   3   4   8  102.57    4.31
   3   4   8  110.20    5.05
   3   4   8   96.63    4.87
   3   4   8  102.01    5.21
  -4  -4  -8  987.44   23.78
   4   4   8  965.37   23.92
   4   4   8 1000.70   24.51
   4   4   8  991.97   24.00
   4   4   8  982.27   22.71
  -5  -4  -8    4.18    1.98
   5   4   8    6.62    1.79
   5   4   8    5.90    2.01
   5   4   8    6.61    1.99
   5   4   8    6.42    2.11
  -6  -4  -8   -0.14    1.76
   6   4   8    1.16    1.86
   6   4   8    0.26    1.45
   6   4   8    0.64    1.58
  -7  -4  -8   18.16    2.91
   7   4   8   11.85    2.41
   7   4   8   20.85    3.12
   7   4   8   18.60    2.74
  -8  -4  -8   11.25    2.85
   8   4   8    9.48    2.42
   8   4   8   14.50    2.69
   9   4   8    3.47    1.82
   6  -5  -8   40.13    4.65
  -6   5   8   39.56    3.90
  -6   5   8   47.08    5.56
   5  -5  -8    4.38    2.34
  -5   5   8   -1.90    1.39
   4  -5  -8   37.80    3.94
  -4   5   8   35.81    3.99
  -4   5   8   38.77    3.42
   3  -5  -8    4.40    1.89
  -3   5   8    2.71    1.83
  -3   5   8    5.74    1.69
   2  -5  -8    6.06    1.91
  -2   5   8    6.64    2.02
  -2   5   8    8.15    1.77
  -2   5   8    5.11    1.73
   1  -5  -8  129.16    5.67
  -1   5   8  116.91    5.29
  -1   5   8  125.22    5.86
  -1   5   8  127.87    4.90
  -1   5   8  133.81    5.80
   0  -5  -8   11.29    1.99
   0   5   8   14.98    1.87
   0   5   8   11.96    2.08
   0   5   8    9.29    1.96
   0   5   8   12.27    1.97
  -1  -5  -8  702.59   17.55
   1   5   8  687.82   17.57
   1   5   8  695.71   18.02
   1   5   8  673.88   17.12
   1   5   8  714.72   16.26
  -2  -5  -8   92.74    4.63
   2   5   8  100.23    5.06
   2   5   8   95.87    4.48
   2   5   8   94.74    3.74
   2   5   8   79.34    4.02
   2   5   8   97.47    4.80
  -3  -5  -8   25.50    2.73
   3   5   8   27.58    2.83
   3   5   8   30.20    2.82
   3   5   8   29.63    2.29
   3   5   8   23.55    2.70
   3   5   8   36.43    3.52
  -4  -5  -8  449.53   12.68
   4   5   8  453.61   13.32
   4   5   8  440.17   12.42
   4   5   8  452.85   12.87
   4   5   8  462.47   11.04
  -5  -5  -8   33.54    3.50
   5   5   8   29.05    2.99
   5   5   8   30.04    3.46
   5   5   8   32.39    3.30
   5   5   8   30.63    2.31
   6   5   8    3.60    1.90
   6   5   8    3.81    1.54
   6   5   8    6.43    1.31
   6   5   8    3.06    1.65
   6   5   8    4.42    1.85
   7   5   8    7.12    1.92
   7   5   8    9.07    1.47
   7   5   8    7.02    2.19
   7   5   8   12.77    2.39
   7   5   8    8.34    1.87
   8   5   8   10.82    2.71
   8   5   8    8.39    2.03
   8   5   8   11.83    2.62
  -6   6   8   44.31    5.22
  -6   6   8   30.37    3.27
   5  -6  -8    9.99    2.77
  -5   6   8   13.73    3.33
  -5   6   8   12.26    2.23
   4  -6  -8   30.92    3.88
  -4   6   8   29.28    3.86
  -4   6   8   26.56    2.80
  -4   6   8   34.37    4.28
   3  -6  -8    2.72    1.84
  -3   6   8    1.68    1.30
  -3   6   8    3.17    1.66
  -3   6   8    4.79    2.00
   2  -6  -8   17.80    2.75
  -2   6   8   15.96    1.90
  -2   6   8   20.06    2.86
  -2   6   8   15.90    2.35
   1  -6  -8   -0.29    1.36
  -1   6   8    0.86    1.03
  -1   6   8   -0.19    1.37
  -1   6   8   -0.26    1.09
   0  -6  -8   -1.27    1.22
   0   6   8   -0.12    1.27
   0   6   8    0.52    1.16
   0   6   8    1.07    1.27
   0   6   8    0.00    0.81
   1   6   8    7.47    1.84
   1   6   8   11.42    2.08
   1   6   8    9.62    1.60
   2   6   8   38.84    3.34
   2   6   8   32.95    3.24
   2   6   8   37.56    2.71
   3   6   8    4.22    1.53
   3   6   8    5.75    1.76
   3   6   8    0.98    1.32
   3   6   8    4.48    1.28
   4   6   8   21.40    2.56
   4   6   8   19.58    2.67
   5   6   8   66.85    3.56
   5   6   8   63.58    4.16
   5   6   8   62.08    4.52
   6   6   8    0.02    1.57
   6   6   8    1.53    1.45
   7   6   8   19.45    2.79
   7   6   8   24.74    3.45
   8   6   8    2.74    1.66
   8   6   8   -2.46    1.55
  -5   7   8    2.91    2.48
  -5   7   8    1.00    2.89
  -5   7   8   -0.74    1.24
  -4   7   8    3.65    2.17
  -4   7   8    7.74    2.64
  -4   7   8    4.03    1.35
  -3   7   8  147.91    6.15
  -3   7   8  161.51    7.52
  -3   7   8  152.77    6.56
  -2   7   8   45.09    3.29
  -2   7   8   49.56    3.67
  -2   7   8   46.47    4.26
  -1   7   8  152.96    6.60
  -1   7   8  144.78    5.30
  -1   7   8  140.80    5.45
   0   7   8  589.26   16.13
   0   7   8  576.98   15.68
   0   7   8  573.09   13.87
   1   7   8   -2.16    0.89
   1   7   8   -2.12    1.32
   1   7   8   -1.32    1.48
   2   7   8  168.11    6.48
   2   7   8  165.43    6.81
   3   7   8   38.31    3.51
   3   7   8   38.11    3.30
   3   7   8   32.76    3.21
   4   7   8    4.87    1.89
   4   7   8    4.03    1.53
   4   7   8    3.21    1.63
   5   7   8   18.80    2.81
   5   7   8   20.78    2.62
   6   7   8   10.75    2.12
   6   7   8   14.85    2.77
   7   7   8   17.21    2.90
   7   7   8   13.37    2.39
  -4   8   8    4.93    1.94
  -4   8   8    5.70    1.70
  -4   8   8    3.65    2.38
  -3   8   8   35.42    3.03
  -3   8   8   39.02    4.27
  -3   8   8   36.21    2.84
  -2   8   8   -0.57    0.93
  -2   8   8    0.47    0.90
  -2   8   8   -1.04    1.64
  -1   8   8   -1.46    1.43
   0   8   8  160.33    6.78
   0   8   8  179.40    7.26
   1   8   8    4.76    1.79
   1   8   8    5.53    1.87
   2   8   8   33.06    3.37
   2   8   8   40.11    3.34
   3   8   8   53.87    3.70
   3   8   8   54.70    4.04
   3   8   8   55.17    3.90
   4   8   8    8.46    2.06
   4   8   8    7.58    1.80
   4   8   8    4.69    1.71
   5   8   8   65.20    4.64
   5   8   8   62.59    4.15
   6   8   8   11.48    2.48
   6   8   8    8.37    1.99
   7   8   8   30.77    3.84
   7   8   8   28.00    3.20
  -2   9   8   23.78    3.27
  -1   9   8    0.80    1.59
   0   9   8   82.14    4.85
   0   9   8   78.52    4.89
   1   9   8    8.66    2.06
   1   9   8   10.10    2.21
   2   9   8    5.92    1.64
   2   9   8    4.62    1.65
   3   9   8   20.67    2.62
   3   9   8   16.95    2.36
   3   9   8   16.37    2.53
   4   9   8    2.61    1.55
   4   9   8    1.61    1.37
   4   9   8    0.44    1.35
   5   9   8    3.77    1.74
   5   9   8    6.38    1.76
   5   9   8    5.69    1.93
   6   9   8   11.56    2.55
   6   9   8   14.56    2.34
   0  10   8   31.73    3.39
   1  10   8   17.29    2.59
   1  10   8   16.28    2.67
   2  10   8   -0.32    1.29
   2  10   8   -0.60    1.21
   3  10   8   48.80    3.66
   3  10   8   43.08    3.50
   3  10   8   50.28    4.02
   4  10   8    7.47    2.06
   4  10   8    7.55    1.83
   4  10   8    9.87    1.97
   4   7  -9   40.76    5.21
   4   7  -9   33.19    4.47
   3   7  -9   12.92    3.46
   3   7  -9   10.81    3.18
   2   7  -9   12.54    3.66
   1   7  -9   13.36    3.56
   0   7  -9   19.25    3.98
  -1   7  -9    6.76    2.73
  -2   7  -9   -1.17    2.31
   5   6  -9    9.74    2.89
   5   6  -9    9.14    3.28
   4   6  -9   20.33    3.77
   4   6  -9   23.67    4.04
   3   6  -9   72.28    5.70
   3   6  -9   82.55    6.22
   2   6  -9   30.65    4.41
   1   6  -9   65.82    5.65
   0   6  -9   44.22    5.26
  -1   6  -9    6.90    2.89
  -2   6  -9   93.57    4.19
  -2   6  -9  116.84    7.73
  -2   6  -9  116.46    4.45
  -3   6  -9    3.22    1.65
  -3   6  -9    1.21    2.57
  -3   6  -9    5.03    1.78
  -4   6  -9   19.26    2.61
  -4   6  -9   24.63    4.59
  -4   6  -9   21.97    2.76
   6   5  -9   15.84    3.96
   5   5  -9   13.67    1.43
   5   5  -9   15.03    3.12
   5   5  -9   10.26    3.50
   4   5  -9   85.22    5.80
   4   5  -9   91.92    6.53
   4   5  -9   79.16    3.27
   3   5  -9   49.62    5.06
   3   5  -9   49.17    2.73
   3   5  -9   57.55    2.86
   3   5  -9   44.44    4.95
   2   5  -9   40.46    2.67
   2   5  -9   42.48    2.70
   2   5  -9   36.01    4.45
   2   5  -9   30.05    4.11
   1   5  -9  116.05    4.45
   1   5  -9  126.30    6.94
   1   5  -9  102.84    4.40
   0   5  -9    1.70    1.29
   0   5  -9    5.72    2.42
   0   5  -9   -0.29    1.24
  -1   5  -9   10.69    1.91
  -1   5  -9   12.51    2.05
  -1   5  -9   19.62    3.59
  -2   5  -9   63.42    4.09
  -2   5  -9   60.80    4.05
  -2   5  -9   63.12    5.50
  -3   5  -9    1.97    2.43
  -3   5  -9    4.84    1.79
  -3   5  -9    3.02    2.02
  -4   5  -9   11.82    3.35
  -4   5  -9    8.67    1.46
  -4   5  -9   13.21    2.84
  -5   5  -9   32.50    2.89
  -5   5  -9   30.32    4.64
  -5   5  -9   32.81    4.11
   6   4  -9    6.19    1.74
   6   4  -9    7.02    2.82
   6   4  -9    9.24    3.57
   6   4  -9   12.28    2.17
   5   4  -9   42.28    4.28
   5   4  -9    9.84    3.29
   5   4  -9   27.00    2.86
   4   4  -9    0.73    2.51
   4   4  -9    1.10    1.41
   4   4  -9   -0.28    1.27
   4   4  -9    1.03    1.72
   3   4  -9   51.64    5.17
   3   4  -9   57.36    3.61
   3   4  -9   62.30    3.98
   3   4  -9   53.50    4.64
   2   4  -9   19.44    2.54
   2   4  -9   22.40    3.77
   2   4  -9   17.20    3.29
   2   4  -9   20.24    2.37
   1   4  -9   39.12    4.40
   1   4  -9   28.80    2.98
   1   4  -9   34.80    2.01
   1   4  -9   38.84    3.22
   0   4  -9   31.96    3.90
   0   4  -9   33.95    3.19
   0   4  -9   34.32    3.26
   0   4  -9   37.43    2.20
  -1   4  -9    0.60    1.44
  -1   4  -9   -1.17    1.26
  -1   4  -9   -0.62    1.64
  -1   4  -9    0.36    0.95
  -2   4  -9   49.10    2.87
  -2   4  -9   43.43    3.73
  -2   4  -9   42.22    3.79
  -2   4  -9   46.09    5.03
  -3   4  -9   -0.23    1.94
  -3   4  -9    1.80    1.95
  -3   4  -9    0.65    1.14
  -4   4  -9   11.00    1.95
  -4   4  -9   10.12    2.89
  -4   4  -9   12.03    2.74
  -5   4  -9   17.05    3.51
  -5   4  -9   16.31    3.35
  -5   4  -9   13.41    2.26
  -6   4  -9    2.24    2.44
  -6   4  -9   -0.11    1.47
  -6   4  -9   -0.65    2.37
   7   3  -9    2.17    2.61
   7   3  -9    5.28    2.13
   7   3  -9    6.91    1.45
   6   3  -9   13.01    2.61
   6   3  -9   14.40    3.97
   6   3  -9   16.19    1.92
   6   3  -9   17.29    3.55
   5   3  -9    7.80    2.27
   5   3  -9   21.43    4.30
   5   3  -9    5.56    3.25
   5   3  -9   15.62    1.89
   4   3  -9    4.57    1.90
   4   3  -9    4.26    1.31
   4   3  -9    0.04    2.26
   4   3  -9    1.28    1.80
   4   3  -9    3.13    1.78
  -4  -3   9    4.97    2.10
   3   3  -9   51.69    4.28
   3   3  -9   42.20    4.04
   3   3  -9   56.40    5.59
   3   3  -9   52.98    3.91
   3   3  -9   52.28    3.03
  -3  -3   9   57.29    4.28
   2   3  -9   91.22    3.95
   2   3  -9  100.20    5.58
   2   3  -9   93.35    4.84
   2   3  -9   74.80    5.72
   2   3  -9   92.54    5.27
   1   3  -9   20.90    3.32
   1   3  -9   18.51    2.50
   1   3  -9   20.14    2.15
   1   3  -9   26.54    3.11
   1   3  -9   19.61    3.17
   0   3  -9  230.52    7.97
   0   3  -9  225.65    8.83
   0   3  -9  220.07    8.16
   0   3  -9  217.73    6.86
  -1   3  -9   94.52    4.98
  -1   3  -9   90.54    4.21
  -1   3  -9   88.25    5.44
  -1   3  -9   76.82    5.05
  -2   3  -9   41.53    3.19
  -2   3  -9   43.24    3.92
  -2   3  -9   44.03    4.65
  -2   3  -9   48.61    5.20
  -3   3  -9   28.11    3.61
  -3   3  -9   35.99    3.06
  -3   3  -9   31.35    4.23
  -4   3  -9   -0.86    1.93
  -4   3  -9    0.09    1.38
  -4   3  -9   -0.63    1.85
  -5   3  -9    2.14    2.28
  -5   3  -9    1.21    1.46
  -5   3  -9    1.31    2.19
  -6   3  -9    2.80    2.33
  -6   3  -9    2.15    2.34
  -6   3  -9    1.34    1.64
  -7   3  -9   -1.90    1.46
  -7   3  -9    0.08    2.13
  -7   3  -9    2.48    2.48
   7   2  -9   19.61    2.53
   7   2  -9   21.39    3.51
  -7  -2   9   17.60    3.80
   6   2  -9   10.68    4.12
   6   2  -9   12.36    2.11
   6   2  -9   11.36    2.84
  -6  -2   9   15.03    3.27
   5   2  -9   42.40    5.69
   5   2  -9   50.62    3.47
   5   2  -9   50.22    4.61
  -5  -2   9   59.10    4.87
   4   2  -9   12.34    1.91
   4   2  -9   17.07    2.81
   4   2  -9    4.90    3.50
   4   2  -9   17.27    2.64
  -4  -2   9   17.44    2.93
   3   2  -9   63.64    4.87
   3   2  -9   66.58    5.68
   3   2  -9   70.70    4.45
   3   2  -9   74.74    3.88
  -3  -2   9   69.59    4.67
   2   2  -9  196.78    6.68
   2   2  -9  195.66    7.44
   2   2  -9  202.53    7.75
   2   2  -9  183.01    8.41
   2   2  -9  200.99    7.90
   1   2  -9   68.82    4.36
   1   2  -9   65.15    4.56
   1   2  -9   74.26    3.89
   0   2  -9  145.38    6.27
   0   2  -9  147.35    6.53
   0   2  -9  155.37    5.83
  -1   2  -9   58.21    3.67
  -1   2  -9   66.33    4.89
  -1   2  -9   55.26    4.41
  -2   2  -9   27.46    3.63
  -2   2  -9   29.19    2.88
  -3   2  -9   68.06    4.90
  -3   2  -9   63.21    4.03
  -4   2  -9  113.17    5.32
  -4   2  -9   90.71    5.83
  -5   2  -9    8.91    2.10
  -5   2  -9   12.36    2.93
  -6   2  -9   13.71    2.50
  -6   2  -9   17.39    3.17
  -7   2  -9   -1.40    2.23
  -7   2  -9   -2.19    1.61
  -7   2  -9   -1.66    2.01
   7   1  -9   37.77    3.62
   7   1  -9   24.44    3.84
  -7  -1   9   43.07    5.20
   6   1  -9   -2.14    1.82
   6   1  -9   -0.35    1.27
  -6  -1   9   -2.97    1.86
   5   1  -9    8.94    2.62
   5   1  -9   10.33    2.09
  -5  -1   9   12.38    2.75
   4   1  -9   -0.36    1.09
   4   1  -9   -0.86    3.00
   4   1  -9    1.50    1.36
   4   1  -9    0.25    1.91
  -4  -1   9   -1.22    1.62
   3   1  -9   32.11    3.74
   3   1  -9   29.40    2.94
   3   1  -9   31.51    4.43
  -3  -1   9   33.97    3.66
   2   1  -9  473.78   12.65
   2   1  -9  471.65   13.64
   2   1  -9  399.92   14.03
  -2  -1   9  473.81   13.27
   1   1  -9   46.44    4.82
   1   1  -9   48.72    4.13
   1   1  -9   54.87    3.80
   0   1  -9  598.21   15.39
   0   1  -9  591.36   16.52
  -1   1  -9    0.25    2.37
  -1   1  -9    1.05    1.51
  -2   1  -9  186.29    6.90
  -2   1  -9  187.06    7.79
  -3   1  -9   60.51    4.77
  -3   1  -9   72.12    4.35
  -4   1  -9   12.05    2.24
  -4   1  -9   17.83    3.17
  -5   1  -9   50.66    4.46
  -5   1  -9   54.50    4.20
  -6   1  -9   11.51    2.98
  -6   1  -9    4.79    2.07
  -7   1  -9   -1.58    1.95
  -8   1  -9    2.35    2.50
   7   0  -9   80.33    5.34
   7   0  -9   84.17    6.79
  -7   0   9   85.14    6.92
   6   0  -9    1.85    1.71
   6   0  -9    2.21    2.26
  -6   0   9   -0.08    2.25
   5   0  -9  130.21    7.35
   5   0  -9  127.13    6.06
  -5   0   9  124.64    6.82
   4   0  -9  104.45    5.33
   4   0  -9   97.87    6.34
  -4   0   9  105.29    5.89
   3   0  -9  332.68   11.26
   3   0  -9  334.21   10.17
  -3   0   9  302.01   10.39
   2   0  -9  291.82    9.18
   2   0  -9  294.07   10.24
   2   0  -9  269.61   10.60
  -2   0   9  274.96    9.42
   1   0  -9  422.43   13.03
   1   0  -9  385.60   13.21
   1   0  -9  435.40   12.06
  -1   0   9  418.77   12.22
   0   0  -9  147.77    5.90
   0   0  -9  131.70    6.64
   0   0  -9   97.67    6.26
  -1   0  -9  134.37    6.49
  -1   0  -9  132.75    5.77
   1   0   9  149.05    6.51
  -2   0  -9  238.90    8.91
  -2   0  -9  247.94    8.34
   2   0   9  261.72    9.20
  -3   0  -9   22.46    2.75
  -3   0  -9   24.31    3.43
   3   0   9   29.72    3.51
  -4   0  -9  268.06    9.92
  -4   0  -9  268.02    9.13
   4   0   9  275.65    9.93
  -5   0  -9   95.41    5.41
  -5   0  -9   94.55    5.76
   5   0   9   91.98    5.90
  -6   0  -9    2.08    2.05
  -7   0  -9    0.13    2.20
  -8   0  -9    0.36    2.32
   7  -1  -9   27.97    4.57
   7  -1  -9   29.91    3.81
  -7   1   9   37.62    4.83
   6  -1  -9    1.33    1.79
   6  -1  -9    0.53    2.35
  -6   1   9    1.78    2.43
   5  -1  -9  181.88    8.89
   5  -1  -9  190.68    7.86
  -5   1   9  185.96    8.31
   4  -1  -9  155.36    7.89
   4  -1  -9  162.54    6.99
  -4   1   9  156.47    7.35
   3  -1  -9   12.56    2.87
   3  -1  -9   13.62    2.50
  -3   1   9   15.19    2.66
   2  -1  -9 1038.55   24.87
   2  -1  -9 1038.18   25.96
  -2   1   9 1007.43   24.94
   1  -1  -9   -0.07    1.67
   1  -1  -9   -1.89    2.68
   1  -1  -9   -3.59    4.01
  -1   1   9    2.13    1.95
   0  -1  -9  251.39    9.32
   0  -1  -9  264.21    8.60
   0   1   9  251.56    8.60
  -1  -1  -9    5.12    2.48
  -1  -1  -9    3.25    1.66
   1   1   9    4.70    1.64
   1   1   9    8.71    2.18
   1   1   9    4.46    1.55
  -2  -1  -9    3.67    1.67
  -2  -1  -9    3.91    1.56
   2   1   9    5.75    1.76
   2   1   9    4.21    1.60
   2   1   9    5.28    2.26
  -3  -1  -9    3.70    1.52
  -3  -1  -9    3.93    1.99
   3   1   9    2.40    1.61
  -4  -1  -9  270.55    9.90
  -4  -1  -9  272.35    9.27
   4   1   9  289.95   10.02
  -5  -1  -9    5.69    2.07
   5   1   9    3.28    1.88
  -6  -1  -9    2.16    2.18
   6   1   9    2.30    2.00
  -7  -1  -9   41.76    4.42
   7   1   9   56.46    5.10
  -8  -1  -9   30.15    4.02
   8   1   9   26.42    3.94
   7  -2  -9    7.22    2.63
  -7   2   9    7.40    3.20
   6  -2  -9    4.74    2.22
  -6   2   9    5.12    2.73
   5  -2  -9    5.63    2.24
  -5   2   9    4.03    2.43
   4  -2  -9   41.65    5.81
   4  -2  -9   49.13    4.28
  -4   2   9   47.04    4.37
   3  -2  -9  179.74    7.38
   3  -2  -9  188.34    8.23
  -3   2   9  172.18    7.30
   2  -2  -9   -2.74    1.68
   2  -2  -9    1.20    1.71
  -2   2   9   -1.99    1.51
   1  -2  -9  255.59    8.73
   1  -2  -9  265.39    9.66
  -1   2   9  259.50    8.91
  -1   2   9  258.92    8.67
   0  -2  -9   23.19    2.73
   0  -2  -9   38.97    4.10
   0   2   9   29.02    3.05
   0   2   9   29.84    3.08
   0   2   9   30.82    3.06
  -1  -2  -9   25.32    2.81
  -1  -2  -9   33.96    3.83
   1   2   9   27.28    2.87
   1   2   9   23.66    2.70
   1   2   9   32.73    3.24
  -2  -2  -9   11.10    1.97
  -2  -2  -9    8.45    2.00
   2   2   9   13.59    2.19
   2   2   9    7.79    1.84
   2   2   9    8.90    1.84
  -3  -2  -9   26.83    4.77
  -3  -2  -9   28.66    2.89
   3   2   9   35.97    3.51
   3   2   9   29.26    3.05
   3   2   9   34.33    3.20
  -4  -2  -9  250.26    8.89
   4   2   9  258.22    9.32
   4   2   9  254.68    9.04
   4   2   9  270.43    9.57
  -5  -2  -9   67.17    4.80
   5   2   9   62.22    4.79
  -6  -2  -9   43.08    4.24
   6   2   9   46.36    4.54
  -7  -2  -9   58.61    5.10
   7   2   9   51.78    4.82
  -8  -2  -9    1.08    2.37
   8   2   9    2.17    1.97
  -7   3   9   -0.34    2.44
   6  -3  -9   74.31    6.21
  -6   3   9   86.71    6.25
   5  -3  -9    0.65    2.00
  -5   3   9    5.11    2.45
   4  -3  -9   73.75    5.26
  -4   3   9   68.65    5.00
   3  -3  -9   -3.39    1.48
  -3   3   9   -1.97    1.52
   2  -3  -9   -0.30    1.57
  -2   3   9    0.40    1.49
  -2   3   9    0.33    1.55
   1  -3  -9   73.58    4.59
  -1   3   9   75.00    4.35
  -1   3   9   89.68    4.85
  -1   3   9   72.88    4.45
   0  -3  -9   -1.81    1.16
   0   3   9   -2.37    1.05
   0   3   9   -0.14    1.46
   0   3   9   -0.60    1.07
  -1  -3  -9  189.12    7.05
   1   3   9  197.09    7.19
   1   3   9  193.59    6.76
   1   3   9  178.07    7.17
  -2  -3  -9    2.47    1.45
   2   3   9    1.31    1.33
   2   3   9    2.90    1.47
   2   3   9    2.13    1.43
  -3  -3  -9   13.51    2.23
   3   3   9   13.45    2.34
   3   3   9   11.10    2.10
  -4  -3  -9   25.47    3.04
   4   3   9   21.83    2.71
   4   3   9   18.94    2.69
   4   3   9   22.47    3.01
  -5  -3  -9    2.47    1.88
   5   3   9    4.77    1.93
   5   3   9    0.85    1.69
   5   3   9    1.54    1.61
  -6  -3  -9   13.44    2.81
   6   3   9   10.45    2.37
  -7  -3  -9    2.66    2.10
   7   3   9    0.53    1.53
  -8  -3  -9    5.98    2.64
   8   3   9   -0.41    1.51
   6  -4  -9   74.26    6.41
  -6   4   9   60.09    5.33
   5  -4  -9    6.28    2.52
  -5   4   9    1.93    1.99
   4  -4  -9   60.81    4.95
  -4   4   9   55.08    4.44
   3  -4  -9    4.65    1.97
  -3   4   9    2.46    2.38
  -3   4   9    4.08    1.89
   2  -4  -9    1.74    1.62
  -2   4   9    3.30    1.86
  -2   4   9    2.15    1.64
   1  -4  -9   47.02    3.77
  -1   4   9   53.91    3.65
  -1   4   9   49.72    3.88
  -1   4   9   51.15    3.98
   0  -4  -9  143.52    6.04
   0   4   9  132.06    6.12
   0   4   9  137.59    5.48
   0   4   9  134.23    5.90
   0   4   9  129.08    5.89
  -1  -4  -9   60.90    4.10
   1   4   9   59.42    4.07
   1   4   9   62.32    3.59
   1   4   9   60.39    3.99
   1   4   9   62.42    4.21
  -2  -4  -9  364.09   10.89
   2   4   9  350.41   10.08
   2   4   9  367.90   11.36
   2   4   9  361.13   10.99
   2   4   9  353.03   10.87
  -3  -4  -9   78.01    4.63
   3   4   9   73.79    4.54
   3   4   9   81.74    4.07
   3   4   9   79.60    4.64
   3   4   9   85.59    5.04
  -4  -4  -9   24.98    3.08
   4   4   9   26.88    3.34
   4   4   9   23.38    3.22
   4   4   9   27.28    3.19
   4   4   9   28.47    2.66
  -5  -4  -9  271.94    9.41
   5   4   9  265.10    9.90
   5   4   9  263.36    9.38
   5   4   9  252.68    9.00
  -6  -4  -9   18.12    2.94
   6   4   9   18.37    2.76
   6   4   9   20.49    3.02
   6   4   9   19.12    3.20
  -7  -4  -9    6.03    2.38
   7   4   9    7.00    2.36
   7   4   9    8.19    2.20
  -8  -4  -9   -0.06    1.97
   8   4   9    0.19    1.59
  -6   5   9   17.33    2.97
  -6   5   9   26.36    4.85
   5  -5  -9    6.41    2.65
  -5   5   9   12.01    2.58
   4  -5  -9    3.37    2.05
  -4   5   9    2.21    1.69
   3  -5  -9   43.42    4.11
  -3   5   9   38.82    4.08
  -3   5   9   45.00    3.54
   2  -5  -9    1.77    1.59
  -2   5   9    1.72    1.68
  -2   5   9    0.72    1.42
   1  -5  -9  158.75    6.63
  -1   5   9  146.56    6.28
  -1   5   9  147.10    5.71
  -1   5   9  147.08    6.56
   0  -5  -9  249.11    8.57
   0   5   9  238.25    8.57
   0   5   9  244.13    7.55
   0   5   9  232.61    8.79
   0   5   9  245.52    8.34
  -1  -5  -9  163.63    6.68
   1   5   9  159.68    6.35
   1   5   9  162.69    6.64
   1   5   9  160.18    6.94
   1   5   9  163.32    5.73
  -2  -5  -9  433.78   12.57
   2   5   9  433.74   12.39
   2   5   9  426.85   12.69
   2   5   9  435.89   13.07
   2   5   9  450.44   11.35
  -3  -5  -9   15.36    2.52
   3   5   9   17.76    2.41
   3   5   9   14.31    2.47
   3   5   9   16.92    2.02
   3   5   9   13.44    2.51
  -4  -5  -9    0.93    1.71
   4   5   9    1.82    1.54
   4   5   9    3.35    1.28
   4   5   9    2.87    1.53
   4   5   9    1.36    1.45
  -5  -5  -9  142.90    6.94
   5   5   9  138.55    6.39
   5   5   9  133.07    6.75
   5   5   9  133.41    4.88
   5   5   9  133.61    6.09
   6   5   9   23.79    3.11
   6   5   9   21.72    3.03
   6   5   9   31.47    3.84
   6   5   9   25.62    2.32
   7   5   9   12.86    1.79
   7   5   9   18.23    2.93
   7   5   9   10.19    2.75
   7   5   9   16.43    2.39
   8   5   9    2.46    1.60
   8   5   9    2.19    1.87
   8   5   9    3.82    1.34
   5  -6  -9   32.31    4.47
  -5   6   9   30.00    3.27
  -5   6   9   33.91    4.77
   4  -6  -9   -0.54    1.92
  -4   6   9    0.35    1.39
   3  -6  -9   73.73    5.34
  -3   6   9   65.54    5.05
  -3   6   9   57.68    3.78
   2  -6  -9   18.66    2.87
  -2   6   9   20.89    2.33
  -2   6   9   15.22    2.81
  -2   6   9   19.81    3.11
   1  -6  -9   12.23    2.43
  -1   6   9    8.46    2.17
  -1   6   9    8.52    1.87
  -1   6   9   12.14    1.82
   0  -6  -9  107.63    6.17
   0   6   9  102.45    5.65
   0   6   9  103.88    5.40
   0   6   9   99.92    4.84
   0   6   9  103.60    3.97
   1   6   9    2.69    1.70
   1   6   9    4.12    1.52
   1   6   9    3.47    1.23
   1   6   9    9.36    2.13
   2   6   9    0.35    1.17
   2   6   9   -1.93    1.20
   2   6   9   -0.18    1.38
   3   6   9   29.24    2.80
   3   6   9   26.29    3.18
   3   6   9   25.15    2.88
   4   6   9   20.15    2.41
   4   6   9   15.51    2.52
   4   6   9   16.21    2.43
   5   6   9   25.93    3.30
   5   6   9   28.93    2.83
   5   6   9   28.17    3.28
   6   6   9    1.47    1.42
   6   6   9    3.05    1.90
   6   6   9    2.90    1.62
   7   6   9    7.85    2.18
   7   6   9    9.57    2.57
  -4   7   9   -0.04    1.94
  -4   7   9    0.84    2.29
  -4   7   9    1.78    1.38
  -3   7   9   30.39    4.55
  -3   7   9   54.08    4.63
  -3   7   9   53.22    5.05
  -3   7   9   50.70    2.80
  -2   7   9   34.13    3.96
  -2   7   9   29.26    2.98
  -1   7   9    0.91    1.85
  -1   7   9   -0.29    1.23
   0   7   9  118.17    5.93
   0   7   9  122.92    4.88
   0   7   9  119.42    6.18
   1   7   9   10.86    2.44
   1   7   9   11.94    2.35
   2   7   9    3.33    1.64
   2   7   9    2.95    1.74
   2   7   9    3.96    1.25
   3   7   9   44.99    2.60
   3   7   9   45.27    3.68
   3   7   9   45.88    3.95
   4   7   9   18.53    1.72
   4   7   9   19.42    2.91
   4   7   9   26.98    3.13
   5   7   9   28.83    3.15
   5   7   9   24.56    3.24
   6   7   9   35.85    3.78
   6   7   9   47.22    4.59
   7   7   9    5.13    2.21
   7   7   9    6.24    2.08
  -3   8   9   11.58    2.00
  -3   8   9   10.98    2.35
  -3   8   9   16.01    3.19
  -2   8   9   45.79    4.60
  -2   8   9   46.44    3.08
  -2   8   9   48.94    3.43
  -1   8   9    0.46    0.90
  -1   8   9    1.98    1.12
  -1   8   9   -0.26    1.59
   0   8   9   42.09    3.99
   0   8   9   36.28    3.62
   1   8   9   25.91    3.11
   1   8   9   29.20    3.51
   2   8   9    1.09    1.59
   2   8   9    2.20    1.59
   3   8   9   12.33    2.36
   3   8   9    8.58    1.94
   4   8   9    0.21    1.40
   4   8   9    1.01    1.51
   5   8   9   14.63    2.77
   5   8   9   13.66    2.46
   6   8   9   37.78    4.12
   6   8   9   52.84    4.22
  -1   9   9    0.95    1.84
   0   9   9    5.54    1.99
   0   9   9    3.83    1.74
   1   9   9   38.03    3.73
   1   9   9   32.73    3.68
   2   9   9   -0.78    1.37
   2   9   9    1.86    1.50
   3   9   9    2.05    1.49
   3   9   9   -1.05    1.32
   4   9   9    0.42    1.51
   4   9   9    1.90    1.50
   5   9   9    0.34    1.57
   5   9   9    0.83    1.70
   4   6 -10    4.42    2.97
   3   6 -10   22.27    4.09
   3   6 -10   15.60    3.91
   2   6 -10   17.87    3.73
   2   6 -10    9.31    3.11
   1   6 -10   14.26    3.54
   0   6 -10   33.67    4.89
  -1   6 -10    3.71    2.67
  -1   6 -10    0.08    1.11
  -1   6 -10   -0.49    0.88
  -2   6 -10   13.26    1.95
  -2   6 -10   20.21    4.03
   5   5 -10    5.15    3.73
   4   5 -10    1.20    2.02
   4   5 -10    1.19    1.07
   4   5 -10    2.01    2.63
   4   5 -10    0.04    0.94
   3   5 -10    5.01    2.91
   3   5 -10    5.40    1.36
   3   5 -10    6.01    2.61
   2   5 -10   24.37    4.03
   2   5 -10   23.51    4.05
   2   5 -10   28.43    2.69
   2   5 -10   24.34    2.35
   1   5 -10   21.09    2.29
   1   5 -10   20.35    3.83
   1   5 -10   16.53    2.25
   0   5 -10   23.91    2.70
   0   5 -10   31.59    2.99
   0   5 -10   33.44    4.72
  -1   5 -10    3.45    1.82
  -1   5 -10    0.11    1.38
  -1   5 -10    3.94    2.61
  -2   5 -10   23.22    4.14
  -2   5 -10   23.90    2.92
  -2   5 -10   29.31    3.31
  -3   5 -10   20.47    1.76
  -3   5 -10   14.29    2.86
  -3   5 -10   12.21    3.40
  -4   5 -10    3.10    2.70
  -4   5 -10    0.37    1.04
  -4   5 -10   -0.92    2.15
   5   4 -10    8.43    3.70
   5   4 -10   16.32    2.51
   5   4 -10   16.99    2.47
   4   4 -10   -1.54    1.42
   4   4 -10    1.25    2.01
   4   4 -10   -0.54    1.28
   3   4 -10    3.18    2.15
   3   4 -10    6.49    2.86
   3   4 -10    0.94    1.53
   3   4 -10    2.29    1.52
   2   4 -10   78.54    4.77
   2   4 -10   67.57    5.79
   2   4 -10   77.13    5.80
   2   4 -10   84.41    4.56
   1   4 -10    4.91    1.98
   1   4 -10    3.92    1.08
   1   4 -10    1.40    2.49
   1   4 -10    3.98    1.63
   1   4 -10    3.03    2.27
   0   4 -10   18.55    1.82
   0   4 -10   15.21    2.66
   0   4 -10   17.27    3.23
  -1   4 -10    3.20    1.80
  -1   4 -10    4.25    1.23
  -1   4 -10    2.96    2.24
  -1   4 -10    4.36    2.15
  -2   4 -10    2.95    1.29
  -2   4 -10    1.74    1.97
  -2   4 -10    0.98    2.15
  -3   4 -10   35.55    3.00
  -3   4 -10   30.22    4.43
  -3   4 -10   39.87    4.22
  -4   4 -10   12.03    3.18
  -4   4 -10   11.13    2.94
  -4   4 -10    7.31    1.78
  -5   4 -10   28.69    4.25
  -5   4 -10   23.90    4.22
  -5   4 -10   40.61    3.51
   6   3 -10    6.97    1.58
   6   3 -10    6.42    3.65
   5   3 -10   16.05    4.35
   5   3 -10   24.36    3.27
   5   3 -10   31.57    2.70
   4   3 -10   15.94    3.00
   4   3 -10   17.47    4.11
   4   3 -10   11.73    1.75
   4   3 -10   12.28    2.64
   3   3 -10    1.23    1.81
   3   3 -10    0.85    1.90
   3   3 -10   -2.30    2.39
   3   3 -10   -1.00    1.03
  -3  -3  10    0.60    1.82
   2   3 -10  287.35   10.13
   2   3 -10  293.26    8.44
   2   3 -10  282.52   10.97
   2   3 -10  291.02   10.72
   1   3 -10   -0.22    2.49
   1   3 -10   -2.78    1.69
   1   3 -10   -0.07    1.21
   1   3 -10    0.44    1.76
   1   3 -10    2.08    2.00
   0   3 -10   39.04    4.10
   0   3 -10   33.46    2.87
   0   3 -10   38.67    4.45
  -1   3 -10   -0.26    1.28
  -1   3 -10   -0.13    1.74
  -1   3 -10    2.54    1.99
  -2   3 -10   17.74    3.32
  -2   3 -10   17.40    2.36
  -2   3 -10   20.09    3.30
  -3   3 -10   14.56    2.22
  -3   3 -10   16.95    3.25
  -3   3 -10   14.76    3.11
  -4   3 -10    1.16    1.48
  -4   3 -10    1.37    1.91
  -4   3 -10   -0.49    2.08
  -5   3 -10    1.33    1.60
  -5   3 -10   -1.79    1.89
  -5   3 -10   -0.56    2.17
  -6   3 -10    1.46    2.29
  -6   3 -10   -0.48    1.52
  -6   3 -10    3.78    2.78
   6   2 -10   -1.28    1.27
   6   2 -10   -0.02    2.13
  -6  -2  10    0.22    2.38
   5   2 -10   26.30    3.57
   5   2 -10   39.39    3.27
  -5  -2  10   50.45    5.03
   4   2 -10    3.08    2.23
   4   2 -10    4.95    2.04
   4   2 -10    5.38    1.67
   4   2 -10    1.60    2.73
  -4  -2  10    3.05    2.15
   3   2 -10   29.97    4.80
   3   2 -10   31.91    3.86
   3   2 -10   35.67    3.86
   3   2 -10   30.12    2.94
  -3  -2  10   37.95    4.11
   2   2 -10  398.88   11.20
   2   2 -10  354.78   13.36
   2   2 -10  393.93   12.66
   2   2 -10  399.54   12.60
  -2  -2  10  407.65   12.36
   1   2 -10   42.81    4.42
   1   2 -10   32.51    4.48
   1   2 -10   36.71    3.31
   0   2 -10  103.98    5.07
   0   2 -10  104.81    5.97
  -1   2 -10  411.29   11.72
  -1   2 -10  408.17   13.08
  -2   2 -10   86.52    4.73
  -2   2 -10   79.41    5.51
  -3   2 -10  118.17    6.63
  -3   2 -10  136.32    5.87
  -4   2 -10  115.27    5.61
  -4   2 -10  107.57    6.46
  -5   2 -10   18.16    3.44
  -5   2 -10   22.67    2.92
  -6   2 -10    1.81    1.91
  -7   2 -10    1.34    2.49
   6   1 -10    4.79    1.90
   6   1 -10    4.70    2.59
  -6  -1  10    6.03    3.08
   5   1 -10    1.41    2.24
   5   1 -10    4.44    1.78
  -5  -1  10    3.15    2.33
   4   1 -10   15.37    2.57
   4   1 -10   15.79    2.41
   4   1 -10   17.17    3.28
  -4  -1  10   23.12    3.47
   3   1 -10    3.39    1.52
   3   1 -10    2.70    2.12
  -3  -1  10    2.02    2.03
   2   1 -10   24.44    3.46
   2   1 -10   19.56    2.55
   2   1 -10   18.90    3.93
  -2  -1  10   19.85    3.08
   1   1 -10   50.08    3.77
   1   1 -10   38.19    4.75
   1   1 -10   50.90    4.77
   0   1 -10    7.11    3.11
   0   1 -10    9.72    3.05
   0   1 -10   12.98    2.34
  -1   1 -10   52.58    3.91
  -1   1 -10   51.19    4.79
  -2   1 -10    3.31    1.58
  -2   1 -10    3.91    2.37
  -3   1 -10   13.99    3.01
  -3   1 -10   10.72    2.13
  -4   1 -10    9.73    2.12
  -4   1 -10   11.25    2.94
  -5   1 -10    4.16    2.44
  -5   1 -10    4.69    1.87
  -6   1 -10    2.57    2.38
  -6   1 -10   -0.60    1.83
  -7   1 -10    4.11    2.32
   6   0 -10   35.69    3.86
   6   0 -10   26.12    3.97
  -6   0  10   39.00    4.95
   5   0 -10    3.40    1.78
   5   0 -10    3.17    2.55
  -5   0  10    3.46    2.55
   4   0 -10   97.82    6.91
   4   0 -10   96.51    5.42
  -4   0  10  103.03    6.17
   3   0 -10   32.56    3.38
   3   0 -10   37.30    4.42
  -3   0  10   36.30    3.97
   2   0 -10   -0.49    1.47
   2   0 -10   -0.78    1.88
  -2   0  10   -1.05    1.65
   1   0 -10  319.42   10.20
   1   0 -10  304.70   11.04
  -1   0  10  316.28   10.46
   0   0 -10    3.84    2.76
   0   0 -10    2.77    1.97
  -1   0 -10  137.41    6.03
  -1   0 -10  129.74    6.71
  -2   0 -10   10.64    2.90
  -2   0 -10   12.05    2.16
  -3   0 -10   14.18    2.92
  -3   0 -10   11.80    2.32
  -4   0 -10    8.15    2.10
  -4   0 -10    6.63    2.53
  -5   0 -10    8.30    2.20
  -5   0 -10    5.69    3.40
  -6   0 -10    1.16    1.97
  -7   0 -10    0.36    2.17
   6  -1 -10  108.85    8.19
   6  -1 -10  106.87    6.56
  -6   1  10  127.15    7.87
   5  -1 -10    0.72    1.66
   5  -1 -10    2.06    2.59
  -5   1  10    1.83    2.41
   4  -1 -10  186.60    9.11
   4  -1 -10  167.49    7.59
  -4   1  10  190.51    8.37
   3  -1 -10    5.83    2.11
   3  -1 -10    5.58    2.52
  -3   1  10    3.35    2.16
   2  -1 -10   53.53    4.80
   2  -1 -10   53.89    4.26
  -2   1  10   56.79    4.53
   1  -1 -10   73.88    4.86
   1  -1 -10   75.82    5.50
  -1   1  10   88.07    5.09
   0  -1 -10   33.46    4.20
   0  -1 -10   21.25    2.81
   0   1  10   21.57    2.82
  -1  -1 -10   52.40    3.94
  -1  -1 -10   57.94    4.61
  -2  -1 -10   17.15    3.11
  -2  -1 -10   10.93    2.17
   2   1  10   12.40    2.61
  -3  -1 -10   40.46    3.65
  -3  -1 -10   43.54    4.46
   3   1  10   45.31    4.16
  -4  -1 -10   12.35    2.35
   4   1  10   22.32    3.24
   5   1  10   77.50    5.54
  -6  -1 -10   -1.86    1.95
   6   1  10   -0.43    1.78
  -7  -1 -10    0.37    2.43
   6  -2 -10   33.35    4.17
  -6   2  10   39.46    4.95
   5  -2 -10   -0.27    1.84
  -5   2  10    1.62    2.39
   4  -2 -10   38.14    3.96
  -4   2  10   41.62    4.43
   3  -2 -10    2.82    1.86
  -3   2  10    3.69    2.04
   2  -2 -10   17.86    2.74
  -2   2  10   14.68    2.55
   1  -2 -10   27.98    3.22
   1  -2 -10   32.48    4.55
  -1   2  10   22.99    2.87
   0  -2 -10   60.41    5.97
   0  -2 -10   50.90    3.94
   0   2  10   46.66    3.76
  -1  -2 -10   15.22    2.38
   1   2  10   18.04    2.61
  -2  -2 -10   32.52    3.22
  -3  -2 -10    3.96    1.77
   3   2  10    5.55    1.94
  -4  -2 -10   -1.51    1.45
   4   2  10   -0.50    1.53
  -5  -2 -10  462.18   13.98
   5   2  10  448.03   14.32
  -6  -2 -10    5.92    2.67
   6   2  10    7.26    2.53
  -7  -2 -10   48.26    4.87
   7   2  10   56.41    5.23
  -8  -2 -10    0.83    2.51
   6  -3 -10   56.31    5.41
  -6   3  10   51.84    5.38
   5  -3 -10   22.37    3.77
  -5   3  10   22.90    3.71
   4  -3 -10    4.30    2.23
  -4   3  10    8.88    2.65
   3  -3 -10  101.44    5.96
  -3   3  10  100.26    5.63
   2  -3 -10   51.40    4.50
  -2   3  10   45.65    4.03
   1  -3 -10   76.77    4.88
  -1   3  10   66.19    4.28
   0  -3 -10  195.66    7.55
   0   3  10  207.59    9.23
   0   3  10  186.57    7.47
   0   3  10  173.51    7.04
  -1  -3 -10   29.58    3.20
   1   3  10   31.34    3.34
   1   3  10   27.20    2.91
   1   3  10   27.95    3.24
  -2  -3 -10   49.71    3.98
   2   3  10   45.72    3.97
   2   3  10   48.04    3.59
   2   3  10   47.16    3.81
  -3  -3 -10   35.36    3.51
   3   3  10   31.53    3.46
   3   3  10   32.49    3.39
  -4  -3 -10   30.92    3.54
   4   3  10   44.87    5.42
   4   3  10   21.00    3.00
  -5  -3 -10   10.88    2.70
   5   3  10    3.23    1.85
  -6  -3 -10    0.87    2.09
   6   3  10    3.27    1.85
  -7  -3 -10    4.50    2.63
   7   3  10    1.67    1.79
  -8  -3 -10   -1.23    2.17
   5  -4 -10   18.94    3.79
  -5   4  10   10.37    2.76
   4  -4 -10   15.32    3.18
  -4   4  10   14.85    2.90
   3  -4 -10   62.09    5.06
  -3   4  10   64.99    4.59
   2  -4 -10   -1.39    1.46
  -2   4  10   -0.97    1.46
   1  -4 -10   29.50    3.40
  -1   4  10   30.43    3.13
  -1   4  10   26.32    3.20
   0  -4 -10  122.86    5.89
   0   4  10  105.68    5.06
   0   4  10  110.76    5.66
   0   4  10  104.81    5.84
  -1  -4 -10   35.23    3.48
   1   4  10   36.07    3.73
   1   4  10   38.48    3.67
   1   4  10   36.63    3.16
  -2  -4 -10    8.55    2.16
   2   4  10    5.23    1.95
   2   4  10    5.44    1.75
   2   4  10   10.15    2.40
  -3  -4 -10  209.74    7.96
   3   4  10  201.20    7.08
   3   4  10  193.71    8.19
   3   4  10  197.50    7.91
  -4  -4 -10   90.71    5.35
   4   4  10   81.22    4.37
   4   4  10   81.93    5.42
   4   4  10   83.91    5.13
  -5  -4 -10   56.41    4.77
   5   4  10   40.30    4.03
   5   4  10   63.07    5.52
  -6  -4 -10    5.61    2.44
   6   4  10    8.63    2.19
  -7  -4 -10    1.33    2.22
   7   4  10    2.23    1.66
   5  -5 -10   16.74    3.46
  -5   5  10   19.19    3.17
   4  -5 -10    8.45    2.86
  -4   5  10    4.48    2.09
   3  -5 -10    0.64    1.80
  -3   5  10   -0.34    1.49
   2  -5 -10    9.92    2.45
  -2   5  10   12.09    2.20
  -2   5  10    5.07    2.21
   1  -5 -10   14.98    2.68
  -1   5  10   19.24    2.86
  -1   5  10   15.86    2.31
   0  -5 -10   60.63    4.54
   0   5  10   50.06    4.16
   0   5  10   57.20    4.55
   0   5  10   53.11    3.59
  -1  -5 -10    3.77    1.80
   1   5  10    4.42    1.56
   1   5  10    2.95    1.80
   1   5  10    4.85    2.01
  -2  -5 -10   63.67    4.49
   2   5  10   53.52    3.44
   2   5  10   53.76    4.07
   2   5  10   58.59    4.49
   2   5  10   55.71    5.00
  -3  -5 -10    8.22    2.08
   3   5  10   11.54    2.46
   3   5  10   11.14    3.17
   3   5  10   10.10    1.81
   3   5  10   10.46    2.28
  -4  -5 -10   10.92    2.33
   4   5  10   13.01    2.67
   4   5  10   17.74    2.11
   4   5  10   18.11    2.69
  -5  -5 -10   11.32    2.85
   5   5  10   13.82    1.92
   5   5  10   13.94    2.69
   5   5  10   17.59    3.05
   6   5  10    7.57    1.65
   6   5  10    7.72    2.28
   6   5  10    6.60    2.26
   7   5  10    0.73    1.32
   7   5  10   -1.05    1.27
   7   5  10    2.11    2.56
   4  -6 -10   -0.93    2.08
  -4   6  10   -1.44    1.52
   3  -6 -10   -0.46    1.82
  -3   6  10    2.00    1.58
   2  -6 -10   23.09    3.40
  -2   6  10   22.71    2.64
  -2   6  10   15.07    3.04
   1  -6 -10   10.86    2.55
  -1   6  10   14.25    2.09
  -1   6  10   12.13    2.51
   0  -6 -10   15.76    3.54
   0   6  10   10.69    2.40
   0   6  10   14.96    1.99
   0   6  10   12.90    2.51
   0   6  10   14.40    2.32
   1   6  10   63.31    4.17
   1   6  10   75.97    3.50
   1   6  10   78.96    4.86
   1   6  10   70.50    4.96
   2   6  10   26.31    3.19
   2   6  10   27.69    2.88
   2   6  10   28.05    2.23
   2   6  10   19.70    2.97
   3   6  10   22.61    2.68
   3   6  10   21.76    2.97
   3   6  10   25.33    3.32
   3   6  10   24.64    2.10
   4   6  10   18.11    2.71
   4   6  10   14.72    2.68
   4   6  10   17.72    2.46
   5   6  10   -1.50    1.17
   5   6  10   -0.30    1.37
   5   6  10    0.93    1.63
   6   6  10    3.29    1.93
   6   6  10    7.22    1.99
   6   6  10    5.23    2.06
   7   6  10   -1.53    1.39
  -3   7  10    4.74    2.57
  -3   7  10    2.48    1.40
  -3   7  10    4.65    2.27
  -2   7  10   58.15    5.01
  -2   7  10   63.10    3.04
  -1   7  10    1.70    1.54
  -1   7  10    3.02    2.09
   0   7  10    1.49    1.61
   0   7  10   -2.29    1.34
   0   7  10   17.51    2.55
   1   7  10   99.59    5.50
   1   7  10   83.69    5.40
   1   7  10   92.89    4.43
   2   7  10    1.13    1.53
   2   7  10   -0.37    1.44
   2   7  10    1.24    1.20
   3   7  10   -0.58    1.42
   3   7  10   -1.63    0.98
   3   7  10   -0.25    1.42
   4   7  10   51.88    4.53
   4   7  10   51.30    4.10
   4   7  10   40.42    2.94
   5   7  10    1.38    1.26
   5   7  10    1.26    1.75
   5   7  10    0.06    1.61
   6   7  10    0.41    1.99
   6   7  10    0.71    1.67
  -2   8  10   55.16    3.63
  -2   8  10   53.65    5.20
  -2   8  10   52.44    4.00
  -1   8  10   42.82    3.03
  -1   8  10   45.68    3.40
  -1   8  10   40.36    4.30
   0   8  10   -0.89    0.89
   0   8  10    1.94    1.68
   0   8  10    0.03    1.59
   0   8  10   -0.49    1.10
   1   8  10   41.76    4.29
   1   8  10   42.95    4.15
   2   8  10   -1.75    1.23
   2   8  10   -2.11    1.32
   3   8  10   -1.52    1.33
   3   8  10   -1.05    1.28
   4   8  10   20.90    3.23
   4   8  10   22.49    3.04
   5   8  10   39.11    3.92
   5   8  10   52.13    4.83
   1   9  10    7.26    2.25
   1   9  10    1.44    1.99
   2   9  10   13.73    2.55
   2   9  10   15.18    2.85
   3   9  10   29.57    3.63
   3   9  10   21.63    3.03
   3   5 -11   -0.48    2.19
   3   5 -11    0.57    3.10
   2   5 -11   22.19    4.03
   2   5 -11   16.02    2.13
   2   5 -11   15.75    3.71
   2   5 -11   31.57    2.90
   1   5 -11    0.05    1.51
   1   5 -11   -0.72    1.23
   1   5 -11    1.09    2.48
   1   5 -11    3.63    2.64
   0   5 -11   23.26    2.66
   0   5 -11   19.46    2.67
   0   5 -11   21.29    4.06
  -1   5 -11    7.38    3.12
  -1   5 -11    3.00    2.06
  -1   5 -11    8.29    2.00
  -2   5 -11    1.53    2.50
  -2   5 -11    2.69    2.10
  -2   5 -11   -0.70    1.92
   4   4 -11   20.97    4.56
   4   4 -11   20.43    2.85
   4   4 -11   22.03    3.71
   4   4 -11   20.19    2.68
   3   4 -11    2.70    2.15
   3   4 -11    2.00    2.69
   3   4 -11   -0.60    1.67
   3   4 -11    0.46    1.51
   2   4 -11    4.51    3.01
   2   4 -11    3.51    1.77
   2   4 -11    3.40    2.04
   2   4 -11    1.06    2.29
   1   4 -11    0.99    0.95
   1   4 -11   -1.51    2.01
   1   4 -11    0.66    1.93
   1   4 -11    1.25    2.58
   1   4 -11    2.16    1.70
   0   4 -11    3.32    1.23
   0   4 -11    4.76    2.28
   0   4 -11    3.65    2.36
  -1   4 -11    1.47    1.15
  -1   4 -11   -2.70    1.66
  -1   4 -11    2.67    2.16
  -2   4 -11    4.79    1.43
  -2   4 -11    5.11    2.42
  -2   4 -11    3.61    2.50
  -3   4 -11   29.96    3.97
  -3   4 -11   21.21    2.42
  -3   4 -11   24.39    4.35
  -4   4 -11    0.43    1.43
  -4   4 -11    3.81    2.60
  -4   4 -11    4.32    2.77
   4   3 -11   17.15    2.95
   4   3 -11   20.91    2.26
   4   3 -11   28.69    3.96
   3   3 -11    0.46    1.14
   3   3 -11   -1.28    1.72
   3   3 -11   -5.06    2.76
   3   3 -11    0.69    2.15
   2   3 -11    9.48    2.77
   2   3 -11   11.56    2.83
   2   3 -11    9.55    1.74
   2   3 -11    0.65    3.00
   1   3 -11  101.63    6.49
   1   3 -11   96.59    4.51
   1   3 -11  103.09    6.10
   1   3 -11   70.78    6.42
   0   3 -11   26.77    4.05
   0   3 -11   21.74    2.58
   0   3 -11   20.88    3.56
  -1   3 -11   -1.85    2.01
  -1   3 -11   -1.27    1.21
  -1   3 -11    0.78    2.05
  -2   3 -11   35.33    4.37
  -2   3 -11   27.30    4.07
  -2   3 -11   28.14    2.90
  -3   3 -11   41.26    4.90
  -3   3 -11   49.73    4.99
  -3   3 -11   47.79    3.77
  -4   3 -11    0.95    2.43
  -4   3 -11    1.53    2.39
  -4   3 -11    3.01    1.68
  -5   3 -11   17.50    3.87
  -5   3 -11   17.77    2.64
  -5   3 -11   14.16    3.62
   5   2 -11    8.44    1.96
   5   2 -11    8.08    2.77
  -5  -2  11    9.54    3.18
   4   2 -11   36.73    4.10
   4   2 -11   19.85    3.32
   4   2 -11   23.88    2.78
  -4  -2  11   25.68    3.75
   3   2 -11    7.21    2.67
   3   2 -11    5.94    1.71
   3   2 -11    7.28    2.54
  -3  -2  11    5.28    2.41
   2   2 -11   -0.27    1.21
   2   2 -11   -0.41    1.67
   2   2 -11   -0.54    2.08
  -2  -2  11    0.05    1.87
   1   2 -11  151.29    6.29
   1   2 -11  171.65    7.94
   1   2 -11  155.14    7.69
   0   2 -11   -0.38    1.97
   0   2 -11   -1.44    1.30
  -1   2 -11   84.13    5.83
  -1   2 -11   80.10    4.71
  -2   2 -11    9.92    2.07
  -2   2 -11   17.48    3.47
  -3   2 -11    6.17    2.58
  -3   2 -11    5.44    1.84
  -4   2 -11    1.62    2.27
  -4   2 -11    0.61    1.47
  -5   2 -11   11.54    2.45
  -5   2 -11   13.18    3.27
  -6   2 -11    1.18    2.59
   5   1 -11    2.18    1.76
   5   1 -11   -4.43    2.05
  -5  -1  11   -1.06    2.31
   4   1 -11   40.15    4.73
   4   1 -11   48.30    4.23
   4   1 -11   51.69    4.01
  -4  -1  11   48.78    5.16
   3   1 -11    2.15    1.86
   3   1 -11   -0.39    2.13
   3   1 -11    2.55    1.58
  -3  -1  11    7.05    2.50
   2   1 -11    6.41    2.51
   2   1 -11    6.52    1.91
  -2  -1  11   11.48    2.76
   1   1 -11   90.90    5.02
   1   1 -11  100.09    6.15
  -1  -1  11   96.06    5.71
   0   1 -11    5.21    2.45
   0   1 -11    1.99    1.61
  -1   1 -11   12.92    3.07
  -1   1 -11   11.26    2.23
  -2   1 -11    1.14    2.33
  -2   1 -11   -1.65    1.25
  -3   1 -11    2.88    2.26
  -3   1 -11    0.91    1.46
  -4   1 -11   19.22    2.90
  -4   1 -11   23.50    3.78
  -5   1 -11   51.42    4.57
  -5   1 -11   30.11    4.25
  -6   1 -11    3.92    2.20
   5   0 -11   16.92    3.00
   5   0 -11    8.09    3.23
  -5   0  11   25.62    4.29
   4   0 -11    1.36    2.51
   4   0 -11    1.89    1.81
  -4   0  11    9.31    2.86
   3   0 -11   13.82    3.43
   3   0 -11   14.20    2.75
  -3   0  11   14.78    3.28
   2   0 -11   76.41    4.94
   2   0 -11   71.98    5.59
  -2   0  11   77.06    5.45
   1   0 -11   21.84    3.00
   1   0 -11   22.30    3.55
  -1   0  11   25.77    3.46
   0   0 -11   39.49    3.72
   0   0 -11   46.87    4.92
  -1   0 -11    1.43    1.55
  -1   0 -11    4.80    2.58
  -2   0 -11   28.84    3.29
  -2   0 -11   37.63    4.38
  -3   0 -11   13.03    3.11
  -3   0 -11   14.12    2.57
  -4   0 -11    1.94    1.88
  -4   0 -11    3.88    2.66
  -5   0 -11  143.44    7.15
  -6   0 -11    8.16    2.53
   5  -1 -11    5.00    2.41
   5  -1 -11   -0.17    3.80
  -5   1  11    5.49    3.26
   4  -1 -11   27.20    3.50
   4  -1 -11   26.95    4.27
  -4   1  11   26.62    4.11
   3  -1 -11   54.02    4.61
   3  -1 -11   47.15    5.28
  -3   1  11   45.61    4.71
   2  -1 -11   13.20    3.12
   2  -1 -11    7.58    2.31
  -2   1  11    9.11    2.78
   1  -1 -11   31.80    4.09
   1  -1 -11   26.91    3.27
  -1   1  11   33.35    3.83
   0  -1 -11   19.55    3.65
   0  -1 -11   19.63    2.89
   0   1  11   18.62    2.96
  -1  -1 -11   13.89    2.48
  -2  -1 -11    5.53    3.64
  -2  -1 -11   10.75    2.26
   2   1  11    4.52    1.93
  -3  -1 -11    0.48    1.56
   3   1  11    1.05    1.80
  -4  -1 -11   54.08    4.58
   4   1  11   41.92    5.41
  -5  -1 -11   32.95    3.86
  -6  -1 -11   16.06    3.30
  -7  -1 -11   10.44    3.14
   5  -2 -11   42.58    4.83
  -5   2  11   38.88    4.88
   4  -2 -11   -1.48    1.84
  -4   2  11    1.80    2.25
   3  -2 -11   19.05    3.04
  -3   2  11   17.16    3.16
   2  -2 -11    1.57    1.74
  -2   2  11    2.14    1.85
   1  -2 -11   -0.37    1.43
  -1   2  11    2.17    1.92
   0  -2 -11    1.19    1.59
   0   2  11    2.72    1.71
  -1  -2 -11    1.54    1.53
   1   2  11    1.26    1.57
  -2  -2 -11   13.85    2.47
  -3  -2 -11    9.35    2.37
   3   2  11    3.32    1.87
  -4  -2 -11    3.16    2.06
   4   2  11    5.95    2.31
  -5  -2 -11   73.60    5.43
   5   2  11   70.99    5.49
  -6  -2 -11    8.88    2.77
   6   2  11   10.54    2.76
  -7  -2 -11    2.22    2.59
   7   2  11    0.68    1.96
   5  -3 -11   13.14    3.29
  -5   3  11   15.87    3.74
   4  -3 -11   -3.37    1.77
  -4   3  11    0.59    2.21
   3  -3 -11    4.57    2.22
  -3   3  11    0.96    1.96
   2  -3 -11   81.79    5.64
  -2   3  11   77.45    5.21
   1  -3 -11    0.98    1.69
  -1   3  11    1.24    1.67
   0  -3 -11    9.15    2.29
   0   3  11    9.33    2.25
  -1  -3 -11   29.63    3.32
   1   3  11   32.72    3.36
  -2  -3 -11    1.20    1.76
   2   3  11    0.93    1.49
  -3  -3 -11    1.16    1.66
   3   3  11   -0.65    1.27
  -4  -3 -11    9.05    2.38
   4   3  11   -0.77    1.49
  -5  -3 -11   -0.25    1.89
   5   3  11    2.04    1.94
  -6  -3 -11    1.08    2.19
   6   3  11    3.48    2.10
  -7  -3 -11   -2.29    2.34
   7   3  11    1.72    2.01
   4  -4 -11   -0.19    2.17
  -4   4  11   -1.01    1.93
   3  -4 -11    1.48    1.94
  -3   4  11   -0.80    1.65
   2  -4 -11   17.51    3.12
  -2   4  11   20.64    3.00
   1  -4 -11   11.02    2.62
  -1   4  11    6.37    2.02
   0  -4 -11    2.52    1.81
   0   4  11    0.66    1.46
  -1  -4 -11  109.82    5.91
   1   4  11  101.86    5.10
  -2  -4 -11    6.10    2.11
   2   4  11   12.67    2.26
  -3  -4 -11    0.46    1.57
   3   4  11    2.29    1.50
  -4  -4 -11   30.78    3.71
   4   4  11   26.49    2.90
  -5  -4 -11    6.59    2.33
   5   4  11    2.42    1.50
   5   4  11    9.08    1.98
  -6  -4 -11    9.13    2.74
   6   4  11    7.48    2.05
  -7  -4 -11   10.20    3.14
   4  -5 -11    0.14    2.10
  -4   5  11   -3.19    1.67
   3  -5 -11    0.84    2.01
  -3   5  11    5.25    2.16
   2  -5 -11   44.47    4.46
  -2   5  11   49.56    4.03
   1  -5 -11    0.42    1.82
  -1   5  11   -1.41    1.42
   0  -5 -11    0.45    1.73
   0   5  11    0.85    1.63
   0   5  11    1.73    1.48
  -1  -5 -11  225.08    8.81
   1   5  11  215.19    7.61
   1   5  11  225.10    8.72
   1   5  11  222.54    9.18
  -2  -5 -11    9.44    2.47
   2   5  11   10.22    2.62
   2   5  11   10.26    2.05
   2   5  11    6.80    2.19
  -3  -5 -11    9.73    2.43
   3   5  11    9.00    1.88
   3   5  11    5.72    2.18
   3   5  11    8.89    2.48
  -4  -5 -11   63.16    4.80
   4   5  11   68.79    6.60
   4   5  11   57.64    4.66
   4   5  11   61.87    3.84
  -5  -5 -11    9.04    2.67
   5   5  11    8.03    1.86
   5   5  11    8.39    2.57
   6   5  11   -0.30    1.27
   3  -6 -11   -2.70    1.95
  -3   6  11   -2.02    1.43
   2  -6 -11   38.03    4.24
  -2   6  11   43.44    3.68
   1  -6 -11    5.06    2.33
  -1   6  11    5.02    2.22
  -1   6  11    7.07    1.93
   0  -6 -11   -0.21    2.35
   0   6  11    3.40    1.85
   0   6  11    3.45    1.86
   0   6  11    2.03    1.53
   1   6  11   30.49    3.69
   1   6  11   33.93    2.92
   1   6  11   41.45    4.42
   2   6  11    9.68    2.44
   2   6  11   11.89    1.96
   2   6  11   13.88    2.62
   3   6  11    7.48    1.64
   3   6  11    9.15    2.48
   3   6  11   11.55    2.55
   4   6  11   32.77    2.60
   4   6  11   32.70    3.84
   4   6  11   28.21    3.51
   5   6  11    1.16    1.72
   5   6  11    0.88    1.19
   5   6  11   -1.23    1.64
  -2   7  11   -2.54    2.05
  -2   7  11    1.49    1.31
  -1   7  11   15.01    2.98
  -1   7  11   20.41    1.87
   0   7  11    0.94    1.76
   0   7  11    2.96    1.50
   0   7  11    6.36    2.16
   1   7  11    8.27    2.32
   1   7  11    5.92    2.06
   1   7  11    6.88    1.76
   2   7  11    0.36    1.26
   2   7  11    2.11    1.66
   2   7  11    4.65    2.01
   3   7  11    1.12    1.25
   3   7  11    1.02    1.61
   3   7  11    0.06    1.48
   4   7  11   34.28    3.19
   4   7  11   35.27    3.91
   4   7  11   28.49    3.65
   5   7  11    4.71    1.59
   5   7  11    2.05    2.00
   0   8  11   15.59    2.02
   1   8  11   -0.72    1.54
   1   8  11   -0.40    0.97
   1   8  11   -1.88    1.75
   2   8  11   -1.55    1.46
   2   8  11   -2.46    1.31
   3   8  11    0.75    1.63
   3   8  11    3.28    2.02
   1   4 -12   32.99    2.40
   1   4 -12   18.67    3.03
   1   4 -12   26.72    4.33
   0   4 -12   -0.15    1.11
   0   4 -12   -2.02    2.06
   0   4 -12    2.80    2.49
  -1   4 -12    4.38    2.60
  -1   4 -12    1.42    1.23
  -1   4 -12    0.84    2.33
   3   3 -12    2.00    1.39
   3   3 -12    4.90    2.57
   3   3 -12   -1.43    2.20
   2   3 -12   14.09    3.19
   2   3 -12    8.67    1.79
   2   3 -12    7.77    2.62
   1   3 -12   35.64    3.15
   1   3 -12   24.53    4.07
   1   3 -12   32.93    4.18
   0   3 -12   11.78    3.09
   0   3 -12    9.14    3.05
   0   3 -12    7.98    1.84
  -1   3 -12    0.52    2.09
  -1   3 -12    4.61    2.71
  -1   3 -12    1.80    1.48
  -2   3 -12    1.84    2.24
  -2   3 -12    2.25    2.67
  -2   3 -12    0.84    1.47
  -3   3 -12   21.29    3.86
  -3   3 -12   22.67    4.12
  -3   3 -12   17.33    2.59
   3   2 -12   24.25    3.76
   3   2 -12   17.56    2.53
  -3  -2  12   19.95    3.67
   2   2 -12    9.27    2.83
   2   2 -12    7.84    2.02
   2   2 -12    9.64    3.08
  -2  -2  12    7.09    2.64
   1   2 -12   49.50    5.24
   1   2 -12   50.14    3.92
   1   2 -12   62.10    5.53
   0   2 -12   28.83    3.12
   0   2 -12   32.46    4.47
  -1   2 -12    0.32    1.48
  -1   2 -12   -1.53    2.04
  -2   2 -12    2.47    2.65
  -2   2 -12    2.87    1.80
  -3   2 -12    3.50    1.77
  -3   2 -12    4.65    2.86
  -4   2 -12    3.92    2.63
  -4   2 -12    1.37    1.66
   4   1 -12    1.39    1.65
   4   1 -12    0.13    2.59
  -4  -1  12    2.91    2.71
   3   1 -12    1.52    2.54
   3   1 -12   -0.06    1.54
   3   1 -12    1.36    1.93
  -3  -1  12    1.26    2.36
   2   1 -12    0.86    1.50
   2   1 -12   -0.07    2.43
  -2  -1  12    0.86    2.15
   1   1 -12   -0.47    1.97
   1   1 -12    0.71    1.52
  -1  -1  12   -1.01    1.88
   0   1 -12    5.61    2.53
   0   1 -12    2.71    1.82
  -1   1 -12    7.99    2.77
  -1   1 -12    3.54    1.75
  -2   1 -12    2.40    1.57
  -2   1 -12    1.51    2.63
  -3   1 -12    0.12    2.37
  -3   1 -12    1.08    1.65
  -4   1 -12    4.47    2.10
  -4   1 -12    1.20    2.53
  -5   1 -12    3.99    2.24
  -5   1 -12   -0.88    3.12
   4   0 -12   -1.54    1.68
   4   0 -12   -0.78    2.63
  -4   0  12    0.23    2.43
   3   0 -12   11.66    2.54
   3   0 -12   14.02    3.64
  -3   0  12   14.56    3.33
   2   0 -12    0.50    2.39
   2   0 -12    2.63    1.82
  -2   0  12    3.44    2.40
   1   0 -12    5.71    2.81
   1   0 -12    4.01    1.92
  -1   0  12    0.96    2.07
   0   0 -12   -0.64    2.32
   0   0 -12    3.88    1.82
   0   0  12    1.06    1.96
  -1   0 -12   39.90    5.01
  -1   0 -12   48.97    4.25
  -2   0 -12    4.69    2.01
  -2   0 -12    1.79    2.61
  -3   0 -12    3.17    3.55
  -3   0 -12   11.08    2.47
  -4   0 -12   13.68    2.86
  -5   0 -12    0.50    2.17
   4  -1 -12    7.22    2.65
  -4   1  12   13.62    3.69
   3  -1 -12    3.51    2.05
  -3   1  12    5.87    2.64
   2  -1 -12   19.32    2.97
  -2   1  12   23.17    3.85
   1  -1 -12    1.33    1.83
  -1   1  12    3.56    2.20
   0  -1 -12    6.09    2.16
   0   1  12   12.85    2.83
  -1  -1 -12   18.31    3.00
   1   1  12   20.77    3.28
  -2  -1 -12   47.24    4.51
  -3  -1 -12   14.36    2.89
  -4  -1 -12    4.74    2.29
  -5  -1 -12   11.24    2.84
   4  -2 -12    5.42    2.71
  -4   2  12   10.23    3.36
   3  -2 -12   -0.28    1.94
  -3   2  12    2.68    2.34
   2  -2 -12   13.02    2.86
  -2   2  12   14.72    3.06
   1  -2 -12    2.60    1.95
  -1   2  12    3.75    2.25
   0  -2 -12   19.14    3.18
   0   2  12   21.88    3.21
  -1  -2 -12   39.63    4.05
   1   2  12   31.94    3.72
  -2  -2 -12    1.75    1.88
   2   2  12    2.09    1.85
  -3  -2 -12    7.84    2.48
   3   2  12    1.11    1.74
  -4  -2 -12   32.34    3.92
   4   2  12   15.92    2.88
  -5  -2 -12    2.79    2.24
   5   2  12   -1.53    1.79
  -6  -2 -12   27.87    4.01
   3  -3 -12    1.15    2.21
  -3   3  12    2.00    2.27
   2  -3 -12   21.25    3.29
  -2   3  12   20.12    3.45
   1  -3 -12   10.89    2.81
  -1   3  12    2.82    1.96
   0  -3 -12    5.20    2.14
   0   3  12    2.51    1.95
  -1  -3 -12   64.10    5.15
   1   3  12   55.94    4.49
  -2  -3 -12   -1.08    1.70
   2   3  12    1.81    1.62
  -3  -3 -12   -0.60    1.64
   3   3  12    1.03    1.56
  -4  -3 -12    9.58    2.63
   4   3  12   12.37    2.48
  -5  -3 -12    7.97    2.59
   5   3  12    3.11    1.97
  -6  -3 -12    1.39    2.39
   3  -4 -12    4.17    2.57
  -3   4  12    0.13    2.03
   2  -4 -12   11.59    2.77
  -2   4  12   10.25    2.60
   1  -4 -12    5.87    2.44
  -1   4  12    6.51    2.19
   0  -4 -12    1.34    1.90
   0   4  12   -1.07    1.43
  -1  -4 -12    3.13    2.00
   1   4  12    4.09    1.83
  -2  -4 -12   29.89    3.68
   2   4  12   31.98    3.36
  -3  -4 -12    7.89    2.43
   3   4  12   11.82    2.36
  -4  -4 -12    2.88    2.06
   4   4  12    4.38    1.84
  -5  -4 -12    6.57    2.51
   5   4  12    6.57    2.01
   2  -5 -12    1.61    2.12
  -2   5  12   -0.45    1.66
   1  -5 -12   46.92    4.85
  -1   5  12   41.22    3.89
   0  -5 -12   11.14    2.86
   0   5  12    5.57    2.05
  -1  -5 -12    4.26    2.12
   1   5  12    3.05    1.76
  -2  -5 -12   35.41    4.03
   2   5  12   27.99    3.09
  -3  -5 -12   16.15    3.05
   3   5  12   15.20    2.36
  -4  -5 -12    0.71    1.95
   4   5  12    0.25    1.46
  -5  -5 -12    8.96    2.77
   5   5  12    8.98    2.06
   1  -6 -12    1.89    2.18
  -1   6  12    1.16    1.68
   0  -6 -12    7.30    2.69
   0   6  12   11.54    2.29
   1   6  12    5.10    1.77
   2   6  12   33.70    2.99
   2   6  12   28.26    4.00
   3   6  12    2.11    1.52
   3   6  12    2.33    2.08
   4   6  12    4.01    1.59
   3   7  12   -2.31    1.17
   0   2 -13    8.55    3.00
   0   2 -13    6.82    2.04
   0   2 -13    3.82    2.89
  -1   2 -13   31.62    4.60
  -1   2 -13   33.82    3.52
  -1   2 -13   35.86    4.90
   2   1 -13   22.71    3.86
   1   1 -13   20.15    4.09
   1   1 -13   20.42    3.02
  -1  -1  13   24.20    3.99
   0   1 -13    5.56    2.90
   0   1 -13    1.10    1.78
  -1   1 -13   27.31    3.46
  -1   1 -13   31.98    4.76
  -2   1 -13   -2.16    1.57
  -2   1 -13   -0.56    2.49
  -3   1 -13   -0.13    1.76
  -3   1 -13    4.27    2.80
   2   0 -13   -0.51    2.56
   2   0 -13    0.39    1.83
  -2   0  13   -0.92    2.32
   1   0 -13    1.72    2.49
   1   0 -13   -0.34    1.64
  -1   0  13    4.36    2.51
   0   0 -13   -0.87    2.08
   0   0 -13    0.87    1.78
   0   0  13   -1.16    2.06
  -1   0 -13   34.00    3.75
  -1   0 -13   37.10    4.94
  -2   0 -13    1.20    1.95
  -3   0 -13    0.02    1.98
   2  -1 -13   -1.67    1.91
  -2   1  13   -0.94    2.42
   1  -1 -13    9.80    2.59
  -1   1  13   11.60    3.20
   0  -1 -13    0.91    1.94
   0   1  13    4.74    2.46
  -1  -1 -13   16.17    2.96
   1   1  13   19.30    3.47
  -2  -1 -13    7.70    2.46
  -3  -1 -13    3.08    2.21
  -4  -1 -13   20.39    3.60
   2  -2 -13    3.14    2.22
  -2   2  13    1.00    2.34
   1  -2 -13    0.89    2.14
  -1   2  13    4.42    2.56
   0  -2 -13   -0.06    1.96
   0   2  13    3.36    2.32
  -1  -2 -13    7.71    2.58
   1   2  13    3.33    2.08
  -2  -2 -13   15.22    3.15
   2   2  13   15.72    3.14
  -3  -2 -13    0.09    2.08
   3   2  13    3.60    2.38
  -4  -2 -13    2.05    2.36
  -2   3  13    9.59    2.89
   1  -3 -13   34.75    4.46
  -1   3  13   27.88    3.73
   0  -3 -13    5.20    2.53
   0   3  13    2.92    2.04
  -1  -3 -13    3.51    2.37
   1   3  13    2.06    1.98
  -2  -3 -13   26.27    3.77
   2   3  13   23.56    3.39
  -3  -3 -13    2.15    2.23
   3   3  13    0.95    1.88
  -4  -3 -13    0.98    2.36
   1  -4 -13    4.87    2.44
  -1   4  13    5.20    2.34
   0  -4 -13   36.82    4.40
   0   4  13   34.41    3.81
  -1  -4 -13   10.17    3.02
   1   4  13    7.78    2.25
  -2  -4 -13   14.67    3.23
   2   4  13   20.25    3.20
  -3  -4 -13    8.63    2.89
   3   4  13    6.82    2.27
   0   5  13   29.61    3.49
  -1  -5 -13    4.17    2.51
   1   5  13    0.20    1.77
  -2  -5 -13   21.19    3.42
   2   5  13   20.11    2.92


 _exptl_absorpt_process_details 'SADABS 2014/4'
 _exptl_absorpt_correction_type   multiscan
 _exptl_absorpt_correction_T_max  0.9485
 _exptl_absorpt_correction_T_min  0.8313
 _exptl_special_details
)
 The following wavelength and cell were deduced by SADABS from the
 direction cosines etc. They are given here for emergency use only:
 CELL 0.71028    8.607    9.508   10.979   82.478   85.407   80.528
)

_computing_structure_solution     'SHELXT 2014/4 (Sheldrick, 2014)'
;
_shelx_hkl_checksum              95717
#END Tags that were not found in dictionaries
loop_
_space_group_symop_operation_xyz
'x, y, z'
'-x, -y, -z'
loop_
_atom_site_label
_atom_site_type_symbol
_atom_site_fract_x
_atom_site_fract_y
_atom_site_fract_z
_atom_site_U_iso_or_equiv
_atom_site_adp_type
_atom_site_occupancy
_atom_site_site_symmetry_order
_atom_site_calc_flag
_atom_site_refinement_flags_posn
_atom_site_refinement_flags_adp
_atom_site_refinement_flags_occupancy
_atom_site_disorder_assembly
_atom_site_disorder_group
C1 C 0.36754(19) -0.07966(17) 0.28619(14) 0.0457(4) Uani 1 1 d . . . . .
C2 C 0.4920(2) -0.0248(2) 0.32364(16) 0.0564(4) Uani 1 1 d . . . . .
H2 H 0.4796 0.0230 0.3949 0.068 Uiso 1 1 calc R U . . .
C3 C 0.6344(2) -0.0403(2) 0.25626(17) 0.0615(5) Uani 1 1 d . . . . .
H3 H 0.7202 -0.0038 0.2827 0.074 Uiso 1 1 calc R U . . .
C4 C 0.6552(2) -0.1077(2) 0.15123(17) 0.0568(4) Uani 1 1 d . . . . .
C5 C 0.5304(2) -0.1627(2) 0.11633(18) 0.0689(5) Uani 1 1 d . . . . .
H5 H 0.5432 -0.2107 0.0451 0.083 Uiso 1 1 calc R U . . .
C6 C 0.3869(2) -0.1498(2) 0.18251(17) 0.0609(5) Uani 1 1 d . . . . .
H6 H 0.3022 -0.1887 0.1571 0.073 Uiso 1 1 calc R U . . .
C7 C 0.8100(3) -0.1179(3) 0.0757(2) 0.0788(6) Uani 1 1 d . . . . .
H7A H 0.8175 -0.1943 0.0231 0.118 Uiso 1 1 calc R U . . .
H7B H 0.8979 -0.1399 0.1304 0.118 Uiso 1 1 calc R U . . .
H7C H 0.8150 -0.0263 0.0246 0.118 Uiso 1 1 calc R U . . .
C8 C 0.0851(2) 0.11941(18) 0.30803(15) 0.0491(4) Uani 1 1 d . . . . .
H8A H 0.0854 0.1240 0.2178 0.059 Uiso 1 1 calc R U . . .
H8B H -0.0263 0.1314 0.3400 0.059 Uiso 1 1 calc R U . . .
C9 C 0.15602(19) 0.24026(17) 0.33795(15) 0.0471(4) Uani 1 1 d . . . . .
C10 C 0.2455(2) 0.3287(2) 0.26675(17) 0.0581(4) Uani 1 1 d . . . . .
H10 H 0.2783 0.3240 0.1829 0.070 Uiso 1 1 calc R U . . .
C11 C 0.2796(2) 0.4273(2) 0.34036(18) 0.0588(5) Uani 1 1 d . . . . .
H11 H 0.3392 0.5020 0.3148 0.071 Uiso 1 1 calc R U . . .
C12 C 0.21194(18) 0.39732(17) 0.45625(16) 0.0474(4) Uani 1 1 d . . . . .
C13 C 0.21437(18) 0.46342(16) 0.56843(16) 0.0464(4) Uani 1 1 d . . . . .
C14 C 0.1282(2) 0.42234(19) 0.67595(18) 0.0571(4) Uani 1 1 d . . . . .
H14 H 0.0620 0.3524 0.6758 0.069 Uiso 1 1 calc R U . . .
C15 C 0.1373(2) 0.4812(2) 0.78192(18) 0.0615(5) Uani 1 1 d . . . . .
H15 H 0.0769 0.4520 0.8536 0.074 Uiso 1 1 calc R U . . .
C16 C 0.2333(2) 0.58233(18) 0.78520(17) 0.0530(4) Uani 1 1 d . . . . .
C17 C 0.3147(2) 0.6287(2) 0.67842(19) 0.0597(5) Uani 1 1 d . . . . .
H17 H 0.3775 0.7012 0.6786 0.072 Uiso 1 1 calc R U . . .
C18 C 0.3052(2) 0.57028(19) 0.57164(18) 0.0571(4) Uani 1 1 d . . . . .
H18 H 0.3615 0.6035 0.4991 0.069 Uiso 1 1 calc R U . . .
C19 C 0.2475(3) 0.6401(2) 0.9020(2) 0.0692(5) Uani 1 1 d . . . . .
F1 F 0.2735(12) 0.5402(4) 0.9934(4) 0.129(2) Uani 0.615(7) 1 d D U P A 1
F2 F 0.1252(7) 0.7278(10) 0.9339(5) 0.145(3) Uani 0.615(7) 1 d D U P A 1
F3 F 0.3668(8) 0.7110(9) 0.8993(4) 0.125(2) Uani 0.615(7) 1 d D U P A 1
F1' F 0.1522(14) 0.5987(14) 0.9955(6) 0.126(3) Uani 0.385(7) 1 d D U P A 2
F2' F 0.2147(17) 0.7760(5) 0.8940(7) 0.126(3) Uani 0.385(7) 1 d D U P A 2
F3' F 0.3834(9) 0.6031(16) 0.9433(10) 0.142(3) Uani 0.385(7) 1 d D U P A 2
N1 N 0.13622(15) 0.28281(14) 0.45254(12) 0.0459(3) Uani 1 1 d . . . . .
H1 H 0.0827 0.2427 0.5148 0.055 Uiso 1 1 calc R U . . .
O1 O 0.09207(16) -0.15679(14) 0.33948(12) 0.0646(4) Uani 1 1 d . . . . .
O2 O 0.20979(15) -0.04932(13) 0.49522(10) 0.0578(3) Uani 1 1 d . . . . .
S1 S 0.18374(5) -0.05405(4) 0.36849(4) 0.04741(14) Uani 1 1 d . . . . .
loop_
_atom_site_aniso_label
_atom_site_aniso_U_11
_atom_site_aniso_U_22
_atom_site_aniso_U_33
_atom_site_aniso_U_23
_atom_site_aniso_U_13
_atom_site_aniso_U_12
C1 0.0528(9) 0.0440(8) 0.0418(8) -0.0083(6) -0.0042(7) -0.0095(7)
C2 0.0624(11) 0.0690(12) 0.0447(9) -0.0187(8) -0.0043(8) -0.0199(9)
C3 0.0556(11) 0.0769(13) 0.0571(11) -0.0121(9) -0.0065(8) -0.0206(9)
C4 0.0560(10) 0.0582(11) 0.0527(10) -0.0064(8) -0.0011(8) -0.0012(8)
C5 0.0701(13) 0.0823(14) 0.0594(12) -0.0373(10) 0.0028(10) -0.0078(10)
C6 0.0592(11) 0.0690(12) 0.0621(11) -0.0304(9) -0.0043(9) -0.0146(9)
C7 0.0678(13) 0.0869(16) 0.0755(14) -0.0105(12) 0.0137(11) -0.0033(11)
C8 0.0491(9) 0.0533(10) 0.0462(9) -0.0078(7) -0.0033(7) -0.0107(7)
C9 0.0467(9) 0.0436(9) 0.0499(9) -0.0045(7) -0.0024(7) -0.0060(7)
C10 0.0595(11) 0.0586(11) 0.0557(11) -0.0031(8) 0.0064(8) -0.0153(8)
C11 0.0567(10) 0.0531(10) 0.0679(12) -0.0013(8) 0.0030(9) -0.0200(8)
C12 0.0403(8) 0.0393(8) 0.0628(10) -0.0038(7) -0.0024(7) -0.0088(6)
C13 0.0382(8) 0.0378(8) 0.0628(10) -0.0054(7) -0.0043(7) -0.0053(6)
C14 0.0584(10) 0.0481(10) 0.0698(12) -0.0112(8) 0.0036(9) -0.0223(8)
C15 0.0685(12) 0.0543(11) 0.0643(12) -0.0089(9) 0.0051(9) -0.0201(9)
C16 0.0491(9) 0.0436(9) 0.0670(11) -0.0104(8) -0.0091(8) -0.0044(7)
C17 0.0511(10) 0.0502(10) 0.0833(13) -0.0164(9) -0.0026(9) -0.0177(8)
C18 0.0531(10) 0.0502(10) 0.0712(12) -0.0091(8) 0.0061(8) -0.0197(8)
C19 0.0723(14) 0.0626(13) 0.0762(14) -0.0138(11) -0.0124(11) -0.0133(10)
F1 0.227(6) 0.091(2) 0.072(2) 0.0049(15) -0.046(3) -0.029(3)
F2 0.115(3) 0.197(6) 0.116(4) -0.097(4) -0.030(2) 0.063(3)
F3 0.144(4) 0.168(4) 0.101(3) -0.053(3) 0.000(2) -0.101(4)
F1' 0.156(6) 0.162(7) 0.083(4) -0.044(4) 0.032(4) -0.087(5)
F2' 0.231(9) 0.053(2) 0.103(4) -0.030(2) -0.033(6) -0.020(4)
F3' 0.097(4) 0.192(8) 0.144(6) -0.076(6) -0.061(4) 0.019(5)
N1 0.0470(7) 0.0407(7) 0.0506(8) -0.0038(6) 0.0018(6) -0.0118(5)
O1 0.0686(8) 0.0578(8) 0.0759(9) -0.0181(6) 0.0046(7) -0.0303(6)
O2 0.0733(8) 0.0590(7) 0.0408(6) -0.0041(5) 0.0023(6) -0.0143(6)
S1 0.0552(3) 0.0444(2) 0.0459(2) -0.00855(17) 0.00147(17) -0.01664(17)
loop_
_atom_type_symbol
_atom_type_description
_atom_type_scat_dispersion_real
_atom_type_scat_dispersion_imag
_atom_type_scat_source
C C 0.0033 0.0016 'International Tables Vol C Tables 4.2.6.8 and 6.1.1.4'
N N 0.0061 0.0033 'International Tables Vol C Tables 4.2.6.8 and 6.1.1.4'
O O 0.0106 0.0060 'International Tables Vol C Tables 4.2.6.8 and 6.1.1.4'
F F 0.0171 0.0103 'International Tables Vol C Tables 4.2.6.8 and 6.1.1.4'
S S 0.1246 0.1234 'International Tables Vol C Tables 4.2.6.8 and 6.1.1.4'
H H 0.0000 0.0000 'International Tables Vol C Tables 4.2.6.8 and 6.1.1.4'
loop_
_geom_angle_atom_site_label_1
_geom_angle_atom_site_label_2
_geom_angle_atom_site_label_3
_geom_angle
C2 C1 C6 119.99(16)
C2 C1 S1 119.38(13)
C6 C1 S1 120.60(13)
C3 C2 C1 119.28(16)
C3 C2 H2 120.4
C1 C2 H2 120.4
C2 C3 C4 121.62(17)
C2 C3 H3 119.2
C4 C3 H3 119.2
C5 C4 C3 118.13(17)
C5 C4 C7 121.07(18)
C3 C4 C7 120.79(18)
C4 C5 C6 121.52(17)
C4 C5 H5 119.2
C6 C5 H5 119.2
C5 C6 C1 119.44(17)
C5 C6 H6 120.3
C1 C6 H6 120.3
C4 C7 H7A 109.5
C4 C7 H7B 109.5
H7A C7 H7B 109.5
C4 C7 H7C 109.5
H7A C7 H7C 109.5
H7B C7 H7C 109.5
C9 C8 S1 114.31(12)
C9 C8 H8A 108.7
S1 C8 H8A 108.7
C9 C8 H8B 108.7
S1 C8 H8B 108.7
H8A C8 H8B 107.6
N1 C9 C10 107.63(15)
N1 C9 C8 121.45(14)
C10 C9 C8 130.92(16)
C9 C10 C11 107.42(17)
C9 C10 H10 126.3
C11 C10 H10 126.3
C12 C11 C10 108.32(16)
C12 C11 H11 125.8
C10 C11 H11 125.8
N1 C12 C11 106.52(15)
N1 C12 C13 122.27(15)
C11 C12 C13 131.19(15)
C18 C13 C14 117.39(16)
C18 C13 C12 120.52(15)
C14 C13 C12 122.08(15)
C15 C14 C13 121.26(16)
C15 C14 H14 119.4
C13 C14 H14 119.4
C14 C15 C16 120.68(18)
C14 C15 H15 119.7
C16 C15 H15 119.7
C15 C16 C17 118.93(17)
C15 C16 C19 120.04(18)
C17 C16 C19 121.03(17)
C18 C17 C16 120.45(16)
C18 C17 H17 119.8
C16 C17 H17 119.8
C17 C18 C13 121.18(17)
C17 C18 H18 119.4
C13 C18 H18 119.4
F3' C19 F2' 107.3(5)
F2 C19 F1 106.6(4)
F2 C19 F3 105.2(4)
F1 C19 F3 104.0(3)
F3' C19 F1' 103.5(6)
F2' C19 F1' 102.7(5)
F3' C19 C16 112.9(3)
F2' C19 C16 113.6(3)
F2 C19 C16 113.9(2)
F1 C19 C16 112.7(2)
F3 C19 C16 113.6(2)
F1' C19 C16 115.8(3)
C9 N1 C12 110.11(14)
C9 N1 H1 124.9
C12 N1 H1 124.9
O2 S1 O1 118.40(8)
O2 S1 C1 108.86(8)
O1 S1 C1 108.74(8)
O2 S1 C8 107.76(8)
O1 S1 C8 106.70(9)
C1 S1 C8 105.65(8)
loop_
_geom_bond_atom_site_label_1
_geom_bond_atom_site_label_2
_geom_bond_distance
C1 C2 1.385(2)
C1 C6 1.385(2)
C1 S1 1.7599(18)
C2 C3 1.381(3)
C2 H2 0.9500
C3 C4 1.383(3)
C3 H3 0.9500
C4 C5 1.377(3)
C4 C7 1.513(3)
C5 C6 1.383(3)
C5 H5 0.9500
C6 H6 0.9500
C7 H7A 0.9800
C7 H7B 0.9800
C7 H7C 0.9800
C8 C9 1.480(2)
C8 S1 1.7885(18)
C8 H8A 0.9900
C8 H8B 0.9900
C9 N1 1.367(2)
C9 C10 1.371(2)
C10 C11 1.402(3)
C10 H10 0.9500
C11 C12 1.379(3)
C11 H11 0.9500
C12 N1 1.373(2)
C12 C13 1.464(2)
C13 C18 1.395(2)
C13 C14 1.398(2)
C14 C15 1.375(3)
C14 H14 0.9500
C15 C16 1.383(2)
C15 H15 0.9500
C16 C17 1.385(3)
C16 C19 1.487(3)
C17 C18 1.382(3)
C17 H17 0.9500
C18 H18 0.9500
C19 F3' 1.264(5)
C19 F2' 1.269(6)
C19 F2 1.283(4)
C19 F1 1.295(4)
C19 F3 1.323(4)
C19 F1' 1.330(5)
N1 H1 0.8800
O1 S1 1.4420(13)
O2 S1 1.4395(14)
