#------------------------------------------------------------------------------
#$Date: 2016-02-18 17:37:37 +0200 (Thu, 18 Feb 2016) $
#$Revision: 176729 $
#$URL: svn://www.crystallography.net/cod/cif/1/51/83/1518393.cif $
#------------------------------------------------------------------------------
#
# This file is available in the Crystallography Open Database (COD),
# http://www.crystallography.net/
#
# All data on this site have been placed in the public domain by the
# contributors.
#
data_1518393
loop_
_publ_author_name
'Ye, Qun'
'Neo, Wei Teng'
'Cho, Ching Mui'
'Yang, Shuo Wang'
'Lin, Tingting'
'Zhou, Hui'
'Yan, Hong'
'Lu, Xuehong'
'Chi, Chunyan'
'Xu, Jianwei'
_publ_section_title
;
 Synthesis of ultrahighly electron-deficient
 pyrrolo[3,4-d]pyridazine-5,7-dione by inverse electron demand Diels-Alder
 reaction and its application as electrochromic materials.
;
_journal_issue                   24
_journal_name_full               'Organic letters'
_journal_page_first              6386
_journal_page_last               6389
_journal_paper_doi               10.1021/ol503178m
_journal_volume                  16
_journal_year                    2014
_chemical_formula_moiety         'C20 H17 Br2 N3 O2 S2'
_chemical_formula_sum            'C20 H17 Br2 N3 O2 S2'
_chemical_formula_weight         555.30
_space_group_crystal_system      triclinic
_space_group_IT_number           2
_space_group_name_Hall           '-P 1'
_space_group_name_H-M_alt        'P -1'
_symmetry_space_group_name_Hall  '-P 1'
_symmetry_space_group_name_H-M   'P -1'
_atom_sites_solution_hydrogens   geom
_audit_creation_method           SHELXL-2014/6
_cell_angle_alpha                78.521(2)
_cell_angle_beta                 89.373(2)
_cell_angle_gamma                81.245(2)
_cell_formula_units_Z            2
_cell_length_a                   8.1594(5)
_cell_length_b                   9.3272(6)
_cell_length_c                   14.0726(9)
_cell_measurement_reflns_used    1128
_cell_measurement_temperature    100(2)
_cell_measurement_theta_max      27.103
_cell_measurement_theta_min      2.436
_cell_volume                     1037.13(11)
_computing_cell_refinement
'SHELXTL, Acta Cryst., Sect. A 2008, 64, 112-122.'
_computing_data_collection       'APEX v2014.9.0'
_computing_data_reduction        'Saint, APEX v2014.9.0.'
_computing_molecular_graphics    Ortep3
_computing_publication_material  'APEX v2014.9.0.'
_computing_structure_refinement  'SHELXL-2014/6 (Sheldrick, 2014)'
_computing_structure_solution    'Sir 2014'
_diffrn_ambient_temperature      100(2)
_diffrn_measured_fraction_theta_full 0.999
_diffrn_measured_fraction_theta_max 0.999
_diffrn_measurement_device_type  'Bruker AXS D8 Venture '
_diffrn_measurement_method       'profile data from \q/2\q scans'
_diffrn_radiation_type           MoK\a
_diffrn_radiation_wavelength     0.71073
_diffrn_reflns_av_R_equivalents  0.0452
_diffrn_reflns_av_unetI/netI     0.0378
_diffrn_reflns_Laue_measured_fraction_full 0.999
_diffrn_reflns_Laue_measured_fraction_max 0.999
_diffrn_reflns_limit_h_max       10
_diffrn_reflns_limit_h_min       -10
_diffrn_reflns_limit_k_max       11
_diffrn_reflns_limit_k_min       -10
_diffrn_reflns_limit_l_max       18
_diffrn_reflns_limit_l_min       -18
_diffrn_reflns_number            21837
_diffrn_reflns_point_group_measured_fraction_full 0.999
_diffrn_reflns_point_group_measured_fraction_max 0.999
_diffrn_reflns_theta_full        25.242
_diffrn_reflns_theta_max         27.103
_diffrn_reflns_theta_min         2.436
_exptl_absorpt_coefficient_mu    4.132
_exptl_absorpt_correction_T_max  0.688
_exptl_absorpt_correction_T_min  0.431
_exptl_absorpt_correction_type   multi-scan
_exptl_absorpt_process_details   Sadabs
_exptl_crystal_colour            orange
_exptl_crystal_density_diffrn    1.778
_exptl_crystal_description       'prism frag'
_exptl_crystal_F_000             552
_exptl_crystal_size_max          0.245
_exptl_crystal_size_mid          0.107
_exptl_crystal_size_min          0.098
_refine_diff_density_max         0.987
_refine_diff_density_min         -0.509
_refine_diff_density_rms         0.108
_refine_ls_extinction_method     none
_refine_ls_goodness_of_fit_ref   1.031
_refine_ls_hydrogen_treatment    constr
_refine_ls_matrix_type           full
_refine_ls_number_parameters     263
_refine_ls_number_reflns         4574
_refine_ls_number_restraints     0
_refine_ls_restrained_S_all      1.031
_refine_ls_R_factor_all          0.0436
_refine_ls_R_factor_gt           0.0320
_refine_ls_shift/su_max          0.001
_refine_ls_shift/su_mean         0.000
_refine_ls_structure_factor_coef Fsqd
_refine_ls_weighting_details
'w=1/[\s^2^(Fo^2^)+(0.0496P)^2^+0.4062P] where P=(Fo^2^+2Fc^2^)/3'
_refine_ls_weighting_scheme      calc
_refine_ls_wR_factor_gt          0.0797
_refine_ls_wR_factor_ref         0.0853
_reflns_Friedel_coverage         0.000
_reflns_number_gt                3809
_reflns_number_total             4574
_reflns_threshold_expression     'I > 2\s(I)'
_cod_data_source_file            ol503178m_si_002.cif
_cod_data_source_block           shelx
_cod_depositor_comments
'Adding full bibliography for 1518392--1518393.cif.'
_cod_database_code               1518393
#BEGIN Tags that were not found in dictionaries:
_shelx_space_group_comment
;
The symmetry employed for this shelxl refinement is uniquely defined
by the following loop, which should always be used as a source of
symmetry information in preference to the above space-group names.
They are only intended as comments.
;
_shelx_estimated_absorpt_t_min   0.431
_shelx_estimated_absorpt_t_max   0.688
_shelxl_version_number           2014/6
_shelx_res_file
;
TITL shelx   P-1
CELL  0.71073   8.1594   9.3272  14.0726   78.521   89.373   81.245
ZERR     2.00   0.0005   0.0006   0.0009    0.002    0.002    0.002
LATT   1
SFAC  C    H    BR   N    O    S
UNIT  40    34    4   6    4    4
MERG   2
shel 40.0 0.78
HTAB C3 O1
HTAB C12 O2
EQIV $1 -x+2, -y+2, -z+1
HTAB C13 O2_$1
HTAB C3 O1
HTAB C12 O2
HTAB C13 O2_$1
SIZE .245 .107 .098
FMAP   2
PLAN    5
ACTA
BOND   $H
CONF
L.S.  30
WGHT    0.049600    0.406200
FVAR       0.09257
BR1   3   -0.135139    0.330619    0.326818    11.00000    0.01549    0.02602 =
         0.02770   -0.00292   -0.00255   -0.01069
BR2   3    0.660594    0.988848    0.823576    11.00000    0.01979    0.03140 =
         0.01951   -0.01107   -0.00113   -0.00619
S1    6    0.116480    0.506287    0.394955    11.00000    0.01443    0.02094 =
         0.01836   -0.00403   -0.00005   -0.00760
S2    6    0.530973    0.849173    0.660625    11.00000    0.01320    0.01895 =
         0.01713   -0.00530   -0.00044   -0.00600
O1    5    0.594296    0.636206    0.171676    11.00000    0.01871    0.02283 =
         0.01962   -0.00882    0.00153   -0.00626
O2    5    0.878969    0.871004    0.354416    11.00000    0.01239    0.02793 =
         0.02672   -0.00992    0.00260   -0.00973
N1    4    0.349891    0.648081    0.462652    11.00000    0.01561    0.01660 =
         0.01694   -0.00363    0.00014   -0.00725
N2    4    0.430553    0.717059    0.514822    11.00000    0.01321    0.01863 =
         0.01820   -0.00370   -0.00090   -0.00600
N3    4    0.763152    0.757016    0.246867    11.00000    0.00951    0.01906 =
         0.01752   -0.00528    0.00273   -0.00465
C1    1    0.056169    0.420452    0.306596    11.00000    0.01492    0.01856 =
         0.02014   -0.00142   -0.00264   -0.00520
C2    1    0.157427    0.428390    0.229596    11.00000    0.01805    0.02054 =
         0.01776   -0.00414   -0.00286   -0.00510
AFIX  43
H2    2    0.142331    0.387733    0.175704    11.00000   -1.20000
AFIX   0
C3    1    0.289606    0.506568    0.241394    11.00000    0.01536    0.02095 =
         0.01933   -0.00337   -0.00039   -0.00489
AFIX  43
H3    2    0.370982    0.523233    0.195460    11.00000   -1.20000
AFIX   0
C4    1    0.285300    0.554797    0.326853    11.00000    0.01283    0.01347 =
         0.01904   -0.00046   -0.00171   -0.00198
C5    1    0.396845    0.631511    0.371636    11.00000    0.01324    0.01219 =
         0.01851   -0.00254   -0.00212   -0.00260
C6    1    0.539811    0.687048    0.334769    11.00000    0.01266    0.01000 =
         0.01942   -0.00212    0.00009   -0.00001
C7    1    0.627345    0.685840    0.241012    11.00000    0.01312    0.01394 =
         0.01886   -0.00388    0.00038   -0.00121
C8    1    0.771761    0.805607    0.333427    11.00000    0.01306    0.01520 =
         0.02003   -0.00337    0.00035    0.00047
C9    1    0.625323    0.759220    0.390512    11.00000    0.01099    0.01235 =
         0.02071   -0.00212   -0.00016   -0.00167
C10   1    0.567649    0.777213    0.481779    11.00000    0.01225    0.01349 =
         0.02046   -0.00182   -0.00307   -0.00239
C11   1    0.634528    0.850641    0.551351    11.00000    0.01354    0.01450 =
         0.01545   -0.00310   -0.00025   -0.00256
C12   1    0.767183    0.925650    0.547913    11.00000    0.01411    0.02401 =
         0.02041   -0.00769    0.00380   -0.00601
AFIX  43
H12   2    0.835647    0.939970    0.494676    11.00000   -1.20000
AFIX   0
C13   1    0.789577    0.979184    0.633561    11.00000    0.01248    0.02344 =
         0.02586   -0.00874   -0.00124   -0.00602
AFIX  43
H13   2    0.874321    1.031333    0.643361    11.00000   -1.20000
AFIX   0
C14   1    0.672409    0.944992    0.699216    11.00000    0.01442    0.02202 =
         0.01550   -0.00575   -0.00287   -0.00385
C15   1    0.883837    0.777215    0.169555    11.00000    0.01061    0.02632 =
         0.02212   -0.00845    0.00640   -0.00385
AFIX  23
H15A  2    0.913553    0.684952    0.147199    11.00000   -1.20000
H15B  2    0.983568    0.801541    0.195351    11.00000   -1.20000
AFIX   0
C16   1    0.817423    0.898865    0.084131    11.00000    0.01365    0.02469 =
         0.01949   -0.00732    0.00452   -0.00529
AFIX  23
H16A  2    0.713191    0.877852    0.061866    11.00000   -1.20000
H16B  2    0.894954    0.897227    0.031471    11.00000   -1.20000
AFIX   0
C17   1    0.789570    1.053266    0.106938    11.00000    0.01523    0.02569 =
         0.01787   -0.00527    0.00074   -0.00702
AFIX  23
H17A  2    0.725220    1.052189    0.165373    11.00000   -1.20000
H17B  2    0.895865    1.081348    0.119181    11.00000   -1.20000
AFIX   0
C18   1    0.699413    1.167253    0.024637    11.00000    0.01633    0.02490 =
         0.02075   -0.00566   -0.00007   -0.00593
AFIX  23
H18A  2    0.594355    1.137140    0.012137    11.00000   -1.20000
H18B  2    0.764653    1.167348   -0.033406    11.00000   -1.20000
AFIX   0
C19   1    0.665797    1.324829    0.042917    11.00000    0.02662    0.02271 =
         0.02572   -0.00576    0.00193   -0.00251
AFIX  23
H19A  2    0.587581    1.384717   -0.005980    11.00000   -1.20000
H19B  2    0.614818    1.323242    0.105636    11.00000   -1.20000
AFIX   0
C20   1    0.820907    1.396201    0.040897    11.00000    0.03652    0.02868 =
         0.03086   -0.01122    0.00692   -0.01165
AFIX 137
H20A  2    0.896094    1.341092    0.091847    11.00000   -1.50000
H20B  2    0.791754    1.496083    0.050151    11.00000   -1.50000
H20C  2    0.873187    1.396667   -0.020586    11.00000   -1.50000
AFIX   0
HKLF    4

REM  shelx   P-1
REM R1 =  0.0320 for    3809 Fo > 4sig(Fo)  and  0.0436 for all    4574 data
REM    263 parameters refined using      0 restraints

END

WGHT      0.0496      0.4062

REM Highest difference peak  0.987,  deepest hole -0.509,  1-sigma level  0.108
Q1    1  -0.1051  0.2256  0.3499  11.00000  0.05    0.99
Q2    1   0.6575  0.9710  0.7578  11.00000  0.05    0.99
Q3    1   0.6920  0.8850  0.8438  11.00000  0.05    0.88
Q4    1  -0.1372  0.3234  0.2610  11.00000  0.05    0.84
Q5    1  -0.1166  0.2991  0.4004  11.00000  0.05    0.81
;
_shelx_res_checksum              92122
_shelx_hkl_file
;
  -1   0   0   19.61    0.91
   1   0   0   17.51    0.92
   1   0   0   17.96    0.92
  -2   0   0   49.78    2.54
  -2   0   0   49.27    2.53
  -2   0   0   54.17    2.53
   2   0   0   50.14    2.53
   2   0   0   50.22    2.53
   2   0   0   52.02    2.53
  -3   0   0    4.59    0.30
  -3   0   0    5.32    0.31
  -3   0   0    4.32    0.29
  -3   0   0    4.65    0.28
   3   0   0    5.44    0.33
   3   0   0    4.77    0.28
   3   0   0    4.72    0.30
   3   0   0    4.26    0.29
  -4   0   0  119.91    6.33
  -4   0   0  133.83    6.34
  -4   0   0  131.13    6.32
  -4   0   0  123.21    6.33
   4   0   0  141.90    6.35
   4   0   0  123.88    6.33
   4   0   0  128.18    6.31
   4   0   0  122.68    6.33
  -5   0   0   13.19    0.70
  -5   0   0   11.89    0.71
  -5   0   0   11.83    0.72
  -5   0   0   12.00    0.72
  -5   0   0   13.49    0.71
   5   0   0   14.22    0.78
   5   0   0   12.62    0.69
   5   0   0   11.74    0.70
   5   0   0   12.20    0.71
  -6   0   0   14.78    0.80
  -6   0   0   13.61    0.84
  -6   0   0   14.00    0.82
  -6   0   0   13.67    0.83
  -6   0   0   14.85    0.81
   6   0   0   14.21    0.82
   6   0   0   13.91    0.81
   6   0   0   15.55    0.91
   6   0   0   14.77    0.79
  -7   0   0    0.62    0.21
  -7   0   0    0.37    0.23
  -7   0   0    0.64    0.22
  -7   0   0    0.25    0.21
   7   0   0    0.41    0.18
   7   0   0    0.65    0.19
   7   0   0    0.74    0.30
   7   0   0    0.48    0.21
  -8   0   0    7.18    0.71
   8   0   0    7.92    0.79
   8   0   0    7.60    0.56
  -9   0   0   14.67    0.96
  -9   0   0   15.32    0.98
   9   0   0   15.08    0.91
   9   0   0   14.22    1.14
 -10   0   0    4.98    0.64
  10   0   0    5.14    0.91
  10   0   0    4.19    0.59
 -11   0   0    3.48    0.49
  11   0   0    2.40    0.47
  11   0   0    2.24    0.67
  11  -1   0    1.00    0.58
  11  -1   0   -0.23    0.45
 -11   1   0    1.40    0.40
  10  -1   0    5.41    0.67
  10  -1   0    5.76    0.96
 -10   1   0    6.98    0.69
   9  -1   0    5.69    0.57
   9  -1   0    3.89    0.60
  -9   1   0    5.49    0.59
  -9   1   0    5.42    0.58
   8  -1   0   21.87    1.12
   8  -1   0   18.26    1.29
  -8   1   0   20.64    1.16
  -8   1   0   17.95    1.19
   7  -1   0   18.47    0.96
   7  -1   0   17.37    0.98
   7  -1   0   14.34    1.10
   7  -1   0   18.87    1.01
  -7   1   0   17.64    0.99
  -7   1   0   15.10    1.00
  -7   1   0   17.80    1.00
   6  -1   0   33.83    1.69
   6  -1   0   28.79    1.76
   6  -1   0   31.52    1.69
   6  -1   0   34.06    1.67
  -6   1   0   32.50    1.71
  -6   1   0   32.80    1.66
  -6   1   0   32.06    1.69
  -6   1   0   33.39    1.70
   5  -1   0   24.79    1.24
   5  -1   0   20.40    1.31
   5  -1   0   23.78    1.26
   5  -1   0   25.36    1.26
  -5   1   0   24.62    1.27
  -5   1   0   23.22    1.26
  -5   1   0   23.54    1.26
  -5   1   0   25.62    1.24
   4  -1   0    2.14    0.20
   4  -1   0    1.44    0.23
   4  -1   0    1.95    0.20
   4  -1   0    1.74    0.20
  -4   1   0    2.03    0.24
  -4   1   0    1.81    0.19
  -4   1   0    1.75    0.21
  -4   1   0    1.82    0.21
   3  -1   0   26.94    1.35
   3  -1   0   26.24    1.35
   3  -1   0   25.83    1.33
   3  -1   0   24.00    1.37
  -3   1   0   27.12    1.33
  -3   1   0   26.24    1.35
  -3   1   0   29.99    1.36
  -3   1   0   25.64    1.35
   2  -1   0   59.71    2.97
   2  -1   0   59.98    2.96
   2  -1   0   58.55    2.96
  -2   1   0   65.00    2.98
  -2   1   0   60.31    2.97
  -2   1   0   58.00    2.97
  -2   1   0   58.19    2.96
   1  -1   0   33.53    1.61
   1  -1   0   32.41    1.61
   1  -1   0   33.22    1.60
  -1   1   0   32.78    1.61
  -1   1   0   32.27    1.60
  -1   1   0   32.12    1.61
  -1   1   0   31.21    1.62
  -1  -1   0   51.93    2.54
  -1  -1   0   50.56    2.54
  -1  -1   0   55.09    2.53
  -1  -1   0   48.71    2.55
   1   1   0   48.71    2.55
   1   1   0   50.63    2.54
   1   1   0   52.07    2.54
   1   1   0   52.30    2.54
   1   1   0   52.83    2.53
  -2  -1   0    0.34    0.08
  -2  -1   0    0.27    0.07
  -2  -1   0    0.18    0.07
  -2  -1   0    0.23    0.06
   2   1   0    0.31    0.08
   2   1   0    0.20    0.07
   2   1   0    0.30    0.06
   2   1   0    0.24    0.06
   2   1   0    0.28    0.07
  -3  -1   0   30.11    1.44
  -3  -1   0   27.42    1.46
  -3  -1   0   27.01    1.45
  -3  -1   0   30.35    1.45
  -3  -1   0   26.75    1.44
   3   1   0   30.89    1.46
   3   1   0   27.13    1.45
   3   1   0   29.85    1.43
   3   1   0   27.06    1.45
  -4  -1   0   27.11    1.31
  -4  -1   0   23.30    1.31
  -4  -1   0   24.40    1.32
  -4  -1   0   26.58    1.29
  -4  -1   0   23.57    1.30
   4   1   0   29.56    1.33
   4   1   0   26.91    1.29
   4   1   0   23.14    1.30
   4   1   0   23.61    1.30
  -5  -1   0   14.94    0.86
  -5  -1   0   16.75    0.91
  -5  -1   0   14.95    0.87
  -5  -1   0   16.98    0.84
  -5  -1   0   15.62    0.89
   5   1   0   15.19    0.86
   5   1   0   17.02    0.84
   5   1   0   14.78    0.86
  -6  -1   0    0.54    0.18
  -6  -1   0    1.10    0.20
  -6  -1   0    0.78    0.21
  -6  -1   0    0.92    0.19
  -6  -1   0    1.06    0.17
   6   1   0    0.70    0.16
   6   1   0    0.65    0.18
   6   1   0    0.91    0.17
   6   1   0    1.01    0.24
  -7  -1   0   39.79    1.96
  -7  -1   0   35.10    1.98
  -7  -1   0   36.67    1.95
  -7  -1   0   36.46    1.96
  -7  -1   0   38.55    1.92
   7   1   0   38.51    1.92
   7   1   0   36.07    1.94
  -8  -1   0    0.18    0.26
  -8  -1   0    0.16    0.26
  -8  -1   0    0.25    0.23
  -8  -1   0    0.04    0.25
   8   1   0    0.08    0.20
   8   1   0    0.14    0.30
  -9  -1   0    6.95    0.64
   9   1   0    6.90    0.57
   9   1   0    7.60    0.83
 -10  -1   0    0.35    0.33
  10   1   0    0.34    0.28
  10   1   0    0.63    0.46
 -11  -1   0    0.55    0.39
  11   1   0    0.02    0.37
  11   1   0    0.47    0.55
  10  -2   0    1.45    0.54
  10  -2   0    1.90    0.43
 -10   2   0    2.26    0.41
   9  -2   0   13.89    0.93
   9  -2   0   12.71    1.13
  -9   2   0   15.00    0.97
  -9   2   0   14.79    0.97
   8  -2   0    6.27    0.55
   8  -2   0    5.58    0.65
   8  -2   0    4.74    0.75
  -8   2   0    6.13    0.56
  -8   2   0    6.59    0.57
  -8   2   0    4.28    0.62
   7  -2   0    6.40    0.50
   7  -2   0    6.96    0.58
   7  -2   0    5.84    0.51
  -7   2   0    6.02    0.52
  -7   2   0    6.34    0.45
  -7   2   0    5.62    0.53
   6  -2   0   -0.15    0.17
   6  -2   0   -0.33    0.27
   6  -2   0    0.17    0.17
   6  -2   0    0.15    0.20
  -6   2   0    0.21    0.14
  -6   2   0    0.08    0.19
  -6   2   0    0.30    0.19
  -6   2   0    0.21    0.20
   5  -2   0   28.05    1.47
   5  -2   0   29.08    1.48
   5  -2   0   29.28    1.46
  -5   2   0   27.92    1.48
  -5   2   0   27.92    1.45
  -5   2   0   27.78    1.48
  -5   2   0   28.14    1.49
   4  -2   0    4.71    0.30
   4  -2   0    4.30    0.31
   4  -2   0    4.77    0.32
  -4   2   0    4.45    0.35
  -4   2   0    4.30    0.32
  -4   2   0    4.08    0.32
   3  -2   0   65.48    3.15
   3  -2   0   63.85    3.14
   3  -2   0   62.65    3.15
  -3   2   0   66.58    3.17
  -3   2   0   62.25    3.16
  -3   2   0   62.43    3.16
  -3   2   0   61.27    3.14
   2  -2   0    5.17    0.30
   2  -2   0    5.80    0.30
  -2   2   0    5.05    0.33
  -2   2   0    5.17    0.31
  -2   2   0    5.47    0.30
  -2   2   0    5.02    0.29
   1  -2   0  121.92    6.08
   1  -2   0  126.97    6.08
  -1   2   0  122.60    6.08
  -1   2   0  128.66    6.08
  -1   2   0  118.64    6.08
   0   2   0    4.28    0.23
   0   2   0    4.26    0.25
  -1  -2   0   66.65    3.38
   1   2   0   67.14    3.37
   1   2   0   71.50    3.37
   1   2   0   69.09    3.38
  -2  -2   0   71.48    3.85
  -2  -2   0   82.87    3.82
  -2  -2   0   77.19    3.83
  -2  -2   0   77.58    3.82
   2   2   0   77.66    3.82
   2   2   0   75.94    3.85
   2   2   0   79.91    3.83
  -3  -2   0    4.91    0.33
  -3  -2   0    5.45    0.36
  -3  -2   0    5.44    0.33
  -3  -2   0    5.24    0.31
   3   2   0    5.82    0.32
   3   2   0    5.34    0.32
   3   2   0    5.25    0.32
   3   2   0    5.69    0.36
   3   2   0    5.84    0.32
  -4  -2   0    0.79    0.14
  -4  -2   0    0.94    0.13
  -4  -2   0    0.88    0.14
  -4  -2   0    1.03    0.16
  -4  -2   0    0.86    0.16
   4   2   0    0.73    0.13
   4   2   0    0.90    0.13
   4   2   0    1.07    0.17
   4   2   0    0.80    0.12
  -5  -2   0    4.00    0.34
  -5  -2   0    4.04    0.29
  -5  -2   0    2.88    0.36
  -5  -2   0    3.93    0.34
  -5  -2   0    4.20    0.32
   5   2   0    3.87    0.31
   5   2   0    4.45    0.38
   5   2   0    3.96    0.31
   5   2   0    4.33    0.30
  -6  -2   0   53.05    2.71
  -6  -2   0   52.34    2.69
  -6  -2   0   55.88    2.67
  -6  -2   0   50.65    2.73
  -6  -2   0   50.25    2.70
   6   2   0   60.51    2.73
   6   2   0   49.65    2.69
   6   2   0   55.27    2.67
   6   2   0   49.90    2.69
  -7  -2   0   11.01    0.71
  -7  -2   0   12.06    0.67
  -7  -2   0   10.24    0.75
  -7  -2   0    9.69    0.74
   7   2   0   12.81    0.78
   7   2   0   11.91    0.67
   7   2   0   10.05    0.67
  -8  -2   0    0.87    0.26
  -8  -2   0    0.69    0.31
  -8  -2   0    0.13    0.25
   8   2   0    0.92    0.24
   8   2   0    0.73    0.32
  -9  -2   0    3.09    0.40
   9   2   0    2.92    0.46
   9   2   0    2.46    0.32
 -10  -2   0    1.40    0.37
  10   2   0    1.12    0.45
  10   2   0    0.91    0.30
 -11  -2   0   -0.16    0.43
  11   2   0    0.57    0.53
  11   2   0   -0.25    0.30
  10  -3   0    3.18    0.57
 -10   3   0    3.72    0.52
 -10   3   0    3.77    0.57
   9  -3   0    2.04    0.41
  -9   3   0    1.98    0.40
  -9   3   0    1.88    0.42
   8  -3   0    0.17    0.28
  -8   3   0   -0.07    0.28
  -8   3   0   -0.15    0.29
   7  -3   0    0.95    0.25
   7  -3   0    0.58    0.30
  -7   3   0    1.17    0.23
  -7   3   0    0.72    0.27
  -7   3   0    1.16    0.30
   6  -3   0   10.34    0.68
   6  -3   0   11.85    0.70
   6  -3   0   11.72    0.67
  -6   3   0   10.05    0.73
  -6   3   0   10.65    0.69
  -6   3   0   11.42    0.70
  -6   3   0   10.68    0.65
   5  -3   0   -0.03    0.16
   5  -3   0    0.21    0.15
  -5   3   0    0.19    0.16
  -5   3   0    0.20    0.19
  -5   3   0    0.24    0.14
  -5   3   0    0.19    0.17
   4  -3   0   35.04    1.67
   4  -3   0   32.37    1.66
  -4   3   0   32.79    1.68
  -4   3   0   31.64    1.70
  -4   3   0   32.01    1.68
  -4   3   0   32.89    1.66
   3  -3   0   17.58    0.91
   3  -3   0   17.72    0.93
   3  -3   0   19.29    0.92
  -3   3   0   17.28    0.96
  -3   3   0   17.48    0.93
  -3   3   0   17.83    0.91
  -3   3   0   17.45    0.93
   2  -3   0    5.00    0.30
   2  -3   0    5.23    0.28
  -2   3   0    5.15    0.30
  -2   3   0    5.20    0.29
  -2   3   0    4.97    0.30
   1  -3   0    2.66    0.17
  -1   3   0    2.32    0.16
  -1   3   0    2.66    0.16
  -1   3   0    2.50    0.16
   0   3   0   52.08    2.51
   0   3   0   49.42    2.53
  -1  -3   0    4.48    0.27
   1   3   0    4.10    0.30
   1   3   0    4.47    0.28
   1   3   0    4.73    0.24
   1   3   0    4.70    0.24
  -2  -3   0   12.21    0.61
  -2  -3   0   10.91    0.67
  -2  -3   0   12.20    0.64
  -2  -3   0   12.52    0.61
   2   3   0   11.53    0.67
   2   3   0   12.26    0.63
   2   3   0   12.22    0.64
   2   3   0   12.45    0.63
  -3  -3   0    3.78    0.25
  -3  -3   0    3.36    0.29
  -3  -3   0    4.11    0.25
  -3  -3   0    3.71    0.27
   3   3   0    3.86    0.26
   3   3   0    4.09    0.28
   3   3   0    3.76    0.31
   3   3   0    3.85    0.25
   3   3   0    3.81    0.26
  -4  -3   0   66.07    3.22
  -4  -3   0   62.75    3.23
  -4  -3   0   59.08    3.26
  -4  -3   0   66.85    3.21
   4   3   0   65.66    3.21
   4   3   0   65.74    3.21
   4   3   0   65.50    3.23
   4   3   0   65.10    3.22
   4   3   0   64.63    3.25
  -5  -3   0    5.61    0.39
  -5  -3   0    5.69    0.48
  -5  -3   0    5.40    0.42
  -5  -3   0    4.41    0.45
   5   3   0    5.92    0.38
   5   3   0    5.69    0.38
   5   3   0    5.86    0.46
   5   3   0    5.68    0.39
   5   3   0    5.75    0.37
  -6  -3   0   23.62    1.39
  -6  -3   0   26.34    1.36
  -6  -3   0   26.57    1.34
   6   3   0   25.77    1.33
   6   3   0   24.66    1.35
   6   3   0   24.97    1.35
   6   3   0   26.64    1.40
  -7  -3   0    3.75    0.43
  -7  -3   0    2.88    0.38
  -7  -3   0    3.99    0.39
  -7  -3   0    4.37    0.42
   7   3   0    3.81    0.38
   7   3   0    4.70    0.37
   7   3   0    4.72    0.38
  -8  -3   0    0.88    0.26
  -8  -3   0    0.07    0.29
  -8  -3   0    1.02    0.28
   8   3   0    0.86    0.31
  -9  -3   0    2.54    0.38
   9   3   0    2.46    0.43
   9   3   0    2.34    0.32
 -10  -3   0   10.90    0.83
  10   3   0    9.42    0.71
  10   3   0   10.17    0.97
 -11  -3   0    1.98    0.50
  11   3   0    0.68    0.34
  11   3   0    1.83    0.54
  10  -4   0    1.37    0.61
 -10   4   0    1.11    0.45
 -10   4   0    1.11    0.52
  -9   4   0    0.88    0.38
  -9   4   0    0.31    0.39
   8  -4   0    1.05    0.38
   8  -4   0    0.63    0.37
  -8   4   0    1.15    0.36
  -8   4   0    1.04    0.34
   7  -4   0    0.73    0.30
  -7   4   0    0.92    0.31
  -7   4   0    0.94    0.32
   6  -4   0    4.82    0.47
   6  -4   0    5.08    0.47
  -6   4   0    6.09    0.51
  -6   4   0    5.83    0.49
  -6   4   0    5.71    0.46
  -6   4   0    4.66    0.56
   5  -4   0    0.03    0.17
   5  -4   0   -0.02    0.18
  -5   4   0   -0.06    0.17
  -5   4   0    0.00    0.18
  -5   4   0    0.40    0.23
  -5   4   0    0.10    0.17
   4  -4   0    2.79    0.27
   4  -4   0    2.81    0.29
  -4   4   0    3.32    0.39
  -4   4   0    3.04    0.30
  -4   4   0    3.34    0.28
  -4   4   0    2.89    0.30
   3  -4   0    1.16    0.14
   3  -4   0    1.31    0.16
   3  -4   0    1.22    0.17
  -3   4   0    1.24    0.16
  -3   4   0    1.97    0.30
  -3   4   0    1.26    0.15
  -3   4   0    1.50    0.17
   2  -4   0   57.36    2.89
  -2   4   0   58.31    2.88
  -2   4   0   57.06    2.89
  -2   4   0   60.56    2.89
   1  -4   0    7.81    0.42
  -1   4   0    6.90    0.41
  -1   4   0    7.83    0.40
  -1   4   0    8.11    0.40
   0   4   0    0.86    0.13
   0   4   0    0.85    0.11
  -1  -4   0    1.11    0.16
   1   4   0    1.00    0.13
  -2  -4   0    3.53    0.26
   2   4   0    3.58    0.31
   2   4   0    3.84    0.23
   2   4   0    3.96    0.28
  -3  -4   0   91.44    4.56
  -3  -4   0   91.38    4.59
   3   4   0   90.58    4.57
   3   4   0   96.02    4.58
   3   4   0   94.28    4.59
   3   4   0   88.45    4.63
   3   4   0   96.37    4.59
  -4  -4   0    9.25    0.50
  -4  -4   0    8.62    0.53
  -4  -4   0    9.12    0.50
  -4  -4   0    8.32    0.57
   4   4   0    8.74    0.58
   4   4   0    8.79    0.52
   4   4   0    8.45    0.53
   4   4   0    8.84    0.51
   4   4   0    9.33    0.53
  -5  -4   0    6.93    0.44
  -5  -4   0    6.36    0.51
  -5  -4   0    6.72    0.44
  -5  -4   0    5.91    0.49
   5   4   0    7.02    0.44
   5   4   0    7.11    0.46
   5   4   0    7.43    0.45
   5   4   0    6.85    0.46
   5   4   0    6.91    0.52
  -6  -4   0    4.71    0.44
  -6  -4   0    5.66    0.42
  -6  -4   0    6.16    0.43
  -6  -4   0    5.34    0.48
   6   4   0    5.34    0.41
   6   4   0    5.48    0.52
   6   4   0    5.79    0.42
   6   4   0    5.20    0.43
   6   4   0    5.41    0.42
  -7  -4   0   11.82    0.70
  -7  -4   0   10.38    0.78
  -7  -4   0   11.93    0.71
  -7  -4   0   10.18    0.73
   7   4   0   10.34    0.72
   7   4   0   11.52    0.78
   7   4   0   10.70    0.66
   7   4   0   10.65    0.69
  -8  -4   0   -0.04    0.23
  -8  -4   0   -0.11    0.32
  -8  -4   0    0.46    0.31
   8   4   0    0.10    0.29
   8   4   0   -0.04    0.23
  -9  -4   0   34.01    1.83
   9   4   0   33.27    1.89
   9   4   0   33.25    1.78
 -10  -4   0    1.41    0.41
  10   4   0    1.08    0.31
  10   4   0    1.24    0.45
 -11  -4   0   -0.46    0.46
  11   4   0   -0.66    0.28
  11   4   0   -0.27    0.45
   9  -5   0    1.01    0.58
  -9   5   0    0.89    0.45
  -9   5   0   -0.03    0.44
   8  -5   0    0.77    0.42
  -8   5   0    1.47    0.42
  -8   5   0    1.31    0.39
   7  -5   0    7.99    0.71
   7  -5   0    8.49    0.65
  -7   5   0    9.36    0.73
  -7   5   0    9.58    0.72
   6  -5   0    1.67    0.31
   6  -5   0    2.02    0.25
   6  -5   0    2.02    0.30
  -6   5   0    2.23    0.32
  -6   5   0    2.06    0.34
  -6   5   0    1.74    0.30
   5  -5   0    4.59    0.45
   5  -5   0    5.52    0.39
   5  -5   0    4.88    0.36
  -5   5   0    5.19    0.46
  -5   5   0    5.44    0.45
  -5   5   0    6.50    0.58
  -5   5   0    4.85    0.44
   4  -5   0    6.16    0.44
  -4   5   0    6.69    0.43
  -4   5   0    6.20    0.55
  -4   5   0    6.07    0.45
  -4   5   0    6.38    0.44
   3  -5   0   21.96    1.16
  -3   5   0   23.85    1.17
  -3   5   0   20.79    1.21
  -3   5   0   22.58    1.14
  -3   5   0   22.15    1.16
   2  -5   0    0.10    0.10
  -2   5   0   -0.05    0.10
  -2   5   0    0.08    0.10
  -2   5   0    0.02    0.09
  -1   5   0    0.91    0.10
  -1   5   0    0.81    0.10
  -1   5   0    0.96    0.11
   0   5   0    0.04    0.08
   0   5   0   -0.02    0.11
   1   5   0   63.23    3.14
   1   5   0   64.50    3.20
  -2  -5   0   12.04    0.69
   2   5   0   12.08    0.73
   2   5   0   12.49    0.70
   2   5   0   12.87    0.65
  -3  -5   0   27.47    1.48
   3   5   0   29.37    1.47
   3   5   0   29.57    1.49
   3   5   0   29.23    1.45
   3   5   0   27.95    1.53
   3   5   0   29.09    1.46
  -4  -5   0    0.07    0.13
  -4  -5   0    0.07    0.09
  -4  -5   0    0.01    0.13
  -4  -5   0   -0.02    0.08
   4   5   0    0.22    0.15
   4   5   0    0.20    0.13
   4   5   0   -0.14    0.13
   4   5   0    0.03    0.16
  -5  -5   0   49.26    2.36
  -5  -5   0   41.06    2.44
  -5  -5   0   44.77    2.36
  -5  -5   0   46.40    2.40
   5   5   0   49.01    2.40
   5   5   0   48.49    2.38
   5   5   0   47.63    2.39
   5   5   0   47.97    2.37
   5   5   0   48.54    2.45
  -6  -5   0    3.63    0.40
  -6  -5   0    3.48    0.42
  -6  -5   0    2.94    0.45
  -6  -5   0    3.69    0.35
   6   5   0    3.90    0.37
   6   5   0    3.29    0.35
   6   5   0    3.84    0.37
   6   5   0    4.51    0.40
   6   5   0    3.95    0.49
  -7  -5   0   10.90    0.67
  -7  -5   0   10.79    0.72
  -7  -5   0   10.58    0.77
   7   5   0   10.54    0.66
   7   5   0   10.06    0.69
   7   5   0   10.21    0.77
   7   5   0    9.46    0.70
  -8  -5   0   12.65    0.81
  -8  -5   0   12.54    0.94
  -8  -5   0   12.64    0.88
   8   5   0   12.21    0.78
   8   5   0   11.68    0.89
  -9  -5   0    1.92    0.40
   9   5   0    1.38    0.30
   9   5   0    1.74    0.41
 -10  -5   0   10.47    0.89
  10   5   0    9.53    0.93
  10   5   0   10.59    0.75
 -11  -5   0    4.61    0.63
  11   5   0    3.56    0.44
  11   5   0    3.50    0.62
  -9   6   0    1.56    0.57
  -9   6   0    2.38    0.55
  -8   6   0    2.36    0.51
  -8   6   0    2.38    0.49
  -7   6   0    0.00    0.55
  -7   6   0    0.35    0.35
   6  -6   0    6.01    0.60
  -6   6   0    4.65    0.75
  -6   6   0    6.86    0.62
  -6   6   0    4.95    0.58
  -6   6   0    6.12    0.55
   5  -6   0   12.85    0.81
  -5   6   0   13.17    0.80
  -5   6   0   13.46    0.95
  -5   6   0   13.40    0.81
  -5   6   0   13.55    0.84
   4  -6   0    8.52    0.60
  -4   6   0    9.67    0.59
  -4   6   0   10.07    0.63
  -4   6   0   10.26    0.73
  -4   6   0    9.68    0.62
   3  -6   0    0.27    0.15
  -3   6   0    0.33    0.16
  -3   6   0    0.28    0.16
   2  -6   0    1.93    0.21
  -2   6   0    2.17    0.24
  -2   6   0    2.20    0.24
  -2   6   0    2.04    0.22
  -1   6   0    0.41    0.11
  -1   6   0    0.24    0.10
  -1   6   0    0.24    0.17
   0   6   0   70.61    3.51
   0   6   0   72.37    3.58
   0   6   0   70.23    3.50
   1   6   0    8.22    0.54
   1   6   0    8.55    0.44
   1   6   0    8.00    0.44
  -2  -6   0    1.22    0.32
   2   6   0    1.31    0.20
   2   6   0    1.29    0.23
   2   6   0    1.06    0.13
   2   6   0    1.45    0.15
  -3  -6   0    0.12    0.26
   3   6   0    0.22    0.13
   3   6   0    0.22    0.13
   3   6   0    0.35    0.13
   3   6   0    0.27    0.18
   3   6   0    0.37    0.17
  -4  -6   0   51.35    2.70
   4   6   0   53.86    2.67
   4   6   0   55.78    2.70
   4   6   0   52.86    2.76
   4   6   0   53.52    2.70
   4   6   0   52.51    2.71
  -5  -6   0   14.89    0.86
  -5  -6   0   14.21    0.76
  -5  -6   0   13.88    0.76
   5   6   0   14.62    0.83
   5   6   0   15.22    0.85
   5   6   0   14.22    0.81
   5   6   0   14.74    0.84
   5   6   0   14.94    0.92
  -6  -6   0   15.87    0.85
  -6  -6   0   14.83    0.88
  -6  -6   0   15.61    0.95
   6   6   0   16.22    0.92
   6   6   0   16.33    1.01
   6   6   0   15.98    0.91
   6   6   0   16.48    0.90
   6   6   0   15.17    0.91
  -7  -6   0    3.01    0.38
  -7  -6   0    2.99    0.37
  -7  -6   0    2.87    0.38
   7   6   0    3.37    0.40
   7   6   0    3.32    0.57
   7   6   0    3.21    0.33
   7   6   0    3.29    0.45
   7   6   0    3.32    0.38
  -8  -6   0    8.32    0.85
  -8  -6   0    7.01    0.82
  -8  -6   0    7.37    0.65
   8   6   0   10.89    0.81
   8   6   0   11.09    0.68
  -9  -6   0   13.46    0.88
  -9  -6   0   12.33    1.31
   9   6   0   12.92    0.83
   9   6   0   11.75    0.97
 -10  -6   0   12.36    0.92
  10   6   0    9.85    0.99
  10   6   0   11.72    0.81
  -8   7   0    6.15    0.70
  -8   7   0    6.90    0.92
  -7   7   0    0.32    0.42
  -7   7   0    0.14    0.41
   6  -7   0   10.81    0.91
  -6   7   0   15.62    1.03
  -6   7   0   13.86    0.87
  -6   7   0   10.89    1.11
   5  -7   0    0.11    0.28
  -5   7   0    0.64    0.30
  -5   7   0    0.25    0.27
  -5   7   0    0.27    0.29
  -5   7   0    0.49    0.43
   4  -7   0    1.74    0.27
  -4   7   0    2.19    0.30
  -4   7   0    1.89    0.27
  -4   7   0    1.95    0.29
  -3   7   0    1.50    0.24
  -3   7   0    1.62    0.22
  -3   7   0    1.67    0.23
  -2   7   0    9.59    0.57
  -2   7   0   10.44    0.58
  -2   7   0    9.73    0.70
  -2   7   0    9.56    0.56
  -1   7   0   23.10    1.27
  -1   7   0   21.91    1.16
  -1   7   0   23.80    1.16
  -1   7   0   22.47    1.17
   0   7   0    0.27    0.12
   0   7   0    0.14    0.18
   0   7   0    0.20    0.10
   1   7   0    1.13    0.26
   1   7   0    1.11    0.16
   1   7   0    1.32    0.19
   1   7   0    1.17    0.23
   2   7   0   30.43    1.51
   2   7   0   29.70    1.58
   2   7   0   29.63    1.63
   2   7   0   29.36    1.50
  -3  -7   0   13.37    0.79
   3   7   0   13.07    0.72
   3   7   0   13.63    0.74
   3   7   0   13.11    0.80
   3   7   0   13.14    0.86
   3   7   0   13.02    0.72
  -4  -7   0    0.83    0.21
   4   7   0    1.53    0.25
   4   7   0    1.06    0.20
   4   7   0    1.23    0.29
   4   7   0    1.38    0.22
  -5  -7   0    5.40    0.50
   5   7   0    5.80    0.45
   5   7   0    5.51    0.51
   5   7   0    5.80    0.47
   5   7   0    5.69    0.59
   5   7   0    5.68    0.47
  -6  -7   0    0.25    0.25
   6   7   0    0.03    0.30
   6   7   0    0.64    0.22
   6   7   0    0.50    0.24
   6   7   0   -0.39    0.24
   6   7   0    0.36    0.26
  -7  -7   0   19.55    1.09
  -7  -7   0   19.96    1.26
  -7  -7   0   20.32    1.12
   7   7   0   23.05    1.20
   7   7   0   21.74    1.17
   7   7   0   22.82    1.32
   7   7   0   19.00    1.23
  -8  -7   0   -0.28    0.42
  -8  -7   0   -0.07    0.23
  -8  -7   0   -0.36    0.54
   8   7   0   -0.11    0.34
   8   7   0    0.12    0.27
  -9  -7   0    0.73    0.32
   9   7   0    1.16    0.42
   9   7   0    1.81    0.34
  10   7   0   -0.39    0.37
  10   7   0   -0.18    0.33
  -7   8   0    0.41    0.50
  -7   8   0    0.05    0.49
  -6   8   0    1.32    0.43
  -6   8   0    1.01    0.43
   5  -8   0    3.55    0.48
  -5   8   0    5.52    0.99
  -5   8   0    3.97    0.47
  -5   8   0    3.98    0.46
  -5   8   0    4.16    0.53
  -4   8   0   -0.32    0.26
  -4   8   0    0.14    0.28
  -4   8   0    0.34    0.29
  -3   8   0   10.12    0.85
  -3   8   0   11.21    0.67
  -3   8   0   10.81    0.68
  -3   8   0    9.96    0.67
  -2   8   0    0.25    0.27
  -2   8   0    0.26    0.23
  -2   8   0    0.40    0.19
  -2   8   0   -0.10    0.18
  -1   8   0    0.80    0.28
  -1   8   0    0.66    0.16
  -1   8   0    0.65    0.17
   0   8   0    2.20    0.25
   0   8   0    2.25    0.23
   0   8   0    2.04    0.32
   0   8   0    2.66    0.27
   1   8   0   19.09    0.98
   1   8   0   18.32    0.97
   1   8   0   18.84    1.10
   1   8   0   19.33    1.00
   1   8   0   19.14    1.16
   2   8   0    0.31    0.17
   2   8   0    0.34    0.28
   2   8   0    0.29    0.23
   3   8   0    0.33    0.24
   3   8   0    0.26    0.19
   3   8   0    0.41    0.28
   3   8   0    0.26    0.17
   3   8   0    0.30    0.18
  -4  -8   0    6.45    0.58
   4   8   0    7.34    0.51
   4   8   0    7.11    0.50
   4   8   0    6.95    0.61
   4   8   0    7.19    0.52
   4   8   0    6.79    0.67
  -5  -8   0    5.94    0.60
   5   8   0    7.65    0.62
   5   8   0    7.18    0.58
   5   8   0    8.31    0.59
   5   8   0    6.00    0.70
   5   8   0    8.07    0.54
  -6  -8   0    6.51    0.65
   6   8   0    6.67    0.64
   6   8   0    6.84    0.64
   6   8   0    6.58    0.62
   6   8   0    6.97    0.71
   6   8   0    6.63    0.56
  -7  -8   0    5.84    0.75
   7   8   0    6.62    0.73
   7   8   0    6.43    0.77
   7   8   0    6.53    0.67
   7   8   0    7.67    0.66
   8   8   0    2.20    0.37
   8   8   0    2.12    0.46
   8   8   0    2.15    0.39
   9   8   0    3.80    0.46
   9   8   0    2.69    0.48
  -6   9   0    1.14    0.51
  -6   9   0    1.25    0.52
  -5   9   0    0.66    0.43
  -5   9   0    0.69    0.39
  -4   9   0    3.85    0.52
  -4   9   0    4.35    0.46
  -4   9   0    3.98    0.47
  -4   9   0    4.20    0.55
  -3   9   0    0.81    0.30
  -3   9   0    0.86    0.30
  -3   9   0    0.63    0.37
  -3   9   0    0.82    0.28
  -2   9   0    5.29    0.44
  -2   9   0    5.44    0.49
  -2   9   0    4.87    0.47
  -2   9   0    5.72    0.75
  -1   9   0    1.84    0.26
  -1   9   0    2.20    0.39
  -1   9   0    2.31    0.24
  -1   9   0    2.09    0.24
   0   9   0    5.98    0.43
   0   9   0    6.04    0.44
   0   9   0    6.71    0.43
   0   9   0    7.19    0.67
   1   9   0    0.11    0.16
   1   9   0   -0.01    0.18
   1   9   0   -0.14    0.28
   1   9   0    0.05    0.17
   1   9   0    0.10    0.34
   2   9   0    0.00    0.27
   2   9   0    0.12    0.33
   2   9   0   -0.08    0.21
   2   9   0    0.10    0.17
   2   9   0    0.05    0.18
   2   9   0    0.28    0.20
   3   9   0    0.09    0.34
   3   9   0   -0.17    0.20
   3   9   0    0.28    0.28
   3   9   0    0.18    0.29
   4   9   0   11.18    0.81
   4   9   0    9.86    0.95
   4   9   0   10.44    0.70
   4   9   0    9.85    0.69
   4   9   0   10.72    0.68
  -5  -9   0    0.43    0.35
   5   9   0   -0.06    0.34
   5   9   0    0.07    0.30
   5   9   0    0.15    0.25
   5   9   0    0.29    0.31
   5   9   0    0.42    0.33
   6   9   0    8.22    0.75
   6   9   0    7.44    0.75
   6   9   0    7.49    0.80
   6   9   0    9.27    0.67
   6   9   0    8.25    0.82
   7   9   0   -0.18    0.34
   7   9   0    0.04    0.31
   7   9   0    0.16    0.41
   8   9   0    4.00    0.59
   8   9   0    5.36    0.76
   8   9   0    5.45    0.68
   9   9   0   -0.22    0.43
   9   9   0    0.04    0.40
  -5  10   0   -0.51    0.51
  -5  10   0   -0.53    0.54
  -4  10   0   -0.29    0.41
  -4  10   0    0.29    0.47
  -4  10   0    0.19    0.37
  -3  10   0    1.57    0.37
  -3  10   0    0.62    0.44
  -3  10   0    1.43    0.33
  -2  10   0    6.25    0.81
  -2  10   0    5.03    0.53
  -2  10   0    4.25    0.58
  -2  10   0    6.43    0.50
  -1  10   0    1.98    0.26
  -1  10   0    2.38    0.29
  -1  10   0    1.58    0.45
  -1  10   0    2.00    0.34
   0  10   0    0.35    0.42
   0  10   0    0.14    0.20
   0  10   0    0.07    0.26
   0  10   0   -0.41    0.21
   1  10   0   -0.13    0.24
   1  10   0    0.11    0.74
   1  10   0   -0.25    0.35
   1  10   0    0.10    0.23
   1  10   0    0.33    0.20
   2  10   0    1.97    0.42
   2  10   0    2.51    0.29
   2  10   0    2.17    0.31
   2  10   0    2.14    0.28
   2  10   0    2.51    0.50
   3  10   0    0.33    0.26
   3  10   0    0.13    0.28
   3  10   0    1.05    0.30
   3  10   0    0.16    0.41
   3  10   0    0.44    0.37
   3  10   0    0.40    0.26
   4  10   0    2.52    0.38
   4  10   0    3.00    0.36
   4  10   0    2.28    0.50
   4  10   0    3.07    0.46
   5  10   0    0.57    0.45
   5  10   0    1.01    0.40
   5  10   0    1.13    0.33
   5  10   0    1.07    0.39
   6  10   0    1.61    0.47
   6  10   0    1.57    0.37
   6  10   0    1.48    0.43
   7  10   0    1.06    0.45
   7  10   0    1.45    0.40
   7  10   0    1.80    0.53
   8  10   0    0.34    0.48
   8  10   0    0.45    0.44
  -4  11   0    2.03    0.63
  -3  11   0    1.84    0.61
  -3  11   0    2.86    0.60
  -2  11   0    0.39    0.53
  -2  11   0    0.13    0.34
  -1  11   0    0.20    0.31
  -1  11   0   -0.06    0.47
   0  11   0    2.36    0.35
   0  11   0    2.73    0.59
   0  11   0    2.04    0.51
   1  11   0    7.47    0.51
   1  11   0    5.78    0.63
   1  11   0    8.03    0.99
   1  11   0    6.81    0.89
   2  11   0    1.77    0.57
   2  11   0    1.38    0.29
   2  11   0    1.83    0.48
   2  11   0    1.57    0.35
   3  11   0    8.40    0.93
   3  11   0    6.17    0.60
   3  11   0    7.88    0.98
   3  11   0    5.78    0.64
   4  11   0   -0.23    0.49
   4  11   0    0.48    0.47
   4  11   0    0.52    0.36
   5  11   0   14.42    0.97
   5  11   0   12.78    1.18
   5  11   0   13.01    1.10
   6  11   0   -0.13    0.47
   6  11   0    0.12    0.44
   6  11   0   -0.27    0.50
   7  11   0    2.25    0.49
   7  11   0    0.58    0.55
   7  11   0    1.27    0.53
  -2  12   0   -0.06    0.64
  -1  12   0    1.52    0.64
  -1  12   0    1.69    0.73
   0  12   0    4.64    0.72
   1  12   0   -0.08    0.62
   1  12   0    0.04    0.57
   2  12   0    3.67    0.74
   2  12   0    4.38    0.69
   3  12   0    0.36    0.62
   3  12   0   -0.35    0.64
   4  12   0    4.39    0.76
   4  12   0    4.84    0.73
   5  12   0    0.09    0.58
   5  12   0   -1.01    0.60
   5  12  -1    0.56    0.60
   5  12  -1    0.13    0.61
   4  12  -1    1.34    0.64
   4  12  -1    0.09    0.66
   3  12  -1    2.25    0.69
   3  12  -1    2.02    0.67
   2  12  -1    1.01    0.61
   2  12  -1   -0.17    0.64
   1  12  -1    2.12    0.69
   1  12  -1    2.64    0.69
   0  12  -1   -0.76    0.59
   0  12  -1    0.58    0.68
  -1  12  -1    0.20    0.65
  -1  12  -1    0.37    0.72
  -2  12  -1    0.28    0.68
   7  11  -1    1.04    0.58
   7  11  -1    1.99    0.52
   6  11  -1   -0.23    0.54
   6  11  -1    0.06    0.56
   5  11  -1    4.06    0.91
   5  11  -1    4.46    0.68
   5  11  -1    5.35    0.68
   4  11  -1    0.67    0.36
   4  11  -1   -0.91    0.50
   4  11  -1    0.96    0.57
   3  11  -1    2.89    0.38
   3  11  -1    2.60    0.43
   3  11  -1    3.04    0.62
   2  11  -1    0.85    0.53
   2  11  -1    0.48    0.46
   2  11  -1   -0.06    0.30
   2  11  -1   -0.13    0.31
   1  11  -1   -0.05    0.50
   1  11  -1    0.15    0.47
   1  11  -1    0.55    0.29
   1  11  -1   -0.08    0.30
   0  11  -1    0.02    0.30
   0  11  -1   -0.64    0.29
   0  11  -1   -0.38    0.43
   0  11  -1    0.61    0.55
  -1  11  -1    1.51    0.54
  -1  11  -1    1.74    0.59
  -2  11  -1    0.76    0.57
  -3  11  -1    2.81    0.65
  -4  11  -1   -0.44    0.61
   8  10  -1    0.89    0.54
   8  10  -1    1.14    0.44
   7  10  -1    0.78    0.42
   7  10  -1    0.69    0.40
   7  10  -1    0.33    0.48
   6  10  -1   10.58    0.81
   6  10  -1   10.40    0.90
   6  10  -1   10.40    1.01
   5  10  -1    1.45    0.48
   5  10  -1    2.00    0.45
   5  10  -1    1.39    0.43
   5  10  -1    2.25    0.36
   5  10  -1    1.81    0.41
   4  10  -1    3.07    0.55
   4  10  -1    3.48    0.45
   4  10  -1    4.46    0.50
   4  10  -1    4.00    0.49
   3  10  -1    1.84    0.42
   3  10  -1    1.73    0.32
   3  10  -1    1.86    0.49
   3  10  -1    1.57    0.29
   3  10  -1    1.69    0.36
   2  10  -1    1.59    0.40
   2  10  -1    1.18    0.26
   2  10  -1    1.06    0.47
   2  10  -1    1.06    0.24
   2  10  -1    0.91    0.28
   1  10  -1    0.51    0.22
   1  10  -1    0.36    0.26
   1  10  -1   -0.21    0.37
   1  10  -1   -0.09    0.22
   1  10  -1    0.44    0.44
   0  10  -1   11.61    0.99
   0  10  -1   11.40    0.68
   0  10  -1   10.42    0.64
   0  10  -1    9.10    0.66
   0  10  -1   11.72    1.17
  -1  10  -1    0.31    0.31
  -1  10  -1    0.40    0.23
  -1  10  -1    0.50    0.43
  -1  10  -1    0.47    0.27
  -2  10  -1   -0.03    0.28
  -2  10  -1    0.17    0.43
  -2  10  -1   -0.01    0.30
  -3  10  -1    0.14    0.35
  -3  10  -1    0.15    0.35
  -3  10  -1    0.32    0.45
  -4  10  -1    4.11    0.52
  -4  10  -1    4.29    0.50
  -4  10  -1    3.58    0.61
  -5  10  -1   -0.35    0.57
  -5  10  -1   -0.10    0.52
   9   9  -1    0.40    0.42
   8   9  -1    1.84    0.39
   8   9  -1    1.53    0.41
   8   9  -1    0.87    0.46
   7   9  -1    0.93    0.36
   7   9  -1    0.72    0.33
   7   9  -1    0.25    0.42
   6   9  -1   14.99    1.07
   6   9  -1   16.45    1.14
   6   9  -1   16.36    0.98
   6   9  -1   16.02    1.07
   6   9  -1   16.73    1.04
  -6  -9   1   15.06    1.09
   5   9  -1    0.16    0.31
   5   9  -1    0.22    0.33
   5   9  -1    0.32    0.30
   5   9  -1    0.53    0.26
   5   9  -1    0.20    0.35
  -5  -9   1   -0.04    0.32
   4   9  -1    1.56    0.46
   4   9  -1    1.84    0.32
   4   9  -1    2.29    0.37
   4   9  -1    1.94    0.27
   4   9  -1    1.92    0.29
   3   9  -1    0.15    0.20
   3   9  -1    0.57    0.30
   3   9  -1    0.48    0.28
   3   9  -1    0.46    0.36
   3   9  -1    0.31    0.24
   2   9  -1    4.18    0.46
   2   9  -1    4.13    0.38
   2   9  -1    4.14    0.57
   2   9  -1    4.59    0.65
   1   9  -1   15.43    0.91
   1   9  -1   18.13    0.96
   1   9  -1   17.56    1.09
   1   9  -1   18.54    1.17
   0   9  -1    0.58    0.37
   0   9  -1    0.53    0.18
   0   9  -1    0.86    0.22
   0   9  -1    0.65    0.16
   0   9  -1    0.88    0.34
  -1   9  -1    0.51    0.23
  -1   9  -1    0.56    0.19
  -1   9  -1    0.86    0.34
  -1   9  -1    0.64    0.21
  -2   9  -1    6.76    0.52
  -2   9  -1    5.81    0.83
  -2   9  -1    5.51    0.50
  -2   9  -1    6.96    0.50
  -3   9  -1    6.77    0.57
  -3   9  -1    6.26    0.56
  -3   9  -1    5.35    0.78
  -3   9  -1    5.14    0.55
  -4   9  -1   -0.18    0.34
  -4   9  -1    0.13    0.41
  -4   9  -1   -0.02    0.38
  -4   9  -1    0.34    0.35
  -5   9  -1    0.94    0.42
  -5   9  -1    1.09    0.44
  -6   9  -1    0.01    0.51
  -6   9  -1    0.66    0.54
   9   8  -1    6.32    0.79
   9   8  -1    7.52    0.70
   8   8  -1    9.19    0.73
   8   8  -1    8.76    0.87
   7   8  -1    4.71    0.68
   7   8  -1    3.27    0.40
  -7  -8   1    2.84    0.44
   6   8  -1    1.21    0.38
   6   8  -1    1.30    0.30
   6   8  -1    1.56    0.36
   6   8  -1    1.41    0.28
   6   8  -1    1.40    0.35
  -6  -8   1    0.50    0.31
   5   8  -1    8.90    0.60
   5   8  -1    8.01    1.06
   5   8  -1    9.45    0.67
   5   8  -1    9.06    0.64
   5   8  -1    9.29    0.68
  -5  -8   1    8.53    0.68
   4   8  -1    2.46    0.34
   4   8  -1    3.26    0.38
   4   8  -1    2.38    0.41
   4   8  -1    2.44    0.29
   4   8  -1    2.60    0.34
  -4  -8   1    2.76    0.44
   3   8  -1   17.65    1.00
   3   8  -1   17.00    1.08
   3   8  -1   16.69    0.90
   3   8  -1   15.95    0.90
   2   8  -1    1.40    0.28
   2   8  -1    1.21    0.31
   2   8  -1    0.95    0.15
   2   8  -1    1.19    0.18
   1   8  -1    1.49    0.23
   1   8  -1    1.58    0.30
   1   8  -1    1.63    0.33
   0   8  -1    5.51    0.41
   0   8  -1    5.42    0.56
  -1   8  -1   36.22    1.76
  -1   8  -1   35.32    1.79
  -1   8  -1   33.54    1.76
  -1   8  -1   35.22    1.90
  -2   8  -1    2.56    0.32
  -2   8  -1    2.11    0.38
  -2   8  -1    2.54    0.28
  -2   8  -1    2.57    0.32
  -3   8  -1    0.00    0.22
  -3   8  -1   -0.15    0.23
  -3   8  -1   -0.22    0.22
  -4   8  -1    1.30    0.31
  -4   8  -1    0.99    0.31
  -4   8  -1    1.27    0.32
  -4   8  -1    1.70    0.47
  -5   8  -1    4.19    0.51
  -5   8  -1    5.48    0.64
  -5   8  -1    4.55    0.48
  -5   8  -1    4.18    0.68
   5  -8   1    4.60    0.55
  -6   8  -1    3.89    0.50
  -6   8  -1    4.34    0.54
  -7   8  -1    2.48    0.57
  -7   8  -1    2.77    0.57
  10   7  -1    4.49    0.63
  10   7  -1    4.81    0.52
   9   7  -1    7.73    0.66
   9   7  -1    6.16    0.77
  -9  -7   1    7.34    0.63
   8   7  -1    1.23    0.30
   8   7  -1    0.95    0.36
  -8  -7   1    0.43    0.43
  -8  -7   1    0.31    0.22
   7   7  -1   13.72    0.95
   7   7  -1   13.86    0.84
   7   7  -1   12.76    0.83
   7   7  -1   12.75    0.95
  -7  -7   1   13.66    0.91
   6   7  -1   12.68    0.78
   6   7  -1   13.48    0.80
   6   7  -1   13.18    0.83
   6   7  -1   13.12    0.84
  -6  -7   1   12.44    0.83
   5   7  -1    0.85    0.21
   5   7  -1    1.18    0.25
   5   7  -1    1.06    0.30
   5   7  -1    0.92    0.24
   5   7  -1    1.01    0.25
  -5  -7   1    0.97    0.23
   4   7  -1   30.97    1.58
   4   7  -1   29.68    1.56
   4   7  -1   30.96    1.60
   4   7  -1   30.78    1.54
   4   7  -1   30.36    1.66
  -4  -7   1   28.05    1.59
   3   7  -1    0.28    0.15
   3   7  -1    0.48    0.25
   3   7  -1    0.47    0.21
   3   7  -1    0.51    0.15
  -3  -7   1    0.55    0.19
   2   7  -1   25.39    1.43
   2   7  -1   25.69    1.30
   2   7  -1   25.99    1.38
   1   7  -1   11.38    0.71
   1   7  -1   10.97    0.75
   1   7  -1   11.23    0.65
   0   7  -1   31.06    1.62
   0   7  -1   32.59    1.69
  -1   7  -1    0.15    0.21
  -1   7  -1    0.54    0.16
  -1   7  -1    0.35    0.11
  -2   7  -1    0.29    0.17
  -2   7  -1    0.26    0.14
  -2   7  -1    0.05    0.14
  -3   7  -1    0.21    0.19
  -3   7  -1    0.57    0.29
  -3   7  -1   -0.02    0.20
  -3   7  -1   -0.04    0.18
   3  -7   1   -0.07    0.20
  -4   7  -1   11.60    0.72
  -4   7  -1   10.55    0.69
  -4   7  -1   11.63    0.72
  -4   7  -1   11.20    0.87
   4  -7   1   10.39    0.74
  -5   7  -1    2.23    0.36
  -5   7  -1    2.89    0.37
  -5   7  -1    2.80    0.37
  -5   7  -1    2.57    0.51
   5  -7   1    2.25    0.36
  -6   7  -1    0.56    0.35
  -6   7  -1    0.70    0.38
  -6   7  -1    0.45    0.52
  -7   7  -1    2.32    0.47
  -7   7  -1    2.30    0.48
  -8   7  -1    5.96    0.71
  -8   7  -1    6.89    0.90
  10   6  -1    0.18    0.38
  10   6  -1   -0.12    0.30
 -10  -6   1   -0.78    0.40
   9   6  -1    1.77    0.33
   9   6  -1    1.09    0.39
  -9  -6   1    0.96    0.34
   8   6  -1   31.02    1.60
   8   6  -1   30.00    1.71
  -8  -6   1   26.80    1.68
  -8  -6   1   31.08    1.59
  -8  -6   1   30.67    1.70
   7   6  -1    0.30    0.28
   7   6  -1    0.53    0.30
   7   6  -1    0.26    0.25
   7   6  -1    0.40    0.22
  -7  -6   1    0.14    0.26
  -7  -6   1    0.12    0.19
   6   6  -1    8.36    0.67
   6   6  -1    7.62    0.58
   6   6  -1    7.80    0.58
   6   6  -1    8.16    0.55
   6   6  -1    7.22    0.53
  -6  -6   1    7.69    0.58
  -6  -6   1    7.35    0.46
  -6  -6   1    7.40    0.50
   5   6  -1    3.60    0.38
   5   6  -1    2.98    0.36
   5   6  -1    3.51    0.46
   5   6  -1    2.89    0.31
   5   6  -1    3.12    0.32
  -5  -6   1    2.71    0.36
  -5  -6   1    3.15    0.38
   4   6  -1    3.38    0.36
   4   6  -1    3.10    0.31
   4   6  -1    3.05    0.29
   4   6  -1    3.04    0.42
  -4  -6   1    2.78    0.41
   3   6  -1   15.59    0.94
   3   6  -1   16.13    0.83
   3   6  -1   15.64    0.82
   3   6  -1   15.49    0.88
  -3  -6   1   15.53    0.87
   2   6  -1   35.60    1.74
   2   6  -1   34.80    1.80
   2   6  -1   35.30    1.74
   2   6  -1   33.92    1.84
   1   6  -1    1.12    0.22
   1   6  -1    1.10    0.18
   0   6  -1    0.85    0.18
   0   6  -1    0.94    0.14
  -1   6  -1   10.49    0.60
  -1   6  -1   10.81    0.56
  -1   6  -1   10.84    0.68
  -2   6  -1    0.35    0.12
  -2   6  -1    0.33    0.12
  -2   6  -1    0.15    0.14
  -3   6  -1   46.79    2.33
  -3   6  -1   43.17    2.40
  -3   6  -1   47.87    2.36
  -3   6  -1   49.23    2.35
   3  -6   1   46.13    2.36
  -4   6  -1    0.15    0.28
  -4   6  -1    0.30    0.20
  -4   6  -1   -0.09    0.20
  -4   6  -1    0.08    0.19
   4  -6   1   -0.04    0.19
  -5   6  -1    1.62    0.30
  -5   6  -1    0.98    0.26
  -5   6  -1    1.41    0.29
  -5   6  -1    1.19    0.37
   5  -6   1    0.69    0.26
  -6   6  -1    0.00    0.30
  -6   6  -1   -0.13    0.29
  -6   6  -1   -0.38    0.39
   6  -6   1    0.03    0.32
  -7   6  -1    4.52    0.62
  -7   6  -1    5.22    0.69
  -8   6  -1    0.24    0.43
  -8   6  -1    0.31    0.46
  -9   6  -1   -0.08    0.56
  11   5  -1    3.05    0.42
  11   5  -1    2.79    0.61
  10   5  -1    2.62    0.51
  10   5  -1    2.04    0.36
 -10  -5   1    3.41    0.48
   9   5  -1   12.63    0.80
   9   5  -1   12.09    0.95
  -9  -5   1   10.74    1.08
  -9  -5   1   12.71    0.87
   8   5  -1    0.79    0.32
   8   5  -1    0.74    0.24
  -8  -5   1    0.68    0.27
  -8  -5   1    1.12    0.36
  -8  -5   1    0.76    0.36
   7   5  -1    0.59    0.21
   7   5  -1    0.81    0.29
   7   5  -1    0.05    0.24
   7   5  -1   -0.27    0.22
  -7  -5   1    0.32    0.26
  -7  -5   1    0.38    0.26
  -7  -5   1    0.52    0.22
   6   5  -1    2.67    0.31
   6   5  -1    2.74    0.33
   6   5  -1    3.65    0.35
   6   5  -1    2.77    0.46
   6   5  -1    2.65    0.31
  -6  -5   1    2.61    0.38
  -6  -5   1    2.83    0.36
  -6  -5   1    2.89    0.31
   5   5  -1   24.02    1.17
   5   5  -1   23.15    1.18
   5   5  -1   23.09    1.25
   5   5  -1   23.10    1.16
   5   5  -1   22.09    1.18
  -5  -5   1   19.08    1.31
  -5  -5   1   22.42    1.14
  -5  -5   1   20.11    1.24
  -5  -5   1   21.11    1.15
   4   5  -1    7.01    0.43
   4   5  -1    7.23    0.47
   4   5  -1    7.26    0.45
   4   5  -1    7.07    0.53
   4   5  -1    7.77    0.46
  -4  -5   1    6.30    0.49
  -4  -5   1    7.33    0.46
   3   5  -1   30.10    1.52
   3   5  -1   29.94    1.49
   3   5  -1   29.29    1.56
   3   5  -1   29.02    1.48
  -3  -5   1   29.15    1.51
   2   5  -1    0.43    0.08
   2   5  -1    0.49    0.16
   2   5  -1    0.53    0.09
   2   5  -1    0.57    0.14
  -2  -5   1    0.51    0.13
   1   5  -1   12.39    0.75
   1   5  -1   13.82    0.73
   0   5  -1    4.19    0.33
   0   5  -1    4.59    0.29
  -1   5  -1   21.69    1.11
  -1   5  -1   21.52    1.08
  -2   5  -1    1.00    0.13
  -2   5  -1    0.91    0.15
  -2   5  -1    0.75    0.11
   2  -5   1    1.07    0.16
  -3   5  -1    1.24    0.15
  -3   5  -1    1.66    0.41
  -3   5  -1    1.28    0.19
  -3   5  -1    1.19    0.18
   3  -5   1    0.99    0.19
  -4   5  -1    4.66    0.40
  -4   5  -1    4.91    0.38
  -4   5  -1    4.75    0.40
  -4   5  -1    5.12    0.51
   4  -5   1    4.83    0.39
  -5   5  -1   13.09    0.85
  -5   5  -1   12.42    0.77
  -5   5  -1   13.04    0.79
  -5   5  -1   13.96    0.80
   5  -5   1   12.90    0.79
  -6   5  -1    0.19    0.25
  -6   5  -1   -0.52    0.32
  -6   5  -1    0.01    0.26
  -6   5  -1    0.12    0.26
   6  -5   1    0.24    0.17
   6  -5   1    0.16    0.22
   6  -5   1    0.28    0.29
  -7   5  -1    2.73    0.42
  -7   5  -1    2.79    0.43
   7  -5   1    3.14    0.38
   7  -5   1    2.14    0.39
  -8   5  -1    0.35    0.38
  -8   5  -1    0.45    0.39
   8  -5   1    0.78    0.41
  -9   5  -1    0.51    0.45
  -9   5  -1    0.00    0.47
  11   4  -1    5.49    0.61
  11   4  -1    5.99    0.71
 -11  -4   1    6.60    0.71
  10   4  -1   -0.16    0.38
  10   4  -1   -0.08    0.26
 -10  -4   1   -0.46    0.37
   9   4  -1    2.54    0.34
   9   4  -1    2.58    0.45
  -9  -4   1    2.50    0.40
   8   4  -1    2.56    0.34
   8   4  -1    2.66    0.40
  -8  -4   1    1.83    0.39
  -8  -4   1    3.83    0.52
  -8  -4   1    2.87    0.35
   7   4  -1    0.14    0.20
   7   4  -1    0.42    0.19
   7   4  -1    0.31    0.24
   7   4  -1    0.38    0.20
  -7  -4   1    0.24    0.22
  -7  -4   1   -0.06    0.17
  -7  -4   1    0.24    0.25
  -7  -4   1    0.63    0.24
   6   4  -1    9.54    0.63
   6   4  -1   10.60    0.71
   6   4  -1   10.41    0.61
   6   4  -1   10.60    0.64
  -6  -4   1   10.70    0.67
  -6  -4   1   10.38    0.63
  -6  -4   1    9.34    0.70
  -6  -4   1   10.90    0.63
   5   4  -1   49.07    2.56
   5   4  -1   50.36    2.52
   5   4  -1   51.26    2.53
   5   4  -1   50.85    2.50
   5   4  -1   50.72    2.50
  -5  -4   1   50.03    2.50
  -5  -4   1   45.21    2.58
  -5  -4   1   50.74    2.51
  -5  -4   1   50.45    2.53
   4   4  -1    0.23    0.15
   4   4  -1    0.31    0.12
   4   4  -1    0.03    0.10
   4   4  -1    0.11    0.12
   4   4  -1    0.11    0.12
  -4  -4   1    0.23    0.12
  -4  -4   1    0.07    0.10
  -4  -4   1    0.19    0.11
  -4  -4   1    0.05    0.11
   3   4  -1    0.00    0.08
   3   4  -1    0.11    0.13
   3   4  -1    0.00    0.09
   3   4  -1    0.05    0.10
  -3  -4   1    0.12    0.09
   2   4  -1   14.36    0.83
   2   4  -1   15.82    0.80
   2   4  -1   15.73    0.77
   2   4  -1   14.95    0.77
  -2  -4   1   14.60    0.79
   1   4  -1   21.46    1.18
   1   4  -1   23.42    1.16
   0   4  -1   23.29    1.20
   0   4  -1   23.03    1.17
  -1   4  -1    1.52    0.16
  -2   4  -1   14.40    0.77
  -2   4  -1   14.61    0.75
  -2   4  -1   14.51    0.74
   2  -4   1   14.49    0.77
  -3   4  -1    4.25    0.29
  -3   4  -1    4.60    0.38
  -3   4  -1    4.15    0.32
  -3   4  -1    4.32    0.31
   3  -4   1    4.38    0.31
  -4   4  -1   35.96    2.05
  -4   4  -1   38.57    1.86
  -4   4  -1   36.97    1.88
  -4   4  -1   36.83    1.87
   4  -4   1   36.51    1.84
   4  -4   1   35.82    1.83
   4  -4   1   36.18    1.87
  -5   4  -1    0.88    0.23
  -5   4  -1    1.06    0.25
  -5   4  -1    1.04    0.21
  -5   4  -1    1.06    0.20
   5  -4   1    0.99    0.21
   5  -4   1    1.10    0.17
   5  -4   1    0.70    0.19
  -6   4  -1    6.53    0.50
  -6   4  -1    5.72    0.57
  -6   4  -1    5.82    0.49
  -6   4  -1    5.74    0.47
   6  -4   1    5.91    0.50
   6  -4   1    4.69    0.47
  -7   4  -1    0.13    0.27
  -7   4  -1    0.20    0.28
   7  -4   1    0.25    0.26
   7  -4   1   -0.34    0.27
  -8   4  -1    6.64    0.68
  -8   4  -1    6.77    0.66
   8  -4   1    7.25    0.69
   8  -4   1    4.75    0.66
  -9   4  -1    5.39    0.72
  -9   4  -1    4.41    0.56
   9  -4   1    3.96    0.57
 -10   4  -1    6.07    0.71
 -10   4  -1    9.33    0.94
  10  -4   1    5.79    0.79
  11   3  -1    3.19    0.59
  11   3  -1    1.67    0.35
 -11  -3   1    2.01    0.52
  10   3  -1   -0.35    0.23
  10   3  -1    0.03    0.38
 -10  -3   1    0.08    0.36
   9   3  -1    0.12    0.33
   9   3  -1   -0.14    0.21
  -9  -3   1   -0.23    0.29
   8   3  -1   12.00    1.23
  -8  -3   1   12.14    0.79
  -8  -3   1   11.52    0.78
   7   3  -1    4.80    0.51
   7   3  -1    3.56    0.37
   7   3  -1    3.43    0.36
   7   3  -1    4.13    0.37
  -7  -3   1    2.84    0.40
  -7  -3   1    3.76    0.40
  -7  -3   1    4.14    0.41
  -7  -3   1    2.90    0.47
   6   3  -1   41.70    2.18
   6   3  -1   45.18    2.15
   6   3  -1   40.88    2.17
   6   3  -1   43.59    2.21
  -6  -3   1   44.65    2.16
  -6  -3   1   43.16    2.17
  -6  -3   1   39.33    2.19
  -6  -3   1   40.65    2.23
   5   3  -1    0.46    0.13
   5   3  -1    0.47    0.14
   5   3  -1    0.38    0.14
   5   3  -1    0.44    0.18
  -5  -3   1    0.39    0.14
  -5  -3   1    0.37    0.16
  -5  -3   1    0.42    0.16
  -5  -3   1    0.26    0.14
   4   3  -1   13.66    0.71
   4   3  -1   13.41    0.72
   4   3  -1   13.19    0.81
   4   3  -1   12.71    0.70
   4   3  -1   13.43    0.77
  -4  -3   1   14.14    0.71
  -4  -3   1   13.42    0.73
  -4  -3   1   12.57    0.77
  -4  -3   1   13.43    0.72
   3   3  -1    7.00    0.40
   3   3  -1    7.11    0.40
   3   3  -1    6.65    0.44
   3   3  -1    6.96    0.39
   3   3  -1    6.92    0.38
  -3  -3   1    6.39    0.44
  -3  -3   1    6.69    0.40
  -3  -3   1    6.77    0.38
  -3  -3   1    6.82    0.38
   2   3  -1   14.94    0.77
   2   3  -1   14.39    0.79
   2   3  -1   14.39    0.73
   2   3  -1   14.70    0.74
  -2  -3   1   13.69    0.79
  -2  -3   1   14.95    0.75
   1   3  -1    5.89    0.37
  -1  -3   1    6.48    0.35
  -1   3  -1    1.80    0.15
  -1   3  -1    1.85    0.11
   1  -3   1    1.78    0.16
  -2   3  -1    8.08    0.44
  -2   3  -1    8.14    0.45
  -2   3  -1    7.99    0.42
   2  -3   1    7.91    0.44
  -3   3  -1   35.60    1.77
  -3   3  -1   35.55    1.74
  -3   3  -1   34.38    1.76
  -3   3  -1   34.34    1.75
   3  -3   1   35.23    1.73
   3  -3   1   33.68    1.73
   3  -3   1   34.45    1.76
  -4   3  -1    8.43    0.50
  -4   3  -1    9.07    0.55
  -4   3  -1    8.29    0.52
  -4   3  -1    8.61    0.52
   4  -3   1    8.71    0.50
   4  -3   1    8.33    0.52
   4  -3   1    8.68    0.49
  -5   3  -1    0.16    0.19
  -5   3  -1    0.45    0.16
  -5   3  -1    0.27    0.16
  -5   3  -1    0.05    0.19
   5  -3   1    0.13    0.16
   5  -3   1    0.48    0.16
  -6   3  -1    9.06    0.57
  -6   3  -1    9.13    0.60
  -6   3  -1    8.81    0.60
  -6   3  -1    8.38    0.63
   6  -3   1    7.50    0.59
   6  -3   1    9.64    0.58
  -7   3  -1   21.80    1.12
  -7   3  -1   17.90    1.17
  -7   3  -1   19.95    1.15
  -7   3  -1   21.15    1.16
   7  -3   1   20.96    1.12
   7  -3   1   20.74    1.13
   7  -3   1   17.42    1.24
  -8   3  -1    5.48    0.62
  -8   3  -1    6.05    0.61
   8  -3   1    5.10    0.63
   8  -3   1    5.81    0.58
  -9   3  -1   11.74    0.87
  -9   3  -1   11.38    0.87
   9  -3   1    9.60    0.85
 -10   3  -1    2.82    0.54
 -10   3  -1    3.39    0.51
  10  -3   1    3.15    0.57
  11   2  -1    2.91    0.41
  11   2  -1    3.88    0.62
 -11  -2   1    3.69    0.55
  10   2  -1    6.26    0.58
  10   2  -1    7.73    0.86
 -10  -2   1    6.73    0.73
   9   2  -1   15.94    1.07
   9   2  -1   14.78    0.89
  -9  -2   1   13.72    0.95
   8   2  -1   18.07    1.05
   8   2  -1   20.46    1.13
  -8  -2   1   14.48    1.09
  -8  -2   1   16.89    1.24
  -8  -2   1   17.72    1.04
   7   2  -1   23.88    1.15
   7   2  -1   20.21    1.17
  -7  -2   1   21.12    1.23
  -7  -2   1   21.79    1.18
  -7  -2   1   22.74    1.16
  -7  -2   1   18.02    1.20
   6   2  -1    4.88    0.39
   6   2  -1    5.07    0.40
   6   2  -1    6.15    0.40
   6   2  -1    6.64    0.50
  -6  -2   1    4.99    0.44
  -6  -2   1    5.56    0.43
  -6  -2   1    5.55    0.40
   5   2  -1    9.19    0.51
   5   2  -1    9.57    0.58
   5   2  -1    8.23    0.52
   5   2  -1    7.91    0.52
  -5  -2   1    8.56    0.56
  -5  -2   1    9.16    0.51
  -5  -2   1    8.45    0.53
   4   2  -1   25.78    1.22
   4   2  -1   24.46    1.26
   4   2  -1   23.43    1.23
   4   2  -1   23.75    1.23
  -4  -2   1   25.48    1.22
  -4  -2   1   23.47    1.23
  -4  -2   1   23.63    1.27
  -4  -2   1   20.66    1.23
   3   2  -1  116.46    5.85
   3   2  -1  122.36    5.82
   3   2  -1  118.90    5.83
   3   2  -1  118.37    5.84
   3   2  -1  121.52    5.82
  -3  -2   1  117.37    5.83
  -3  -2   1  110.22    5.83
  -3  -2   1  123.47    5.82
  -3  -2   1  115.87    5.86
   2   2  -1    0.33    0.07
   2   2  -1    0.35    0.07
   2   2  -1    0.41    0.10
   2   2  -1    0.34    0.07
  -2  -2   1    0.42    0.07
  -2  -2   1    0.47    0.06
  -2  -2   1    0.39    0.07
  -2  -2   1    0.39    0.09
   1   2  -1   11.10    0.55
   1   2  -1   11.39    0.55
   1   2  -1   11.50    0.56
  -1  -2   1    9.67    0.58
  -1  -2   1   10.64    0.56
  -1   2  -1  859.33   46.29
  -1   2  -1  944.85   46.16
  -1   2  -1  960.41   46.15
   1  -2   1 1000.00   46.24
  -2   2  -1   16.44    0.85
  -2   2  -1   16.80    0.87
  -2   2  -1   16.64    0.87
  -2   2  -1   16.91    0.86
   2  -2   1   17.41    0.85
   2  -2   1   17.28    0.85
   2  -2   1   16.81    0.87
  -3   2  -1    0.66    0.13
  -3   2  -1    0.42    0.11
  -3   2  -1    0.51    0.11
  -3   2  -1    0.41    0.09
   3  -2   1    0.40    0.10
   3  -2   1    0.51    0.10
  -4   2  -1    0.06    0.13
  -4   2  -1   -0.06    0.11
  -4   2  -1   -0.09    0.12
   4  -2   1    0.02    0.10
   4  -2   1   -0.12    0.15
   4  -2   1   -0.01    0.11
  -5   2  -1   51.01    2.65
  -5   2  -1   53.09    2.66
  -5   2  -1   50.95    2.66
  -5   2  -1   52.14    2.63
   5  -2   1   54.20    2.65
   5  -2   1   52.08    2.65
   5  -2   1   53.89    2.63
  -6   2  -1   13.03    0.77
  -6   2  -1   13.87    0.79
  -6   2  -1   13.22    0.74
  -6   2  -1   11.81    0.78
   6  -2   1   12.12    0.77
   6  -2   1   13.80    0.78
   6  -2   1   13.48    0.76
  -7   2  -1    3.03    0.36
  -7   2  -1    2.93    0.40
  -7   2  -1    2.74    0.31
  -7   2  -1    1.81    0.33
   7  -2   1    2.23    0.44
   7  -2   1    2.51    0.33
   7  -2   1    2.72    0.31
  -8   2  -1    0.30    0.29
  -8   2  -1   -0.41    0.32
  -8   2  -1    0.15    0.25
   8  -2   1   -0.11    0.36
   8  -2   1    0.10    0.25
  -9   2  -1    7.34    0.69
  -9   2  -1    5.37    0.67
   9  -2   1    6.23    0.88
   9  -2   1    6.31    0.65
 -10   2  -1    8.37    0.82
 -10   2  -1    9.75    0.83
  10  -2   1    9.22    0.84
  10  -2   1    8.16    1.06
  11   1  -1    6.15    0.60
  11   1  -1    7.80    1.07
 -11  -1   1    6.38    0.68
  10   1  -1    1.97    0.52
  10   1  -1    2.68    0.38
 -10  -1   1    1.98    0.42
   9   1  -1   10.92    0.94
   9   1  -1   10.22    0.70
  -9  -1   1   10.09    0.77
   8   1  -1   11.14    0.80
   8   1  -1    9.62    0.65
  -8  -1   1    9.41    0.73
  -8  -1   1    7.84    0.71
  -8  -1   1    9.77    0.68
   7   1  -1   49.02    2.31
   7   1  -1   40.36    2.30
   7   1  -1   44.99    2.22
  -7  -1   1   39.07    2.28
  -7  -1   1   42.15    2.25
  -7  -1   1   44.21    2.22
  -7  -1   1   44.43    2.25
   6   1  -1   35.95    1.69
   6   1  -1   32.55    1.61
   6   1  -1   28.64    1.63
   6   1  -1   28.15    1.63
  -6  -1   1   33.14    1.61
  -6  -1   1   29.53    1.66
  -6  -1   1   28.90    1.64
  -6  -1   1   33.99    1.64
   5   1  -1   56.04    2.64
   5   1  -1   49.14    2.66
   5   1  -1   60.40    2.69
   5   1  -1   47.78    2.66
  -5  -1   1   48.98    2.67
  -5  -1   1   56.46    2.65
  -5  -1   1   56.12    2.66
  -5  -1   1   52.08    2.69
  -5  -1   1   47.83    2.66
   4   1  -1   23.40    1.13
   4   1  -1   20.19    1.14
   4   1  -1   19.82    1.15
   4   1  -1   24.32    1.17
  -4  -1   1   21.78    1.17
  -4  -1   1   23.16    1.13
  -4  -1   1   23.73    1.14
  -4  -1   1   19.97    1.14
   3   1  -1    3.14    0.21
   3   1  -1    2.82    0.21
   3   1  -1    2.40    0.22
   3   1  -1    3.42    0.25
  -3  -1   1    3.29    0.20
  -3  -1   1    3.25    0.21
  -3  -1   1    3.01    0.25
  -3  -1   1    2.72    0.22
   2   1  -1  100.92    5.12
   2   1  -1  103.10    5.12
   2   1  -1  107.06    5.13
   2   1  -1  102.32    5.12
  -2  -1   1  102.32    5.11
  -2  -1   1  110.35    5.11
  -2  -1   1  101.93    5.13
   1   1  -1   69.23    3.54
   1   1  -1   71.34    3.52
   1   1  -1   74.72    3.53
   1   1  -1   69.58    3.52
  -1  -1   1   71.16    3.54
  -1  -1   1   74.09    3.53
  -1  -1   1   69.75    3.52
  -1  -1   1   74.19    3.53
   0   1  -1   22.25    1.10
  -1   1  -1    0.03    0.03
  -1   1  -1    0.02    0.04
  -1   1  -1   -0.02    0.04
   1  -1   1    0.01    0.03
   1  -1   1    0.02    0.04
   1  -1   1    0.01    0.03
  -2   1  -1   85.09    4.16
  -2   1  -1   83.47    4.15
  -2   1  -1   94.98    4.16
  -2   1  -1   83.93    4.15
   2  -1   1   84.29    4.16
   2  -1   1   73.41    4.16
  -3   1  -1    3.58    0.25
  -3   1  -1    4.01    0.27
  -3   1  -1    3.31    0.23
  -3   1  -1    3.79    0.26
   3  -1   1    4.00    0.25
   3  -1   1    3.78    0.25
   3  -1   1    3.72    0.24
  -4   1  -1   36.35    1.82
  -4   1  -1   34.97    1.82
  -4   1  -1   34.46    1.82
  -4   1  -1   36.63    1.80
   4  -1   1   35.86    1.82
   4  -1   1   35.25    1.80
   4  -1   1   36.72    1.82
  -5   1  -1    9.86    0.55
  -5   1  -1    9.70    0.59
  -5   1  -1    9.51    0.58
   5  -1   1    9.48    0.56
   5  -1   1    9.47    0.57
   5  -1   1   10.08    0.59
  -6   1  -1    7.76    0.53
  -6   1  -1    7.59    0.52
  -6   1  -1    8.35    0.48
  -6   1  -1    7.67    0.54
  -6   1  -1    7.49    0.51
   6  -1   1    7.62    0.51
   6  -1   1    8.32    0.54
   6  -1   1    7.90    0.49
   6  -1   1    6.01    0.65
  -7   1  -1    2.00    0.32
  -7   1  -1    2.15    0.29
   7  -1   1    1.61    0.29
   7  -1   1    1.96    0.25
   7  -1   1    2.08    0.29
   7  -1   1    1.18    0.37
  -8   1  -1   19.65    1.24
  -8   1  -1   20.87    1.26
  -8   1  -1   21.37    1.21
   8  -1   1   20.22    1.35
   8  -1   1   22.03    1.17
  -9   1  -1   -0.40    0.30
  -9   1  -1   -0.50    0.28
   9  -1   1   -0.42    0.42
   9  -1   1   -0.03    0.27
 -10   1  -1    2.66    0.42
 -10   1  -1    2.75    0.48
  10  -1   1    2.06    0.41
  10  -1   1    1.46    0.57
 -11   1  -1    0.99    0.40
  11  -1   1    0.07    0.58
  11  -1   1   -0.63    0.46
  11   0  -1   -0.52    0.36
  11   0  -1    0.32    0.55
 -11   0   1    0.04    0.39
  10   0  -1    0.77    0.48
  10   0  -1   -0.31    0.29
 -10   0   1    0.30    0.33
   9   0  -1    2.95    0.52
   9   0  -1    3.67    0.38
  -9   0   1    2.86    0.39
   8   0  -1   37.78    1.83
   8   0  -1   38.98    1.97
  -8   0   1   34.94    1.86
  -8   0   1   31.48    1.89
  -8   0   1   29.92    2.08
   7   0  -1    5.73    0.44
   7   0  -1    5.39    0.42
   7   0  -1    5.66    0.60
   7   0  -1    5.80    0.46
  -7   0   1    4.22    0.48
  -7   0   1    5.47    0.47
  -7   0   1    5.70    0.47
  -7   0   1    5.68    0.40
  -7   0   1    5.37    0.48
   6   0  -1   12.75    0.71
   6   0  -1   13.92    0.83
   6   0  -1   12.19    0.73
   6   0  -1   11.93    0.73
  -6   0   1   12.03    0.76
  -6   0   1   12.02    0.74
  -6   0   1   13.17    0.71
  -6   0   1   12.32    0.75
  -6   0   1   13.22    0.74
   5   0  -1    1.34    0.23
   5   0  -1    1.47    0.19
   5   0  -1    1.52    0.21
   5   0  -1    1.25    0.18
  -5   0   1    1.45    0.18
  -5   0   1    1.24    0.19
  -5   0   1    1.32    0.21
  -5   0   1    1.22    0.20
   4   0  -1   67.86    3.51
   4   0  -1   76.45    3.50
   4   0  -1   66.71    3.51
  -4   0   1   68.38    3.52
  -4   0   1   76.20    3.53
  -4   0   1   67.51    3.51
   3   0  -1   10.56    0.61
   3   0  -1   12.28    0.59
   3   0  -1   13.20    0.64
   3   0  -1   10.46    0.60
  -3   0   1   12.68    0.63
  -3   0   1   10.08    0.61
  -3   0   1    9.88    0.60
   2   0  -1  217.35   11.45
   2   0  -1  245.73   11.45
   2   0  -1  215.68   11.41
  -2   0   1  210.25   11.44
  -2   0   1  254.20   11.42
  -2   0   1  267.55   11.48
  -2   0   1  215.37   11.40
   1   0  -1    1.25    0.08
   1   0  -1    1.26    0.10
   1   0  -1    1.02    0.08
  -1   0   1    1.01    0.08
  -1   0   1    1.26    0.08
  -1   0   1    1.35    0.11
  -1   0  -1    0.09    0.04
  -1   0  -1    0.13    0.04
  -1   0  -1    0.10    0.03
  -1   0  -1    0.08    0.03
  -1   0  -1    0.14    0.03
   1   0   1    0.06    0.03
   1   0   1    0.08    0.03
   1   0   1    0.12    0.03
   1   0   1    0.06    0.03
  -2   0  -1   30.82    1.55
  -2   0  -1   31.53    1.55
  -2   0  -1   30.63    1.55
  -2   0  -1   32.55    1.55
  -2   0  -1   28.26    1.54
   2   0   1   36.01    1.56
   2   0   1   28.78    1.54
   2   0   1   30.59    1.55
   2   0   1   30.40    1.55
  -3   0  -1   53.25    2.54
  -3   0  -1   49.13    2.54
  -3   0  -1   50.04    2.53
  -3   0  -1   50.58    2.54
  -3   0  -1   54.60    2.54
   3   0   1   50.90    2.54
   3   0   1   49.97    2.54
   3   0   1   48.86    2.52
  -4   0  -1   14.74    0.78
  -4   0  -1   13.89    0.78
  -4   0  -1   14.32    0.79
  -4   0  -1   14.66    0.79
  -4   0  -1   14.30    0.77
   4   0   1   13.83    0.76
   4   0   1   14.24    0.78
   4   0   1   16.57    0.82
   4   0   1   14.57    0.78
  -5   0  -1    0.65    0.18
  -5   0  -1    0.75    0.18
  -5   0  -1    0.59    0.14
  -5   0  -1    0.68    0.14
  -5   0  -1    0.42    0.15
   5   0   1    0.67    0.20
   5   0   1    0.93    0.16
   5   0   1    0.65    0.14
   5   0   1    0.58    0.15
  -6   0  -1    0.77    0.17
  -6   0  -1    0.63    0.21
  -6   0  -1    0.71    0.18
  -6   0  -1    0.84    0.16
  -6   0  -1    0.45    0.18
   6   0   1    0.71    0.24
   6   0   1    0.85    0.17
   6   0   1    0.49    0.16
   6   0   1    0.76    0.19
  -7   0  -1   41.69    2.17
  -7   0  -1   39.51    2.17
  -7   0  -1   41.68    2.15
  -7   0  -1   40.27    2.15
   7   0   1   43.02    2.22
   7   0   1   42.29    2.12
   7   0   1   42.03    2.16
  -8   0  -1   -0.22    0.26
   8   0   1    0.64    0.36
   8   0   1    0.18    0.21
  -9   0  -1   -0.24    0.27
  -9   0  -1   -0.05    0.26
   9   0   1    0.33    0.25
   9   0   1   -0.32    0.40
 -10   0  -1    2.02    0.41
 -10   0  -1    2.73    0.41
  10   0   1    2.72    0.41
  10   0   1    2.19    0.56
 -11   0  -1    1.77    0.43
  11   0   1    1.30    0.45
  11   0   1    1.11    0.66
  11  -1  -1    0.86    0.56
  11  -1  -1    0.51    0.44
 -11   1   1    1.33    0.44
  10  -1  -1    7.20    0.73
  10  -1  -1    6.29    0.97
 -10   1   1    8.95    0.73
   9  -1  -1    4.94    0.86
   9  -1  -1    6.92    0.60
  -9   1   1    7.58    0.63
   8  -1  -1    1.58    0.27
   8  -1  -1    1.23    0.42
  -8   1   1    1.43    0.30
   7  -1  -1    0.08    0.20
   7  -1  -1   -0.04    0.30
   7  -1  -1    0.17    0.19
   7  -1  -1    0.16    0.21
  -7   1   1   -0.17    0.19
  -7   1   1    0.14    0.19
  -7   1   1   -0.36    0.21
  -7   1   1    0.01    0.21
   6  -1  -1    3.85    0.35
   6  -1  -1    4.20    0.35
   6  -1  -1    4.21    0.34
   6  -1  -1    3.14    0.53
  -6   1   1    2.66    0.38
  -6   1   1    3.77    0.37
  -6   1   1    4.07    0.35
  -6   1   1    3.55    0.36
   5  -1  -1   28.08    1.38
   5  -1  -1   26.69    1.39
   5  -1  -1   27.15    1.39
   5  -1  -1   25.22    1.46
  -5   1   1   27.26    1.42
  -5   1   1   25.63    1.40
  -5   1   1   25.99    1.40
  -5   1   1   27.61    1.38
   4  -1  -1    0.54    0.20
   4  -1  -1    0.94    0.14
   4  -1  -1    0.98    0.13
   4  -1  -1    0.83    0.13
  -4   1   1    1.04    0.17
  -4   1   1    0.81    0.15
  -4   1   1    0.79    0.14
  -4   1   1    0.79    0.14
   3  -1  -1   80.15    3.77
   3  -1  -1   74.60    3.78
   3  -1  -1   72.85    3.78
   3  -1  -1   75.74    3.80
  -3   1   1   80.29    3.77
  -3   1   1   72.93    3.78
  -3   1   1   69.72    3.77
  -3   1   1   83.32    3.79
   2  -1  -1   37.24    1.78
   2  -1  -1   33.77    1.78
   2  -1  -1   35.10    1.81
   2  -1  -1   34.29    1.78
  -2   1   1   34.92    1.79
  -2   1   1   33.45    1.79
  -2   1   1   37.48    1.78
  -2   1   1   39.58    1.80
   1  -1  -1    0.43    0.07
   1  -1  -1    0.47    0.07
  -1   1   1    0.53    0.07
  -1   1   1    0.40    0.08
  -1   1   1    0.40    0.07
  -1   1   1    0.40    0.07
   0  -1  -1   10.55    0.56
   0   1   1   11.59    0.55
  -1  -1  -1   13.03    0.74
  -1  -1  -1   14.96    0.73
  -1  -1  -1   14.24    0.73
  -1  -1  -1   14.68    0.73
  -1  -1  -1   13.87    0.74
   1   1   1   14.63    0.73
   1   1   1   15.31    0.73
   1   1   1   14.11    0.73
   1   1   1   13.14    0.74
   1   1   1   14.75    0.74
  -2  -1  -1    2.65    0.18
  -2  -1  -1    2.44    0.18
  -2  -1  -1    2.56    0.18
  -2  -1  -1    2.69    0.18
  -2  -1  -1    2.43    0.16
   2   1   1    2.73    0.18
   2   1   1    2.68    0.17
   2   1   1    2.52    0.20
   2   1   1    2.48    0.17
   2   1   1    2.53    0.18
  -3  -1  -1    5.37    0.34
  -3  -1  -1    6.18    0.34
  -3  -1  -1    5.25    0.34
  -3  -1  -1    5.36    0.33
  -3  -1  -1    5.25    0.32
   3   1   1    6.02    0.36
   3   1   1    5.39    0.32
   3   1   1    5.30    0.33
   3   1   1    5.32    0.33
  -4  -1  -1    5.20    0.33
  -4  -1  -1    5.09    0.36
  -4  -1  -1    6.06    0.36
  -4  -1  -1    5.08    0.35
  -4  -1  -1    5.06    0.35
   4   1   1    5.32    0.35
   4   1   1    6.12    0.38
   4   1   1    4.85    0.34
   4   1   1    5.25    0.33
  -5  -1  -1   47.52    2.51
  -5  -1  -1   46.11    2.50
  -5  -1  -1   55.12    2.51
  -5  -1  -1   50.41    2.49
  -5  -1  -1   47.37    2.52
   5   1   1   46.95    2.50
   5   1   1   48.64    2.48
   5   1   1   56.38    2.53
   5   1   1   47.62    2.51
  -6  -1  -1    0.85    0.20
  -6  -1  -1    1.25    0.24
  -6  -1  -1    0.98    0.19
  -6  -1  -1    1.18    0.21
  -6  -1  -1    1.17    0.17
   6   1   1    0.86    0.17
   6   1   1    1.04    0.18
   6   1   1    1.42    0.25
   6   1   1    1.14    0.21
  -7  -1  -1    8.82    0.65
  -7  -1  -1   10.36    0.61
  -7  -1  -1   10.99    0.68
  -7  -1  -1    9.25    0.69
  -7  -1  -1    9.06    0.67
   7   1   1    9.93    0.64
   7   1   1   10.36    0.62
   7   1   1   12.07    0.75
  -8  -1  -1    1.07    0.31
  -8  -1  -1    1.32    0.34
  -8  -1  -1    1.24    0.32
  -8  -1  -1    1.43    0.29
   8   1   1    1.83    0.38
   8   1   1    1.45    0.25
  -9  -1  -1    1.22    0.33
  -9  -1  -1    1.99    0.34
   9   1   1    1.19    0.42
   9   1   1    1.27    0.29
 -10  -1  -1    1.43    0.35
  10   1   1    0.70    0.30
  10   1   1    1.06    0.48
 -11  -1  -1    6.95    0.77
  11   1   1    7.05    1.13
  11   1   1    5.50    0.73
  10  -2  -1    0.35    0.38
  10  -2  -1    0.83    0.51
 -10   2   1    0.93    0.33
   9  -2  -1    0.86    0.32
   9  -2  -1    0.42    0.47
  -9   2   1    0.50    0.31
   8  -2  -1    0.40    0.25
   8  -2  -1   -0.30    0.36
  -8   2   1    0.52    0.26
  -8   2   1   -0.33    0.32
  -8   2   1    1.03    0.34
   7  -2  -1    8.46    0.61
   7  -2  -1    7.41    0.59
   7  -2  -1    9.17    0.58
  -7   2   1    7.14    0.64
  -7   2   1    8.14    0.61
  -7   2   1    8.72    0.61
   6  -2  -1    4.84    0.41
   6  -2  -1    4.95    0.42
   6  -2  -1    4.88    0.39
  -6   2   1    5.03    0.42
  -6   2   1    5.43    0.36
  -6   2   1    3.70    0.45
  -6   2   1    4.94    0.43
   5  -2  -1   16.88    0.87
   5  -2  -1   15.91    0.89
   5  -2  -1   15.82    0.88
  -5   2   1   15.64    0.89
  -5   2   1   16.35    0.86
  -5   2   1   16.21    0.89
  -5   2   1   15.83    0.91
   4  -2  -1   -0.20    0.16
   4  -2  -1    0.14    0.11
   4  -2  -1    0.11    0.11
   4  -2  -1    0.06    0.11
  -4   2   1    0.13    0.14
  -4   2   1    0.14    0.13
  -4   2   1    0.13    0.11
  -4   2   1    0.21    0.11
   3  -2  -1   13.16    0.69
   3  -2  -1   13.26    0.68
   3  -2  -1   12.53    0.69
  -3   2   1   12.52    0.69
  -3   2   1   13.43    0.72
  -3   2   1   13.21    0.68
  -3   2   1   12.32    0.69
   2  -2  -1    1.94    0.15
   2  -2  -1    1.64    0.14
   2  -2  -1    1.56    0.15
  -2   2   1    1.74    0.14
  -2   2   1    1.67    0.15
  -2   2   1    1.54    0.20
  -2   2   1    1.67    0.15
   1  -2  -1  182.51    8.76
   1  -2  -1  166.81    8.76
   1  -2  -1  184.04    8.77
  -1   2   1  177.73    8.76
  -1   2   1  184.52    8.78
  -1   2   1  176.15    8.76
   0  -2  -1   18.44    0.92
   0  -2  -1   18.24    0.89
   0   2   1   18.26    0.90
   0   2   1   17.93    0.90
   0   2   1   17.45    0.92
  -1  -2  -1    6.82    0.36
  -1  -2  -1    6.72    0.38
  -1  -2  -1    6.94    0.36
   1   2   1    6.68    0.36
   1   2   1    7.11    0.36
   1   2   1    7.10    0.36
   1   2   1    7.06    0.38
  -2  -2  -1    2.05    0.16
  -2  -2  -1    1.68    0.17
  -2  -2  -1    2.07    0.15
  -2  -2  -1    2.01    0.15
  -2  -2  -1    2.07    0.17
   2   2   1    1.93    0.19
   2   2   1    2.13    0.15
   2   2   1    2.31    0.18
   2   2   1    2.06    0.15
   2   2   1    2.14    0.15
  -3  -2  -1   15.32    0.88
  -3  -2  -1   17.01    0.88
  -3  -2  -1   17.39    0.87
  -3  -2  -1   15.91    0.90
  -3  -2  -1   17.20    0.88
   3   2   1   17.90    0.87
   3   2   1   17.26    0.88
   3   2   1   16.86    0.90
   3   2   1   16.82    0.88
   3   2   1   17.26    0.88
  -4  -2  -1  112.20    5.49
  -4  -2  -1  104.47    5.52
  -4  -2  -1  105.48    5.51
  -4  -2  -1  110.74    5.51
  -4  -2  -1  111.11    5.50
   4   2   1  114.88    5.52
   4   2   1  120.83    5.50
   4   2   1  108.96    5.50
   4   2   1  109.34    5.50
   4   2   1  113.57    5.49
  -5  -2  -1   22.54    1.24
  -5  -2  -1   21.82    1.22
  -5  -2  -1   23.02    1.19
  -5  -2  -1   23.12    1.23
  -5  -2  -1   22.91    1.21
   5   2   1   23.12    1.19
   5   2   1   22.79    1.21
   5   2   1   25.54    1.25
   5   2   1   22.24    1.21
  -6  -2  -1    4.79    0.41
  -6  -2  -1    5.30    0.45
  -6  -2  -1    5.05    0.41
  -6  -2  -1    4.90    0.37
  -6  -2  -1    4.78    0.42
   6   2   1    5.08    0.38
   6   2   1    4.65    0.37
   6   2   1    4.62    0.39
   6   2   1    6.22    0.48
  -7  -2  -1    2.07    0.25
  -7  -2  -1    1.72    0.28
  -7  -2  -1    1.98    0.27
  -7  -2  -1    2.18    0.31
  -7  -2  -1    2.19    0.32
   7   2   1    1.50    0.23
   7   2   1    2.12    0.27
   7   2   1    2.88    0.46
  -8  -2  -1    8.91    0.63
  -8  -2  -1    6.68    0.66
  -8  -2  -1    7.76    0.65
  -8  -2  -1    9.09    0.73
   8   2   1    7.71    0.60
  -9  -2  -1    0.18    0.27
   9   2   1    0.08    0.35
   9   2   1    0.04    0.22
 -10  -2  -1   18.21    1.16
  10   2   1   16.64    1.07
  10   2   1   19.00    1.29
 -11  -2  -1   -0.20    0.36
  11   2   1    0.50    0.56
  11   2   1   -0.23    0.30
  10  -3  -1    1.19    0.48
 -10   3   1    1.16    0.39
   9  -3  -1    2.38    0.42
  -9   3   1    1.67    0.42
  -9   3   1    1.93    0.39
   8  -3  -1    2.68    0.37
   8  -3  -1    2.95    0.47
  -8   3   1    2.79    0.40
  -8   3   1    2.98    0.41
   7  -3  -1    1.42    0.29
   7  -3  -1    2.04    0.34
   7  -3  -1    1.30    0.27
  -7   3   1    1.52    0.24
  -7   3   1    1.37    0.29
  -7   3   1    1.72    0.31
  -7   3   1    0.94    0.32
   6  -3  -1   21.00    1.08
   6  -3  -1   20.96    1.11
   6  -3  -1   19.11    1.09
  -6   3   1   19.50    1.11
  -6   3   1   20.56    1.11
  -6   3   1   17.85    1.13
  -6   3   1   19.54    1.07
   5  -3  -1    6.92    0.46
   5  -3  -1    6.89    0.45
   5  -3  -1    7.02    0.47
  -5   3   1    6.83    0.44
  -5   3   1    6.00    0.51
  -5   3   1    6.98    0.48
  -5   3   1    6.57    0.47
   4  -3  -1   10.21    0.60
   4  -3  -1   11.07    0.61
   4  -3  -1   10.46    0.60
  -4   3   1   11.12    0.59
  -4   3   1   10.66    0.61
  -4   3   1   10.43    0.61
   3  -3  -1    2.73    0.22
   3  -3  -1    2.85    0.23
   3  -3  -1    2.90    0.23
  -3   3   1    2.98    0.31
  -3   3   1    2.95    0.22
  -3   3   1    2.93    0.23
  -3   3   1    2.51    0.23
   2  -3  -1   40.38    1.89
   2  -3  -1   35.56    1.89
  -2   3   1   38.69    1.90
  -2   3   1   38.46    1.90
  -2   3   1   37.26    1.89
   1  -3  -1    9.29    0.49
   1  -3  -1    9.97    0.48
   1  -3  -1    9.57    0.48
  -1   3   1    9.73    0.50
  -1   3   1    9.41    0.49
  -1   3   1    9.64    0.50
   0   3   1    4.73    0.25
   0   3   1    4.84    0.30
   0   3   1    4.64    0.24
   0   3   1    4.79    0.25
  -1  -3  -1    0.19    0.07
   1   3   1    0.19    0.05
   1   3   1    0.25    0.05
   1   3   1    0.13    0.04
   1   3   1    0.13    0.07
  -2  -3  -1  113.55    5.87
  -2  -3  -1  119.20    5.85
  -2  -3  -1  117.18    5.87
   2   3   1  120.24    5.87
   2   3   1  125.05    5.85
   2   3   1  117.69    5.85
   2   3   1  126.51    5.85
   2   3   1  112.03    5.89
  -3  -3  -1   34.20    1.78
  -3  -3  -1   36.49    1.76
  -3  -3  -1   35.87    1.76
  -3  -3  -1   31.89    1.80
   3   3   1   37.20    1.77
   3   3   1   35.49    1.77
   3   3   1   35.10    1.77
   3   3   1   35.63    1.76
   3   3   1   33.87    1.80
  -4  -3  -1   46.75    2.31
  -4  -3  -1   47.92    2.32
  -4  -3  -1   43.36    2.34
  -4  -3  -1   46.41    2.33
   4   3   1   46.82    2.33
   4   3   1   45.16    2.32
   4   3   1   46.31    2.31
   4   3   1   47.16    2.32
   4   3   1   45.91    2.36
  -5  -3  -1    0.34    0.16
  -5  -3  -1    0.49    0.15
  -5  -3  -1    0.31    0.15
  -5  -3  -1    0.54    0.14
  -5  -3  -1    0.43    0.14
   5   3   1    0.33    0.15
   5   3   1    0.18    0.13
   5   3   1    0.69    0.15
   5   3   1    0.63    0.19
   5   3   1    0.46    0.13
  -6  -3  -1   38.35    1.96
  -6  -3  -1   34.24    1.99
  -6  -3  -1   38.57    1.97
  -6  -3  -1   39.53    1.94
   6   3   1   39.97    2.00
   6   3   1   37.11    1.95
   6   3   1   37.90    1.93
   6   3   1   37.69    1.96
  -7  -3  -1    5.75    0.53
  -7  -3  -1    7.05    0.49
  -7  -3  -1    6.89    0.52
   7   3   1    6.66    0.50
   7   3   1    6.33    0.49
   7   3   1    7.62    0.60
  -8  -3  -1    6.73    0.61
  -8  -3  -1    6.31    0.55
  -8  -3  -1    4.46    0.56
  -8  -3  -1    4.74    0.53
   8   3   1    6.27    0.62
  -9  -3  -1    9.70    0.76
   9   3   1    8.84    0.66
   9   3   1   11.12    0.88
 -10  -3  -1    0.88    0.37
  10   3   1    0.87    0.29
  10   3   1    1.41    0.47
 -11  -3  -1   11.98    0.96
  11   3   1   12.32    1.17
  11   3   1    9.73    0.80
  10  -4  -1    0.25    0.59
 -10   4   1    0.23    0.44
   9  -4  -1    0.29    0.45
  -9   4   1    0.29    0.35
  -9   4   1    0.25    0.40
   8  -4  -1    0.83    0.37
  -8   4   1    0.75    0.34
  -8   4   1    0.18    0.33
   7  -4  -1    3.73    0.49
   7  -4  -1    2.42    0.38
   7  -4  -1    3.43    0.40
  -7   4   1    3.29    0.42
  -7   4   1    3.48    0.40
   6  -4  -1    1.06    0.26
   6  -4  -1    0.77    0.24
   6  -4  -1    0.52    0.24
  -6   4   1    0.81    0.25
  -6   4   1    0.79    0.22
  -6   4   1    0.39    0.28
  -6   4   1    0.68    0.24
   5  -4  -1   22.80    1.27
   5  -4  -1   22.35    1.27
   5  -4  -1   27.41    1.32
  -5   4   1   23.79    1.28
  -5   4   1   23.52    1.26
  -5   4   1   24.08    1.33
  -5   4   1   25.27    1.30
   4  -4  -1   13.36    0.80
   4  -4  -1   16.03    0.80
  -4   4   1   14.96    0.81
  -4   4   1   14.64    0.88
  -4   4   1   15.13    0.83
  -4   4   1   14.84    0.80
   3  -4  -1   33.57    1.65
   3  -4  -1   31.90    1.66
   3  -4  -1   35.88    1.66
  -3   4   1   33.93    1.67
  -3   4   1   33.65    1.68
  -3   4   1   33.29    1.66
  -3   4   1   28.45    1.75
   2  -4  -1   10.29    0.56
   2  -4  -1   10.24    0.54
  -2   4   1   10.52    0.57
  -2   4   1   10.89    0.58
  -2   4   1   11.35    0.57
   1  -4  -1    7.60    0.38
  -1   4   1    5.88    0.42
  -1   4   1    7.24    0.38
  -1   4   1    7.46    0.38
   0   4   1   13.62    0.73
   0   4   1   13.34    0.68
   0   4   1   13.07    0.67
   0   4   1   13.77    0.68
  -1  -4  -1  148.30    7.33
   1   4   1  150.35    7.29
   1   4   1  146.66    7.33
  -2  -4  -1   15.81    0.85
  -2  -4  -1   15.93    0.80
   2   4   1   14.80    0.88
   2   4   1   16.30    0.82
   2   4   1   16.24    0.85
   2   4   1   15.90    0.82
   2   4   1   16.71    0.82
  -3  -4  -1    2.28    0.19
  -3  -4  -1    2.55    0.24
  -3  -4  -1    2.11    0.19
   3   4   1    2.40    0.29
   3   4   1    1.75    0.20
   3   4   1    2.24    0.20
   3   4   1    2.91    0.27
   3   4   1    2.13    0.20
  -4  -4  -1   -0.12    0.11
  -4  -4  -1    0.02    0.11
  -4  -4  -1    0.03    0.10
  -4  -4  -1   -0.06    0.11
   4   4   1    0.11    0.11
   4   4   1    0.18    0.15
   4   4   1    0.17    0.14
   4   4   1   -0.11    0.11
  -5  -4  -1   64.66    3.09
  -5  -4  -1   60.28    3.14
  -5  -4  -1   62.80    3.12
  -5  -4  -1   56.34    3.14
   5   4   1   60.36    3.14
   5   4   1   62.85    3.10
   5   4   1   62.40    3.08
   5   4   1   61.28    3.09
   5   4   1   63.61    3.10
  -6  -4  -1   17.25    0.94
  -6  -4  -1   14.28    0.96
  -6  -4  -1   16.66    0.98
  -6  -4  -1   17.97    0.93
   6   4   1   17.12    0.93
   6   4   1   17.23    1.00
   6   4   1   16.59    0.93
   6   4   1   16.75    0.91
   6   4   1   16.15    0.93
  -7  -4  -1   12.14    0.92
  -7  -4  -1   15.37    0.85
  -7  -4  -1   14.80    0.85
  -7  -4  -1   12.79    0.88
   7   4   1   14.43    0.85
   7   4   1   14.29    0.82
   7   4   1   14.05    0.84
   7   4   1   15.11    0.93
  -8  -4  -1    1.13    0.38
  -8  -4  -1    2.30    0.33
  -8  -4  -1    2.14    0.35
   8   4   1    1.04    0.51
   8   4   1    2.00    0.29
  -9  -4  -1    8.36    0.69
   9   4   1    7.24    0.60
   9   4   1    8.09    0.78
 -10  -4  -1   14.11    0.96
  10   4   1   13.23    1.09
  10   4   1   12.31    0.84
 -11  -4  -1    8.13    0.90
  11   4   1    6.31    1.01
  11   4   1    7.11    0.65
   9  -5  -1    2.97    0.64
  -9   5   1    5.72    0.77
  -9   5   1    4.61    0.61
   8  -5  -1    0.42    0.41
  -8   5   1    0.46    0.37
  -8   5   1    0.83    0.36
   7  -5  -1   17.74    1.23
  -7   5   1   24.42    1.27
  -7   5   1   24.57    1.27
  -7   5   1   19.28    1.36
   6  -5  -1    0.11    0.25
   6  -5  -1   -0.11    0.25
  -6   5   1   -0.29    0.23
  -6   5   1    0.31    0.26
  -6   5   1   -0.18    0.24
  -6   5   1   -0.25    0.30
   5  -5  -1   35.02    1.75
   5  -5  -1   32.24    1.76
  -5   5   1   33.43    1.76
  -5   5   1   36.54    1.80
  -5   5   1   33.03    1.84
  -5   5   1   34.90    1.78
   4  -5  -1    0.22    0.14
   4  -5  -1    0.04    0.15
  -4   5   1    0.44    0.23
  -4   5   1    0.29    0.17
  -4   5   1    0.31    0.18
  -4   5   1    0.16    0.15
   3  -5  -1    4.80    0.35
  -3   5   1    5.70    0.37
  -3   5   1    4.83    0.35
  -3   5   1    5.27    0.37
  -3   5   1    5.77    0.46
   2  -5  -1    4.52    0.30
  -2   5   1    4.79    0.32
  -2   5   1    4.70    0.30
  -2   5   1    4.77    0.30
  -1   5   1   24.47    1.26
  -1   5   1   24.89    1.19
  -1   5   1   20.87    1.19
  -1   5   1   24.06    1.19
   0   5   1   28.52    1.44
   0   5   1   28.78    1.44
   0   5   1   29.77    1.51
   0   5   1   29.03    1.44
  -1  -5  -1    0.58    0.12
   1   5   1    0.78    0.09
   1   5   1    0.54    0.13
  -2  -5  -1    9.94    0.58
   2   5   1   10.09    0.55
   2   5   1   10.45    0.54
   2   5   1   10.21    0.59
   2   5   1    9.60    0.63
   2   5   1   10.14    0.54
  -3  -5  -1   46.07    2.42
  -3  -5  -1   46.26    2.36
   3   5   1   49.77    2.39
   3   5   1   48.96    2.42
   3   5   1   46.51    2.46
   3   5   1   48.92    2.39
   3   5   1   48.06    2.39
  -4  -5  -1   29.03    1.58
  -4  -5  -1   31.47    1.52
  -4  -5  -1   28.94    1.52
   4   5   1   29.75    1.56
   4   5   1   30.27    1.55
   4   5   1   31.74    1.55
   4   5   1   29.77    1.54
   4   5   1   29.96    1.61
  -5  -5  -1    1.67    0.30
  -5  -5  -1    2.26    0.23
  -5  -5  -1    2.00    0.32
  -5  -5  -1    2.16    0.26
   5   5   1    2.12    0.24
   5   5   1    2.32    0.25
  -6  -5  -1    5.34    0.45
  -6  -5  -1    4.96    0.44
  -6  -5  -1    5.20    0.50
  -6  -5  -1    5.81    0.43
   6   5   1    5.39    0.43
   6   5   1    5.51    0.45
   6   5   1    5.42    0.53
   6   5   1    4.73    0.44
   6   5   1    5.23    0.44
  -7  -5  -1    0.02    0.25
  -7  -5  -1    0.02    0.21
  -7  -5  -1    0.04    0.27
  -7  -5  -1    0.24    0.18
   7   5   1    0.23    0.21
   7   5   1    0.09    0.24
   7   5   1    0.13    0.27
   7   5   1    0.61    0.23
   7   5   1    0.10    0.20
  -8  -5  -1   33.01    1.87
  -8  -5  -1   34.13    1.80
  -8  -5  -1   33.76    1.76
   8   5   1   31.95    1.73
   8   5   1   31.26    1.83
  -9  -5  -1    0.20    0.36
   9   5   1    0.01    0.34
   9   5   1    0.12    0.24
 -10  -5  -1    1.31    0.42
  10   5   1    0.94    0.44
  10   5   1    1.15    0.31
 -11  -5  -1   -0.28    0.49
  11   5   1   -0.91    0.46
  -9   6   1    0.80    0.52
   8  -6  -1   14.35    1.25
  -8   6   1   13.13    1.01
  -8   6   1   12.70    0.98
   7  -6  -1    0.56    0.33
  -7   6   1    0.21    0.34
  -7   6   1    0.37    0.35
   6  -6  -1    0.06    0.30
   6  -6  -1    0.08    0.18
   6  -6  -1   -0.04    0.22
  -6   6   1   -0.13    0.41
  -6   6   1    0.09    0.29
  -6   6   1    0.13    0.39
  -6   6   1    0.14    0.29
   5  -6  -1    0.47    0.24
  -5   6   1    0.69    0.24
  -5   6   1    0.78    0.27
  -5   6   1    0.15    0.23
   4  -6  -1   15.81    0.90
  -4   6   1   16.35    0.91
  -4   6   1   16.85    1.03
  -4   6   1   17.44    0.94
  -4   6   1   15.87    0.90
   3  -6  -1    5.66    0.40
  -3   6   1    6.00    0.41
  -3   6   1    6.25    0.43
  -3   6   1    6.53    0.54
  -3   6   1    5.91    0.42
   2  -6  -1   22.89    1.21
  -2   6   1   23.79    1.20
  -2   6   1   24.01    1.21
  -2   6   1   23.37    1.20
  -1   6   1    4.09    0.27
  -1   6   1    3.60    0.26
  -1   6   1    3.31    0.25
  -1   6   1    4.00    0.37
   0   6   1    5.49    0.42
   0   6   1    4.91    0.30
   0   6   1    5.71    0.31
   1   6   1   11.92    0.69
   1   6   1   11.01    0.63
   1   6   1   11.47    0.60
  -2  -6  -1   55.69    2.80
   2   6   1   57.17    2.75
   2   6   1   52.32    2.83
   2   6   1   55.48    2.75
   2   6   1   54.97    2.74
   2   6   1   55.82    2.80
  -3  -6  -1   10.36    0.63
   3   6   1   10.20    0.59
   3   6   1   10.54    0.58
   3   6   1   10.37    0.70
   3   6   1   10.34    0.65
   3   6   1   10.65    0.59
  -4  -6  -1    1.35    0.21
   4   6   1    1.27    0.19
   4   6   1    1.36    0.27
  -5  -6  -1    4.33    0.33
  -5  -6  -1    4.38    0.45
  -5  -6  -1    4.53    0.34
   5   6   1    4.78    0.40
   5   6   1    4.62    0.51
   5   6   1    5.25    0.46
   5   6   1    4.59    0.40
   5   6   1    5.58    0.40
  -6  -6  -1    9.16    0.68
  -6  -6  -1    9.79    0.58
  -6  -6  -1    8.00    0.61
   6   6   1    9.64    0.65
   6   6   1   10.21    0.61
   6   6   1   10.46    0.66
   6   6   1    8.76    0.63
   6   6   1   10.00    0.74
  -7  -6  -1    7.16    0.68
  -7  -6  -1    7.73    0.55
  -7  -6  -1    7.31    0.66
   7   6   1    8.30    0.63
   7   6   1    7.82    0.62
   7   6   1    8.84    0.62
   7   6   1    7.58    0.57
   7   6   1    7.36    0.90
  -8  -6  -1    9.05    0.84
  -8  -6  -1    9.52    0.68
  -8  -6  -1    7.37    0.92
   8   6   1   10.52    0.84
   8   6   1   10.09    0.68
  -9  -6  -1    1.32    0.37
  -9  -6  -1    1.39    0.57
   9   6   1    1.88    0.43
   9   6   1    1.37    0.32
 -10  -6  -1    0.88    0.43
  10   6   1    1.39    0.33
  10   6   1    0.93    0.45
  -8   7   1    0.88    0.51
  -8   7   1    0.88    0.52
  -7   7   1   -0.04    0.41
   6  -7  -1    1.74    0.40
  -6   7   1    1.51    0.55
  -6   7   1    2.28    0.39
   5  -7  -1    4.15    0.51
  -5   7   1    5.25    0.80
  -5   7   1    3.57    0.41
  -5   7   1    4.65    0.48
  -5   7   1    5.03    0.54
   4  -7  -1    0.84    0.22
  -4   7   1    0.90    0.23
  -4   7   1    0.79    0.24
  -4   7   1    0.47    0.23
   3  -7  -1   11.74    0.74
  -3   7   1   12.88    0.72
  -3   7   1   12.67    0.73
  -3   7   1   13.69    0.75
  -2   7   1    0.16    0.14
  -2   7   1    0.36    0.16
  -2   7   1    0.07    0.22
  -2   7   1    0.30    0.16
  -1   7   1   12.78    0.69
  -1   7   1   12.55    0.81
  -1   7   1   13.31    0.70
  -1   7   1   12.82    0.68
   0   7   1    6.27    0.37
   0   7   1    5.88    0.51
   0   7   1    6.32    0.38
   1   7   1   14.99    0.88
   1   7   1   14.23    0.78
   1   7   1   15.33    0.78
   1   7   1   15.13    0.78
  -2  -7  -1    0.13    0.16
   2   7   1    0.33    0.15
   2   7   1    0.26    0.12
   2   7   1    0.25    0.23
   2   7   1    0.43    0.20
  -3  -7  -1   -0.10    0.17
   3   7   1    0.15    0.20
   3   7   1   -0.04    0.14
   3   7   1    0.14    0.14
   3   7   1    0.07    0.14
   3   7   1    0.24    0.23
  -4  -7  -1    0.31    0.19
   4   7   1   -0.03    0.18
   4   7   1    0.46    0.19
   4   7   1    0.24    0.25
   4   7   1    0.52    0.18
   4   7   1    0.42    0.22
  -5  -7  -1   11.68    0.79
   5   7   1   12.03    0.75
   5   7   1   12.95    0.74
   5   7   1   12.70    0.79
   5   7   1   12.15    0.86
   5   7   1   12.82    0.76
  -6  -7  -1   -0.14    0.13
  -6  -7  -1    0.20    0.16
  -6  -7  -1    0.33    0.27
   6   7   1   -0.15    0.21
   6   7   1   -0.02    0.26
   6   7   1   -0.18    0.25
   6   7   1    0.11    0.24
   6   7   1    0.06    0.28
  -7  -7  -1    4.43    0.51
  -7  -7  -1    4.08    0.49
  -7  -7  -1    4.18    0.40
   7   7   1    4.16    0.58
   7   7   1    6.04    0.66
  -8  -7  -1   -0.32    0.41
  -8  -7  -1    0.03    0.25
   8   7   1   -0.51    0.29
   8   7   1   -0.19    0.27
   8   7   1   -0.08    0.35
  -9  -7  -1    8.33    0.68
   9   7   1    7.54    0.67
   9   7   1    6.80    0.83
 -10  -7  -1    0.05    0.53
  10   7   1    0.08    0.32
  -7   8   1    2.02    0.52
  -7   8   1    2.14    0.54
  -6   8   1    0.04    0.40
  -6   8   1   -0.63    0.38
   5  -8  -1    1.53    0.40
  -5   8   1    1.14    0.34
  -5   8   1    1.45    0.37
  -5   8   1    0.51    0.39
   4  -8  -1   -0.28    0.28
  -4   8   1    0.30    0.25
  -4   8   1    1.26    0.44
  -4   8   1    0.23    0.29
  -4   8   1   -0.19    0.28
  -3   8   1    0.23    0.32
  -3   8   1    0.46    0.24
  -3   8   1    0.42    0.24
  -3   8   1    0.13    0.20
  -2   8   1    7.05    0.62
  -2   8   1    6.85    0.48
  -2   8   1    7.68    0.46
  -2   8   1    6.95    0.50
  -1   8   1   11.36    0.78
  -1   8   1   11.62    0.64
  -1   8   1   10.87    0.63
  -1   8   1   10.42    0.60
   0   8   1    3.32    0.30
   0   8   1    3.69    0.49
   0   8   1    3.42    0.30
   1   8   1    1.04    0.26
   1   8   1    0.97    0.16
   1   8   1    1.17    0.18
   1   8   1    1.14    0.15
   2   8   1    2.16    0.30
   2   8   1    1.99    0.24
   2   8   1    1.95    0.31
   2   8   1    1.98    0.21
   2   8   1    1.66    0.34
  -3  -8  -1    4.79    0.49
   3   8   1    5.42    0.53
   3   8   1    4.91    0.38
   3   8   1    5.16    0.41
   3   8   1    5.31    0.60
  -4  -8  -1    3.98    0.51
   4   8   1    4.68    0.44
   4   8   1    5.57    0.43
   4   8   1    5.69    0.55
   4   8   1    5.06    0.62
   4   8   1    5.25    0.45
  -5  -8  -1    2.06    0.34
   5   8   1    2.26    0.33
   5   8   1    2.37    0.33
   5   8   1    1.98    0.43
   5   8   1    2.60    0.31
   5   8   1    2.19    0.30
  -6  -8  -1    0.37    0.31
   6   8   1    1.05    0.34
   6   8   1    0.53    0.32
   6   8   1    0.77    0.30
   6   8   1    0.98    0.27
   6   8   1    0.64    0.33
  -7  -8  -1    3.58    0.52
   7   8   1    4.44    0.68
   7   8   1    4.16    0.59
   7   8   1    4.39    0.51
   8   8   1    5.58    0.76
   8   8   1    4.85    0.83
   8   8   1    5.48    0.62
   9   8   1    1.07    0.45
   9   8   1    1.40    0.37
  10   8   1    4.57    0.81
  -6   9   1    1.05    0.52
  -6   9   1    1.02    0.47
  -5   9   1    0.08    0.37
  -5   9   1   -1.20    0.61
  -5   9   1    0.29    0.42
  -4   9   1    0.11    0.40
  -4   9   1    0.13    0.37
  -4   9   1    0.73    0.31
  -4   9   1    0.38    0.35
  -3   9   1    1.81    0.33
  -3   9   1    2.17    0.28
  -3   9   1    1.76    0.31
  -3   9   1    1.28    0.38
  -2   9   1    7.60    0.56
  -2   9   1    7.28    0.57
  -2   9   1    7.97    0.50
  -2   9   1    8.67    0.76
  -1   9   1    0.22    0.18
  -1   9   1    0.33    0.32
  -1   9   1    0.38    0.20
  -1   9   1    0.15    0.29
   0   9   1    0.07    0.29
   0   9   1    0.00    0.18
   0   9   1    0.08    0.19
   1   9   1    2.26    0.24
   1   9   1    1.99    0.36
   1   9   1    1.72    0.41
   1   9   1    1.81    0.20
   1   9   1    2.10    0.24
   1   9   1    2.26    0.25
   2   9   1   17.13    0.90
   2   9   1   16.51    0.91
   2   9   1   16.91    0.94
   2   9   1   16.85    1.04
   2   9   1   16.84    1.14
   2   9   1   17.24    1.06
   3   9   1    6.95    0.73
   3   9   1    6.32    0.51
   3   9   1    7.14    0.47
   3   9   1    6.72    0.67
   3   9   1    6.32    0.50
  -4  -9  -1   10.44    0.85
   4   9   1   13.17    0.98
   4   9   1   12.38    0.87
   4   9   1   13.06    0.76
   4   9   1   12.09    0.76
  -5  -9  -1   -0.42    0.33
   5   9   1   -0.14    0.35
   5   9   1    0.32    0.30
   5   9   1    0.32    0.30
   5   9   1   -0.05    0.27
   6   9   1   24.04    1.52
   6   9   1   26.46    1.39
   6   9   1   23.85    1.42
   6   9   1   25.08    1.44
   7   9   1    1.24    0.40
   7   9   1    1.51    0.36
   7   9   1    1.18    0.44
   8   9   1    2.59    0.43
   8   9   1    2.72    0.47
   8   9   1    1.96    0.52
   9   9   1    3.69    0.51
   9   9   1    3.69    0.59
  -5  10   1    1.28    0.54
  -5  10   1    2.16    0.54
  -4  10   1    6.29    0.87
  -4  10   1    6.12    0.85
  -4  10   1    5.90    0.74
  -3  10   1   -0.01    0.34
  -3  10   1   -0.56    0.43
  -3  10   1    0.34    0.27
  -3  10   1    0.68    0.43
  -2  10   1    2.24    0.46
  -2  10   1    2.37    0.32
  -2  10   1    2.13    0.33
  -2  10   1    1.86    0.38
  -1  10   1    0.04    0.30
  -1  10   1    0.31    0.24
  -1  10   1   -0.15    0.36
   0  10   1    0.91    0.25
   0  10   1    1.00    0.30
   0  10   1    1.22    0.42
   1  10   1   15.46    1.56
   1  10   1   15.18    0.86
   1  10   1   15.17    1.05
   1  10   1   12.80    0.85
   2  10   1    1.11    0.21
   2  10   1    1.19    0.38
   2  10   1    1.00    0.28
   2  10   1    0.82    0.21
   2  10   1    0.82    0.26
   2  10   1    1.72    0.45
   3  10   1    2.22    0.32
   3  10   1    2.24    0.50
   3  10   1    2.80    0.38
   3  10   1    2.57    0.32
   3  10   1    2.43    0.34
   3  10   1    2.47    0.46
   4  10   1    0.02    0.37
   4  10   1   -0.01    0.42
   4  10   1    0.06    0.32
   4  10   1   -0.30    0.30
   4  10   1    0.06    0.29
   5  10   1   14.28    0.94
   5  10   1   13.59    1.11
   5  10   1   13.64    0.97
   5  10   1   14.17    1.03
   5  10   1   14.20    0.92
   6  10   1    0.32    0.46
   6  10   1    0.22    0.42
   6  10   1    0.85    0.38
   7  10   1    0.94    0.45
   7  10   1    1.37    0.41
   7  10   1    0.12    0.43
   8  10   1    1.02    0.48
   8  10   1   -0.37    0.47
   8  10   1    0.00    0.42
  -4  11   1    2.10    0.62
  -4  11   1    0.00    0.52
  -3  11   1    2.02    0.46
  -3  11   1    2.82    0.61
  -2  11   1   -0.45    0.46
  -2  11   1    0.31    0.37
  -1  11   1    4.61    0.57
  -1  11   1    6.33    0.90
   0  11   1    6.64    0.89
   0  11   1    8.53    0.99
   0  11   1    7.22    0.64
   1  11   1    0.73    0.35
   1  11   1    0.78    0.45
   1  11   1    0.88    0.52
   2  11   1    7.39    0.97
   2  11   1    6.63    0.68
   2  11   1    8.30    0.90
   3  11   1   13.30    1.16
   3  11   1   11.52    0.75
   3  11   1   12.91    1.09
   3  11   1   13.05    0.86
   4  11   1    6.62    0.96
   4  11   1    6.06    0.71
   4  11   1    6.46    0.90
   5  11   1   -0.15    0.50
   5  11   1    0.65    0.45
   5  11   1    1.21    0.42
   6  11   1    0.38    0.44
   6  11   1    0.28    0.48
   6  11   1   -0.57    0.46
   7  11   1    3.79    0.55
   7  11   1    2.69    0.59
   7  11   1    2.65    0.60
  -2  12   1    2.71    0.69
  -1  12   1   -0.39    0.52
   0  12   1    0.22    0.56
   0  12   1    0.90    0.65
   1  12   1    6.93    1.12
   1  12   1    4.39    0.70
   2  12   1    6.59    1.12
   2  12   1    8.28    1.09
   3  12   1   -0.04    0.60
   3  12   1   -0.73    0.64
   3  12   1    0.01    0.58
   4  12   1    1.42    0.61
   4  12   1    0.26    0.62
   4  12   1    1.44    0.54
   5  12   1   -0.71    0.60
   5  12   1   -0.15    0.55
   4  12  -2    0.76    0.65
   4  12  -2   -0.91    0.66
   3  12  -2    1.11    0.64
   3  12  -2    1.01    0.69
   2  12  -2    0.08    0.68
   2  12  -2    1.54    0.67
   1  12  -2    0.73    0.66
   1  12  -2    0.98    0.70
   0  12  -2   -1.36    0.62
   0  12  -2    0.12    0.69
  -1  12  -2    2.89    0.83
  -1  12  -2    2.99    0.77
   6  11  -2    0.19    0.59
   6  11  -2    0.20    0.57
   5  11  -2    6.17    0.73
   5  11  -2    7.10    0.99
   5  11  -2    6.91    0.88
   4  11  -2    0.43    0.48
   4  11  -2    0.93    0.47
   4  11  -2    0.38    0.35
   4  11  -2   -0.21    0.52
   3  11  -2    1.74    0.53
   3  11  -2    1.89    0.37
   3  11  -2    1.95    0.58
   3  11  -2    0.96    0.44
   2  11  -2    1.09    0.90
   2  11  -2    0.40    0.55
   2  11  -2   -0.49    0.37
   1  11  -2    1.86    0.38
   1  11  -2    1.73    0.57
   1  11  -2    1.35    0.53
   0  11  -2    6.55    1.00
   0  11  -2    5.59    0.71
   0  11  -2    7.84    0.68
  -1  11  -2   -0.17    0.44
  -1  11  -2    0.54    0.59
  -1  11  -2   -0.30    0.52
  -2  11  -2    0.54    0.58
  -2  11  -2    0.56    0.64
  -3  11  -2    2.16    0.68
   8  10  -2   11.49    0.94
   8  10  -2    8.91    1.06
   7  10  -2    3.05    0.60
   7  10  -2    3.78    0.48
   7  10  -2    3.70    0.48
   6  10  -2    2.62    0.40
   6  10  -2    2.64    0.45
   6  10  -2    2.40    0.57
   5  10  -2    1.75    0.48
   5  10  -2    1.21    0.49
   5  10  -2    1.58    0.40
   5  10  -2    1.91    0.35
   4  10  -2    6.59    0.86
   4  10  -2    7.34    0.77
   4  10  -2    7.40    0.69
   4  10  -2    7.06    0.64
   4  10  -2    7.05    0.58
   3  10  -2    1.19    0.41
   3  10  -2    1.45    0.38
   3  10  -2    1.04    0.46
   3  10  -2    1.33    0.37
   3  10  -2    0.94    0.26
   2  10  -2   10.87    0.77
   2  10  -2   11.58    0.90
   2  10  -2   11.52    1.46
   2  10  -2   10.50    0.67
   1  10  -2    0.04    0.38
   1  10  -2    0.20    0.29
   1  10  -2    0.28    0.42
   0  10  -2    0.49    0.30
   0  10  -2    0.74    0.46
   0  10  -2    0.49    0.42
  -1  10  -2    3.25    0.54
  -1  10  -2    3.13    0.56
  -1  10  -2    2.66    0.42
  -1  10  -2    2.64    0.29
  -1  10  -2    3.62    0.40
  -2  10  -2   12.50    0.81
  -2  10  -2   12.62    1.09
  -2  10  -2   13.46    0.86
  -3  10  -2    1.20    0.36
  -3  10  -2    0.32    0.50
  -3  10  -2    0.76    0.40
  -4  10  -2   -0.06    0.55
  -4  10  -2    0.52    0.47
  -4  10  -2    0.11    0.42
  -5  10  -2    0.64    0.62
  -5  10  -2    0.88    0.65
   9   9  -2    3.24    0.57
   8   9  -2    5.64    0.68
   8   9  -2    4.91    0.65
   7   9  -2    0.18    0.41
   7   9  -2    0.99    0.34
   7   9  -2    1.01    0.35
   6   9  -2    6.53    0.80
   6   9  -2    6.86    0.76
   6   9  -2    6.80    0.82
   6   9  -2    7.58    0.67
   6   9  -2    6.48    0.61
  -6  -9   2    6.82    0.77
   5   9  -2    6.66    0.67
   5   9  -2    6.64    0.63
   5   9  -2    7.23    0.56
   5   9  -2    7.63    0.78
   5   9  -2    7.01    0.66
   4   9  -2    0.06    0.29
   4   9  -2    0.17    0.22
   4   9  -2   -0.01    0.36
   4   9  -2    0.05    0.24
   4   9  -2    0.28    0.28
   3   9  -2   17.40    1.14
   3   9  -2   15.84    0.93
   3   9  -2   17.63    1.06
   3   9  -2   17.33    0.93
   2   9  -2    0.64    0.31
   2   9  -2    0.69    0.17
   2   9  -2    0.53    0.19
   2   9  -2    0.54    0.29
   2   9  -2    0.89    0.37
   1   9  -2   12.14    0.88
   1   9  -2   12.63    0.78
   1   9  -2   13.19    0.96
   0   9  -2    2.80    0.32
   0   9  -2    2.45    0.41
   0   9  -2    2.74    0.44
  -1   9  -2    9.90    0.64
  -1   9  -2   11.70    0.90
  -1   9  -2   11.80    0.72
  -1   9  -2   11.34    0.63
  -2   9  -2   -0.09    0.39
  -2   9  -2    0.34    0.23
  -2   9  -2    0.28    0.39
  -2   9  -2    0.33    0.28
  -3   9  -2   -0.09    0.40
  -3   9  -2    0.13    0.30
  -3   9  -2    1.01    0.53
  -3   9  -2    0.30    0.28
  -3   9  -2   -0.34    0.32
  -4   9  -2    0.71    0.39
  -4   9  -2    0.26    0.35
  -4   9  -2    1.41    0.61
  -5   9  -2    3.93    0.53
  -5   9  -2    3.70    0.53
  -6   9  -2    2.54    0.58
  -6   9  -2    1.15    0.54
   9   8  -2   -0.22    0.39
   9   8  -2    0.26    0.36
   8   8  -2    0.67    0.40
   8   8  -2    0.81    0.32
   7   8  -2   25.72    1.54
   7   8  -2   25.41    1.41
   7   8  -2   26.74    1.39
  -7  -8   2   23.09    1.46
   6   8  -2    1.95    0.39
   6   8  -2    2.13    0.38
   6   8  -2    2.13    0.30
   6   8  -2    2.31    0.31
   6   8  -2    2.14    0.43
  -6  -8   2    1.45    0.35
   5   8  -2    1.03    0.27
   5   8  -2    1.02    0.29
   5   8  -2    0.77    0.30
   5   8  -2    0.86    0.24
  -5  -8   2    1.10    0.29
   4   8  -2    3.38    0.37
   4   8  -2    3.78    0.43
   4   8  -2    4.04    0.49
   4   8  -2    3.16    0.39
   4   8  -2    3.29    0.56
   3   8  -2    9.44    0.74
   3   8  -2    8.72    0.54
   3   8  -2    8.50    0.54
   3   8  -2    9.34    0.67
   2   8  -2   11.57    0.85
   2   8  -2   12.03    0.78
   1   8  -2   23.49    1.38
   1   8  -2   23.99    1.35
   1   8  -2   24.33    1.28
   0   8  -2    1.22    0.32
   0   8  -2    1.29    0.23
   0   8  -2    1.49    0.29
  -1   8  -2    1.20    0.17
  -1   8  -2    1.56    0.24
  -1   8  -2    1.32    0.32
  -2   8  -2    2.81    0.32
  -2   8  -2    3.02    0.32
  -2   8  -2    2.31    0.31
  -2   8  -2    2.47    0.38
  -3   8  -2    1.42    0.39
  -3   8  -2    0.62    0.24
  -3   8  -2    0.79    0.24
  -3   8  -2    0.66    0.27
  -4   8  -2   13.97    0.89
  -4   8  -2   14.88    0.92
  -4   8  -2   15.08    0.90
  -4   8  -2   13.11    1.09
  -5   8  -2    0.71    0.59
  -5   8  -2    0.32    0.36
  -5   8  -2   -0.40    0.39
  -5   8  -2    0.50    0.38
   5  -8   2   -0.12    0.42
  -6   8  -2   -0.61    0.42
  -6   8  -2    0.09    0.43
  -7   8  -2    0.26    0.54
  -7   8  -2    0.38    0.51
  10   7  -2    4.26    0.75
  10   7  -2    5.08    0.62
   9   7  -2    2.51    0.47
   9   7  -2    3.06    0.42
   8   7  -2   15.62    1.10
   8   7  -2   16.50    0.98
  -8  -7   2   15.91    1.11
   7   7  -2   -0.14    0.24
   7   7  -2    0.14    0.32
  -7  -7   2    0.04    0.29
   6   7  -2    0.70    0.42
   6   7  -2    0.01    0.27
   6   7  -2    0.21    0.22
   6   7  -2    0.53    0.22
   6   7  -2    0.57    0.28
  -6  -7   2    0.49    0.24
   5   7  -2    1.69    0.27
   5   7  -2    1.66    0.33
   5   7  -2    1.90    0.27
   5   7  -2    1.68    0.24
   5   7  -2    1.65    0.28
  -5  -7   2    1.32    0.25
   4   7  -2   23.89    1.25
   4   7  -2   23.46    1.23
   4   7  -2   23.90    1.28
   4   7  -2   24.01    1.35
   4   7  -2   24.05    1.28
  -4  -7   2   23.19    1.28
   3   7  -2    5.09    0.36
   3   7  -2    5.36    0.45
   3   7  -2    4.79    0.35
   3   7  -2    5.20    0.52
   2   7  -2   23.60    1.27
   2   7  -2   23.50    1.32
   2   7  -2   22.73    1.18
   2   7  -2   24.05    1.18
   1   7  -2    1.70    0.29
   1   7  -2    1.37    0.24
   1   7  -2    1.68    0.23
   0   7  -2    5.14    0.40
   0   7  -2    4.72    0.49
   0   7  -2    5.93    0.49
  -1   7  -2    4.58    0.50
  -1   7  -2    5.36    0.40
  -2   7  -2    7.57    0.47
  -2   7  -2    8.04    0.48
  -2   7  -2    8.46    0.55
  -3   7  -2    0.58    0.24
  -3   7  -2    0.47    0.20
  -3   7  -2    1.12    0.32
  -3   7  -2    0.62    0.21
  -4   7  -2    0.57    0.26
  -4   7  -2    0.40    0.25
  -4   7  -2    0.82    0.36
  -4   7  -2    0.43    0.27
   4  -7   2    0.33    0.30
  -5   7  -2    5.89    0.79
  -5   7  -2    5.24    0.57
  -5   7  -2    3.80    0.55
  -5   7  -2    5.97    0.59
   5  -7   2    5.25    0.64
  -6   7  -2    3.81    0.48
  -6   7  -2    4.40    0.50
  -7   7  -2    0.25    0.43
  -7   7  -2    0.50    0.45
  -8   7  -2    1.00    0.57
  -8   7  -2    1.18    0.58
  10   6  -2    4.18    0.46
  10   6  -2    3.56    0.52
   9   6  -2    0.17    0.28
   9   6  -2    0.20    0.35
  -9  -6   2    0.27    0.33
   8   6  -2    0.41    0.31
   8   6  -2    0.52    0.26
  -8  -6   2    0.53    0.40
  -8  -6   2    0.61    0.26
  -8  -6   2    0.46    0.34
   7   6  -2    1.34    0.34
   7   6  -2    1.01    0.32
   7   6  -2    0.66    0.33
   7   6  -2    1.37    0.25
  -7  -6   2    0.87    0.28
  -7  -6   2    1.50    0.29
  -7  -6   2    1.04    0.21
   6   6  -2    0.16    0.19
   6   6  -2    0.36    0.26
   6   6  -2   -0.14    0.21
   6   6  -2    0.23    0.18
   6   6  -2    0.31    0.23
  -6  -6   2    0.20    0.21
   5   6  -2   14.09    0.87
   5   6  -2   13.25    0.78
   5   6  -2   13.75    0.76
   5   6  -2   12.76    0.74
   5   6  -2   13.94    0.79
  -5  -6   2   11.59    0.85
   4   6  -2   19.48    1.03
   4   6  -2   20.19    1.08
   4   6  -2   20.51    1.06
   4   6  -2   19.69    1.13
  -4  -6   2   18.98    1.06
   3   6  -2    0.20    0.15
   3   6  -2   -0.05    0.11
   3   6  -2   -0.02    0.19
   3   6  -2    0.06    0.11
  -3  -6   2   -0.03    0.13
   2   6  -2    0.65    0.17
   2   6  -2    0.68    0.10
   2   6  -2    0.83    0.10
   2   6  -2    0.80    0.21
   1   6  -2   13.35    0.76
   1   6  -2   13.19    0.79
   0   6  -2    3.52    0.30
   0   6  -2    3.21    0.34
  -1   6  -2   21.59    1.13
  -2   6  -2    0.73    0.14
  -2   6  -2    0.98    0.18
  -2   6  -2    0.90    0.13
  -3   6  -2    6.19    0.44
  -3   6  -2    7.16    0.56
  -3   6  -2    6.91    0.43
  -3   6  -2    6.64    0.48
   3  -6   2    5.46    0.48
  -4   6  -2    0.40    0.24
  -4   6  -2    0.48    0.30
  -4   6  -2    0.68    0.21
  -4   6  -2    0.53    0.21
   4  -6   2    0.66    0.22
  -5   6  -2   16.64    1.01
  -5   6  -2   18.50    1.06
  -5   6  -2   18.76    1.05
  -5   6  -2   18.09    1.11
  -6   6  -2   -0.37    0.32
  -6   6  -2    0.19    0.32
  -6   6  -2    0.60    0.32
  -6   6  -2   -0.73    0.39
  -7   6  -2    4.02    0.50
  -7   6  -2    4.20    0.51
  -8   6  -2    0.54    0.47
  -8   6  -2    0.11    0.44
  10   5  -2    1.17    0.32
  10   5  -2    1.60    0.44
 -10  -5   2    0.90    0.43
   9   5  -2    0.02    0.24
   9   5  -2   -0.23    0.31
  -9  -5   2    0.76    0.50
  -9  -5   2   -0.41    0.30
  -9  -5   2   -0.06    0.45
   8   5  -2    0.07    0.29
   8   5  -2   -0.15    0.22
  -8  -5   2    0.08    0.35
  -8  -5   2   -0.13    0.25
  -8  -5   2   -0.44    0.31
   7   5  -2   12.01    0.79
   7   5  -2   12.17    0.74
   7   5  -2   12.43    0.86
   7   5  -2   11.54    0.79
  -7  -5   2   11.69    0.79
  -7  -5   2   12.57    0.73
  -7  -5   2   12.67    0.80
   6   5  -2    3.85    0.41
   6   5  -2    4.21    0.50
   6   5  -2    3.96    0.36
   6   5  -2    3.51    0.39
  -6  -5   2    3.75    0.33
  -6  -5   2    3.46    0.38
  -6  -5   2    3.84    0.39
   5   5  -2   27.26    1.45
   5   5  -2   26.46    1.36
   5   5  -2   27.20    1.39
   5   5  -2   26.80    1.40
   5   5  -2   27.74    1.36
  -5  -5   2   25.70    1.38
  -5  -5   2   26.13    1.34
  -5  -5   2   25.48    1.33
  -5  -5   2   24.25    1.45
   4   5  -2    1.13    0.23
   4   5  -2    0.93    0.16
   4   5  -2    1.16    0.17
   4   5  -2    0.88    0.17
   4   5  -2    0.61    0.14
  -4  -5   2    0.63    0.18
  -4  -5   2    0.81    0.15
   3   5  -2   19.31    0.98
   3   5  -2   19.74    1.01
   3   5  -2   19.05    1.06
   3   5  -2   18.47    0.97
  -3  -5   2   18.72    1.00
   2   5  -2    1.31    0.16
   2   5  -2    1.04    0.12
   2   5  -2    1.16    0.13
   2   5  -2    1.15    0.19
   1   5  -2    8.80    0.56
   1   5  -2    9.33    0.54
   0   5  -2    8.72    0.53
   0   5  -2    8.53    0.50
  -1   5  -2    7.61    0.45
  -2   5  -2    1.14    0.16
  -2   5  -2    0.92    0.12
  -2   5  -2    1.04    0.13
   2  -5   2    0.93    0.17
  -3   5  -2    9.22    0.53
  -3   5  -2    9.47    0.55
  -3   5  -2    9.69    0.62
  -3   5  -2    9.12    0.57
   3  -5   2    9.42    0.57
  -4   5  -2   12.73    0.79
  -4   5  -2   12.39    0.74
  -4   5  -2   12.69    0.71
  -4   5  -2   12.80    0.73
   4  -5   2   11.52    0.73
  -5   5  -2    3.18    0.38
  -5   5  -2    3.84    0.42
  -5   5  -2    3.89    0.51
  -5   5  -2    3.98    0.44
   5  -5   2    3.83    0.44
  -6   5  -2    0.05    0.28
  -6   5  -2   -0.16    0.25
  -6   5  -2   -0.02    0.25
   6  -5   2    0.41    0.29
  -7   5  -2    4.18    0.49
  -7   5  -2    4.14    0.58
   7  -5   2    3.79    0.42
   7  -5   2    4.25    0.49
  -8   5  -2    8.99    0.81
  -8   5  -2    8.75    0.82
   8  -5   2    9.08    0.76
  -9   5  -2    1.87    0.52
  -9   5  -2    1.62    0.52
  11   4  -2    0.22    0.31
  11   4  -2    0.12    0.45
 -11  -4   2    0.54    0.49
  10   4  -2    2.35    0.47
  10   4  -2    3.09    0.38
 -10  -4   2    3.89    0.49
   9   4  -2    3.76    0.51
   9   4  -2    3.26    0.44
  -9  -4   2    4.18    0.57
   8   4  -2   16.02    0.95
   8   4  -2   15.24    1.05
  -8  -4   2   16.88    1.08
  -8  -4   2   18.58    1.04
  -8  -4   2   16.08    0.99
   7   4  -2   13.25    0.82
   7   4  -2   13.02    0.88
   7   4  -2   12.38    0.82
   7   4  -2   13.82    0.80
  -7  -4   2   13.39    0.81
  -7  -4   2   13.88    0.87
  -7  -4   2   15.08    0.83
   6   4  -2   10.19    0.67
   6   4  -2   10.98    0.74
   6   4  -2   10.93    0.68
   6   4  -2   11.67    0.65
  -6  -4   2   12.21    0.68
  -6  -4   2   11.54    0.66
  -6  -4   2   10.12    0.76
  -6  -4   2   11.35    0.69
   5   4  -2    1.59    0.22
   5   4  -2    1.20    0.20
   5   4  -2    1.56    0.19
   5   4  -2    1.76    0.24
   5   4  -2    1.62    0.26
  -5  -4   2    1.39    0.19
  -5  -4   2    1.36    0.19
  -5  -4   2    1.38    0.18
  -5  -4   2    1.59    0.25
   4   4  -2   20.63    1.13
   4   4  -2   19.85    1.06
   4   4  -2   21.26    1.09
   4   4  -2   21.13    1.08
   4   4  -2   21.50    1.06
  -4  -4   2   19.95    1.04
  -4  -4   2   20.56    1.07
  -4  -4   2   20.62    1.14
  -4  -4   2   19.80    1.05
   3   4  -2    1.51    0.17
   3   4  -2    1.96    0.20
   3   4  -2    1.74    0.27
   3   4  -2    1.73    0.18
  -3  -4   2    1.73    0.19
  -3  -4   2    1.44    0.27
   2   4  -2   84.46    4.09
   2   4  -2   82.32    4.15
   2   4  -2   86.29    4.12
   2   4  -2   84.07    4.09
  -2  -4   2   76.07    4.15
  -2  -4   2   85.89    4.12
   1   4  -2    2.60    0.25
   1   4  -2    3.03    0.23
   0   4  -2   17.02    0.89
  -1   4  -2    7.74    0.44
  -2   4  -2  399.07   19.72
  -2   4  -2  395.42   19.75
  -2   4  -2  402.97   19.74
   2  -4   2  412.14   19.75
  -3   4  -2    3.28    0.29
  -3   4  -2    2.83    0.24
  -3   4  -2    3.14    0.32
  -3   4  -2    3.06    0.25
  -4   4  -2   -0.11    0.16
  -4   4  -2    0.40    0.19
  -4   4  -2   -0.12    0.13
  -4   4  -2    0.00    0.14
   4  -4   2    0.09    0.15
   4  -4   2    0.18    0.08
  -5   4  -2    0.11    0.19
  -5   4  -2   -0.02    0.20
  -5   4  -2   -0.17    0.21
  -5   4  -2    0.18    0.18
   5  -4   2    0.11    0.13
   5  -4   2    0.19    0.22
   5  -4   2    0.02    0.16
  -6   4  -2   25.02    1.42
  -6   4  -2   26.72    1.41
  -6   4  -2   26.00    1.38
  -6   4  -2   27.24    1.42
   6  -4   2   24.70    1.41
   6  -4   2   25.80    1.35
  -7   4  -2   10.70    0.74
  -7   4  -2   10.50    0.74
  -7   4  -2    8.56    0.79
   7  -4   2    9.54    0.66
  -8   4  -2    1.50    0.37
  -8   4  -2    1.67    0.38
  -8   4  -2    0.73    0.48
   8  -4   2    1.06    0.37
   8  -4   2    1.03    0.39
  -9   4  -2    0.14    0.42
  -9   4  -2    0.90    0.42
   9  -4   2    0.36    0.46
 -10   4  -2    2.21    0.57
  11   3  -2    0.01    0.30
  11   3  -2    0.49    0.47
 -11  -3   2    0.85    0.46
  10   3  -2    5.67    0.56
  10   3  -2    5.75    0.79
 -10  -3   2    5.89    0.75
   9   3  -2   10.46    0.70
   9   3  -2   11.10    0.87
  -9  -3   2    9.23    0.78
  -9  -3   2    9.62    0.93
   8   3  -2    5.99    0.61
   8   3  -2    6.83    0.64
  -8  -3   2    5.14    0.55
  -8  -3   2    6.05    0.57
  -8  -3   2    5.15    0.64
   7   3  -2    7.84    0.52
   7   3  -2    7.29    0.55
   7   3  -2    7.49    0.54
   7   3  -2    8.64    0.64
  -7  -3   2    7.59    0.57
  -7  -3   2    8.14    0.63
  -7  -3   2    7.98    0.55
   6   3  -2   58.24    2.75
   6   3  -2   52.09    2.77
   6   3  -2   51.87    2.77
   6   3  -2   54.53    2.80
  -6  -3   2   52.02    2.83
  -6  -3   2   53.43    2.76
  -6  -3   2   58.71    2.75
  -6  -3   2   55.48    2.79
   5   3  -2   42.30    2.18
   5   3  -2   42.56    2.21
   5   3  -2   44.59    2.16
   5   3  -2   41.67    2.19
  -5  -3   2   44.33    2.16
  -5  -3   2   41.67    2.24
  -5  -3   2   42.46    2.17
  -5  -3   2   43.70    2.18
   4   3  -2   26.98    1.44
   4   3  -2   28.47    1.50
   4   3  -2   28.71    1.46
   4   3  -2   28.35    1.44
   4   3  -2   29.17    1.47
  -4  -3   2   29.95    1.45
  -4  -3   2   28.42    1.46
  -4  -3   2   29.13    1.45
  -4  -3   2   28.09    1.52
   3   3  -2   27.58    1.35
   3   3  -2   25.66    1.35
   3   3  -2   27.62    1.40
   3   3  -2   27.31    1.36
  -3  -3   2   26.93    1.36
  -3  -3   2   27.70    1.37
  -3  -3   2   26.75    1.34
  -3  -3   2   25.63    1.41
   2   3  -2    4.23    0.30
   2   3  -2    4.42    0.25
   2   3  -2    4.06    0.24
   2   3  -2    4.51    0.26
  -2  -3   2    3.97    0.30
  -2  -3   2    4.29    0.25
   1   3  -2   39.22    2.09
   1   3  -2   44.12    2.07
   0   3  -2   18.38    0.94
  -1   3  -2   10.56    0.57
   1  -3   2   10.65    0.57
  -2   3  -2    1.85    0.21
  -2   3  -2    2.54    0.20
  -2   3  -2    2.28    0.16
  -2   3  -2    2.37    0.19
   2  -3   2    2.29    0.20
  -3   3  -2   39.61    2.02
  -3   3  -2   39.84    2.04
  -3   3  -2   40.71    2.01
  -3   3  -2   41.59    2.04
   3  -3   2   39.77    2.00
   3  -3   2   40.59    2.03
  -4   3  -2    1.59    0.21
  -4   3  -2    1.88    0.28
  -4   3  -2    1.49    0.20
  -4   3  -2    1.69    0.20
   4  -3   2    1.47    0.19
   4  -3   2    1.34    0.19
   4  -3   2    1.61    0.21
  -5   3  -2   18.81    1.18
  -5   3  -2   21.42    1.16
  -5   3  -2   21.64    1.15
  -5   3  -2   22.02    1.13
   5  -3   2   21.64    1.12
   5  -3   2   21.23    1.15
   5  -3   2   22.54    1.12
  -6   3  -2    9.42    0.59
  -6   3  -2    9.22    0.64
  -6   3  -2    9.17    0.64
  -6   3  -2    8.98    0.62
   6  -3   2    9.22    0.60
   6  -3   2    9.43    0.60
   6  -3   2    9.35    0.64
  -7   3  -2    3.12    0.55
  -7   3  -2    3.31    0.39
  -7   3  -2    3.49    0.46
  -7   3  -2    3.43    0.42
   7  -3   2    3.50    0.45
   7  -3   2    3.49    0.45
  -8   3  -2    0.53    0.30
  -8   3  -2    0.55    0.33
  -8   3  -2   -0.01    0.38
   8  -3   2    0.58    0.34
   8  -3   2    0.76    0.31
  -9   3  -2   10.49    0.88
  -9   3  -2   10.47    0.88
 -10   3  -2    0.54    0.43
 -10   3  -2   -0.04    0.44
  10  -3   2    0.70    0.50
  11   2  -2   15.36    1.22
  11   2  -2   12.60    0.92
 -11  -2   2   11.77    1.09
  10   2  -2    0.25    0.39
  10   2  -2   -0.40    0.24
 -10  -2   2   -0.63    0.34
   9   2  -2    1.23    0.38
   9   2  -2    1.06    0.26
  -9  -2   2    0.92    0.34
   8   2  -2    8.95    0.76
  -8  -2   2    8.04    0.70
  -8  -2   2    5.61    0.69
  -8  -2   2    6.78    0.60
   7   2  -2   43.79    2.12
  -7  -2   2   43.76    2.13
  -7  -2   2   38.17    2.20
  -7  -2   2   39.94    2.15
   6   2  -2   13.28    0.81
   6   2  -2   16.33    0.88
   6   2  -2   13.30    0.80
   6   2  -2   15.43    0.79
  -6  -2   2   14.90    0.80
  -6  -2   2   13.20    0.81
  -6  -2   2   13.25    0.86
   5   2  -2    4.34    0.34
   5   2  -2    4.97    0.34
   5   2  -2    4.63    0.35
   5   2  -2    5.84    0.42
  -5  -2   2    5.03    0.34
  -5  -2   2    4.54    0.36
  -5  -2   2    4.70    0.41
   4   2  -2    0.90    0.14
   4   2  -2    1.02    0.13
   4   2  -2    1.12    0.18
  -4  -2   2    0.97    0.14
  -4  -2   2    0.90    0.20
  -4  -2   2    1.09    0.14
  -4  -2   2    0.74    0.14
   3   2  -2   92.30    4.58
   3   2  -2   95.61    4.61
   3   2  -2   92.98    4.57
  -3  -2   2   93.29    4.62
  -3  -2   2   91.08    4.58
  -3  -2   2   92.13    4.57
  -3  -2   2   92.07    4.58
   2   2  -2   29.22    1.45
   2   2  -2   29.78    1.46
   2   2  -2   28.92    1.48
  -2  -2   2   29.23    1.49
  -2  -2   2   29.63    1.45
  -2  -2   2   29.47    1.45
  -2  -2   2   28.41    1.45
   1   2  -2   55.07    2.79
   1   2  -2   58.36    2.80
   1   2  -2   60.53    2.79
  -1  -2   2   53.40    2.82
   0   2  -2    3.06    0.19
  -1   2  -2  176.60    8.36
  -1   2  -2  163.14    8.34
  -1   2  -2  168.21    8.36
   1  -2   2  173.05    8.37
  -2   2  -2   16.99    0.86
  -2   2  -2   16.75    0.87
  -2   2  -2   16.48    0.85
  -2   2  -2   16.47    0.84
   2  -2   2   16.58    0.86
   2  -2   2   16.85    0.84
   2  -2   2   17.10    0.84
  -3   2  -2   32.57    1.64
  -3   2  -2   31.01    1.63
  -3   2  -2   32.40    1.63
  -3   2  -2   32.46    1.62
   3  -2   2   31.93    1.64
   3  -2   2   32.96    1.62
   3  -2   2   32.75    1.61
  -4   2  -2   36.22    2.11
  -4   2  -2   41.19    2.08
  -4   2  -2   41.95    2.09
  -4   2  -2   42.36    2.08
   4  -2   2   40.51    2.11
   4  -2   2   41.39    2.09
   4  -2   2   42.21    2.06
   4  -2   2   43.23    2.07
  -5   2  -2    2.77    0.31
  -5   2  -2    2.65    0.30
  -5   2  -2    2.55    0.27
  -5   2  -2    2.65    0.31
   5  -2   2    2.02    0.28
   5  -2   2    2.43    0.33
   5  -2   2    2.87    0.28
  -6   2  -2    0.77    0.24
  -6   2  -2    0.87    0.17
  -6   2  -2    0.78    0.22
  -6   2  -2    0.45    0.22
   6  -2   2    0.53    0.30
   6  -2   2    0.91    0.21
   6  -2   2    0.91    0.20
   6  -2   2    0.40    0.20
  -7   2  -2    0.18    0.22
  -7   2  -2    0.11    0.16
  -7   2  -2   -0.41    0.23
  -7   2  -2   -0.16    0.22
   7  -2   2   -0.17    0.22
   7  -2   2   -0.17    0.30
   7  -2   2    0.11    0.22
   7  -2   2   -0.34    0.24
  -8   2  -2   24.55    1.35
  -8   2  -2   21.36    1.37
  -8   2  -2   23.87    1.33
   8  -2   2   24.33    1.31
   8  -2   2   23.20    1.46
   8  -2   2   22.97    1.33
  -9   2  -2    0.48    0.37
  -9   2  -2    0.47    0.31
   9  -2   2    0.13    0.33
 -10   2  -2   -0.18    0.40
 -10   2  -2    0.05    0.36
  10  -2   2    0.01    0.41
  11   1  -2    0.74    0.52
  11   1  -2   -0.72    0.31
 -11  -1   2   -0.89    0.41
  10   1  -2    4.39    0.61
  10   1  -2    3.81    0.52
 -10  -1   2    4.19    0.51
   9   1  -2   12.47    0.95
   9   1  -2   11.37    0.75
  -9  -1   2   10.33    0.83
   8   1  -2   13.97    0.94
  -8  -1   2   11.90    0.86
  -8  -1   2   12.72    0.84
   7   1  -2    0.96    0.20
   7   1  -2    0.86    0.27
  -7  -1   2    0.58    0.21
  -7  -1   2    0.95    0.23
  -7  -1   2    1.03    0.21
   6   1  -2    2.00    0.22
   6   1  -2    1.58    0.23
   6   1  -2    1.67    0.24
   6   1  -2    2.28    0.29
  -6  -1   2    1.46    0.24
  -6  -1   2    1.79    0.23
  -6  -1   2    1.52    0.22
  -6  -1   2    1.85    0.21
   5   1  -2    2.20    0.27
   5   1  -2    3.23    0.26
   5   1  -2    2.45    0.27
   5   1  -2    3.80    0.37
  -5  -1   2    2.99    0.26
  -5  -1   2    3.00    0.28
  -5  -1   2    2.76    0.28
  -5  -1   2    2.50    0.31
   4   1  -2   78.51    4.29
   4   1  -2   91.36    4.27
   4   1  -2   78.52    4.28
   4   1  -2   93.91    4.31
  -4  -1   2   87.75    4.32
  -4  -1   2   88.97    4.27
  -4  -1   2   92.01    4.27
  -4  -1   2   79.39    4.28
   3   1  -2   15.12    0.79
   3   1  -2   15.13    0.75
   3   1  -2   13.92    0.76
   3   1  -2   13.59    0.77
  -3  -1   2   14.30    0.75
  -3  -1   2   14.93    0.80
  -3  -1   2   15.58    0.75
  -3  -1   2   13.74    0.76
   2   1  -2  127.32    6.05
   2   1  -2  128.14    6.04
   2   1  -2  119.98    6.06
  -2  -1   2  120.48    6.04
  -2  -1   2  113.00    6.04
  -2  -1   2  127.03    6.07
  -2  -1   2  124.84    6.05
   1   1  -2   40.42    2.04
   1   1  -2   43.47    2.03
   1   1  -2   38.87    2.03
  -1  -1   2   42.07    2.03
  -1  -1   2   40.56    2.03
  -1  -1   2   40.87    2.05
   0   1  -2    7.82    0.40
   0   1  -2    7.90    0.39
   0   1  -2    7.82    0.39
   0  -1   2    7.59    0.40
  -1   1  -2   26.54    1.25
  -1   1  -2   23.67    1.25
  -1   1  -2   25.15    1.25
   1  -1   2   27.20    1.25
   1  -1   2   24.82    1.26
   1  -1   2   24.01    1.25
  -2   1  -2   39.90    1.95
  -2   1  -2   41.26    1.96
  -2   1  -2   41.04    1.95
  -2   1  -2   40.78    1.97
   2  -1   2   36.26    1.97
   2  -1   2   40.45    1.97
   2  -1   2   34.06    1.96
   2  -1   2   40.63    1.95
  -3   1  -2    1.20    0.15
  -3   1  -2    1.09    0.15
  -3   1  -2    1.10    0.13
  -3   1  -2    1.23    0.15
   3  -1   2    1.41    0.16
   3  -1   2    1.28    0.15
   3  -1   2    1.31    0.15
  -4   1  -2    6.22    0.38
  -4   1  -2    5.77    0.38
  -4   1  -2    6.03    0.39
  -4   1  -2    5.19    0.39
   4  -1   2    5.65    0.36
   4  -1   2    5.68    0.40
  -5   1  -2   10.47    0.64
  -5   1  -2   11.53    0.63
  -5   1  -2   10.55    0.63
  -5   1  -2   10.32    0.62
  -5   1  -2   10.63    0.60
   5  -1   2   10.65    0.62
   5  -1   2   10.48    0.60
  -6   1  -2   22.37    1.19
  -6   1  -2   22.55    1.21
  -6   1  -2   22.70    1.21
  -6   1  -2   22.80    1.20
  -6   1  -2   21.53    1.16
   6  -1   2   22.21    1.20
   6  -1   2   19.93    1.28
   6  -1   2   23.06    1.17
  -7   1  -2    0.21    0.20
  -7   1  -2   -0.13    0.21
  -7   1  -2   -0.21    0.21
  -7   1  -2    0.30    0.14
  -7   1  -2   -0.28    0.17
   7  -1   2   -0.01    0.19
   7  -1   2   -0.31    0.31
   7  -1   2    0.10    0.19
  -8   1  -2    2.56    0.41
  -8   1  -2    3.78    0.49
  -8   1  -2    4.05    0.47
   8  -1   2    2.83    0.49
   8  -1   2    3.39    0.43
  -9   1  -2    1.97    0.36
  -9   1  -2    1.79    0.39
   9  -1   2    1.62    0.34
 -10   1  -2   -0.18    0.34
 -10   1  -2    0.36    0.35
  10  -1   2    0.28    0.52
  10  -1   2    0.23    0.37
 -11   1  -2    1.93    0.49
  11  -1   2    2.33    0.69
  11  -1   2    1.41    0.51
  11   0  -2    1.12    0.58
  11   0  -2    1.18    0.42
 -11   0   2    1.17    0.46
  10   0  -2   11.45    1.09
  10   0  -2   10.45    0.79
 -10   0   2   11.51    0.88
   9   0  -2    2.39    0.48
   9   0  -2    2.39    0.33
  -9   0   2    2.27    0.37
   8   0  -2    1.61    0.37
   8   0  -2    1.12    0.37
  -8   0   2    0.91    0.29
   7   0  -2    0.02    0.16
   7   0  -2   -0.06    0.26
   7   0  -2   -0.20    0.17
   7   0  -2    0.11    0.17
  -7   0   2   -0.05    0.19
  -7   0   2    0.45    0.16
  -7   0   2   -0.26    0.17
   6   0  -2   14.97    0.78
   6   0  -2   14.38    0.88
   6   0  -2   12.94    0.79
   6   0  -2   13.43    0.79
  -6   0   2   13.27    0.80
  -6   0   2   14.12    0.79
  -6   0   2   15.30    0.78
  -6   0   2   12.55    0.82
   5   0  -2   10.21    0.55
   5   0  -2    9.48    0.57
   5   0  -2    8.77    0.56
   5   0  -2   10.65    0.65
  -5   0   2   10.02    0.55
  -5   0   2    9.04    0.60
  -5   0   2    8.67    0.57
   4   0  -2   20.41    1.17
   4   0  -2   20.81    1.17
   4   0  -2   25.51    1.22
   4   0  -2   24.51    1.16
  -4   0   2   24.78    1.17
  -4   0   2   22.58    1.20
  -4   0   2   20.00    1.17
   3   0  -2    0.39    0.10
   3   0  -2    0.62    0.14
   3   0  -2    0.51    0.09
   3   0  -2    0.39    0.10
  -3   0   2    0.59    0.13
  -3   0   2    0.45    0.10
  -3   0   2    0.34    0.09
   2   0  -2    2.06    0.14
   2   0  -2    1.68    0.15
   2   0  -2    2.06    0.20
  -2   0   2    1.96    0.15
  -2   0   2    2.24    0.21
  -2   0   2    1.62    0.15
   1   0  -2    3.89    0.24
   1   0  -2    3.88    0.22
   1   0  -2    3.95    0.21
  -1   0   2    3.94    0.22
  -1   0   2    3.68    0.24
  -1   0   2    4.03    0.21
   0   0  -2   49.86    2.58
   0   0  -2   55.46    2.59
   0   0  -2   54.40    2.59
   0   0   2   49.07    2.58
   0   0   2   56.60    2.59
   0   0   2   49.07    2.58
   0   0   2   53.04    2.58
  -1   0  -2    1.43    0.11
  -1   0  -2    1.24    0.11
  -1   0  -2    1.16    0.09
  -1   0  -2    1.35    0.10
  -1   0  -2    1.04    0.08
   1   0   2    1.36    0.11
   1   0   2    1.31    0.09
   1   0   2    1.30    0.10
   1   0   2    1.15    0.09
   1   0   2    1.37    0.10
  -2   0  -2    1.28    0.13
  -2   0  -2    1.18    0.12
  -2   0  -2    1.36    0.13
  -2   0  -2    1.16    0.11
  -2   0  -2    1.16    0.11
   2   0   2    1.18    0.12
   2   0   2    1.16    0.11
   2   0   2    1.13    0.11
  -3   0  -2    0.60    0.12
  -3   0  -2    0.75    0.11
  -3   0  -2    0.74    0.11
  -3   0  -2    0.70    0.10
  -3   0  -2    0.62    0.10
   3   0   2    0.69    0.10
   3   0   2    1.12    0.18
   3   0   2    0.81    0.12
  -4   0  -2    0.01    0.12
  -4   0  -2    0.01    0.09
  -4   0  -2    0.09    0.10
  -4   0  -2    0.02    0.11
  -4   0  -2    0.02    0.10
   4   0   2    0.14    0.14
   4   0   2    0.18    0.10
   4   0   2    0.13    0.10
   4   0   2   -0.07    0.10
  -5   0  -2   75.36    3.88
  -5   0  -2   74.72    3.88
  -5   0  -2   78.52    3.86
  -5   0  -2   76.56    3.88
  -5   0  -2   79.22    3.87
   5   0   2   77.53    3.88
   5   0   2   76.88    3.88
   5   0   2   75.41    3.85
   5   0   2   84.35    3.90
  -6   0  -2    1.58    0.20
  -6   0  -2    0.97    0.18
  -6   0  -2    1.17    0.23
  -6   0  -2    1.39    0.22
  -6   0  -2    1.22    0.22
   6   0   2    1.42    0.28
   6   0   2    0.93    0.19
   6   0   2    1.21    0.19
   6   0   2    1.61    0.22
  -7   0  -2    0.83    0.21
  -7   0  -2    0.85    0.26
  -7   0  -2    0.51    0.23
  -7   0  -2    0.40    0.20
   7   0   2    0.71    0.31
   7   0   2    0.85    0.21
  -8   0  -2    2.62    0.38
  -8   0  -2    3.23    0.52
  -8   0  -2    3.30    0.41
   8   0   2    2.91    0.46
   8   0   2    3.14    0.41
  -9   0  -2    7.51    0.64
  -9   0  -2    6.93    0.66
   9   0   2    7.45    0.62
 -10   0  -2   -0.52    0.33
 -10   0  -2    0.25    0.32
  10   0   2    0.31    0.50
  10   0   2    0.25    0.32
 -11   0  -2   10.55    0.92
 -11   0  -2   11.74    0.95
  11   0   2    9.83    0.93
  11   0   2    9.53    1.25
  11  -1  -2    2.98    0.50
  11  -1  -2    2.67    0.66
 -11   1   2    3.22    0.53
  10  -1  -2    1.44    0.38
  10  -1  -2    1.27    0.52
 -10   1   2    1.50    0.38
   9  -1  -2    2.61    0.52
   9  -1  -2    3.47    0.49
  -9   1   2    4.58    0.56
   8  -1  -2    4.05    0.54
   8  -1  -2    3.82    0.50
  -8   1   2    4.07    0.47
   7  -1  -2    8.57    0.55
   7  -1  -2    7.55    0.58
   7  -1  -2    8.54    0.57
   7  -1  -2    7.40    0.74
  -7   1   2    7.49    0.57
   6  -1  -2    3.02    0.32
   6  -1  -2    3.17    0.31
   6  -1  -2    2.78    0.33
   6  -1  -2    2.45    0.36
  -6   1   2    2.26    0.36
  -6   1   2    2.90    0.34
  -6   1   2    2.78    0.32
  -6   1   2    2.71    0.34
   5  -1  -2   26.90    1.46
   5  -1  -2   27.12    1.53
   5  -1  -2   27.10    1.47
   5  -1  -2   29.83    1.45
  -5   1   2   26.73    1.47
  -5   1   2   30.33    1.46
  -5   1   2   28.99    1.50
  -5   1   2   28.70    1.48
   4  -1  -2   17.88    0.98
   4  -1  -2   18.64    1.05
   4  -1  -2   20.27    0.98
   4  -1  -2   18.42    0.99
  -4   1   2   19.98    1.02
  -4   1   2   18.56    1.00
  -4   1   2   17.23    0.99
   3  -1  -2   22.36    1.20
   3  -1  -2   24.89    1.19
   3  -1  -2   22.73    1.20
   3  -1  -2   23.58    1.24
  -3   1   2   22.69    1.20
  -3   1   2   21.94    1.20
  -3   1   2   25.61    1.22
   2  -1  -2    1.60    0.15
   2  -1  -2    1.69    0.21
   2  -1  -2    2.20    0.15
   2  -1  -2    1.77    0.16
  -2   1   2    2.04    0.22
  -2   1   2    1.83    0.16
  -2   1   2    2.12    0.15
   1  -1  -2   23.19    1.25
   1  -1  -2   27.42    1.25
  -1   1   2   22.93    1.26
  -1   1   2   26.51    1.25
   0  -1  -2    9.93    0.48
   0  -1  -2    9.25    0.48
   0  -1  -2    9.10    0.49
   0   1   2    9.46    0.48
   0   1   2    9.11    0.49
   0   1   2    9.89    0.48
  -1  -1  -2   44.61    2.11
  -1  -1  -2   42.85    2.11
  -1  -1  -2   40.42    2.12
  -1  -1  -2   43.48    2.11
   1   1   2   42.20    2.12
   1   1   2   41.86    2.11
   1   1   2   43.04    2.11
   1   1   2   42.71    2.11
  -2  -1  -2    4.62    0.26
  -2  -1  -2    3.96    0.26
  -2  -1  -2    4.42    0.25
  -2  -1  -2    4.41    0.27
  -2  -1  -2    4.42    0.26
   2   1   2    4.24    0.25
   2   1   2    4.48    0.27
   2   1   2    4.29    0.25
  -3  -1  -2  125.27    6.36
  -3  -1  -2  127.89    6.37
  -3  -1  -2  141.18    6.38
  -3  -1  -2  121.93    6.38
  -3  -1  -2  128.03    6.37
   3   1   2  136.84    6.37
   3   1   2  125.59    6.36
   3   1   2  132.32    6.38
   3   1   2  125.72    6.37
   3   1   2  127.29    6.37
  -4  -1  -2   40.05    1.79
  -4  -1  -2   33.17    1.79
  -4  -1  -2   33.76    1.76
  -4  -1  -2   33.76    1.78
  -4  -1  -2   34.23    1.78
   4   1   2   34.45    1.78
   4   1   2   38.26    1.79
   4   1   2   33.99    1.78
   4   1   2   33.51    1.76
  -5  -1  -2   20.82    1.00
  -5  -1  -2   19.45    0.97
  -5  -1  -2   17.51    0.99
  -5  -1  -2   16.93    1.07
  -5  -1  -2   18.49    1.00
   5   1   2   17.85    0.97
   5   1   2   18.25    0.99
   5   1   2   18.01    0.99
  -6  -1  -2    0.84    0.19
  -6  -1  -2    0.68    0.19
  -6  -1  -2    0.96    0.21
  -6  -1  -2    0.76    0.19
  -6  -1  -2    0.73    0.15
   6   1   2    0.74    0.19
   6   1   2    0.65    0.17
   6   1   2    0.98    0.24
   6   1   2    0.67    0.17
  -7  -1  -2   35.26    2.01
  -7  -1  -2   37.93    2.00
  -7  -1  -2   37.46    1.95
  -7  -1  -2   39.54    2.00
  -7  -1  -2   36.43    1.98
   7   1   2   42.78    2.04
   7   1   2   37.72    1.95
   7   1   2   36.86    1.98
  -8  -1  -2    3.01    0.51
  -8  -1  -2    3.27    0.50
   8   1   2    3.61    0.39
   8   1   2    3.61    0.62
  -9  -1  -2    4.59    0.56
  -9  -1  -2    3.67    0.53
   9   1   2    4.44    0.49
   9   1   2    4.77    0.61
 -10  -1  -2    4.27    0.50
 -10  -1  -2    4.01    0.50
  10   1   2    2.51    0.39
  10   1   2    3.68    0.60
 -11  -1  -2    0.94    0.39
  11   1   2    0.47    0.62
  11   1   2    0.02    0.37
  10  -2  -2    0.00    0.37
  10  -2  -2    0.39    0.47
 -10   2   2    0.59    0.38
   9  -2  -2    3.29    0.40
   9  -2  -2    2.51    0.53
  -9   2   2    3.22    0.42
   8  -2  -2    0.77    0.26
   8  -2  -2   -0.13    0.39
  -8   2   2    0.68    0.26
   7  -2  -2    1.90    0.30
   7  -2  -2    2.88    0.31
   7  -2  -2    2.78    0.34
  -7   2   2    2.46    0.34
  -7   2   2    2.55    0.32
   6  -2  -2    8.67    0.57
   6  -2  -2    8.39    0.58
   6  -2  -2    9.46    0.56
  -6   2   2    9.01    0.59
  -6   2   2    9.31    0.54
  -6   2   2    7.34    0.61
  -6   2   2    8.69    0.59
   5  -2  -2    0.05    0.23
   5  -2  -2    0.67    0.17
   5  -2  -2    0.52    0.17
   5  -2  -2    0.75    0.16
  -5   2   2    0.48    0.16
  -5   2   2    0.61    0.14
  -5   2   2    0.59    0.17
  -5   2   2    0.64    0.20
   4  -2  -2   58.14    2.76
   4  -2  -2   56.97    2.77
   4  -2  -2   56.01    2.77
  -4   2   2   56.33    2.76
  -4   2   2   56.81    2.78
  -4   2   2   53.83    2.77
  -4   2   2   48.81    2.80
   3  -2  -2   22.99    1.14
   3  -2  -2   22.30    1.14
   3  -2  -2   22.76    1.15
  -3   2   2   21.67    1.18
  -3   2   2   22.62    1.15
  -3   2   2   21.93    1.13
  -3   2   2   21.99    1.15
   2  -2  -2   76.90    3.66
   2  -2  -2   74.18    3.66
   2  -2  -2   76.28    3.67
  -2   2   2   69.50    3.69
  -2   2   2   73.04    3.67
  -2   2   2   75.47    3.66
  -2   2   2   73.65    3.66
   1  -2  -2    4.07    0.29
   1  -2  -2    4.50    0.25
   1  -2  -2    4.55    0.26
  -1   2   2    4.89    0.27
   0  -2  -2   13.19    0.64
   0  -2  -2   12.48    0.64
   0  -2  -2   12.75    0.66
   0   2   2   13.31    0.65
   0   2   2   12.84    0.65
   0   2   2   11.70    0.68
  -1  -2  -2    2.04    0.17
  -1  -2  -2    1.76    0.14
  -1  -2  -2    1.97    0.12
   1   2   2    1.97    0.12
   1   2   2    2.19    0.17
   1   2   2    2.00    0.15
   1   2   2    1.99    0.14
  -2  -2  -2  191.53    9.15
  -2  -2  -2  188.08    9.15
  -2  -2  -2  176.16    9.16
  -2  -2  -2  191.01    9.17
   2   2   2  183.92    9.16
   2   2   2  173.77    9.17
   2   2   2  194.81    9.18
   2   2   2  190.64    9.15
  -3  -2  -2   32.22    1.68
  -3  -2  -2   33.78    1.66
  -3  -2  -2   33.17    1.67
  -3  -2  -2   30.88    1.68
  -3  -2  -2   33.80    1.67
   3   2   2   32.43    1.69
   3   2   2   33.38    1.66
   3   2   2   33.26    1.67
   3   2   2   34.50    1.67
   3   2   2   33.22    1.67
  -4  -2  -2    6.01    0.40
  -4  -2  -2    5.71    0.36
  -4  -2  -2    5.90    0.39
  -4  -2  -2    5.75    0.38
  -4  -2  -2    5.59    0.39
   4   2   2    5.93    0.39
   4   2   2    5.75    0.37
   4   2   2    6.94    0.39
   4   2   2    6.45    0.42
   4   2   2    5.83    0.37
  -5  -2  -2    5.70    0.36
  -5  -2  -2    5.60    0.39
  -5  -2  -2    6.28    0.42
  -5  -2  -2    5.35    0.41
  -5  -2  -2    5.33    0.40
   5   2   2    5.14    0.37
   5   2   2    6.37    0.45
   5   2   2    5.43    0.40
   5   2   2    5.29    0.37
  -6  -2  -2   59.84    2.78
  -6  -2  -2   52.28    2.73
  -6  -2  -2   52.81    2.76
  -6  -2  -2   49.82    2.77
  -6  -2  -2   53.68    2.75
   6   2   2   61.90    2.79
   6   2   2   51.93    2.75
   6   2   2   52.73    2.75
   6   2   2   52.96    2.73
  -7  -2  -2   22.15    1.22
  -7  -2  -2   25.08    1.27
  -7  -2  -2   21.42    1.17
  -7  -2  -2   19.75    1.24
  -7  -2  -2   21.80    1.22
   7   2   2   21.53    1.19
   7   2   2   22.00    1.18
  -8  -2  -2    6.36    0.61
  -8  -2  -2    6.81    0.62
  -8  -2  -2    6.82    0.56
   8   2   2    6.68    0.65
  -9  -2  -2    0.19    0.28
  -9  -2  -2    0.16    0.27
   9   2   2   -0.09    0.22
   9   2   2    0.01    0.37
 -10  -2  -2    7.46    0.74
  10   2   2    6.90    0.62
  10   2   2    7.72    0.94
 -11  -2  -2   17.52    1.18
  11   2   2   14.20    1.05
  11   2   2   17.90    1.43
  10  -3  -2    1.30    0.49
 -10   3   2    1.98    0.45
   9  -3  -2    2.51    0.42
  -9   3   2    2.26    0.42
   8  -3  -2    9.61    0.71
  -8   3   2    9.25    0.71
   7  -3  -2    0.78    0.25
   7  -3  -2    0.81    0.29
   7  -3  -2    0.44    0.25
  -7   3   2    0.90    0.31
  -7   3   2   -0.30    0.28
  -7   3   2    0.29    0.24
  -7   3   2    0.62    0.27
   6  -3  -2   41.16    2.03
   6  -3  -2   38.30    2.02
   6  -3  -2   40.41    2.02
  -6   3   2   39.69    2.01
  -6   3   2   37.00    2.06
  -6   3   2   38.85    2.03
  -6   3   2   38.79    2.04
   5  -3  -2    0.57    0.17
   5  -3  -2    0.41    0.17
   5  -3  -2    0.18    0.17
  -5   3   2    0.39    0.17
  -5   3   2    0.62    0.15
  -5   3   2    0.46    0.18
  -5   3   2    0.62    0.21
   4  -3  -2   52.11    2.47
   4  -3  -2   50.61    2.46
   4  -3  -2   47.40    2.46
  -4   3   2   49.02    2.47
  -4   3   2   46.57    2.49
  -4   3   2   49.16    2.45
  -4   3   2   47.83    2.46
   3  -3  -2    0.88    0.13
   3  -3  -2    0.85    0.13
   3  -3  -2    1.02    0.14
  -3   3   2    1.04    0.12
  -3   3   2    0.99    0.14
  -3   3   2    0.73    0.14
  -3   3   2    0.95    0.18
   2  -3  -2   15.39    0.79
   2  -3  -2   14.32    0.78
   2  -3  -2   16.03    0.79
  -2   3   2   15.13    0.79
  -2   3   2   15.33    0.80
  -2   3   2   15.59    0.79
   1  -3  -2    7.75    0.41
   1  -3  -2    7.55    0.42
   1  -3  -2    8.36    0.42
  -1   3   2    7.85    0.41
  -1   3   2    8.09    0.43
  -1   3   2    8.02    0.46
  -1   3   2    8.13    0.43
   0  -3  -2   29.01    1.45
   0  -3  -2   28.12    1.41
   0  -3  -2   28.64    1.41
   0   3   2   27.94    1.42
   0   3   2   27.92    1.44
   0   3   2   28.88    1.42
  -1  -3  -2   55.47    2.75
  -1  -3  -2   56.60    2.75
  -1  -3  -2   55.72    2.78
   1   3   2   55.36    2.74
   1   3   2   54.59    2.75
   1   3   2   56.29    2.78
  -2  -3  -2   -0.08    0.07
  -2  -3  -2   -0.04    0.07
  -2  -3  -2   -0.03    0.07
  -2  -3  -2   -0.03    0.07
   2   3   2   -0.13    0.07
   2   3   2   -0.06    0.08
   2   3   2   -0.02    0.09
   2   3   2   -0.03    0.06
  -3  -3  -2    7.68    0.51
  -3  -3  -2    8.28    0.51
  -3  -3  -2    9.04    0.50
  -3  -3  -2    9.33    0.49
  -3  -3  -2    9.30    0.50
   3   3   2    9.05    0.49
   3   3   2    8.92    0.50
   3   3   2    8.84    0.52
   3   3   2    9.29    0.49
   3   3   2    8.87    0.54
  -4  -3  -2   35.09    1.75
  -4  -3  -2   30.72    1.76
  -4  -3  -2   34.26    1.75
  -4  -3  -2   34.52    1.74
   4   3   2   35.01    1.75
   4   3   2   34.80    1.78
   4   3   2   34.63    1.74
   4   3   2   35.61    1.75
  -5  -3  -2   31.51    1.61
  -5  -3  -2   31.23    1.62
  -5  -3  -2   32.70    1.60
  -5  -3  -2   28.92    1.64
  -5  -3  -2   28.01    1.63
   5   3   2   31.48    1.61
   5   3   2   32.61    1.61
   5   3   2   31.91    1.61
   5   3   2   32.20    1.65
   5   3   2   31.38    1.60
  -6  -3  -2    8.22    0.56
  -6  -3  -2    7.80    0.60
  -6  -3  -2    8.29    0.57
  -6  -3  -2    9.18    0.54
  -6  -3  -2    8.04    0.58
   6   3   2    8.52    0.55
   6   3   2    8.98    0.55
   6   3   2    8.50    0.54
   6   3   2    9.48    0.63
  -7  -3  -2    2.21    0.36
  -7  -3  -2    3.24    0.38
  -7  -3  -2    2.85    0.37
  -7  -3  -2    3.38    0.35
  -7  -3  -2    2.40    0.34
   7   3   2    2.43    0.34
   7   3   2    2.47    0.35
   7   3   2    2.95    0.48
  -8  -3  -2   -0.06    0.32
  -8  -3  -2    0.11    0.23
  -8  -3  -2    0.11    0.24
  -8  -3  -2    0.17    0.28
   8   3   2   -0.06    0.28
   8   3   2    0.15    0.30
  -9  -3  -2   31.61    1.79
   9   3   2   30.54    1.74
   9   3   2   36.17    1.88
 -10  -3  -2    0.86    0.36
  10   3   2    0.27    0.26
  10   3   2    0.49    0.45
 -11  -3  -2    1.00    0.45
  11   3   2    0.08    0.55
  11   3   2   -0.46    0.27
  10  -4  -2    0.00    0.58
 -10   4   2    0.00    0.45
   9  -4  -2   -0.07    0.44
  -9   4   2    0.08    0.35
   8  -4  -2    1.91    0.48
   8  -4  -2    1.70    0.40
  -8   4   2    1.59    0.36
   7  -4  -2   36.25    2.01
   7  -4  -2   39.92    2.01
   7  -4  -2   40.92    2.03
  -7   4   2   33.06    2.05
  -7   4   2   40.26    2.02
   6  -4  -2    0.83    0.25
   6  -4  -2    0.53    0.24
   6  -4  -2    0.70    0.24
  -6   4   2    0.55    0.24
  -6   4   2    0.58    0.23
  -6   4   2    0.54    0.21
  -6   4   2    0.27    0.29
   5  -4  -2    0.08    0.18
   5  -4  -2   -0.03    0.16
   5  -4  -2    0.31    0.19
  -5   4   2    0.26    0.19
  -5   4   2   -0.13    0.17
   4  -4  -2    5.94    0.42
   4  -4  -2    6.57    0.43
   4  -4  -2    5.96    0.43
  -4   4   2    6.61    0.45
  -4   4   2    6.34    0.43
  -4   4   2    6.31    0.41
  -4   4   2    7.66    0.54
   3  -4  -2   42.35    2.24
   3  -4  -2   43.98    2.24
   3  -4  -2   48.18    2.25
  -3   4   2   45.73    2.26
  -3   4   2   41.84    2.29
  -3   4   2   45.46    2.25
  -3   4   2   46.18    2.24
   2  -4  -2    1.23    0.14
   2  -4  -2    1.27    0.15
   2  -4  -2    1.56    0.16
  -2   4   2    1.60    0.15
  -2   4   2    1.74    0.18
  -2   4   2    1.77    0.17
   1  -4  -2   56.43    2.86
   1  -4  -2   57.40    2.86
   1  -4  -2   62.56    2.87
  -1   4   2   58.37    2.88
  -1   4   2   56.04    2.86
  -1   4   2   57.83    2.88
  -1   4   2   58.50    2.92
   0   4   2    0.45    0.13
   0   4   2    0.46    0.08
   0   4   2    0.37    0.11
  -1  -4  -2    5.16    0.27
  -1  -4  -2    4.90    0.33
  -1  -4  -2    5.25    0.27
   1   4   2    4.67    0.27
   1   4   2    5.05    0.34
   1   4   2    4.81    0.29
   1   4   2    5.06    0.29
  -2  -4  -2   27.45    1.42
  -2  -4  -2   27.21    1.38
  -2  -4  -2   27.89    1.42
   2   4   2   29.00    1.40
   2   4   2   25.69    1.44
   2   4   2   27.72    1.42
   2   4   2   28.38    1.38
  -3  -4  -2   65.22    3.11
  -3  -4  -2   60.93    3.14
  -3  -4  -2   60.08    3.11
   3   4   2   63.57    3.12
   3   4   2   61.81    3.14
   3   4   2   65.48    3.11
   3   4   2   59.86    3.17
   3   4   2   64.17    3.11
  -4  -4  -2    5.06    0.35
  -4  -4  -2    5.27    0.36
  -4  -4  -2    4.39    0.37
  -4  -4  -2    5.20    0.43
  -4  -4  -2    5.50    0.35
   4   4   2    5.30    0.35
   4   4   2    5.31    0.35
   4   4   2    5.04    0.43
   4   4   2    5.41    0.36
   4   4   2    5.53    0.40
  -5  -4  -2    0.17    0.11
  -5  -4  -2    0.10    0.14
  -5  -4  -2   -0.08    0.14
  -5  -4  -2    0.16    0.14
  -5  -4  -2    0.00    0.16
   5   4   2    0.02    0.15
   5   4   2    0.16    0.18
   5   4   2    0.06    0.14
   5   4   2   -0.16    0.13
   5   4   2    0.33    0.16
  -6  -4  -2   14.49    0.81
  -6  -4  -2   14.03    0.83
  -6  -4  -2   11.62    0.83
  -6  -4  -2   12.24    0.86
  -6  -4  -2   14.25    0.80
   6   4   2   13.85    0.79
   6   4   2   14.52    0.89
   6   4   2   14.94    0.81
   6   4   2   14.70    0.82
   6   4   2   15.01    0.81
  -7  -4  -2    7.86    0.57
  -7  -4  -2    7.23    0.59
  -7  -4  -2    5.75    0.65
  -7  -4  -2    8.04    0.58
   7   4   2    7.55    0.56
   7   4   2    8.44    0.67
   7   4   2    7.91    0.54
   7   4   2    8.41    0.56
  -8  -4  -2   11.71    0.79
  -8  -4  -2   12.72    0.80
   8   4   2   10.70    0.73
   8   4   2   11.98    0.97
  -9  -4  -2    5.30    0.60
   9   4   2    4.51    0.48
   9   4   2    3.88    0.70
 -10  -4  -2    3.31    0.47
  10   4   2    3.09    0.56
  10   4   2    1.93    0.34
 -11  -4  -2    1.04    0.46
  11   4   2    0.46    0.32
  11   4   2    0.44    0.56
   9  -5  -2    1.54    0.69
  -9   5   2    3.08    0.52
   8  -5  -2    4.63    0.56
   7  -5  -2    2.14    0.40
   7  -5  -2    1.94    0.43
  -7   5   2    3.84    0.52
  -7   5   2    3.19    0.40
   6  -5  -2    0.46    0.27
   6  -5  -2    0.10    0.25
   6  -5  -2    0.54    0.27
  -6   5   2    0.15    0.35
  -6   5   2   -0.05    0.24
  -6   5   2    0.33    0.24
  -6   5   2    0.18    0.24
   5  -5  -2    1.38    0.24
   5  -5  -2    1.70    0.24
   5  -5  -2    0.94    0.23
  -5   5   2    1.57    0.25
  -5   5   2    1.36    0.25
   4  -5  -2   14.15    0.79
   4  -5  -2   15.30    0.79
  -4   5   2   15.24    0.83
  -4   5   2   15.01    0.81
  -4   5   2   13.14    0.79
  -4   5   2   13.78    0.88
   3  -5  -2    2.10    0.21
   3  -5  -2    1.62    0.22
   3  -5  -2    1.68    0.19
  -3   5   2    2.10    0.23
  -3   5   2    2.47    0.35
  -3   5   2    1.92    0.24
  -3   5   2    1.90    0.21
   2  -5  -2   22.53    1.18
  -2   5   2   24.33    1.21
  -2   5   2   23.32    1.19
  -2   5   2   23.73    1.20
  -1   5   2    4.42    0.25
  -1   5   2    4.63    0.29
  -1   5   2    4.53    0.29
  -1   5   2    4.56    0.36
   0   5   2   42.86    2.13
   0   5   2   42.78    2.19
   0   5   2   43.16    2.13
  -1  -5  -2    1.28    0.20
   1   5   2    1.11    0.10
   1   5   2    1.12    0.14
   1   5   2    1.11    0.17
   1   5   2    1.11    0.15
  -2  -5  -2   42.06    2.16
   2   5   2   39.60    2.19
   2   5   2   42.55    2.16
   2   5   2   44.69    2.11
   2   5   2   43.04    2.12
  -3  -5  -2    1.70    0.34
  -3  -5  -2    2.25    0.18
  -3  -5  -2    1.94    0.18
   3   5   2    2.39    0.29
   3   5   2    1.81    0.31
   3   5   2    1.82    0.20
   3   5   2    1.65    0.21
   3   5   2    1.84    0.22
  -4  -5  -2   -0.05    0.13
  -4  -5  -2    0.25    0.12
  -4  -5  -2    0.09    0.12
   4   5   2    0.25    0.16
   4   5   2    0.14    0.18
   4   5   2    0.26    0.13
   4   5   2    0.16    0.13
   4   5   2    0.03    0.13
  -5  -5  -2    0.13    0.17
  -5  -5  -2    0.20    0.15
  -5  -5  -2    0.18    0.17
   5   5   2    0.27    0.16
   5   5   2    0.14    0.16
   5   5   2    0.16    0.21
   5   5   2    0.25    0.19
   5   5   2    0.36    0.16
  -6  -5  -2   17.02    1.09
  -6  -5  -2   18.75    1.11
  -6  -5  -2   19.25    1.06
  -6  -5  -2   20.02    1.05
   6   5   2   19.10    1.13
   6   5   2   19.02    1.04
   6   5   2   19.54    1.06
   6   5   2   18.83    1.06
   6   5   2   19.26    1.06
  -7  -5  -2    0.68    0.22
  -7  -5  -2    0.59    0.23
  -7  -5  -2    0.45    0.26
  -7  -5  -2    0.36    0.29
   7   5   2    0.40    0.23
   7   5   2    0.57    0.23
   7   5   2    0.55    0.30
   7   5   2    0.45    0.22
   7   5   2    1.00    0.24
  -8  -5  -2    5.61    0.55
  -8  -5  -2    5.32    0.66
   8   5   2    5.24    0.51
   8   5   2    5.51    0.66
  -9  -5  -2    0.27    0.31
   9   5   2   -0.02    0.36
   9   5   2    0.35    0.25
 -10  -5  -2    6.68    0.73
  10   5   2    6.09    0.58
  10   5   2    5.35    0.84
 -11  -5  -2    0.32    0.49
  11   5   2   -0.22    0.52
  11   5   2   -0.75    0.28
  -9   6   2    0.42    0.50
   8  -6  -2    0.99    0.49
  -8   6   2    0.10    0.41
   7  -6  -2    1.82    0.40
   7  -6  -2    1.61    0.37
  -7   6   2    1.68    0.40
  -7   6   2    1.75    0.39
   6  -6  -2    5.45    0.61
   6  -6  -2    7.56    0.57
  -6   6   2    6.72    0.58
  -6   6   2    7.61    0.62
  -6   6   2    6.34    0.79
   5  -6  -2    2.00    0.29
   5  -6  -2    2.29    0.25
  -5   6   2    2.38    0.30
  -5   6   2    3.61    0.61
  -5   6   2    2.78    0.34
  -5   6   2    1.91    0.29
   4  -6  -2    1.35    0.25
  -4   6   2    1.79    0.26
  -4   6   2    1.63    0.23
   3  -6  -2    0.55    0.14
  -3   6   2    0.50    0.15
  -3   6   2    0.53    0.17
  -3   6   2    0.58    0.18
   2  -6  -2    2.13    0.22
  -2   6   2    2.26    0.36
  -2   6   2    2.79    0.27
  -2   6   2    2.37    0.21
  -1   6   2   14.44    0.75
  -1   6   2   14.78    0.78
  -1   6   2   15.22    0.78
  -1   6   2   14.90    0.86
   0   6   2   24.17    1.24
   0   6   2   24.55    1.24
   0   6   2   24.52    1.31
  -1  -6  -2    1.46    0.20
   1   6   2    1.09    0.12
   1   6   2    1.06    0.11
   1   6   2    1.28    0.20
   1   6   2    1.38    0.15
   1   6   2    1.22    0.13
  -2  -6  -2    1.81    0.23
   2   6   2    1.86    0.33
   2   6   2    2.10    0.18
   2   6   2    1.93    0.30
   2   6   2    1.95    0.23
   2   6   2    1.76    0.20
  -3  -6  -2    0.25    0.14
   3   6   2    0.10    0.13
   3   6   2    0.00    0.11
   3   6   2    0.16    0.16
   3   6   2    0.06    0.17
  -4  -6  -2    4.62    0.29
  -4  -6  -2    4.27    0.40
  -4  -6  -2    4.47    0.29
   4   6   2    4.50    0.34
   4   6   2    4.54    0.44
   4   6   2    4.14    0.48
   4   6   2    4.22    0.36
   4   6   2    4.29    0.36
  -5  -6  -2    2.53    0.40
  -5  -6  -2    3.03    0.29
  -5  -6  -2    3.15    0.31
   5   6   2    3.13    0.41
   5   6   2    2.75    0.34
   5   6   2    3.27    0.36
   5   6   2    2.74    0.33
   5   6   2    2.48    0.36
  -6  -6  -2    2.83    0.34
  -6  -6  -2    2.64    0.32
  -6  -6  -2    2.51    0.35
   6   6   2    3.07    0.39
   6   6   2    3.57    0.50
   6   6   2    2.81    0.33
   6   6   2    2.91    0.37
   6   6   2    3.39    0.42
  -7  -6  -2    0.26    0.31
  -7  -6  -2   -0.03    0.28
  -7  -6  -2    0.02    0.21
   7   6   2   -0.15    0.23
   7   6   2    0.29    0.24
   7   6   2    0.39    0.28
   7   6   2    0.04    0.30
  -8  -6  -2    1.69    0.31
  -8  -6  -2    1.59    0.43
   8   6   2    1.73    0.31
   8   6   2    1.87    0.41
   9   6   2    4.96    0.55
   9   6   2    4.45    0.57
 -10  -6  -2    0.03    0.40
  10   6   2   -0.34    0.40
  10   6   2   -0.07    0.29
  -8   7   2    2.44    0.56
  -7   7   2    0.17    0.41
  -7   7   2    0.53    0.40
   6  -7  -2    1.65    0.38
  -6   7   2    1.34    0.35
  -6   7   2    1.28    0.50
   5  -7  -2    2.72    0.34
  -5   7   2    3.07    0.43
  -5   7   2    3.73    0.51
  -5   7   2    2.72    0.36
   4  -7  -2   -0.10    0.19
  -4   7   2    0.25    0.20
  -4   7   2   -0.02    0.24
  -4   7   2   -0.01    0.22
   3  -7  -2    3.69    0.35
  -3   7   2    3.93    0.33
  -3   7   2    3.54    0.49
  -3   7   2    4.16    0.40
  -2   7   2    5.84    0.42
  -2   7   2    5.43    0.51
  -2   7   2    5.13    0.41
  -2   7   2    6.22    0.36
  -1   7   2   18.47    1.06
  -1   7   2   18.88    0.97
  -1   7   2   18.12    0.96
  -1   7   2   17.81    0.92
   0   7   2    0.81    0.14
   0   7   2    0.68    0.14
   0   7   2    0.64    0.21
   1   7   2    0.20    0.12
   1   7   2    0.10    0.07
   1   7   2    0.03    0.13
   1   7   2    0.01    0.17
   1   7   2   -0.09    0.07
  -2  -7  -2    2.24    0.34
   2   7   2    2.29    0.27
   2   7   2    2.07    0.33
   2   7   2    1.74    0.26
   2   7   2    2.44    0.24
   2   7   2    2.55    0.21
  -3  -7  -2   25.60    1.44
   3   7   2   27.60    1.37
   3   7   2   26.83    1.45
   3   7   2   27.25    1.39
   3   7   2   26.27    1.50
  -4  -7  -2    5.96    0.50
   4   7   2    6.72    0.54
   4   7   2    5.98    0.58
   4   7   2    5.21    0.45
   4   7   2    5.99    0.44
  -5  -7  -2    9.51    0.69
  -5  -7  -2    9.29    0.53
   5   7   2   10.24    0.63
   5   7   2    9.39    0.64
   5   7   2    9.69    0.68
   5   7   2    9.46    0.62
   5   7   2    9.75    0.75
  -6  -7  -2    0.15    0.20
  -6  -7  -2    0.32    0.28
  -6  -7  -2    0.20    0.17
   6   7   2    0.16    0.25
   6   7   2    0.38    0.26
   6   7   2    0.33    0.28
   6   7   2    0.13    0.26
   6   7   2    0.37    0.24
  -7  -7  -2   37.39    1.92
  -7  -7  -2   36.03    1.95
  -7  -7  -2   36.67    2.06
   7   7   2   38.15    1.98
   7   7   2   37.25    2.07
   7   7   2   37.86    1.99
   7   7   2   37.30    1.95
  -8  -7  -2    4.19    0.48
  -8  -7  -2    3.26    0.51
   8   7   2    3.85    0.54
   8   7   2    3.41    0.41
  -9  -7  -2    2.26    0.40
   9   7   2    1.79    0.47
   9   7   2    1.79    0.36
 -10  -7  -2    2.74    0.50
  10   7   2    2.46    0.55
  10   7   2    3.31    0.43
  -7   8   2   -0.73    0.47
  -6   8   2    2.50    0.44
  -6   8   2    2.29    0.47
   5  -8  -2    0.70    0.31
  -5   8   2   -0.24    0.33
  -5   8   2    0.06    0.29
   4  -8  -2   11.75    0.79
  -4   8   2   12.34    0.92
  -4   8   2   12.70    0.76
  -4   8   2   10.53    0.79
  -4   8   2   14.54    1.03
  -4   8   2   12.59    0.82
  -3   8   2   13.17    0.70
  -3   8   2   11.33    0.74
  -3   8   2   12.30    0.76
  -3   8   2   11.23    0.89
  -2   8   2    1.57    0.22
  -2   8   2    1.34    0.22
  -2   8   2    0.98    0.28
  -2   8   2    1.15    0.24
  -1   8   2    5.22    0.56
  -1   8   2    5.33    0.40
   0   8   2    0.85    0.26
   0   8   2    1.38    0.20
   0   8   2    1.16    0.19
   1   8   2    2.29    0.30
   1   8   2    3.10    0.29
   1   8   2    2.33    0.34
   2   8   2   42.08    2.08
   2   8   2   37.53    2.11
   2   8   2   42.45    2.05
   2   8   2   41.28    2.22
   2   8   2   42.01    2.17
  -3  -8  -2    1.25    0.27
   3   8   2    1.53    0.30
   3   8   2    1.25    0.18
   3   8   2    1.32    0.21
   3   8   2    1.07    0.32
   3   8   2    1.35    0.24
  -4  -8  -2    3.43    0.47
   4   8   2    4.28    0.52
   4   8   2    3.90    0.56
   4   8   2    3.38    0.41
  -5  -8  -2    0.25    0.26
   5   8   2   -0.17    0.31
   5   8   2    0.27    0.24
   5   8   2    0.14    0.26
   5   8   2    0.21    0.24
  -6  -8  -2   25.52    1.60
   6   8   2   28.01    1.65
   6   8   2   30.00    1.54
   6   8   2   29.38    1.57
   6   8   2   28.29    1.52
  -7  -8  -2    0.70    0.23
   7   8   2    0.69    0.35
   7   8   2    1.08    0.39
   7   8   2    0.69    0.32
   7   8   2    0.80    0.32
  -8  -8  -2    2.40    0.29
   8   8   2    2.37    0.38
   8   8   2    1.99    0.41
   8   8   2    2.43    0.49
   9   8   2   -0.58    0.40
   9   8   2    0.08    0.34
  10   8   2    1.23    0.51
  -7   9   2   -0.19    0.52
  -6   9   2    2.12    0.54
  -6   9   2    1.75    0.50
  -5   9   2    0.08    0.41
  -5   9   2    0.53    0.54
  -4   9   2    9.39    0.63
  -4   9   2    6.87    0.75
  -4   9   2   10.00    0.73
  -4   9   2    7.44    0.81
  -3   9   2    0.81    0.35
  -3   9   2    0.90    0.32
  -3   9   2    1.03    0.23
  -3   9   2    1.17    0.30
  -2   9   2    7.16    0.69
  -2   9   2    6.55    0.53
  -2   9   2    6.65    0.55
  -1   9   2   -0.19    0.23
  -1   9   2    0.54    0.22
  -1   9   2    0.32    0.31
   0   9   2   11.92    0.85
   0   9   2   11.15    0.67
   0   9   2   10.53    0.68
   1   9   2   20.77    1.20
   1   9   2   20.58    1.07
   1   9   2   17.93    1.09
   2   9   2    1.05    0.24
   2   9   2    0.51    0.19
   2   9   2    0.40    0.34
   2   9   2    0.30    0.14
   2   9   2    0.58    0.29
   3   9   2   11.65    0.72
   3   9   2   12.17    0.86
   3   9   2   12.05    0.93
   3   9   2   11.64    0.73
   3   9   2   11.41    0.67
  -4  -9  -2   19.15    1.30
   4   9   2   22.79    1.32
   4   9   2   23.67    1.41
   4   9   2   24.01    1.22
   4   9   2   21.69    1.22
  -5  -9  -2   10.30    0.93
   5   9   2   13.88    0.94
   5   9   2   13.67    0.87
   5   9   2   12.39    1.00
   5   9   2   14.17    0.83
   5   9   2   14.17    0.84
   6   9   2    0.95    0.40
   6   9   2    1.02    0.36
   6   9   2    1.36    0.36
   7   9   2    0.46    0.40
   7   9   2    0.90    0.46
   7   9   2    0.12    0.36
   7   9   2    0.36    0.32
   8   9   2    3.36    0.49
   8   9   2    3.63    0.45
   8   9   2    2.47    0.52
   9   9   2    7.48    0.92
   9   9   2    9.43    0.80
   9   9   2    5.64    0.93
  -5  10   2   -0.16    0.49
  -5  10   2    0.26    0.47
  -4  10   2    0.05    0.42
  -4  10   2    0.35    0.44
  -3  10   2   10.58    0.94
  -3  10   2   10.01    0.76
  -3  10   2    8.65    0.85
  -2  10   2    1.23    0.36
  -2  10   2    2.15    0.46
  -2  10   2    1.99    0.33
  -1  10   2    9.00    0.65
  -1  10   2    9.30    0.86
  -1  10   2    8.96    0.70
   0  10   2    0.19    0.25
   0  10   2    0.10    0.33
   0  10   2    0.00    0.29
   1  10   2    6.17    0.53
   1  10   2    6.06    0.77
   1  10   2    4.98    0.53
   2  10   2    8.35    0.62
   2  10   2    8.27    0.64
   2  10   2    8.70    0.78
   2  10   2    8.52    0.89
   3  10   2   22.88    1.20
   3  10   2   21.38    1.26
   3  10   2   24.15    1.42
   3  10   2   24.43    1.28
   3  10   2   22.42    1.21
   3  10   2   23.57    1.49
   4  10   2    0.16    0.38
   4  10   2    0.48    0.41
   4  10   2   -0.04    0.32
   4  10   2   -0.27    0.30
   4  10   2    0.34    0.42
   5  10   2    1.60    0.69
   5  10   2    2.46    0.51
   5  10   2    2.54    0.37
   5  10   2    2.16    0.43
   6  10   2   -0.22    0.39
   6  10   2    0.00    0.38
   7  10   2    2.05    0.49
   7  10   2    1.56    0.48
   7  10   2    1.79    0.42
   8  10   2    2.14    0.55
   8  10   2    3.04    0.49
   8  10   2    3.01    0.54
  -4  11   2    2.71    0.57
  -4  11   2    2.89    0.61
  -3  11   2   -0.10    0.48
  -3  11   2    0.64    0.45
  -2  11   2    0.56    0.37
  -2  11   2    0.25    0.48
  -1  11   2   -0.21    0.33
  -1  11   2    0.21    0.46
   0  11   2    3.68    0.42
   0  11   2    2.52    0.51
   1  11   2    0.54    0.36
   1  11   2    1.41    0.46
   1  11   2    1.25    0.40
   1  11   2    0.80    0.51
   2  11   2    1.02    0.37
   2  11   2    0.97    0.44
   2  11   2    1.52    0.53
   2  11   2    0.68    0.37
   3  11   2    1.10    0.48
   3  11   2    0.81    0.39
   3  11   2    1.28    0.52
   3  11   2    1.00    0.38
   4  11   2    0.25    0.67
   4  11   2    0.18    0.38
   4  11   2    0.46    0.46
   4  11   2    0.21    0.47
   5  11   2   -0.09    0.47
   5  11   2   -0.07    0.44
   5  11   2    0.42    0.40
   6  11   2    2.08    0.47
   6  11   2    1.08    0.50
   6  11   2    1.49    0.51
   7  11   2    0.79    0.54
   7  11   2    0.81    0.48
   7  11   2    0.88    0.52
  -2  12   2   -0.02    0.59
  -1  12   2    0.53    0.54
   0  12   2    3.07    0.64
   0  12   2    4.20    0.64
   0  12   2    3.66    0.73
   1  12   2    0.00    0.51
   1  12   2    0.40    0.45
   1  12   2    0.54    0.62
   2  12   2    0.50    0.56
   2  12   2   -0.07    0.57
   2  12   2    0.24    0.46
   3  12   2    0.11    0.56
   3  12   2   -0.23    0.44
   3  12   2    0.06    0.56
   4  12   2    0.43    0.61
   4  12   2   -0.05    0.57
   4  12   2   -0.41    0.48
   5  12   2    2.92    0.65
   5  12   2    3.80    0.72
   5  12   2    4.71    0.61
   6  12   2   -0.35    0.58
   6  12   2    1.05    0.60
   1  13   2    1.74    0.73
   1  13   2    2.95    0.84
   2  13   2    1.92    0.75
   2  13   2    1.70    0.76
   4  12  -3    0.57    0.70
   3  12  -3    1.98    0.68
   3  12  -3    2.26    0.75
   2  12  -3    0.42    0.65
   2  12  -3    0.28    0.70
   1  12  -3    2.41    0.75
   1  12  -3    1.78    0.77
   0  12  -3   -0.03    0.69
   0  12  -3    0.33    0.75
   6  11  -3   -0.11    0.59
   5  11  -3    4.33    0.70
   5  11  -3    3.24    0.56
   4  11  -3    3.46    0.57
   4  11  -3    3.14    0.63
   4  11  -3    4.60    0.59
   3  11  -3   -0.74    0.52
   3  11  -3    0.40    0.49
   3  11  -3   -0.60    0.46
   2  11  -3    7.00    0.78
   2  11  -3    6.64    1.00
   2  11  -3    7.62    0.94
   1  11  -3    0.28    0.51
   1  11  -3    0.30    0.42
   1  11  -3    0.04    0.55
   0  11  -3    6.99    1.02
   0  11  -3    4.76    0.67
  -1  11  -3   -0.54    0.55
  -1  11  -3    0.49    0.45
  -1  11  -3   -0.34    0.58
  -2  11  -3    3.54    0.71
  -2  11  -3    3.01    0.73
  -3  11  -3    1.06    0.81
  -3  11  -3    1.20    0.70
   7  10  -3    1.69    0.44
   7  10  -3    0.37    0.53
   6  10  -3   12.90    0.94
   6  10  -3   13.37    0.92
   6  10  -3   12.95    1.15
   5  10  -3    0.75    0.38
   5  10  -3    0.86    0.32
   5  10  -3    1.24    0.51
   4  10  -3    0.44    0.39
   4  10  -3    0.46    0.44
   4  10  -3    0.14    0.27
   4  10  -3    0.32    0.41
   3  10  -3    1.58    0.42
   3  10  -3    1.12    0.47
   3  10  -3    1.09    0.26
   3  10  -3    1.77    0.42
   2  10  -3    1.70    0.43
   2  10  -3    1.02    0.39
   1  10  -3    6.31    0.65
   1  10  -3    7.22    0.88
   1  10  -3    5.80    0.78
   0  10  -3    4.32    0.79
   0  10  -3    3.95    0.55
   0  10  -3    4.67    0.59
  -1  10  -3    0.75    0.38
  -1  10  -3    0.18    0.46
  -1  10  -3    0.39    0.47
  -2  10  -3    1.35    0.54
  -2  10  -3    1.35    0.41
  -2  10  -3    1.39    0.32
  -2  10  -3    1.49    0.51
  -3  10  -3    0.95    0.46
  -3  10  -3    1.36    0.55
  -3  10  -3    2.07    0.40
  -4  10  -3    0.32    0.51
  -4  10  -3   -0.57    0.58
  -5  10  -3    5.26    0.85
   8   9  -3    0.87    0.46
   8   9  -3    1.65    0.41
   7   9  -3    5.97    0.85
   7   9  -3    6.69    0.67
   7   9  -3    7.89    0.67
   6   9  -3    0.17    0.43
   6   9  -3    0.42    0.43
   6   9  -3    0.46    0.30
   6   9  -3    0.42    0.30
   5   9  -3    0.34    0.26
   5   9  -3    0.73    0.37
   5   9  -3    0.24    0.38
   5   9  -3    0.13    0.34
   5   9  -3    0.29    0.29
   4   9  -3    0.88    0.39
   4   9  -3    1.34    0.28
   4   9  -3    0.67    0.23
   4   9  -3    0.80    0.32
   3   9  -3   15.10    1.04
   3   9  -3   15.43    0.96
   3   9  -3   14.60    0.80
   3   9  -3   12.97    0.81
   2   9  -3    4.69    0.55
   2   9  -3    3.85    0.57
   2   9  -3    3.56    0.65
   1   9  -3    7.56    0.61
   1   9  -3    6.73    0.69
   1   9  -3    7.43    0.74
   0   9  -3    0.22    0.28
   0   9  -3    0.37    0.37
   0   9  -3   -0.18    0.33
  -1   9  -3    5.60    0.73
  -1   9  -3    4.88    0.71
  -1   9  -3    5.38    0.56
  -2   9  -3    0.91    0.24
  -2   9  -3    0.72    0.44
  -2   9  -3    1.33    0.35
  -2   9  -3    1.04    0.24
  -3   9  -3    3.03    0.59
  -3   9  -3    2.44    0.42
  -3   9  -3    2.47    0.36
  -3   9  -3    2.86    0.36
  -3   9  -3    1.82    0.48
  -4   9  -3    0.31    0.37
  -4   9  -3   -0.02    0.41
  -5   9  -3    0.78    0.60
  -5   9  -3    0.59    0.47
  -6   9  -3    1.04    0.59
  -6   9  -3    2.45    0.60
   9   8  -3    4.26    0.50
   9   8  -3    3.15    0.55
   8   8  -3    0.64    0.34
   8   8  -3    0.46    0.40
   7   8  -3   -0.30    0.35
   7   8  -3    0.43    0.40
   6   8  -3    1.06    0.26
   6   8  -3    0.69    0.37
   6   8  -3    0.41    0.45
   6   8  -3    0.95    0.27
   6   8  -3    0.29    0.34
  -6  -8   3    0.71    0.33
   5   8  -3    1.27    0.32
   5   8  -3    0.50    0.26
   5   8  -3    0.99    0.59
   5   8  -3    0.91    0.30
   5   8  -3    0.79    0.23
   4   8  -3   10.96    0.70
   4   8  -3    9.56    0.61
   4   8  -3   10.46    0.80
   4   8  -3    9.56    0.64
   3   8  -3   17.00    0.93
   3   8  -3   17.46    0.92
   3   8  -3   17.21    1.10
   3   8  -3   18.34    1.03
   2   8  -3    0.07    0.24
   2   8  -3    0.06    0.28
   1   8  -3    0.08    0.25
   1   8  -3   -0.16    0.23
   1   8  -3    0.06    0.27
   0   8  -3    4.90    0.56
   0   8  -3    5.04    0.58
   0   8  -3    4.36    0.46
  -1   8  -3    1.30    0.33
  -1   8  -3    0.84    0.30
  -1   8  -3    1.24    0.26
  -2   8  -3    6.14    0.54
  -2   8  -3    5.28    0.41
  -2   8  -3    5.74    0.65
  -2   8  -3    4.61    0.38
  -3   8  -3    0.74    0.41
  -3   8  -3    0.09    0.29
  -3   8  -3    0.07    0.23
  -3   8  -3    0.21    0.24
  -4   8  -3    0.62    0.36
  -4   8  -3    0.38    0.33
  -4   8  -3    1.26    0.32
  -4   8  -3    0.97    0.49
  -5   8  -3    3.11    0.48
  -5   8  -3    2.88    0.44
  -5   8  -3    1.85    0.46
  -6   8  -3    7.63    0.85
  -6   8  -3    7.30    0.90
  -7   8  -3   -0.05    0.56
  -7   8  -3   -0.12    0.55
  10   7  -3    3.28    0.56
  10   7  -3    3.29    0.48
   9   7  -3    0.15    0.39
   9   7  -3    0.26    0.33
   8   7  -3    0.35    0.29
   8   7  -3   -0.02    0.33
   7   7  -3    0.11    0.33
   7   7  -3    0.15    0.25
  -7  -7   3   -0.05    0.28
   6   7  -3    8.33    0.58
   6   7  -3    9.33    0.59
   6   7  -3    8.75    0.76
   6   7  -3    8.44    0.68
   6   7  -3    8.79    0.68
  -6  -7   3    7.82    0.63
   5   7  -3    3.91    0.40
   5   7  -3    3.59    0.55
   5   7  -3    2.84    0.37
   5   7  -3    3.28    0.43
   5   7  -3    3.71    0.44
  -5  -7   3    3.16    0.49
   4   7  -3   22.09    1.25
   4   7  -3   20.36    1.11
   4   7  -3   22.18    1.16
   4   7  -3   20.99    1.14
   3   7  -3    1.16    0.23
   3   7  -3    1.04    0.16
   3   7  -3    0.89    0.26
   3   7  -3    1.06    0.16
   2   7  -3    5.38    0.46
   2   7  -3    5.17    0.51
   1   7  -3    0.07    0.19
   1   7  -3    0.18    0.22
   1   7  -3    0.01    0.18
   0   7  -3    1.07    0.24
   0   7  -3    0.88    0.21
   0   7  -3    0.70    0.24
  -1   7  -3    6.14    0.56
  -1   7  -3    6.48    0.48
  -2   7  -3    3.32    0.39
  -2   7  -3    1.94    0.25
  -2   7  -3    2.25    0.26
  -3   7  -3    1.99    0.35
  -3   7  -3    1.86    0.30
  -3   7  -3    1.57    0.33
  -3   7  -3    1.95    0.25
  -4   7  -3    1.97    0.30
  -4   7  -3    2.06    0.42
  -4   7  -3    1.92    0.33
  -4   7  -3    1.57    0.29
   4  -7   3    1.26    0.32
  -5   7  -3    7.64    0.70
  -5   7  -3    7.33    0.83
  -5   7  -3    8.16    0.67
  -5   7  -3    7.92    0.66
   5  -7   3    7.03    0.75
  -6   7  -3    1.04    0.42
  -6   7  -3   -0.26    0.62
  -6   7  -3    0.90    0.40
  -7   7  -3    0.52    0.47
  -7   7  -3    0.28    0.44
  -8   7  -3    1.62    0.60
  10   6  -3   -0.04    0.32
   9   6  -3    2.56    0.46
   9   6  -3    2.32    0.37
  -9  -6   3    2.51    0.38
   8   6  -3    3.55    0.38
   8   6  -3    3.50    0.61
  -8  -6   3    3.26    0.42
  -8  -6   3    3.04    0.42
   7   6  -3   15.68    1.03
   7   6  -3   15.16    0.91
   7   6  -3   16.59    1.01
  -7  -6   3   14.60    0.84
  -7  -6   3   15.15    0.94
  -7  -6   3   17.01    0.89
   6   6  -3    5.68    0.52
   6   6  -3    5.88    0.52
   6   6  -3    5.74    0.60
   6   6  -3    6.05    0.47
  -6  -6   3    4.91    0.56
   5   6  -3    6.72    0.46
   5   6  -3    6.83    0.50
   5   6  -3    7.30    0.62
   5   6  -3    7.40    0.46
   5   6  -3    7.31    0.50
  -5  -6   3    6.63    0.48
  -5  -6   3    5.43    0.58
   4   6  -3    3.39    0.33
   4   6  -3    2.79    0.28
   4   6  -3    3.23    0.44
  -4  -6   3    2.82    0.32
   3   6  -3   16.35    0.86
   3   6  -3   16.22    0.87
   3   6  -3   17.39    0.91
   3   6  -3   16.52    0.97
   2   6  -3    0.90    0.10
   2   6  -3    0.95    0.18
   2   6  -3    0.83    0.21
   1   6  -3   42.58    2.15
   1   6  -3   43.21    2.16
   1   6  -3   41.22    2.18
   0   6  -3    5.01    0.43
   0   6  -3    4.91    0.39
   0   6  -3    5.22    0.42
  -1   6  -3    5.43    0.41
  -2   6  -3    0.40    0.12
  -2   6  -3    0.49    0.13
  -2   6  -3    0.55    0.19
  -3   6  -3  143.78    7.06
  -3   6  -3  148.53    7.02
  -3   6  -3  144.90    7.03
   3  -6   3  132.53    7.05
  -4   6  -3    3.36    0.38
  -4   6  -3    3.26    0.43
  -4   6  -3    2.44    0.36
  -4   6  -3    3.65    0.53
   4  -6   3    3.12    0.44
  -5   6  -3   -0.33    0.28
  -5   6  -3    0.50    0.26
  -5   6  -3   -0.14    0.25
  -5   6  -3    0.14    0.34
   5  -6   3    0.76    0.28
  -6   6  -3    0.72    0.36
  -6   6  -3    0.09    0.31
  -6   6  -3    0.47    0.35
  -6   6  -3   -0.53    0.39
  -7   6  -3    5.73    0.72
  -7   6  -3    7.80    0.77
  -8   6  -3    2.58    0.53
  -8   6  -3    2.62    0.54
  10   5  -3   -0.39    0.29
  10   5  -3   -0.38    0.37
 -10  -5   3    0.01    0.43
   9   5  -3    7.61    0.62
   9   5  -3    7.52    0.78
  -9  -5   3    7.23    0.93
  -9  -5   3    8.51    1.14
  -9  -5   3    7.78    0.69
   8   5  -3   12.67    0.77
   8   5  -3   12.22    0.90
  -8  -5   3   10.74    0.91
  -8  -5   3   13.18    0.79
  -8  -5   3   11.60    0.86
   7   5  -3    4.31    0.49
   7   5  -3    3.60    0.49
   7   5  -3    4.35    0.42
  -7  -5   3    3.90    0.51
  -7  -5   3    4.53    0.41
  -7  -5   3    3.96    0.46
   6   5  -3    8.95    0.64
   6   5  -3    9.03    0.59
   6   5  -3    9.40    0.64
   6   5  -3   10.58    0.71
  -6  -5   3    9.73    0.71
  -6  -5   3    9.46    0.56
  -6  -5   3    9.50    0.60
  -6  -5   3    9.62    0.61
   5   5  -3   50.79    2.49
   5   5  -3   50.70    2.58
   5   5  -3   48.97    2.50
   5   5  -3   50.16    2.55
   5   5  -3   51.85    2.53
  -5  -5   3   50.31    2.47
  -5  -5   3   47.91    2.61
  -5  -5   3   48.36    2.51
   4   5  -3   41.53    1.96
   4   5  -3   38.60    1.95
   4   5  -3   41.07    2.04
   4   5  -3   36.49    1.99
  -4  -5   3   38.55    1.97
  -4  -5   3   37.30    2.06
   3   5  -3   21.80    1.08
   3   5  -3   21.48    1.14
   3   5  -3   20.15    1.06
   3   5  -3   20.55    1.05
  -3  -5   3   21.30    1.08
  -3  -5   3   19.30    1.15
   2   5  -3   17.06    0.88
   2   5  -3   18.11    0.93
   2   5  -3   17.63    0.97
   2   5  -3   17.46    0.88
   1   5  -3    1.89    0.24
   1   5  -3    1.88    0.27
   0   5  -3   24.28    1.32
   0   5  -3   25.44    1.31
   0   5  -3   25.92    1.32
  -1   5  -3    9.70    0.57
  -2   5  -3    7.03    0.39
  -2   5  -3    7.11    0.46
  -3   5  -3    0.37    0.14
  -3   5  -3    0.74    0.21
  -3   5  -3    0.25    0.13
  -3   5  -3    0.47    0.19
   3  -5   3    0.34    0.18
  -4   5  -3   25.12    1.28
  -4   5  -3   24.41    1.25
  -4   5  -3   22.32    1.30
  -4   5  -3   25.11    1.30
   4  -5   3   23.02    1.28
  -5   5  -3   -0.20    0.25
  -5   5  -3   -0.18    0.24
  -5   5  -3   -0.35    0.20
  -5   5  -3    0.14    0.22
   5  -5   3    0.01    0.22
  -6   5  -3    9.30    0.77
  -6   5  -3   11.12    0.77
  -6   5  -3   10.34    0.74
  -6   5  -3   10.74    0.71
  -7   5  -3    3.77    0.53
  -7   5  -3    4.80    0.60
  -7   5  -3    6.13    0.64
  -8   5  -3    0.53    0.40
  -8   5  -3    0.51    0.41
  -9   5  -3    1.02    0.51
  -9   5  -3    1.42    0.54
  11   4  -3    0.05    0.40
  11   4  -3    0.59    0.33
  10   4  -3   14.13    0.91
  10   4  -3   14.14    1.09
 -10  -4   3   13.78    1.03
   9   4  -3    0.74    0.27
   9   4  -3    0.90    0.38
  -9  -4   3    0.63    0.44
  -9  -4   3    0.72    0.41
   8   4  -3    0.10    0.22
   8   4  -3    0.16    0.28
  -8  -4   3   -0.28    0.25
  -8  -4   3   -0.02    0.29
  -8  -4   3    1.00    0.35
   7   4  -3    4.31    0.42
   7   4  -3    5.08    0.55
   7   4  -3    3.88    0.44
   7   4  -3    4.00    0.39
  -7  -4   3    4.94    0.49
  -7  -4   3    3.87    0.46
  -7  -4   3    3.98    0.42
   6   4  -3   44.31    2.32
   6   4  -3   46.64    2.29
   6   4  -3   44.53    2.32
   6   4  -3   45.28    2.36
  -6  -4   3   45.25    2.30
  -6  -4   3   44.54    2.33
  -6  -4   3   46.75    2.29
  -6  -4   3   43.79    2.40
   5   4  -3    1.54    0.21
   5   4  -3    1.27    0.20
   5   4  -3    1.31    0.24
   5   4  -3    1.28    0.18
  -5  -4   3    0.87    0.23
  -5  -4   3    1.33    0.18
  -5  -4   3    1.36    0.18
  -5  -4   3    1.32    0.17
   4   4  -3    3.06    0.22
   4   4  -3    2.43    0.24
   4   4  -3    2.88    0.33
   4   4  -3    2.77    0.25
  -4  -4   3    2.58    0.32
  -4  -4   3    2.43    0.21
  -4  -4   3    2.43    0.23
  -4  -4   3    2.52    0.23
   3   4  -3    1.52    0.18
   3   4  -3    1.19    0.13
   3   4  -3    1.54    0.26
   3   4  -3    1.36    0.17
  -3  -4   3    1.36    0.24
  -3  -4   3    1.15    0.16
   2   4  -3   59.85    2.96
   2   4  -3   61.91    2.97
   2   4  -3   62.37    2.99
   2   4  -3   59.75    3.02
  -2  -4   3   56.70    3.03
   1   4  -3   19.29    1.04
   1   4  -3   20.20    1.02
   0   4  -3   40.19    1.92
   0   4  -3   35.90    1.92
  -1   4  -3    0.39    0.12
  -2   4  -3   49.02    2.40
  -2   4  -3   48.52    2.44
   2  -4   3   48.07    2.44
  -3   4  -3    4.91    0.37
  -3   4  -3    4.65    0.38
  -3   4  -3    4.73    0.33
  -3   4  -3    4.93    0.32
   3  -4   3    5.37    0.36
  -4   4  -3    8.90    0.55
  -4   4  -3    8.24    0.52
  -4   4  -3    7.54    0.50
  -4   4  -3    8.96    0.55
   4  -4   3    7.47    0.53
  -5   4  -3   18.99    1.13
  -5   4  -3   19.60    1.05
  -5   4  -3   18.59    1.06
  -5   4  -3   19.24    1.02
   5  -4   3   19.23    1.06
   5  -4   3   17.88    0.97
   5  -4   3   18.74    0.99
  -6   4  -3    1.04    0.28
  -6   4  -3    1.17    0.25
  -6   4  -3    1.21    0.31
  -6   4  -3    1.29    0.27
   6  -4   3    1.20    0.28
   6  -4   3    0.98    0.24
   6  -4   3    1.10    0.21
  -7   4  -3   -0.03    0.35
  -7   4  -3    0.53    0.47
  -7   4  -3   -0.19    0.35
   7  -4   3   -0.20    0.28
   7  -4   3    0.29    0.29
  -8   4  -3   -0.35    0.45
  -8   4  -3    0.60    0.36
  -8   4  -3    0.59    0.35
   8  -4   3    0.17    0.37
  -9   4  -3   10.09    0.93
  -9   4  -3   10.53    0.92
   9  -4   3    8.80    0.93
  11   3  -3    2.25    0.51
  11   3  -3    2.02    0.38
 -11  -3   3    2.17    0.54
  10   3  -3    0.15    0.27
  10   3  -3    0.33    0.37
 -10  -3   3    1.04    0.39
   9   3  -3    4.81    0.67
   9   3  -3    4.91    0.49
  -9  -3   3    5.29    0.79
  -9  -3   3    5.32    0.59
   8   3  -3   20.79    1.19
   8   3  -3   18.94    1.07
  -8  -3   3   18.20    1.12
  -8  -3   3   18.58    1.17
  -8  -3   3   18.24    1.11
   7   3  -3   15.85    0.86
   7   3  -3   14.68    0.88
   7   3  -3   16.77    0.97
   7   3  -3   12.99    0.88
  -7  -3   3   15.97    0.90
  -7  -3   3   15.80    0.94
  -7  -3   3   14.48    0.89
   6   3  -3    0.05    0.14
   6   3  -3    0.22    0.15
   6   3  -3    0.02    0.16
   6   3  -3    0.40    0.22
  -6  -3   3    0.08    0.18
  -6  -3   3    0.27    0.21
  -6  -3   3    0.34    0.17
  -6  -3   3    0.21    0.17
   5   3  -3    1.78    0.25
   5   3  -3    1.94    0.23
   5   3  -3    2.22    0.33
   5   3  -3    2.02    0.23
  -5  -3   3    1.99    0.21
  -5  -3   3    1.88    0.27
  -5  -3   3    1.88    0.33
  -5  -3   3    1.92    0.21
   4   3  -3    6.02    0.38
   4   3  -3    6.90    0.47
   4   3  -3    6.43    0.41
  -4  -3   3    6.70    0.47
  -4  -3   3    6.51    0.39
  -4  -3   3    6.34    0.39
  -4  -3   3    6.72    0.39
   3   3  -3   58.97    2.98
   3   3  -3   62.87    2.99
   3   3  -3   59.79    3.02
   3   3  -3   59.92    2.97
  -3  -3   3   61.34    3.05
  -3  -3   3   59.44    2.98
  -3  -3   3   59.30    2.97
   2   3  -3    5.42    0.35
   2   3  -3    6.64    0.40
   2   3  -3    6.75    0.35
   2   3  -3    6.75    0.35
  -2  -3   3    6.07    0.41
   1   3  -3   41.39    2.07
   1   3  -3   43.71    2.05
  -1  -3   3   38.28    2.07
   0   3  -3   22.97    1.18
  -1   3  -3   15.95    0.85
  -1   3  -3   15.46    0.80
  -1   3  -3   17.12    0.81
  -2   3  -3   11.82    0.63
  -2   3  -3   11.61    0.60
  -2   3  -3   10.85    0.62
  -2   3  -3   11.36    0.59
   2  -3   3   12.05    0.63
  -3   3  -3   13.70    0.71
  -3   3  -3   13.61    0.75
  -3   3  -3   14.40    0.73
  -3   3  -3   13.54    0.73
   3  -3   3   13.18    0.68
   3  -3   3   13.73    0.79
   3  -3   3   12.73    0.69
  -4   3  -3    0.04    0.16
  -4   3  -3    0.03    0.13
  -4   3  -3    0.09    0.12
  -4   3  -3   -0.04    0.14
   4  -3   3    0.05    0.10
   4  -3   3    0.00    0.11
   4  -3   3    0.01    0.13
  -5   3  -3    0.85    0.18
  -5   3  -3    1.01    0.20
  -5   3  -3    1.04    0.23
  -5   3  -3    1.13    0.21
   5  -3   3    0.99    0.22
   5  -3   3    0.89    0.18
   5  -3   3    0.95    0.16
  -6   3  -3    6.97    0.55
  -6   3  -3    7.43    0.53
  -6   3  -3    6.41    0.54
  -6   3  -3    6.16    0.48
   6  -3   3    6.72    0.55
   6  -3   3    6.82    0.48
   6  -3   3    5.69    0.50
  -7   3  -3    8.81    0.69
  -7   3  -3    9.20    0.71
  -7   3  -3    9.91    0.70
   7  -3   3    9.29    0.66
   7  -3   3    9.39    0.65
  -8   3  -3    0.31    0.31
  -8   3  -3   -0.01    0.29
  -8   3  -3   -0.45    0.37
   8  -3   3    0.03    0.33
   8  -3   3    0.42    0.31
  -9   3  -3    0.89    0.39
  -9   3  -3    1.17    0.42
   9  -3   3   -0.14    0.43
 -10   3  -3    1.22    0.50
 -10   3  -3    1.62    0.51
  10  -3   3    1.31    0.53
  11   2  -3    0.60    0.48
  11   2  -3   -0.37    0.31
 -11  -2   3    0.53    0.46
  10   2  -3    3.61    0.55
  10   2  -3    3.47    0.40
 -10  -2   3    2.49    0.47
   9   2  -3   16.57    1.07
   9   2  -3   16.15    0.92
  -9  -2   3   12.28    1.13
  -9  -2   3   15.02    0.99
   8   2  -3    1.68    0.39
   8   2  -3    2.02    0.30
  -8  -2   3    1.25    0.36
  -8  -2   3    1.90    0.35
  -8  -2   3    1.39    0.31
   7   2  -3    0.56    0.25
   7   2  -3    0.34    0.18
   7   2  -3    0.41    0.18
  -7  -2   3    0.39    0.22
  -7  -2   3    0.01    0.24
  -7  -2   3    0.28    0.21
   6   2  -3    3.81    0.36
   6   2  -3    5.52    0.49
   6   2  -3    4.82    0.36
   6   2  -3    3.97    0.37
  -6  -2   3    4.20    0.47
  -6  -2   3    5.46    0.39
  -6  -2   3    4.12    0.39
   5   2  -3   17.87    0.92
   5   2  -3   16.54    0.93
   5   2  -3   16.41    0.94
   5   2  -3   18.80    0.98
  -5  -2   3   18.07    1.01
  -5  -2   3   14.49    0.93
  -5  -2   3   17.11    0.93
  -5  -2   3   19.01    0.93
   4   2  -3   31.67    1.58
   4   2  -3   29.49    1.61
   4   2  -3   31.04    1.60
   4   2  -3   30.86    1.62
  -4  -2   3   30.20    1.58
  -4  -2   3   34.20    1.58
  -4  -2   3   31.35    1.65
  -4  -2   3   31.05    1.59
   3   2  -3    9.42    0.52
   3   2  -3    9.80    0.53
   3   2  -3    9.10    0.56
  -3  -2   3   10.24    0.58
  -3  -2   3    9.98    0.52
  -3  -2   3    9.92    0.51
  -3  -2   3    9.62    0.52
   2   2  -3    0.13    0.06
   2   2  -3    0.15    0.06
   2   2  -3    0.28    0.10
  -2  -2   3    0.19    0.09
  -2  -2   3    0.19    0.06
  -2  -2   3    0.16    0.04
  -2  -2   3    0.02    0.05
   1   2  -3   18.65    1.03
   1   2  -3   21.07    0.99
   1   2  -3   19.75    0.99
   1   2  -3   20.65    0.99
  -1  -2   3   19.21    1.02
   0   2  -3   16.25    0.82
  -1   2  -3   73.78    3.70
  -1   2  -3   72.73    3.67
  -1   2  -3   76.95    3.67
   1  -2   3   75.24    3.70
  -2   2  -3   34.23    1.68
  -2   2  -3   32.95    1.68
  -2   2  -3   33.89    1.70
  -2   2  -3   33.77    1.68
   2  -2   3   33.44    1.67
   2  -2   3   34.11    1.67
   2  -2   3   33.57    1.70
  -3   2  -3    1.53    0.21
  -3   2  -3    1.42    0.16
  -3   2  -3    1.43    0.19
  -3   2  -3    1.58    0.19
   3  -2   3    1.72    0.17
   3  -2   3    1.57    0.15
   3  -2   3    1.46    0.19
  -4   2  -3    0.16    0.14
  -4   2  -3    0.14    0.12
  -4   2  -3    0.05    0.12
  -4   2  -3    0.18    0.11
   4  -2   3    0.00    0.10
   4  -2   3    0.00    0.15
   4  -2   3    0.17    0.11
   4  -2   3    0.21    0.13
  -5   2  -3    0.09    0.16
  -5   2  -3    0.05    0.18
  -5   2  -3    0.07    0.16
  -5   2  -3    0.16    0.13
   5  -2   3    0.00    0.15
   5  -2   3   -0.03    0.21
   5  -2   3    0.22    0.14
  -6   2  -3   40.53    2.15
  -6   2  -3   40.92    2.16
  -6   2  -3   42.53    2.13
  -6   2  -3   41.29    2.15
   6  -2   3   41.62    2.13
   6  -2   3   41.36    2.16
   6  -2   3   43.43    2.14
   6  -2   3   42.07    2.21
  -7   2  -3    2.51    0.33
  -7   2  -3    2.36    0.35
  -7   2  -3    2.01    0.33
  -7   2  -3    3.11    0.34
   7  -2   3    2.68    0.33
   7  -2   3    2.85    0.31
   7  -2   3    1.99    0.39
  -8   2  -3    0.60    0.28
  -8   2  -3    0.13    0.28
  -8   2  -3    0.18    0.34
   8  -2   3    0.52    0.34
   8  -2   3    0.45    0.40
   8  -2   3    0.74    0.29
  -9   2  -3    0.78    0.33
  -9   2  -3    0.41    0.37
   9  -2   3    0.40    0.45
   9  -2   3    0.50    0.34
 -10   2  -3    2.79    0.47
 -10   2  -3    3.50    0.54
  10  -2   3    1.73    0.49
  11   1  -3    1.52    0.50
  11   1  -3   -0.29    0.32
 -11  -1   3    0.41    0.45
  10   1  -3    5.45    0.58
  10   1  -3    6.31    0.90
 -10  -1   3    5.79    0.59
   9   1  -3    1.48    0.28
   9   1  -3    1.55    0.40
  -9  -1   3    0.66    0.33
   8   1  -3    8.94    0.64
  -8  -1   3    8.38    0.65
  -8  -1   3    7.16    0.67
   7   1  -3    2.77    0.32
   7   1  -3    2.67    0.47
  -7  -1   3    1.86    0.29
  -7  -1   3    2.02    0.31
  -7  -1   3    2.58    0.31
  -7  -1   3    2.90    0.34
   6   1  -3   19.10    1.13
   6   1  -3   22.43    1.12
   6   1  -3   23.76    1.20
   6   1  -3   19.44    1.13
  -6  -1   3   20.18    1.13
  -6  -1   3   20.06    1.18
  -6  -1   3   19.82    1.14
  -6  -1   3   22.70    1.12
   5   1  -3   -0.04    0.11
   5   1  -3    0.09    0.12
   5   1  -3    0.27    0.17
   5   1  -3    0.01    0.13
  -5  -1   3    0.10    0.13
  -5  -1   3    0.09    0.13
  -5  -1   3   -0.08    0.16
  -5  -1   3    0.08    0.14
   4   1  -3   41.86    2.00
   4   1  -3   43.10    2.05
   4   1  -3   33.94    2.03
  -4  -1   3   38.79    2.09
  -4  -1   3   38.63    2.00
  -4  -1   3   38.52    2.01
  -4  -1   3   44.00    2.01
   3   1  -3    9.60    0.52
   3   1  -3    9.74    0.57
   3   1  -3   10.12    0.53
  -3  -1   3   10.80    0.59
  -3  -1   3    9.52    0.52
  -3  -1   3    9.74    0.53
  -3  -1   3    8.82    0.52
   2   1  -3   25.65    1.35
   2   1  -3   26.26    1.37
   2   1  -3   28.42    1.36
  -2  -1   3   28.78    1.39
  -2  -1   3   27.32    1.35
  -2  -1   3   24.84    1.34
  -2  -1   3   28.37    1.36
   1   1  -3    0.14    0.05
   1   1  -3    0.19    0.06
   1   1  -3    0.12    0.04
  -1  -1   3    0.12    0.05
  -1  -1   3    0.15    0.05
  -1  -1   3    0.03    0.07
   0   1  -3   39.30    1.90
   0   1  -3   38.39    1.90
   0   1  -3   40.44    1.91
   0   1  -3   40.45    1.91
   0  -1   3   37.44    1.91
   0  -1   3   36.58    1.90
   0  -1   3   37.82    1.90
  -1   1  -3   27.68    1.34
  -1   1  -3   24.11    1.31
  -1   1  -3   28.79    1.32
   1  -1   3   27.39    1.32
   1  -1   3   24.35    1.31
   1  -1   3   26.90    1.34
  -2   1  -3    1.27    0.12
  -2   1  -3    1.44    0.16
  -2   1  -3    1.53    0.11
  -2   1  -3    1.48    0.14
   2  -1   3    1.42    0.13
   2  -1   3    1.48    0.16
   2  -1   3    1.32    0.15
   2  -1   3    1.59    0.13
  -3   1  -3    2.57    0.22
  -3   1  -3    2.23    0.21
  -3   1  -3    2.22    0.18
  -3   1  -3    2.48    0.19
   3  -1   3    2.46    0.20
   3  -1   3    2.63    0.19
   3  -1   3    2.54    0.22
  -4   1  -3   39.87    1.96
  -4   1  -3   38.82    1.95
  -4   1  -3   37.26    1.95
  -4   1  -3   38.34    1.96
  -4   1  -3   38.82    1.97
   4  -1   3   39.86    1.95
   4  -1   3   37.48    1.94
   4  -1   3   39.04    1.97
  -5   1  -3   20.84    1.12
  -5   1  -3   21.18    1.12
  -5   1  -3   21.13    1.13
  -5   1  -3   21.72    1.10
  -5   1  -3   21.55    1.12
   5  -1   3   21.20    1.10
   5  -1   3   18.48    1.17
   5  -1   3   21.87    1.11
   5  -1   3   20.97    1.12
  -6   1  -3    4.86    0.40
  -6   1  -3    5.24    0.35
  -6   1  -3    4.57    0.42
  -6   1  -3    4.42    0.43
  -6   1  -3    4.82    0.41
   6  -1   3    4.18    0.38
   6  -1   3    3.82    0.57
   6  -1   3    5.35    0.40
   6  -1   3    4.95    0.40
  -7   1  -3    0.92    0.18
  -7   1  -3    0.65    0.23
  -7   1  -3    0.30    0.24
  -7   1  -3    0.76    0.28
   7  -1   3    0.96    0.25
   7  -1   3    0.88    0.23
   7  -1   3    0.30    0.22
   7  -1   3    0.62    0.35
  -8   1  -3   15.67    0.96
  -8   1  -3   14.92    1.02
  -8   1  -3   16.47    0.99
   8  -1   3   15.61    0.98
   8  -1   3   15.58    0.93
   8  -1   3   15.43    1.13
  -9   1  -3    2.88    0.41
  -9   1  -3    2.42    0.42
   9  -1   3    1.91    0.54
   9  -1   3    2.41    0.38
 -10   1  -3    0.31    0.41
 -10   1  -3    1.03    0.36
  10  -1   3    0.20    0.39
  10  -1   3    0.07    0.53
  11   0  -3   -0.04    0.38
  11   0  -3    0.03    0.52
 -11   0   3   -0.04    0.45
  10   0  -3    1.23    0.47
  10   0  -3    0.88    0.32
 -10   0   3    0.70    0.38
   9   0  -3    0.14    0.24
   9   0  -3    0.61    0.39
  -9   0   3    0.40    0.30
   8   0  -3    3.05    0.39
  -8   0   3    3.31    0.55
  -8   0   3    2.35    0.35
   7   0  -3    1.75    0.27
   7   0  -3    1.04    0.30
   7   0  -3    1.24    0.22
   7   0  -3    1.35    0.23
  -7   0   3    1.07    0.24
  -7   0   3    1.27    0.25
  -7   0   3    1.39    0.22
   6   0  -3    1.63    0.21
   6   0  -3    1.24    0.29
   6   0  -3    1.30    0.20
   6   0  -3    1.21    0.19
  -6   0   3    1.48    0.22
  -6   0   3    1.55    0.20
  -6   0   3    0.88    0.21
   5   0  -3    8.99    0.57
   5   0  -3   10.73    0.66
   5   0  -3   10.51    0.57
   5   0  -3    9.33    0.58
  -5   0   3    9.27    0.62
  -5   0   3   10.80    0.57
  -5   0   3    8.83    0.58
   4   0  -3    0.04    0.10
   4   0  -3    0.15    0.16
   4   0  -3    0.22    0.10
  -4   0   3    0.01    0.11
  -4   0   3    0.10    0.11
   3   0  -3   95.73    4.51
   3   0  -3   83.94    4.52
   3   0  -3   95.59    4.55
   3   0  -3   87.29    4.52
  -3   0   3   82.94    4.52
  -3   0   3   94.99    4.55
  -3   0   3   99.53    4.52
   2   0  -3    7.50    0.41
   2   0  -3    7.75    0.45
   2   0  -3    7.75    0.42
  -2   0   3    8.15    0.41
  -2   0   3    7.36    0.42
  -2   0   3    7.50    0.46
   1   0  -3   29.92    1.51
   1   0  -3   32.00    1.50
  -1   0   3   27.80    1.51
  -1   0   3   30.35    1.49
  -1   0   3   30.31    1.49
   0   0  -3   31.32    1.52
   0   0  -3   33.48    1.52
   0   0  -3   28.84    1.52
   0   0   3   30.92    1.52
   0   0   3   32.13    1.52
   0   0   3   28.99    1.52
   0   0   3   27.03    1.51
  -1   0  -3   66.47    2.97
  -1   0  -3   61.39    2.97
  -1   0  -3   60.92    2.98
  -1   0  -3   60.12    2.96
   1   0   3   63.47    2.97
   1   0   3   57.36    2.96
   1   0   3   55.58    2.96
   1   0   3   51.43    2.97
   1   0   3   64.10    2.96
  -2   0  -3    0.05    0.06
  -2   0  -3    0.02    0.07
  -2   0  -3    0.02    0.07
  -2   0  -3   -0.08    0.05
  -2   0  -3    0.03    0.05
   2   0   3    0.09    0.06
   2   0   3    0.04    0.06
   2   0   3    0.01    0.05
   2   0   3    0.01    0.07
  -3   0  -3  137.12    6.74
  -3   0  -3  138.45    6.74
  -3   0  -3  132.28    6.73
  -3   0  -3  141.33    6.74
  -3   0  -3  130.67    6.73
   3   0   3  140.59    6.73
   3   0   3  130.92    6.72
   3   0   3  138.98    6.73
   3   0   3  139.43    6.74
  -4   0  -3    1.20    0.19
  -4   0  -3    1.53    0.19
  -4   0  -3    1.33    0.21
  -4   0  -3    1.35    0.17
   4   0   3    1.62    0.26
   4   0   3    1.13    0.17
   4   0   3    1.28    0.15
   4   0   3    1.41    0.16
  -5   0  -3   14.80    0.82
  -5   0  -3   14.97    0.82
  -5   0  -3   15.05    0.80
  -5   0  -3   14.67    0.83
  -5   0  -3   14.50    0.82
   5   0   3   14.51    0.82
   5   0   3   13.75    0.79
   5   0   3   15.49    0.87
   5   0   3   15.21    0.81
  -6   0  -3    0.05    0.12
  -6   0  -3    0.01    0.18
  -6   0  -3    0.27    0.17
  -6   0  -3    0.18    0.17
  -6   0  -3    0.14    0.13
   6   0   3    0.23    0.16
   6   0   3    0.09    0.16
   6   0   3    0.21    0.24
   6   0   3    0.11    0.16
  -7   0  -3   46.66    2.41
  -7   0  -3   47.52    2.43
  -7   0  -3   45.35    2.43
  -7   0  -3   46.72    2.42
   7   0   3   48.05    2.41
   7   0   3   46.18    2.47
   7   0   3   46.88    2.38
  -8   0  -3   11.19    0.82
  -8   0  -3   11.19    0.75
  -8   0  -3   11.37    0.77
   8   0   3   10.83    0.94
   8   0   3   10.57    0.71
  -9   0  -3    5.72    0.62
  -9   0  -3    5.63    0.58
   9   0   3    5.47    0.54
   9   0   3    4.77    0.88
 -10   0  -3    0.20    0.32
 -10   0  -3   -0.38    0.35
  10   0   3   -0.08    0.33
  10   0   3   -0.02    0.51
 -11   0  -3    4.30    0.59
 -11   0  -3    5.43    0.75
  11   0   3    3.27    0.56
  11   0   3    2.50    0.74
  11  -1  -3   -0.02    0.42
  11  -1  -3    1.04    0.55
  10  -1  -3    1.63    0.36
  10  -1  -3    0.69    0.45
 -10   1   3    0.87    0.39
   9  -1  -3    6.44    0.84
   9  -1  -3    5.40    0.58
  -9   1   3    5.86    0.63
   8  -1  -3    4.34    0.52
  -8   1   3    3.01    0.41
  -8   1   3    4.63    0.50
   7  -1  -3   14.52    1.02
   7  -1  -3   16.00    0.85
   7  -1  -3   14.80    0.87
   7  -1  -3   15.09    0.88
  -7   1   3   12.02    0.90
  -7   1   3   15.32    0.89
   6  -1  -3    0.18    0.15
   6  -1  -3   -0.26    0.16
   6  -1  -3   -0.05    0.25
   6  -1  -3    0.09    0.16
  -6   1   3   -0.19    0.17
  -6   1   3    0.04    0.16
  -6   1   3    0.06    0.16
   5  -1  -3   70.09    3.59
   5  -1  -3   72.96    3.52
   5  -1  -3   69.14    3.54
   5  -1  -3   69.36    3.54
  -5   1   3   67.82    3.54
  -5   1   3   71.30    3.57
  -5   1   3   73.46    3.52
   4  -1  -3    1.58    0.23
   4  -1  -3    2.07    0.21
   4  -1  -3    1.85    0.33
   4  -1  -3    2.38    0.22
  -4   1   3    2.36    0.31
  -4   1   3    1.94    0.23
  -4   1   3    2.00    0.23
   3  -1  -3   74.47    3.43
   3  -1  -3   66.27    3.44
   3  -1  -3   66.53    3.44
   3  -1  -3   71.23    3.48
  -3   1   3   72.32    3.47
  -3   1   3   64.87    3.44
   2  -1  -3    0.08    0.06
   2  -1  -3   -0.06    0.09
   2  -1  -3   -0.03    0.07
  -2   1   3    0.09    0.07
  -2   1   3    0.06    0.07
  -2   1   3    0.03    0.11
   1  -1  -3   42.57    2.16
   1  -1  -3   48.55    2.16
  -1   1   3   41.86    2.16
  -1   1   3   45.58    2.16
  -1   1   3   39.42    2.17
  -1   1   3   43.39    2.16
   0  -1  -3   63.76    3.21
   0  -1  -3   64.50    3.20
   0   1   3   67.65    3.20
   0   1   3   63.81    3.21
  -1  -1  -3   38.65    1.86
  -1  -1  -3   40.70    1.87
  -1  -1  -3   35.77    1.87
  -1  -1  -3   38.37    1.87
   1   1   3   33.05    1.88
   1   1   3   37.38    1.86
   1   1   3   37.48    1.86
   1   1   3   38.07    1.86
  -2  -1  -3   87.75    4.37
  -2  -1  -3   81.68    4.36
  -2  -1  -3   90.55    4.36
  -2  -1  -3   91.48    4.36
   2   1   3   87.99    4.36
   2   1   3   90.58    4.36
   2   1   3   85.56    4.35
   2   1   3   91.15    4.36
  -3  -1  -3    0.18    0.10
  -3  -1  -3    0.15    0.09
  -3  -1  -3    0.12    0.10
  -3  -1  -3    0.23    0.09
  -3  -1  -3    0.11    0.09
   3   1   3    0.15    0.08
   3   1   3    0.24    0.10
   3   1   3    0.21    0.09
   3   1   3    0.10    0.09
   3   1   3    0.29    0.10
  -4  -1  -3   16.01    0.85
  -4  -1  -3   14.33    0.96
  -4  -1  -3   15.84    0.84
  -4  -1  -3   15.61    0.85
   4   1   3   17.40    0.86
   4   1   3   15.00    0.82
   4   1   3   15.51    0.83
   4   1   3   15.11    0.85
  -5  -1  -3   30.02    1.63
  -5  -1  -3   35.81    1.67
  -5  -1  -3   31.84    1.66
  -5  -1  -3   29.21    1.69
  -5  -1  -3   31.47    1.66
   5   1   3   31.03    1.65
   5   1   3   31.31    1.63
   5   1   3   35.53    1.67
  -6  -1  -3   25.14    1.46
  -6  -1  -3   26.45    1.48
  -6  -1  -3   26.98    1.47
  -6  -1  -3   30.09    1.47
  -6  -1  -3   26.77    1.43
   6   1   3   26.49    1.43
   6   1   3   27.34    1.46
   6   1   3   32.08    1.51
  -7  -1  -3    2.88    0.41
  -7  -1  -3    3.45    0.39
  -7  -1  -3    3.19    0.40
  -7  -1  -3    2.63    0.37
   7   1   3    3.06    0.35
   7   1   3    4.04    0.55
  -8  -1  -3    0.95    0.34
  -8  -1  -3    0.69    0.29
  -8  -1  -3    0.81    0.31
   8   1   3    0.84    0.24
   8   1   3    0.94    0.36
  -9  -1  -3    1.16    0.36
  -9  -1  -3    1.29    0.31
   9   1   3    1.06    0.28
 -10  -1  -3   20.05    1.26
 -10  -1  -3   21.29    1.27
  10   1   3   20.82    1.47
  10   1   3   19.47    1.22
 -11  -1  -3    1.43    0.42
 -11  -1  -3    0.62    0.42
  11   1   3    1.30    0.64
  11   1   3    0.16    0.39
  10  -2  -3    8.56    0.79
  10  -2  -3    8.15    1.04
 -10   2   3    7.98    0.79
   9  -2  -3   -0.40    0.28
   9  -2  -3    0.19    0.42
  -9   2   3   -0.04    0.30
   8  -2  -3    0.24    0.38
   8  -2  -3    0.79    0.46
  -8   2   3    0.40    0.27
   7  -2  -3    0.09    0.24
   7  -2  -3    0.58    0.20
   7  -2  -3    0.15    0.33
   7  -2  -3    0.42    0.25
  -7   2   3    0.46    0.23
  -7   2   3   -0.35    0.23
   6  -2  -3   66.48    3.16
   6  -2  -3   62.72    3.17
   6  -2  -3   67.27    3.18
   6  -2  -3   53.33    3.24
  -6   2   3   64.84    3.15
  -6   2   3   63.95    3.18
  -6   2   3   60.41    3.20
   5  -2  -3   -0.10    0.14
   5  -2  -3   -0.02    0.13
   5  -2  -3   -0.32    0.20
   5  -2  -3    0.04    0.15
  -5   2   3   -0.08    0.17
  -5   2   3    0.08    0.15
  -5   2   3    0.08    0.13
   4  -2  -3    1.35    0.19
   4  -2  -3    1.10    0.15
   4  -2  -3    1.07    0.23
   4  -2  -3    0.94    0.16
  -4   2   3    0.99    0.16
  -4   2   3    1.38    0.19
   3  -2  -3   10.51    0.55
   3  -2  -3    9.98    0.55
   3  -2  -3   10.58    0.55
  -3   2   3    9.60    0.54
  -3   2   3    9.52    0.60
  -3   2   3    9.64    0.56
   2  -2  -3   92.01    4.28
   2  -2  -3   86.25    4.28
   2  -2  -3   87.56    4.28
  -2   2   3   79.96    4.31
  -2   2   3   89.74    4.28
  -2   2   3   84.66    4.29
   1  -2  -3   30.38    1.43
   1  -2  -3   27.72    1.42
  -1   2   3   27.64    1.42
  -1   2   3   27.23    1.44
  -1   2   3   28.91    1.42
   0  -2  -3   50.49    2.42
   0  -2  -3   50.19    2.40
   0  -2  -3   48.54    2.43
   0  -2  -3   48.56    2.41
   0   2   3   47.21    2.43
   0   2   3   47.95    2.42
   0   2   3   48.52    2.42
  -1  -2  -3    1.21    0.12
  -1  -2  -3    1.18    0.15
  -1  -2  -3    1.12    0.10
  -1  -2  -3    1.13    0.13
   1   2   3    1.15    0.11
   1   2   3    1.24    0.13
   1   2   3    1.36    0.16
   1   2   3    1.22    0.10
  -2  -2  -3   14.78    0.82
  -2  -2  -3   16.39    0.81
  -2  -2  -3   15.74    0.80
  -2  -2  -3   15.84    0.81
   2   2   3   15.96    0.81
   2   2   3   15.10    0.83
   2   2   3   15.47    0.81
   2   2   3   15.52    0.80
   2   2   3   15.55    0.82
  -3  -2  -3   64.25    3.22
  -3  -2  -3   66.16    3.20
  -3  -2  -3   58.34    3.21
  -3  -2  -3   65.77    3.20
  -3  -2  -3   65.08    3.20
   3   2   3   63.67    3.20
   3   2   3   64.85    3.22
   3   2   3   64.87    3.20
   3   2   3   65.36    3.19
   3   2   3   65.51    3.21
  -4  -2  -3   39.91    2.18
  -4  -2  -3   39.32    2.17
  -4  -2  -3   43.66    2.17
  -4  -2  -3   44.20    2.17
   4   2   3   43.56    2.16
   4   2   3   45.89    2.17
   4   2   3   44.27    2.19
   4   2   3   43.19    2.17
  -5  -2  -3   15.14    0.87
  -5  -2  -3   16.11    0.85
  -5  -2  -3   17.64    0.90
  -5  -2  -3   15.54    0.88
  -5  -2  -3   14.22    0.88
   5   2   3   17.68    0.91
   5   2   3   15.54    0.86
   5   2   3   15.09    0.85
  -6  -2  -3    0.86    0.20
  -6  -2  -3    0.77    0.19
  -6  -2  -3    1.07    0.17
  -6  -2  -3    0.96    0.21
  -6  -2  -3    0.83    0.20
   6   2   3    0.49    0.15
   6   2   3    1.30    0.25
   6   2   3    0.72    0.18
  -7  -2  -3   15.49    0.83
  -7  -2  -3   15.83    0.91
  -7  -2  -3   13.04    0.88
  -7  -2  -3   14.46    0.88
  -7  -2  -3   13.23    0.86
   7   2   3   14.45    0.83
   7   2   3   14.09    0.84
  -8  -2  -3    5.05    0.58
   8   2   3    6.94    0.68
  -9  -2  -3   12.92    0.91
  -9  -2  -3   12.78    0.90
   9   2   3   15.44    1.05
   9   2   3   12.65    0.83
 -10  -2  -3    1.30    0.38
 -10  -2  -3    1.54    0.38
  10   2   3    1.27    0.32
  10   2   3    0.99    0.50
 -11  -2  -3    0.71    0.42
  11   2   3   -0.17    0.35
  11   2   3    0.62    0.63
  10  -3  -3    0.07    0.47
 -10   3   3   -0.36    0.39
   9  -3  -3    1.59    0.39
  -9   3   3    1.60    0.40
  -8   3   3    4.78    0.58
   7  -3  -3   14.83    0.87
   7  -3  -3   13.98    0.90
   7  -3  -3   13.73    0.88
  -7   3   3   14.69    0.90
   6  -3  -3    1.58    0.27
   6  -3  -3    1.22    0.25
  -6   3   3    1.46    0.26
   5  -3  -3    1.43    0.23
   5  -3  -3    1.59    0.22
   5  -3  -3    1.61    0.22
  -5   3   3    1.45    0.20
  -5   3   3    1.30    0.27
  -5   3   3    1.54    0.24
   4  -3  -3    4.55    0.33
  -4   3   3    4.72    0.36
   3  -3  -3   36.13    1.78
   3  -3  -3   34.54    1.78
   3  -3  -3   35.13    1.77
  -3   3   3   35.14    1.79
  -3   3   3   35.16    1.77
   2  -3  -3    4.48    0.28
   2  -3  -3    4.33    0.26
   2  -3  -3    4.53    0.28
  -2   3   3    4.41    0.29
  -2   3   3    4.49    0.28
  -2   3   3    3.60    0.33
   1  -3  -3   35.40    1.76
   1  -3  -3   37.03    1.78
   1  -3  -3   36.09    1.78
  -1   3   3   33.68    1.80
  -1   3   3   34.96    1.78
  -1   3   3   36.31    1.78
   0  -3  -3    5.33    0.34
   0  -3  -3    5.25    0.30
   0  -3  -3    5.39    0.30
   0   3   3    5.30    0.34
   0   3   3    5.54    0.31
   0   3   3    5.24    0.31
  -1  -3  -3   85.87    4.18
  -1  -3  -3   84.43    4.13
  -1  -3  -3   84.68    4.15
  -1  -3  -3   83.71    4.15
   1   3   3   82.85    4.15
   1   3   3   83.72    4.15
   1   3   3   83.19    4.13
   1   3   3   84.65    4.17
  -2  -3  -3    1.90    0.17
  -2  -3  -3    1.87    0.16
  -2  -3  -3    1.91    0.17
  -2  -3  -3    1.80    0.20
   2   3   3    1.90    0.18
   2   3   3    1.99    0.22
   2   3   3    1.90    0.16
   2   3   3    1.90    0.15
   2   3   3    1.95    0.22
  -3  -3  -3   41.69    2.06
  -3  -3  -3   38.37    2.08
  -3  -3  -3   42.56    2.06
  -3  -3  -3   42.23    2.06
   3   3   3   42.51    2.06
   3   3   3   39.93    2.10
   3   3   3   40.20    2.06
   3   3   3   41.28    2.06
   3   3   3   40.50    2.08
  -4  -3  -3    7.21    0.44
  -4  -3  -3    6.14    0.45
  -4  -3  -3    7.45    0.43
  -4  -3  -3    7.46    0.45
   4   3   3    7.00    0.43
   4   3   3    7.36    0.43
   4   3   3    7.05    0.49
   4   3   3    7.09    0.46
  -5  -3  -3    0.55    0.15
  -5  -3  -3    0.55    0.16
  -5  -3  -3    0.43    0.17
  -5  -3  -3    0.54    0.16
  -5  -3  -3    0.60    0.15
   5   3   3    0.42    0.15
   5   3   3    0.52    0.15
   5   3   3    0.67    0.17
   5   3   3    0.64    0.20
  -6  -3  -3    0.43    0.16
  -6  -3  -3    0.28    0.16
  -6  -3  -3    0.10    0.18
  -6  -3  -3    0.25    0.19
  -6  -3  -3    0.10    0.17
   6   3   3    0.00    0.16
   6   3   3    0.23    0.22
   6   3   3    0.35    0.16
   6   3   3    0.49    0.18
  -7  -3  -3   20.82    1.16
  -7  -3  -3   21.43    1.14
  -7  -3  -3   18.62    1.18
  -7  -3  -3   20.42    1.21
  -7  -3  -3   20.14    1.16
   7   3   3   23.65    1.23
   7   3   3   20.38    1.15
   7   3   3   20.24    1.13
  -8  -3  -3    1.25    0.31
  -8  -3  -3    1.27    0.29
   8   3   3    0.83    0.25
   8   3   3    1.56    0.36
  -9  -3  -3    3.23    0.43
  -9  -3  -3    2.92    0.40
   9   3   3    2.73    0.47
   9   3   3    2.47    0.33
 -10  -3  -3    0.08    0.35
  10   3   3   -0.52    0.45
  10   3   3   -0.20    0.25
 -11  -3  -3    4.58    0.58
  11   3   3    4.23    0.47
  11   3   3    3.39    0.69
  10  -4  -3    0.94    0.61
 -10   4   3    0.87    0.45
   9  -4  -3   12.87    1.04
  -9   4   3   13.96    1.00
   8  -4  -3   -0.18    0.36
  -8   4   3    0.17    0.31
   7  -4  -3    0.09    0.28
   7  -4  -3    0.39    0.28
   7  -4  -3    0.38    0.31
  -7   4   3    0.21    0.31
   6  -4  -3    3.25    0.40
   6  -4  -3    3.13    0.42
   6  -4  -3    3.53    0.44
  -6   4   3    2.91    0.39
  -6   4   3    2.79    0.37
  -6   4   3    3.73    0.45
   5  -4  -3   16.54    0.88
   5  -4  -3   15.62    0.88
   5  -4  -3   15.38    0.86
  -5   4   3   16.76    0.88
  -5   4   3   13.91    0.93
  -5   4   3   15.39    0.89
  -5   4   3   14.57    0.85
   4  -4  -3    2.67    0.27
   4  -4  -3    2.91    0.31
   4  -4  -3    2.85    0.31
  -4   4   3    2.65    0.32
  -4   4   3    2.78    0.28
  -4   4   3    3.73    0.41
  -4   4   3    2.73    0.28
   3  -4  -3    4.85    0.35
   3  -4  -3    4.22    0.32
   3  -4  -3    5.52    0.35
  -3   4   3    5.26    0.37
  -3   4   3    5.59    0.35
  -3   4   3    5.49    0.44
  -3   4   3    4.88    0.33
   2  -4  -3    2.78    0.22
   2  -4  -3    2.87    0.22
   2  -4  -3    2.70    0.19
  -2   4   3    2.92    0.24
  -2   4   3    2.81    0.23
   1  -4  -3    0.30    0.08
   1  -4  -3    0.25    0.08
  -1   4   3    0.31    0.09
  -1   4   3    0.33    0.09
  -1   4   3    0.29    0.11
   0  -4  -3   78.19    3.87
   0  -4  -3   77.69    3.83
   0   4   3   76.50    3.87
   0   4   3   77.11    3.83
   0   4   3   78.63    3.83
  -1  -4  -3   12.25    0.64
  -1  -4  -3   12.42    0.64
  -1  -4  -3   12.30    0.69
   1   4   3   12.75    0.65
   1   4   3   11.84    0.62
   1   4   3   12.39    0.69
   1   4   3   12.50    0.65
  -2  -4  -3    4.87    0.30
  -2  -4  -3    5.01    0.34
  -2  -4  -3    4.95    0.30
   2   4   3    4.74    0.32
   2   4   3    5.04    0.35
   2   4   3    4.78    0.28
   2   4   3    4.88    0.30
  -3  -4  -3    8.25    0.45
  -3  -4  -3    7.85    0.48
  -3  -4  -3    8.05    0.45
  -3  -4  -3    7.58    0.45
   3   4   3    7.78    0.44
   3   4   3    7.10    0.52
   3   4   3    7.76    0.45
   3   4   3    7.43    0.46
   3   4   3    8.21    0.51
  -4  -4  -3    9.83    0.61
  -4  -4  -3    9.73    0.58
  -4  -4  -3   10.01    0.58
  -4  -4  -3   10.49    0.58
   4   4   3    9.85    0.61
   4   4   3    9.81    0.65
   4   4   3   10.10    0.57
   4   4   3   10.66    0.58
  -5  -4  -3    1.90    0.23
  -5  -4  -3    1.70    0.25
  -5  -4  -3    1.62    0.26
  -5  -4  -3    1.99    0.27
  -5  -4  -3    1.99    0.27
   5   4   3    1.80    0.27
   5   4   3    2.00    0.31
   5   4   3    1.99    0.22
   5   4   3    1.65    0.22
  -6  -4  -3   10.18    0.64
  -6  -4  -3   10.23    0.63
  -6  -4  -3   10.17    0.62
  -6  -4  -3    9.00    0.65
  -6  -4  -3    7.94    0.67
   6   4   3   10.66    0.71
   6   4   3   10.08    0.61
   6   4   3   10.37    0.65
   6   4   3   10.08    0.62
  -7  -4  -3    0.17    0.28
  -7  -4  -3    0.80    0.23
  -7  -4  -3    0.51    0.23
  -7  -4  -3    0.53    0.22
  -7  -4  -3    0.78    0.23
   7   4   3    0.71    0.30
   7   4   3    0.93    0.23
   7   4   3    0.68    0.22
  -8  -4  -3   -0.13    0.24
   8   4   3   -0.09    0.30
   8   4   3   -0.14    0.22
  -9  -4  -3    1.77    0.37
   9   4   3    1.52    0.42
   9   4   3    1.51    0.30
 -10  -4  -3    6.82    0.72
  10   4   3    5.70    0.88
  10   4   3    5.11    0.58
 -11  -4  -3    0.48    0.46
  11   4   3   -0.83    0.56
  11   4   3   -0.68    0.28
   9  -5  -3    8.14    1.02
  -9   5   3    7.93    0.88
   8  -5  -3    1.65    0.47
   8  -5  -3    2.56    0.55
  -8   5   3    1.95    0.42
   7  -5  -3    1.07    0.37
   7  -5  -3    1.56    0.38
   7  -5  -3    2.12    0.41
  -7   5   3    1.53    0.36
   6  -5  -3    0.83    0.30
   6  -5  -3    0.79    0.27
   6  -5  -3    1.00    0.28
  -6   5   3    0.71    0.24
  -6   5   3    1.00    0.29
  -6   5   3    0.46    0.36
   5  -5  -3    1.02    0.23
   5  -5  -3    0.99    0.25
   5  -5  -3    1.85    0.25
  -5   5   3    1.90    0.24
  -5   5   3    1.63    0.27
  -5   5   3    1.55    0.33
  -5   5   3    1.43    0.25
   4  -5  -3    4.72    0.38
   4  -5  -3    4.02    0.35
   4  -5  -3    5.10    0.38
  -4   5   3    4.72    0.41
  -4   5   3    4.43    0.36
  -4   5   3    5.16    0.38
   3  -5  -3   -0.07    0.11
   3  -5  -3    0.03    0.12
   3  -5  -3    0.13    0.13
  -3   5   3    0.05    0.15
  -3   5   3    0.42    0.19
  -3   5   3   -0.04    0.12
  -3   5   3   -0.12    0.12
   2  -5  -3    7.56    0.45
   2  -5  -3    8.36    0.46
   2  -5  -3    9.13    0.47
  -2   5   3    8.22    0.50
  -2   5   3    8.62    0.49
  -2   5   3    8.32    0.56
   1  -5  -3    0.12    0.07
   1  -5  -3    0.12    0.08
  -1   5   3    0.15    0.10
  -1   5   3    0.17    0.10
  -1   5   3    0.17    0.14
   0  -5  -3   31.44    1.51
   0  -5  -3   30.06    1.51
   0   5   3   30.33    1.54
   0   5   3   30.57    1.54
   0   5   3   30.36    1.59
  -1  -5  -3    1.24    0.13
  -1  -5  -3    1.30    0.13
   1   5   3    1.41    0.18
   1   5   3    1.27    0.19
   1   5   3    1.19    0.16
  -2  -5  -3    0.18    0.09
  -2  -5  -3    0.12    0.08
  -2  -5  -3    0.02    0.12
   2   5   3    0.10    0.13
   2   5   3    0.06    0.11
   2   5   3    0.00    0.07
   2   5   3    0.08    0.09
  -3  -5  -3    1.22    0.18
  -3  -5  -3    0.96    0.14
  -3  -5  -3    0.98    0.13
   3   5   3    0.72    0.17
   3   5   3    0.89    0.21
   3   5   3    0.85    0.15
   3   5   3    0.99    0.15
   3   5   3    0.94    0.13
  -4  -5  -3   32.57    1.71
  -4  -5  -3   30.51    1.65
  -4  -5  -3   33.74    1.66
   4   5   3   32.30    1.74
   4   5   3   33.02    1.67
   4   5   3   33.66    1.66
   4   5   3   31.71    1.69
  -5  -5  -3   12.60    0.73
  -5  -5  -3   11.92    0.78
  -5  -5  -3   13.26    0.73
   5   5   3   13.13    0.73
   5   5   3   12.80    0.73
   5   5   3   12.35    0.82
   5   5   3   12.94    0.78
  -6  -5  -3   11.23    0.66
  -6  -5  -3   10.35    0.68
  -6  -5  -3    9.89    0.73
   6   5   3    9.76    0.65
   6   5   3   10.39    0.65
   6   5   3   10.23    0.68
   6   5   3   10.66    0.75
  -7  -5  -3    0.58    0.27
  -7  -5  -3    0.29    0.29
  -7  -5  -3    0.19    0.22
  -7  -5  -3    0.50    0.22
   7   5   3    0.49    0.25
   7   5   3    0.56    0.31
   7   5   3    0.06    0.21
   7   5   3    0.23    0.24
  -8  -5  -3   31.29    1.67
  -8  -5  -3   30.70    1.70
   8   5   3   29.73    1.64
   8   5   3   31.21    1.76
  -9  -5  -3    5.11    0.61
   9   5   3    4.23    0.55
   9   5   3    4.20    0.50
 -10  -5  -3    0.78    0.40
  10   5   3   -0.07    0.46
  10   5   3    0.09    0.28
  11   5   3    1.41    0.61
  11   5   3    1.45    0.36
  -9   6   3   -0.66    0.49
   8  -6  -3    4.14    0.60
  -8   6   3    3.42    0.53
   7  -6  -3    2.12    0.44
  -7   6   3    1.91    0.42
   6  -6  -3   -0.46    0.30
   6  -6  -3    0.24    0.31
   6  -6  -3    0.33    0.28
  -6   6   3    0.08    0.30
   5  -6  -3    7.90    0.53
   5  -6  -3    7.43    0.53
   5  -6  -3    5.69    0.52
  -5   6   3    7.59    0.54
  -5   6   3    6.91    0.59
  -5   6   3    8.72    0.72
  -5   6   3    6.02    0.53
   4  -6  -3    0.28    0.17
   4  -6  -3    0.54    0.17
   4  -6  -3    0.67    0.17
  -4   6   3    0.59    0.19
  -4   6   3    0.32    0.21
  -4   6   3    0.34    0.19
  -4   6   3    1.32    0.30
   3  -6  -3   27.37    1.29
   3  -6  -3   24.92    1.31
  -3   6   3   24.77    1.33
  -3   6   3   25.93    1.41
  -3   6   3   26.94    1.35
  -3   6   3   22.59    1.40
  -3   6   3   26.54    1.31
   2  -6  -3   26.19    1.32
  -2   6   3   28.08    1.36
  -2   6   3   24.27    1.37
  -2   6   3   26.47    1.42
  -1   6   3    0.91    0.15
  -1   6   3    0.93    0.15
  -1   6   3    1.00    0.20
   0   6   3    6.82    0.41
   0   6   3    7.06    0.41
   0   6   3    6.31    0.48
  -1  -6  -3    0.66    0.15
   1   6   3    0.63    0.12
   1   6   3    0.42    0.17
   1   6   3    0.64    0.13
  -2  -6  -3    2.22    0.28
   2   6   3    2.10    0.25
   2   6   3    2.45    0.33
   2   6   3    2.25    0.22
   2   6   3    2.34    0.18
  -3  -6  -3   32.14    1.65
  -3  -6  -3   32.85    1.74
  -3  -6  -3   35.44    1.66
   3   6   3   33.83    1.69
   3   6   3   32.68    1.69
   3   6   3   33.10    1.74
   3   6   3   31.40    1.78
   3   6   3   33.48    1.67
  -4  -6  -3    0.83    0.16
  -4  -6  -3    0.80    0.15
  -4  -6  -3    1.03    0.21
   4   6   3    0.92    0.17
   4   6   3    0.99    0.26
   4   6   3    0.85    0.18
   4   6   3    0.82    0.22
   4   6   3    0.61    0.19
  -5  -6  -3    0.10    0.16
  -5  -6  -3    0.00    0.15
  -5  -6  -3   -0.01    0.19
   5   6   3    0.14    0.24
   5   6   3    0.18    0.20
   5   6   3    0.17    0.19
   5   6   3    0.33    0.18
  -6  -6  -3    2.66    0.37
  -6  -6  -3    2.10    0.30
  -6  -6  -3    2.53    0.34
   6   6   3    2.32    0.33
   6   6   3    2.78    0.38
   6   6   3    2.95    0.49
   6   6   3    2.28    0.30
  -7  -6  -3   31.22    1.76
  -7  -6  -3   33.21    1.86
  -7  -6  -3   34.53    1.74
   7   6   3   32.60    1.74
   7   6   3   32.61    2.16
   7   6   3   32.90    1.76
   7   6   3   33.34    1.76
  -8  -6  -3    3.60    0.50
  -8  -6  -3    3.98    0.41
   8   6   3    3.24    0.38
   8   6   3    3.31    0.48
  -9  -6  -3   -0.11    0.32
   9   6   3    0.32    0.29
   9   6   3    0.18    0.39
 -10  -6  -3    0.17    0.40
  10   6   3   -0.44    0.43
  10   6   3   -0.22    0.27
  -8   7   3    0.23    0.50
   7  -7  -3    0.67    0.43
  -7   7   3    2.05    0.48
   6  -7  -3    0.13    0.36
  -6   7   3   -0.35    0.33
   5  -7  -3    9.24    0.65
  -5   7   3    8.07    0.66
  -5   7   3   10.29    0.96
  -5   7   3    8.98    0.71
   4  -7  -3    1.07    0.24
  -4   7   3    0.96    0.28
  -4   7   3    0.80    0.25
   3  -7  -3   21.91    1.16
  -3   7   3   23.24    1.21
  -3   7   3   21.48    1.29
  -3   7   3   22.87    1.20
  -2   7   3    0.59    0.18
  -2   7   3    0.55    0.19
  -2   7   3    0.58    0.21
  -1   7   3   11.87    0.77
  -1   7   3   12.06    0.68
   0   7   3    2.50    0.27
   0   7   3    2.71    0.27
   0   7   3    3.00    0.39
   1   7   3   19.85    1.04
   1   7   3   20.00    1.04
   1   7   3   19.62    1.12
  -2  -7  -3   28.34    1.50
   2   7   3   28.82    1.50
   2   7   3   28.03    1.44
   2   7   3   27.99    1.39
   2   7   3   25.74    1.50
  -3  -7  -3   -0.08    0.17
   3   7   3    0.06    0.16
   3   7   3   -0.21    0.20
   3   7   3    0.12    0.22
   3   7   3    0.06    0.12
   3   7   3    0.05    0.15
  -4  -7  -3   36.97    1.99
   4   7   3   37.40    2.04
   4   7   3   37.62    1.93
   4   7   3   39.77    1.91
   4   7   3   37.01    1.98
   4   7   3   36.97    1.93
  -5  -7  -3   31.01    1.62
  -5  -7  -3   31.47    1.73
  -5  -7  -3   32.51    1.62
   5   7   3   31.95    1.67
   5   7   3   33.05    1.66
   5   7   3   31.60    1.72
   5   7   3   31.96    1.78
  -6  -7  -3   31.89    1.59
  -6  -7  -3   31.07    1.72
   6   7   3   30.08    1.62
   6   7   3   30.84    1.67
   6   7   3   31.37    1.63
   6   7   3   28.51    1.73
  -7  -7  -3    0.52    0.31
  -7  -7  -3    0.99    0.25
   7   7   3    0.84    0.30
   7   7   3    0.84    0.33
   7   7   3    0.86    0.35
  -8  -7  -3    0.34    0.28
  -8  -7  -3   -0.25    0.43
   8   7   3    0.27    0.38
   8   7   3    0.07    0.30
   8   7   3   -0.04    0.27
  -9  -7  -3    3.74    0.46
   9   7   3    3.34    0.56
   9   7   3    3.26    0.56
 -10  -7  -3   11.59    0.95
  10   7   3    8.88    1.06
  10   7   3   12.21    0.84
  -7   8   3    0.58    0.49
  -6   8   3   14.63    1.06
   5  -8  -3    2.16    0.36
  -5   8   3    2.51    0.46
  -5   8   3    2.93    0.43
   4  -8  -3    0.33    0.27
  -4   8   3    0.83    0.29
  -4   8   3    1.02    0.31
  -4   8   3   -0.21    0.31
  -3   8   3    1.59    0.28
  -2   8   3   20.37    1.14
  -2   8   3   20.75    1.24
  -2   8   3   21.84    1.14
  -1   8   3    5.24    0.57
  -1   8   3    5.77    0.43
  -1   8   3    5.56    0.44
   0   8   3   20.02    1.16
   0   8   3   20.60    1.04
   0   8   3   17.97    1.06
   1   8   3    0.25    0.24
   1   8   3    0.14    0.18
   1   8   3    0.08    0.18
  -2  -8  -3    8.47    0.64
   2   8   3    9.39    0.55
   2   8   3    9.59    0.58
   2   8   3    8.21    0.47
   2   8   3    8.23    0.73
   2   8   3    9.80    0.68
  -3  -8  -3   16.70    1.05
   3   8   3   17.83    1.07
   3   8   3   17.80    0.97
   3   8   3   17.58    1.13
   3   8   3   17.90    0.92
   3   8   3   17.86    0.98
  -4  -8  -3   31.10    1.79
   4   8   3   33.22    1.80
   4   8   3   34.25    1.70
   4   8   3   33.11    1.73
   4   8   3   34.09    1.73
   4   8   3   33.33    1.87
  -5  -8  -3    0.35    0.27
   5   8   3    0.12    0.27
   5   8   3    0.21    0.22
   5   8   3    0.22    0.38
   5   8   3    0.09    0.25
   5   8   3    0.15    0.24
  -6  -8  -3    1.77    0.24
  -6  -8  -3    2.34    0.29
   6   8   3    2.12    0.34
   6   8   3    1.79    0.40
   6   8   3    2.40    0.37
  -7  -8  -3    0.71    0.23
  -7  -8  -3    1.27    0.32
   7   8   3    0.60    0.31
   7   8   3    0.59    0.38
   7   8   3    0.88    0.36
  -8  -8  -3    0.48    0.28
   8   8   3    0.90    0.34
   8   8   3    0.50    0.43
   8   8   3    0.26    0.35
  -9  -8  -3    5.22    0.64
   9   8   3    4.85    0.65
   9   8   3    4.89    0.77
   9   8   3    5.29    0.68
  -7   9   3    2.45    0.60
  -6   9   3    1.47    0.51
  -6   9   3    1.91    0.52
  -5   9   3    0.84    0.42
  -5   9   3    0.44    0.42
  -4   9   3    4.31    0.66
  -4   9   3    4.43    0.47
  -4   9   3    3.91    0.50
  -3   9   3    6.94    0.59
  -3   9   3    7.27    0.72
  -3   9   3    5.03    0.60
  -2   9   3    1.39    0.28
  -2   9   3    0.78    0.33
  -2   9   3    1.13    0.31
  -1   9   3    1.07    0.34
  -1   9   3    0.55    0.23
  -1   9   3   -0.01    0.26
   0   9   3    0.15    0.28
   0   9   3    0.11    0.20
   0   9   3    0.48    0.23
   1   9   3   10.16    0.81
   1   9   3   10.53    0.66
   1   9   3   11.34    0.68
   2   9   3    1.79    0.26
   2   9   3    1.75    0.29
   2   9   3    1.53    0.40
   2   9   3    1.46    0.33
  -3  -9  -3    0.45    0.28
   3   9   3    0.77    0.26
   3   9   3    0.93    0.33
   3   9   3    0.79    0.17
   3   9   3    0.85    0.35
   3   9   3    0.62    0.24
  -4  -9  -3    0.34    0.33
   4   9   3    0.98    0.33
   4   9   3    0.47    0.21
   4   9   3    0.69    0.27
   4   9   3    0.55    0.36
   5   9   3    1.33    0.30
   5   9   3    1.66    0.43
   5   9   3    1.57    0.36
   5   9   3    1.61    0.33
   5   9   3    1.84    0.33
   6   9   3   -0.15    0.31
   6   9   3   -0.36    0.37
   6   9   3   -0.17    0.32
   7   9   3    4.51    0.72
   7   9   3    3.73    0.46
   7   9   3    3.59    0.53
   7   9   3    3.42    0.48
   8   9   3    3.30    0.56
   8   9   3    2.92    0.48
   8   9   3    3.13    0.45
   9   9   3    0.62    0.47
   9   9   3    0.10    0.47
   9   9   3    1.29    0.42
  -5  10   3    4.60    0.66
  -5  10   3    5.14    0.62
  -4  10   3    0.62    0.43
  -3  10   3    1.46    0.38
  -3  10   3    1.27    0.43
  -3  10   3    1.48    0.43
  -2  10   3    0.21    0.30
  -2  10   3    0.30    0.35
  -2  10   3    0.10    0.36
  -1  10   3    0.57    0.37
  -1  10   3    0.29    0.27
  -1  10   3    0.69    0.36
   0  10   3    2.89    0.47
   0  10   3    3.17    0.35
   0  10   3    2.74    0.38
   1  10   3   13.72    0.86
   1  10   3   14.23    1.01
   1  10   3   13.36    0.86
   2  10   3    0.53    0.31
   2  10   3    0.97    0.29
   2  10   3    0.56    0.42
   3  10   3    1.52    0.32
   3  10   3    0.82    0.30
   3  10   3    0.78    0.42
   4  10   3    0.27    0.31
   4  10   3    0.87    0.24
   4  10   3    0.54    0.45
   4  10   3    0.24    0.32
   4  10   3    0.79    0.41
   5  10   3    0.71    0.45
   5  10   3    0.91    0.32
   5  10   3    0.91    0.42
   5  10   3    0.74    0.40
   5  10   3    1.24    0.37
   6  10   3    6.03    0.84
   6  10   3    6.77    0.81
   6  10   3    7.71    0.74
   7  10   3    2.16    0.44
   7  10   3    1.23    0.46
   7  10   3    1.44    0.46
   8  10   3    0.49    0.47
   8  10   3    0.10    0.45
   8  10   3    0.72    0.43
  -4  11   3    0.94    0.54
  -4  11   3    1.19    0.53
  -3  11   3    0.60    0.51
  -3  11   3    0.45    0.47
  -2  11   3   -0.03    0.38
  -2  11   3    0.42    0.48
  -1  11   3    0.09    0.44
  -1  11   3   -0.09    0.33
   0  11   3    4.27    0.57
   0  11   3    4.97    0.61
   0  11   3    4.07    0.49
   1  11   3   -0.24    0.36
   1  11   3    0.20    0.47
   1  11   3    0.05    0.43
   1  11   3   -0.05    0.37
   2  11   3    4.03    0.63
   2  11   3    3.12    0.46
   2  11   3    3.84    0.47
   2  11   3    5.76    0.82
   3  11   3    1.20    0.50
   3  11   3    1.10    0.39
   3  11   3    1.41    0.48
   3  11   3    1.89    0.41
   4  11   3    8.63    0.85
   4  11   3   11.36    1.06
   4  11   3   10.19    1.00
   4  11   3    9.30    0.81
   5  11   3   -0.02    0.46
   5  11   3    0.32    0.58
   5  11   3    0.22    0.50
   6  11   3    3.12    0.52
   6  11   3    1.26    0.53
   6  11   3    2.08    0.54
   7  11   3    0.39    0.49
   7  11   3    0.46    0.50
   7  11   3   -0.18    0.53
  -2  12   3    4.23    0.70
  -2  12   3    4.35    0.70
  -1  12   3    0.00    0.53
  -1  12   3    0.17    0.47
   0  12   3    3.36    0.54
   0  12   3    2.19    0.58
   1  12   3    0.43    0.49
   1  12   3    0.58    0.52
   1  12   3    1.11    0.60
   2  12   3    4.92    0.71
   2  12   3    4.20    0.59
   2  12   3    6.27    1.07
   3  12   3    3.01    0.54
   3  12   3    2.32    0.62
   3  12   3    2.60    0.66
   4  12   3    0.04    0.50
   4  12   3    0.66    0.60
   4  12   3    0.03    0.56
   5  12   3   -0.27    0.55
   5  12   3    1.55    0.54
   5  12   3   -0.57    0.56
   6  12   3    1.40    0.57
   6  12   3   -0.25    0.59
   1  13   3    1.57    0.76
   1  13   3    0.98    0.67
   2  13   3    3.46    0.81
   2  13   3    3.32    0.79
   3  13   3   -0.32    0.72
   3  13   3   -0.30    0.70
   2  12  -4   -0.84    0.79
   2  12  -4   -0.32    0.73
   1  12  -4    0.61    0.77
   1  12  -4    1.05    0.72
   5  11  -4   -0.02    0.60
   4  11  -4    1.29    0.68
   4  11  -4    1.10    0.59
   4  11  -4    0.54    0.54
   3  11  -4    1.19    0.58
   3  11  -4    0.12    0.53
   3  11  -4    0.79    0.51
   2  11  -4    6.37    1.04
   2  11  -4    7.60    0.88
   2  11  -4    9.25    1.00
   1  11  -4    2.70    0.63
   1  11  -4    2.89    0.54
   1  11  -4    2.95    0.62
   0  11  -4    1.82    0.60
   0  11  -4    2.50    0.66
   0  11  -4    3.02    0.54
  -1  11  -4   -0.95    0.59
  -1  11  -4    0.21    0.53
  -1  11  -4    0.30    0.77
  -2  11  -4    2.15    0.71
   7  10  -4   -0.50    0.53
   7  10  -4    0.20    0.42
   6  10  -4   -0.31    0.51
   6  10  -4    0.42    0.38
   5  10  -4    0.28    0.32
   5  10  -4   -0.41    0.36
   5  10  -4    0.07    0.48
   4  10  -4    0.41    0.48
   4  10  -4   -0.04    0.27
   4  10  -4    0.35    0.38
   3  10  -4    4.56    0.45
   3  10  -4    4.85    0.79
   3  10  -4    5.26    0.72
   3  10  -4    5.52    0.74
   2  10  -4    2.29    0.46
   2  10  -4    3.18    0.47
   1  10  -4   -0.14    0.38
   1  10  -4   -0.04    0.44
   1  10  -4    0.00    0.42
   0  10  -4    0.30    0.44
   0  10  -4    0.70    0.39
   0  10  -4    1.02    0.48
  -1  10  -4    3.47    0.49
  -1  10  -4    3.43    0.59
  -1  10  -4    2.81    0.56
  -2  10  -4    0.52    0.51
  -2  10  -4    0.54    0.51
  -2  10  -4    0.35    0.46
  -3  10  -4    1.88    0.52
  -3  10  -4    1.80    0.62
  -3  10  -4    1.00    0.60
  -4  10  -4   -0.45    0.64
  -4  10  -4   -0.44    0.56
   8   9  -4   -0.38    0.44
   8   9  -4    0.32    0.42
   7   9  -4    1.30    0.37
   7   9  -4    0.74    0.48
   6   9  -4    0.40    0.31
   6   9  -4    0.05    0.47
   6   9  -4   -0.16    0.42
   6   9  -4    0.36    0.28
   5   9  -4    6.32    0.56
   5   9  -4    6.69    0.82
   5   9  -4    7.04    0.62
   5   9  -4    6.18    0.68
   4   9  -4    3.63    0.54
   4   9  -4    3.76    0.68
   4   9  -4    2.70    0.36
   4   9  -4    2.81    0.30
   3   9  -4    8.47    0.72
   3   9  -4    8.93    0.81
   3   9  -4    8.63    0.57
   3   9  -4    8.38    0.53
   2   9  -4    1.06    0.36
   2   9  -4    1.11    0.34
   2   9  -4    0.87    0.39
   1   9  -4    3.88    0.47
   1   9  -4    4.71    0.56
   1   9  -4    4.71    0.68
   0   9  -4    0.06    0.35
   0   9  -4    0.05    0.37
   0   9  -4   -0.09    0.30
  -1   9  -4    0.87    0.35
  -1   9  -4    0.70    0.39
  -1   9  -4    1.37    0.42
  -2   9  -4    1.90    0.28
  -2   9  -4    1.38    0.45
  -2   9  -4    2.21    0.42
  -2   9  -4    2.00    0.45
  -2   9  -4    2.01    0.27
  -3   9  -4    1.43    0.50
  -3   9  -4    1.50    0.33
  -3   9  -4    2.11    0.88
  -3   9  -4    1.47    0.42
  -4   9  -4    1.83    0.41
  -4   9  -4    0.88    0.49
  -5   9  -4    0.98    0.49
  -5   9  -4    0.85    0.53
   9   8  -4   -0.96    0.39
   8   8  -4    1.91    0.39
   8   8  -4    1.22    0.45
   7   8  -4    1.81    0.45
   6   8  -4   11.49    0.78
   6   8  -4   10.87    0.90
   6   8  -4   12.50    0.97
   6   8  -4   13.84    0.77
   5   8  -4    6.36    0.71
   5   8  -4    5.60    0.58
   5   8  -4    5.66    0.49
   5   8  -4    5.78    0.64
   5   8  -4    5.88    0.51
   4   8  -4    4.51    0.41
   4   8  -4    4.74    0.46
   4   8  -4    5.23    0.49
   4   8  -4    5.27    0.64
   3   8  -4    0.11    0.29
   3   8  -4    0.01    0.15
   3   8  -4    0.27    0.24
   3   8  -4    0.00    0.16
   2   8  -4    6.62    0.58
   2   8  -4    6.03    0.63
   2   8  -4    6.58    0.57
   1   8  -4    0.11    0.28
   1   8  -4   -0.36    0.26
   1   8  -4    0.02    0.26
   0   8  -4   12.81    0.88
   0   8  -4   12.61    0.82
   0   8  -4   13.71    0.89
  -1   8  -4    0.78    0.29
  -1   8  -4    0.48    0.30
  -1   8  -4    0.58    0.31
  -2   8  -4    2.62    0.39
  -2   8  -4    2.02    0.24
  -2   8  -4    2.71    0.33
  -2   8  -4    3.23    0.38
  -3   8  -4    3.01    0.34
  -3   8  -4    3.20    0.42
  -3   8  -4    3.67    0.44
  -3   8  -4    4.88    0.71
  -4   8  -4   49.05    2.43
  -4   8  -4   45.79    2.42
  -4   8  -4   42.52    2.52
  -4   8  -4   50.79    2.48
  -5   8  -4    0.15    0.43
  -5   8  -4    0.18    0.39
  -6   8  -4    0.36    0.47
  -6   8  -4    0.87    0.54
  -7   8  -4   -0.90    0.59
   9   7  -4   -0.01    0.34
   9   7  -4   -0.41    0.35
   8   7  -4    4.02    0.54
   8   7  -4    3.98    0.69
   7   7  -4    9.59    0.67
   7   7  -4    9.90    0.83
  -7  -7   4    8.81    0.72
   6   7  -4    2.16    0.39
   6   7  -4    2.37    0.38
   6   7  -4    1.97    0.28
   6   7  -4    2.35    0.53
  -6  -7   4    2.17    0.33
   5   7  -4    8.84    0.74
   5   7  -4    8.73    0.61
   5   7  -4    8.46    0.55
   5   7  -4    8.37    0.56
   5   7  -4    8.19    0.66
   4   7  -4   28.00    1.52
   4   7  -4   27.91    1.40
   4   7  -4   26.06    1.38
   4   7  -4   25.65    1.40
   3   7  -4   23.93    1.25
   3   7  -4   22.27    1.20
   3   7  -4   24.34    1.33
   3   7  -4   23.25    1.19
   2   7  -4    2.88    0.44
   2   7  -4    2.67    0.38
   1   7  -4    7.54    0.58
   1   7  -4    8.04    0.59
   1   7  -4    8.12    0.61
   0   7  -4    2.71    0.42
   0   7  -4    3.11    0.39
   0   7  -4    3.65    0.43
  -1   7  -4   16.88    0.96
  -1   7  -4   16.45    0.99
  -1   7  -4   16.67    1.01
  -2   7  -4    1.96    0.30
  -2   7  -4    1.90    0.20
  -2   7  -4    1.66    0.19
  -3   7  -4    4.99    0.59
  -3   7  -4    4.22    0.53
  -3   7  -4    3.56    0.39
  -3   7  -4    4.24    0.40
  -4   7  -4    2.62    0.33
  -4   7  -4    2.26    0.43
  -4   7  -4    1.98    0.32
  -4   7  -4    2.68    0.38
  -5   7  -4    9.59    0.73
  -5   7  -4    7.54    0.84
  -5   7  -4    9.87    0.73
  -5   7  -4    9.35    0.78
  -6   7  -4    0.88    0.46
  -7   7  -4    2.55    0.54
  -7   7  -4    2.66    0.55
  10   6  -4    0.36    0.43
  10   6  -4    1.27    0.39
   9   6  -4   16.25    0.99
   9   6  -4   15.09    1.12
  -9  -6   4   14.94    0.95
   8   6  -4    1.39    0.39
   8   6  -4    0.70    0.29
  -8  -6   4    1.16    0.42
  -8  -6   4    1.03    0.24
   7   6  -4   -0.06    0.29
   7   6  -4   -0.38    0.22
  -7  -6   4    0.19    0.25
   6   6  -4    3.44    0.54
   6   6  -4    3.13    0.44
   6   6  -4    2.96    0.38
   6   6  -4    2.58    0.35
  -6  -6   4    3.41    0.38
   5   6  -4   30.46    1.64
   5   6  -4   29.83    1.59
   5   6  -4   30.41    1.56
   5   6  -4   30.52    1.51
   5   6  -4   29.71    1.53
  -5  -6   4   27.25    1.67
  -5  -6   4   29.28    1.53
   4   6  -4    0.80    0.19
   4   6  -4    0.86    0.17
   4   6  -4    1.01    0.17
   4   6  -4    1.12    0.27
  -4  -6   4    1.00    0.27
   3   6  -4    0.47    0.22
   3   6  -4    0.51    0.16
   3   6  -4    0.36    0.12
   3   6  -4    0.37    0.13
   2   6  -4    0.35    0.09
   2   6  -4    0.24    0.16
   2   6  -4    0.43    0.20
   2   6  -4    0.28    0.09
   1   6  -4   32.36    1.66
   1   6  -4   32.38    1.65
   1   6  -4   30.89    1.67
   0   6  -4    9.99    0.64
   0   6  -4    9.93    0.63
   0   6  -4   10.48    0.65
  -1   6  -4   13.83    0.82
  -1   6  -4   14.33    0.81
  -2   6  -4    0.25    0.13
  -2   6  -4    0.61    0.22
  -3   6  -4   21.26    1.16
  -3   6  -4   21.39    1.16
  -3   6  -4   20.28    1.10
  -3   6  -4   20.67    1.11
  -4   6  -4    4.53    0.49
  -4   6  -4    4.45    0.43
  -4   6  -4    4.03    0.41
   4  -6   4    4.05    0.51
  -5   6  -4    1.23    0.35
  -5   6  -4    1.74    0.31
  -5   6  -4    1.70    0.31
  -5   6  -4    0.99    0.35
   5  -6   4    1.48    0.37
  -6   6  -4    3.78    0.70
  -6   6  -4    6.35    0.65
  -6   6  -4    4.43    0.62
  -7   6  -4   -0.07    0.41
  -7   6  -4    0.21    0.45
  -8   6  -4    2.30    0.55
  -8   6  -4    1.03    0.52
  10   5  -4    2.76    0.41
  10   5  -4    1.64    0.44
 -10  -5   4    3.24    0.51
   9   5  -4   -0.08    0.33
   9   5  -4    0.41    0.29
  -9  -5   4    0.50    0.34
   8   5  -4    6.89    0.70
   8   5  -4    6.84    0.55
  -8  -5   4    5.63    0.75
  -8  -5   4    6.55    0.57
  -8  -5   4    6.21    0.62
   7   5  -4   10.52    0.76
   7   5  -4    9.38    0.63
   7   5  -4    9.21    0.71
  -7  -5   4    9.51    0.61
  -7  -5   4    9.09    0.67
   6   5  -4   14.22    0.91
   6   5  -4   13.21    0.80
   6   5  -4   14.15    0.84
   6   5  -4   14.53    0.84
  -6  -5   4   14.52    0.96
  -6  -5   4   14.73    0.79
  -6  -5   4   13.47    0.79
  -6  -5   4   13.30    0.75
   5   5  -4    0.54    0.17
   5   5  -4    0.67    0.20
   5   5  -4    0.42    0.18
   5   5  -4    0.64    0.24
  -5  -5   4    0.48    0.23
  -5  -5   4    0.51    0.15
   4   5  -4    1.13    0.16
   4   5  -4    1.62    0.20
   4   5  -4    1.17    0.24
  -4  -5   4    1.06    0.15
  -4  -5   4    0.86    0.24
   3   5  -4    1.73    0.21
   3   5  -4    1.36    0.19
   3   5  -4    1.58    0.18
   3   5  -4    1.86    0.33
  -3  -5   4    1.09    0.23
   2   5  -4   37.03    1.86
   2   5  -4   37.87    1.89
   2   5  -4   37.86    1.94
   2   5  -4   37.68    1.87
   1   5  -4    6.36    0.45
   1   5  -4    7.06    0.43
   0   5  -4   16.18    0.88
   0   5  -4   16.30    0.89
  -1   5  -4   12.85    0.71
  -1   5  -4   12.07    0.70
  -2   5  -4   11.14    0.59
  -2   5  -4   10.85    0.59
  -2   5  -4   11.32    0.66
  -3   5  -4   13.19    0.76
  -3   5  -4   12.96    0.74
  -3   5  -4   12.99    0.69
  -3   5  -4   12.12    0.71
   3  -5   4   12.41    0.76
  -4   5  -4    3.53    0.42
  -4   5  -4    3.50    0.35
  -4   5  -4    3.73    0.42
  -4   5  -4    3.37    0.37
   4  -5   4    3.48    0.43
  -5   5  -4    0.57    0.47
  -5   5  -4    0.79    0.25
  -5   5  -4    0.66    0.24
  -5   5  -4    0.64    0.27
   5  -5   4    0.88    0.27
  -6   5  -4    0.16    0.30
  -6   5  -4    0.28    0.29
  -6   5  -4   -0.18    0.31
  -6   5  -4    0.45    0.28
  -7   5  -4    4.08    0.73
  -7   5  -4    4.47    0.63
  -7   5  -4    5.70    0.70
  -8   5  -4    5.50    0.77
  -8   5  -4    4.13    0.56
  -9   5  -4    0.55    0.51
  -9   5  -4    0.66    0.53
  10   4  -4   -0.16    0.36
  10   4  -4    0.48    0.30
 -10  -4   4    0.24    0.43
   9   4  -4    3.14    0.49
   9   4  -4    3.48    0.39
  -9  -4   4    3.73    0.46
  -9  -4   4    3.01    0.50
   8   4  -4   20.50    1.22
   8   4  -4   18.92    1.10
  -8  -4   4   19.00    1.19
  -8  -4   4   19.87    1.13
  -8  -4   4   19.34    1.16
   7   4  -4    5.10    0.45
   7   4  -4    4.85    0.50
   7   4  -4    6.54    0.60
   7   4  -4    5.86    0.53
  -7  -4   4    6.14    0.49
  -7  -4   4    6.09    0.55
  -7  -4   4    6.06    0.50
   6   4  -4    0.11    0.18
   6   4  -4    0.40    0.20
   6   4  -4    0.14    0.17
   6   4  -4    0.45    0.24
  -6  -4   4    0.17    0.17
  -6  -4   4   -0.15    0.21
  -6  -4   4    0.15    0.16
   5   4  -4    0.06    0.16
   5   4  -4    0.34    0.20
   5   4  -4    0.09    0.15
   5   4  -4    0.20    0.16
  -5  -4   4   -0.15    0.12
  -5  -4   4    0.11    0.15
  -5  -4   4    0.15    0.12
  -5  -4   4    0.13    0.20
   4   4  -4   11.76    0.63
   4   4  -4   11.97    0.72
  -4  -4   4   11.75    0.75
  -4  -4   4   11.80    0.62
  -4  -4   4   10.74    0.61
   3   4  -4   13.23    0.75
   3   4  -4   13.65    0.66
   3   4  -4   12.43    0.67
   3   4  -4   12.82    0.68
  -3  -4   4   11.98    0.76
   2   4  -4    6.44    0.42
   2   4  -4    6.19    0.35
   2   4  -4    5.92    0.34
  -2  -4   4    5.69    0.42
   1   4  -4    0.18    0.11
   1   4  -4    0.17    0.09
   0   4  -4    3.62    0.29
   0   4  -4    3.35    0.26
  -1   4  -4    6.60    0.34
  -1   4  -4    6.16    0.39
  -1   4  -4    6.96    0.42
  -2   4  -4   12.73    0.67
  -2   4  -4   12.76    0.68
  -2   4  -4   13.47    0.72
   2  -4   4   12.59    0.72
  -3   4  -4    5.46    0.39
  -3   4  -4    5.20    0.36
  -3   4  -4    5.28    0.41
  -3   4  -4    4.79    0.34
   3  -4   4    5.26    0.39
  -4   4  -4    0.31    0.16
  -4   4  -4    0.17    0.18
  -4   4  -4    0.36    0.20
  -4   4  -4    0.37    0.17
   4  -4   4    0.15    0.17
  -5   4  -4    0.18    0.24
  -5   4  -4    0.03    0.20
  -5   4  -4    0.04    0.20
  -5   4  -4   -0.01    0.21
   5  -4   4    0.15    0.22
  -6   4  -4    0.07    0.27
  -6   4  -4    0.06    0.25
  -6   4  -4   -0.05    0.22
  -6   4  -4   -0.25    0.26
   6  -4   4    0.25    0.21
   6  -4   4    0.00    0.17
  -7   4  -4   15.00    0.93
  -7   4  -4   12.35    0.90
   7  -4   4   12.14    0.83
   7  -4   4   12.66    0.81
  -8   4  -4    0.22    0.57
  -8   4  -4    0.63    0.39
  -8   4  -4    0.65    0.36
   8  -4   4    0.82    0.39
  -9   4  -4    0.58    0.43
  -9   4  -4   -0.11    0.44
  11   3  -4    2.99    0.53
  11   3  -4    1.93    0.39
 -11  -3   4    2.61    0.57
  10   3  -4    0.98    0.31
  10   3  -4    0.78    0.41
 -10  -3   4    0.65    0.41
   9   3  -4    8.13    0.76
   9   3  -4    8.00    0.60
  -9  -3   4    7.91    0.85
  -9  -3   4    7.04    0.70
   8   3  -4    2.07    0.30
   8   3  -4    2.12    0.37
  -8  -3   4    2.53    0.40
  -8  -3   4    1.82    0.33
  -8  -3   4    2.53    0.38
   7   3  -4   11.86    0.80
   7   3  -4   10.51    0.68
   7   3  -4   10.43    0.73
  -7  -3   4   10.73    0.71
  -7  -3   4   11.80    0.74
  -7  -3   4   12.36    0.75
   6   3  -4    2.39    0.42
   6   3  -4    2.25    0.29
   6   3  -4    2.13    0.27
   6   3  -4    2.28    0.27
  -6  -3   4    1.77    0.31
  -6  -3   4    2.17    0.26
  -6  -3   4    2.33    0.27
  -6  -3   4    2.32    0.34
   5   3  -4   17.60    1.03
   5   3  -4   17.09    0.97
   5   3  -4   18.13    1.00
   5   3  -4   18.25    0.99
  -5  -3   4   18.94    0.97
  -5  -3   4   18.59    1.08
  -5  -3   4   19.66    0.98
  -5  -3   4   18.52    0.98
   4   3  -4    0.11    0.11
   4   3  -4    0.06    0.15
   4   3  -4    0.15    0.16
  -4  -3   4   -0.06    0.10
  -4  -3   4    0.01    0.12
  -4  -3   4    0.20    0.16
  -4  -3   4    0.00    0.08
   3   3  -4   19.49    0.97
   3   3  -4   19.31    0.96
   3   3  -4   19.24    1.01
  -3  -3   4   17.31    0.96
  -3  -3   4   18.68    0.95
  -3  -3   4   18.53    0.95
  -3  -3   4   19.22    1.04
   2   3  -4   19.99    1.04
   2   3  -4   19.61    0.99
   2   3  -4   19.73    1.00
  -2  -3   4   19.41    1.05
   1   3  -4   31.02    1.59
   1   3  -4   33.19    1.57
   1   3  -4   32.30    1.56
   1   3  -4   31.82    1.55
  -1  -3   4   28.75    1.60
   0   3  -4    3.23    0.27
  -1   3  -4   19.28    1.04
  -1   3  -4   20.48    1.07
  -1   3  -4   22.05    1.03
  -1   3  -4   20.86    1.03
  -2   3  -4    7.73    0.45
  -2   3  -4    8.30    0.45
  -2   3  -4    8.35    0.44
  -2   3  -4    7.96    0.49
   2  -3   4    8.39    0.49
  -3   3  -4    1.33    0.19
  -3   3  -4    1.23    0.18
  -3   3  -4    1.09    0.14
  -3   3  -4    1.44    0.16
   3  -3   4    0.91    0.16
  -4   3  -4    4.42    0.33
  -4   3  -4    4.53    0.35
  -4   3  -4    5.02    0.34
  -4   3  -4    4.83    0.38
   4  -3   4    4.78    0.37
   4  -3   4    3.58    0.31
   4  -3   4    4.47    0.29
  -5   3  -4   17.88    1.04
  -5   3  -4   19.14    1.01
  -5   3  -4   18.97    1.00
  -5   3  -4   18.04    1.02
   5  -3   4   18.37    0.97
   5  -3   4   18.56    1.03
  -6   3  -4   10.05    0.61
  -6   3  -4    9.09    0.63
  -6   3  -4    9.90    0.65
  -6   3  -4    9.59    0.66
   6  -3   4    7.81    0.61
   6  -3   4    9.75    0.67
  -7   3  -4    1.65    0.54
  -7   3  -4    1.12    0.32
  -7   3  -4    1.78    0.32
   7  -3   4    1.45    0.29
   7  -3   4    1.19    0.30
  -8   3  -4    0.70    0.42
  -8   3  -4    0.90    0.36
  -8   3  -4    1.13    0.35
   8  -3   4    1.44    0.38
   8  -3   4    1.77    0.35
  -9   3  -4    7.39    0.79
  -9   3  -4    6.98    0.77
   9  -3   4    5.99    0.76
 -10   3  -4    0.90    0.47
 -10   3  -4    1.65    0.55
  10  -3   4    0.88    0.55
  11   2  -4   10.78    0.82
 -11  -2   4    9.90    1.03
  10   2  -4    0.04    0.35
  10   2  -4    0.24    0.27
 -10  -2   4   -0.19    0.38
   9   2  -4    0.73    0.37
   9   2  -4    0.55    0.25
  -9  -2   4    0.46    0.46
  -9  -2   4    0.79    0.32
   8   2  -4    1.31    0.25
   8   2  -4    1.61    0.33
  -8  -2   4    1.24    0.36
  -8  -2   4    1.39    0.37
  -8  -2   4    1.34    0.30
   7   2  -4    2.64    0.28
   7   2  -4    2.69    0.49
   7   2  -4    1.99    0.29
  -7  -2   4    2.17    0.33
  -7  -2   4    2.50    0.31
  -7  -2   4    2.81    0.31
   6   2  -4   13.46    0.74
   6   2  -4   12.04    0.77
   6   2  -4   14.61    0.84
   6   2  -4   12.43    0.76
  -6  -2   4   14.65    0.77
  -6  -2   4   12.46    0.85
  -6  -2   4   12.67    0.76
  -6  -2   4   12.39    0.78
   5   2  -4    0.11    0.13
   5   2  -4    0.22    0.15
   5   2  -4    0.18    0.13
   5   2  -4    0.29    0.19
  -5  -2   4    0.20    0.15
  -5  -2   4    0.19    0.14
  -5  -2   4    0.07    0.15
  -5  -2   4   -0.05    0.16
   4   2  -4   15.19    0.88
   4   2  -4   14.93    0.84
   4   2  -4   15.88    0.83
  -4  -2   4   15.61    0.84
  -4  -2   4   16.42    0.92
  -4  -2   4   16.03    0.83
  -4  -2   4   16.46    0.83
   3   2  -4    0.57    0.14
   3   2  -4    0.55    0.10
   3   2  -4    0.63    0.11
  -3  -2   4    0.68    0.10
  -3  -2   4    0.40    0.15
  -3  -2   4    0.63    0.11
  -3  -2   4    0.60    0.10
   2   2  -4  101.52    5.11
   2   2  -4  101.08    5.09
   2   2  -4  105.68    5.10
  -2  -2   4   99.98    5.08
  -2  -2   4  105.54    5.08
  -2  -2   4  106.83    5.13
   1   2  -4   12.20    0.65
   1   2  -4   13.63    0.66
   1   2  -4   13.30    0.68
  -1  -2   4   12.60    0.69
   0   2  -4   89.27    4.37
   0   2  -4   89.34    4.41
   0   2  -4   86.51    4.38
   0   2  -4   91.06    4.37
  -1   2  -4    7.50    0.43
  -1   2  -4    8.07    0.40
  -1   2  -4    6.95    0.39
   1  -2   4    7.29    0.43
  -2   2  -4    5.26    0.34
  -2   2  -4    4.91    0.29
  -2   2  -4    4.99    0.30
   2  -2   4    5.05    0.27
   2  -2   4    4.94    0.27
   2  -2   4    4.99    0.32
  -3   2  -4    0.46    0.09
  -3   2  -4    0.44    0.10
  -3   2  -4    0.46    0.14
   3  -2   4    0.32    0.11
   3  -2   4    0.42    0.10
   3  -2   4    0.49    0.09
  -4   2  -4   56.06    2.77
  -4   2  -4   55.16    2.78
  -4   2  -4   54.58    2.79
  -4   2  -4   56.08    2.81
   4  -2   4   56.00    2.77
   4  -2   4   55.74    2.77
   4  -2   4   55.72    2.80
  -5   2  -4    1.37    0.24
  -5   2  -4    0.83    0.18
  -5   2  -4    1.19    0.18
  -5   2  -4    1.13    0.20
  -5   2  -4    0.94    0.18
   5  -2   4    0.84    0.23
   5  -2   4    1.20    0.19
   5  -2   4    1.35    0.19
   5  -2   4    0.77    0.19
  -6   2  -4    6.27    0.49
  -6   2  -4    7.01    0.52
  -6   2  -4    6.03    0.49
  -6   2  -4    5.97    0.45
   6  -2   4    6.49    0.59
   6  -2   4    6.24    0.51
   6  -2   4    6.43    0.47
   6  -2   4    6.14    0.47
  -7   2  -4    0.96    0.30
  -7   2  -4    1.30    0.29
  -7   2  -4    1.51    0.29
  -7   2  -4    1.14    0.28
   7  -2   4    1.65    0.28
   7  -2   4    1.58    0.28
   7  -2   4    1.54    0.37
  -8   2  -4   16.49    1.02
  -8   2  -4   15.90    1.03
  -8   2  -4   15.65    1.06
   8  -2   4   16.07    1.11
   8  -2   4   15.77    1.02
   8  -2   4   16.40    0.99
  -9   2  -4    8.67    0.78
  -9   2  -4    8.71    0.75
  -9   2  -4    7.79    0.97
   9  -2   4    7.56    0.77
 -10   2  -4    1.76    0.45
 -10   2  -4    1.57    0.48
  10  -2   4    0.80    0.49
 -11  -1   4    0.03    0.47
  10   1  -4    1.19    0.42
  10   1  -4    1.03    0.31
 -10  -1   4    1.01    0.38
   9   1  -4    1.25    0.29
   9   1  -4    0.95    0.38
  -9  -1   4    1.31    0.34
  -9  -1   4    0.63    0.44
   8   1  -4   14.02    0.92
   8   1  -4   12.88    0.77
  -8  -1   4   10.58    0.86
  -8  -1   4   12.52    0.86
   7   1  -4   16.16    0.87
   7   1  -4   16.25    0.98
  -7  -1   4   14.84    0.90
  -7  -1   4   16.07    0.90
  -7  -1   4   12.77    0.90
   6   1  -4   24.54    1.20
   6   1  -4   24.73    1.29
   6   1  -4   21.56    1.21
   6   1  -4   21.03    1.21
  -6  -1   4   20.71    1.28
  -6  -1   4   24.38    1.21
  -6  -1   4   21.15    1.21
   5   1  -4    1.76    0.23
   5   1  -4    2.11    0.24
   5   1  -4    2.14    0.36
   5   1  -4    1.84    0.25
  -5  -1   4    1.57    0.25
  -5  -1   4    1.99    0.22
  -5  -1   4    1.80    0.28
  -5  -1   4    2.15    0.26
   4   1  -4   81.70    4.19
   4   1  -4   82.25    4.16
   4   1  -4   84.05    4.18
   4   1  -4   90.65    4.21
  -4  -1   4   81.16    4.17
  -4  -1   4   94.08    4.17
  -4  -1   4   74.43    4.15
  -4  -1   4   84.52    4.22
   3   1  -4    0.47    0.14
   3   1  -4    0.34    0.09
   3   1  -4    0.43    0.09
  -3  -1   4    0.34    0.10
  -3  -1   4    0.21    0.10
  -3  -1   4    0.36    0.14
   2   1  -4   57.36    2.91
   2   1  -4   59.96    2.90
   2   1  -4   55.80    2.89
  -2  -1   4   59.28    2.92
  -2  -1   4   58.33    2.89
  -2  -1   4   59.68    2.89
   1   1  -4    0.17    0.06
   1   1  -4    0.20    0.07
  -1  -1   4    0.14    0.06
  -1  -1   4    0.23    0.09
  -1  -1   4    0.22    0.06
   0   1  -4   16.38    0.78
   0   1  -4   16.35    0.78
   0   1  -4   14.55    0.77
   0   1  -4   15.21    0.77
   0  -1   4   13.97    0.76
   0  -1   4   15.13    0.76
   0  -1   4   15.50    0.77
  -1   1  -4   27.04    1.35
  -1   1  -4   26.20    1.34
  -1   1  -4   28.85    1.36
  -1   1  -4   26.71    1.37
   1  -1   4   26.76    1.36
   1  -1   4   27.72    1.34
   1  -1   4   25.01    1.33
  -2   1  -4    1.64    0.18
  -2   1  -4    1.44    0.16
  -2   1  -4    1.58    0.14
  -2   1  -4    1.44    0.16
   2  -1   4    1.48    0.14
   2  -1   4    1.56    0.14
   2  -1   4    1.58    0.18
  -3   1  -4   26.18    1.34
  -3   1  -4   27.09    1.35
  -3   1  -4   26.86    1.36
  -3   1  -4   26.19    1.33
   3  -1   4   26.15    1.35
   3  -1   4   26.11    1.36
   3  -1   4   26.28    1.33
   3  -1   4   26.82    1.34
  -4   1  -4    2.84    0.29
  -4   1  -4    2.59    0.25
  -4   1  -4    2.63    0.25
  -4   1  -4    2.28    0.22
  -4   1  -4    2.56    0.23
   4  -1   4    2.32    0.23
   4  -1   4    2.32    0.33
   4  -1   4    2.55    0.24
   4  -1   4    2.52    0.26
  -5   1  -4   17.90    0.99
  -5   1  -4   18.16    1.01
  -5   1  -4   18.29    1.00
  -5   1  -4   18.04    0.97
  -5   1  -4   18.09    0.98
   5  -1   4   18.44    0.98
   5  -1   4   19.03    1.05
   5  -1   4   17.98    0.97
   5  -1   4   18.53    1.00
  -6   1  -4   11.63    0.72
  -6   1  -4   12.07    0.72
  -6   1  -4   11.01    0.71
  -6   1  -4   12.27    0.74
  -6   1  -4   11.40    0.67
   6  -1   4   12.51    0.71
   6  -1   4   11.92    0.83
   6  -1   4   11.43    0.71
   6  -1   4   11.37    0.69
  -7   1  -4   13.04    0.82
  -7   1  -4   13.15    0.83
  -7   1  -4   12.95    0.75
  -7   1  -4   12.86    0.84
   7  -1   4   13.16    0.96
   7  -1   4   13.06    0.83
   7  -1   4   13.51    0.79
  -8   1  -4    4.54    0.55
  -8   1  -4    4.22    0.55
  -8   1  -4    4.99    0.63
   8  -1   4    4.83    0.52
   8  -1   4    4.13    0.76
   8  -1   4    5.02    0.60
  -9   1  -4    0.17    0.29
  -9   1  -4   -0.09    0.32
  -9   1  -4    0.05    0.42
   9  -1   4    0.26    0.32
   9  -1   4   -0.31    0.46
 -10   1  -4    1.15    0.41
 -10   1  -4    0.28    0.34
  10  -1   4   -0.07    0.53
  10  -1   4    0.41    0.40
  11   0  -4    3.20    0.46
  11   0  -4    3.33    0.61
 -11   0   4    3.30    0.54
  10   0  -4    8.51    0.76
  10   0  -4   11.91    1.05
 -10   0   4   10.97    0.86
   9   0  -4   17.12    1.18
   9   0  -4   15.80    0.99
  -9   0   4   15.95    1.05
   8   0  -4    0.15    0.31
   8   0  -4    0.19    0.21
  -8   0   4    0.42    0.27
  -8   0   4   -0.05    0.27
   7   0  -4    0.04    0.17
   7   0  -4   -0.01    0.28
   7   0  -4   -0.08    0.17
  -7   0   4   -0.03    0.21
  -7   0   4   -0.32    0.18
  -7   0   4    0.46    0.20
  -7   0   4   -0.14    0.21
   6   0  -4    0.17    0.16
   6   0  -4    0.03    0.22
   6   0  -4    0.17    0.15
   6   0  -4    0.33    0.16
  -6   0   4   -0.21    0.18
  -6   0   4   -0.14    0.17
  -6   0   4    0.02    0.16
   5   0  -4  116.01    6.01
   5   0  -4  126.16    6.00
   5   0  -4  113.79    6.01
   5   0  -4  130.56    6.06
  -5   0   4  111.94    6.01
  -5   0   4  117.38    6.05
  -5   0   4  132.05    6.00
   4   0  -4    1.80    0.22
   4   0  -4    1.98    0.22
   4   0  -4    1.91    0.32
   4   0  -4    2.16    0.21
  -4   0   4    1.88    0.22
  -4   0   4    2.19    0.33
  -4   0   4    2.00    0.26
   3   0  -4   13.29    0.73
   3   0  -4   12.22    0.68
   3   0  -4   12.52    0.67
  -3   0   4   12.09    0.68
  -3   0   4   13.07    0.67
  -3   0   4   12.89    0.74
   2   0  -4   21.13    1.04
   2   0  -4   20.12    1.03
   2   0  -4   19.96    1.06
  -2   0   4   19.06    1.06
  -2   0   4   20.59    1.03
  -2   0   4   21.05    1.04
   1   0  -4  180.61    9.20
   1   0  -4  197.20    9.20
   1   0  -4  198.08    9.20
   1   0  -4  193.75    9.19
  -1   0   4  170.90    9.20
  -1   0   4  186.24    9.18
  -1   0   4  187.99    9.19
  -1   0   4  182.15    9.18
   0   0  -4   30.42    1.40
   0   0  -4   27.97    1.39
   0   0  -4   26.33    1.39
   0   0   4   27.43    1.39
   0   0   4   28.46    1.39
   0   0   4   26.54    1.39
   0   0   4   27.47    1.40
  -1   0  -4   73.97    3.38
  -1   0  -4   67.14    3.38
  -1   0  -4   69.41    3.37
   1   0   4   71.82    3.37
   1   0   4   61.63    3.37
   1   0   4   63.49    3.37
   1   0   4   70.87    3.38
  -2   0  -4    2.23    0.18
  -2   0  -4    2.27    0.18
  -2   0  -4    2.30    0.17
  -2   0  -4    2.26    0.19
   2   0   4    1.90    0.17
   2   0   4    2.30    0.16
   2   0   4    2.27    0.21
   2   0   4    2.20    0.19
   2   0   4    2.43    0.17
  -3   0  -4   20.07    1.01
  -3   0  -4   18.96    1.00
  -3   0  -4   17.83    1.00
  -3   0  -4   20.13    1.01
  -3   0  -4   19.90    1.02
   3   0   4   19.96    1.00
   3   0   4   21.07    1.02
   3   0   4   18.43    1.00
   3   0   4   19.07    1.01
  -4   0  -4   28.99    1.47
  -4   0  -4   27.09    1.45
  -4   0  -4   29.03    1.47
  -4   0  -4   28.50    1.46
  -4   0  -4   28.08    1.44
   4   0   4   28.35    1.47
   4   0   4   29.48    1.47
   4   0   4   29.22    1.46
   4   0   4   27.13    1.44
  -5   0  -4   42.28    2.18
  -5   0  -4   44.41    2.19
  -5   0  -4   43.56    2.19
  -5   0  -4   42.69    2.19
  -5   0  -4   40.82    2.16
   5   0   4   44.10    2.18
   5   0   4   44.45    2.20
   5   0   4   42.70    2.19
   5   0   4   40.79    2.16
  -6   0  -4    4.46    0.40
  -6   0  -4    4.25    0.38
  -6   0  -4    4.40    0.32
  -6   0  -4    3.84    0.39
  -6   0  -4    4.36    0.41
   6   0   4    4.17    0.36
   6   0   4    4.62    0.39
   6   0   4    4.02    0.52
   6   0   4    4.35    0.40
  -7   0  -4    0.05    0.21
  -7   0  -4   -0.08    0.21
  -7   0  -4   -0.22    0.21
   7   0   4   -0.14    0.30
   7   0   4    0.29    0.22
   7   0   4    0.05    0.19
  -8   0  -4   11.18    0.79
  -8   0  -4   12.47    0.81
  -8   0  -4   10.94    0.84
   8   0   4   12.73    0.97
   8   0   4   11.34    0.75
  -9   0  -4    1.49    0.35
  -9   0  -4    0.66    0.42
  -9   0  -4    1.46    0.38
   9   0   4    1.36    0.50
   9   0   4    1.24    0.32
 -10   0  -4    6.55    0.68
 -10   0  -4    6.05    0.72
  10   0   4    5.48    1.01
  10   0   4    5.58    0.67
 -11   0  -4   -0.26    0.43
  11   0   4    0.20    0.67
  10  -1  -4    1.85    0.46
  10  -1  -4    1.47    0.36
 -10   1   4    2.18    0.42
   9  -1  -4    0.98    0.29
   9  -1  -4    1.49    0.45
  -9   1   4    0.69    0.33
   8  -1  -4    4.78    0.73
   8  -1  -4    5.77    0.49
  -8   1   4    5.30    0.54
  -8   1   4    4.04    0.57
   7  -1  -4    8.73    0.55
   7  -1  -4    7.17    0.57
   7  -1  -4    7.31    0.72
   7  -1  -4    7.21    0.57
  -7   1   4    7.26    0.58
   6  -1  -4   33.76    1.81
   6  -1  -4   34.36    1.89
   6  -1  -4   36.58    1.79
   6  -1  -4   35.83    1.81
  -6   1   4   32.71    1.84
  -6   1   4   33.97    1.82
  -6   1   4   36.07    1.79
   5  -1  -4    0.95    0.17
   5  -1  -4    0.61    0.15
   5  -1  -4    0.73    0.17
   5  -1  -4    0.55    0.24
  -5   1   4    0.43    0.17
  -5   1   4    0.94    0.17
  -5   1   4    0.84    0.22
   4  -1  -4    1.60    0.21
   4  -1  -4    1.69    0.26
   4  -1  -4    1.67    0.21
  -4   1   4    1.78    0.22
  -4   1   4    1.81    0.23
  -4   1   4    1.91    0.26
   3  -1  -4    6.32    0.36
   3  -1  -4    5.74    0.37
   3  -1  -4    5.66    0.43
   3  -1  -4    6.01    0.37
  -3   1   4    6.20    0.36
  -3   1   4    5.60    0.37
  -3   1   4    6.45    0.44
   2  -1  -4   79.25    4.19
   2  -1  -4   83.79    4.17
   2  -1  -4   90.60    4.17
  -2   1   4   86.52    4.16
  -2   1   4   82.54    4.17
  -2   1   4   82.92    4.19
   1  -1  -4    5.43    0.31
   1  -1  -4    5.50    0.31
   1  -1  -4    5.97    0.31
  -1   1   4    5.50    0.31
  -1   1   4    4.59    0.32
  -1   1   4    5.49    0.31
  -1   1   4    4.94    0.33
   0  -1  -4   88.64    4.42
   0  -1  -4   92.43    4.42
   0  -1  -4   88.56    4.42
   0   1   4   88.04    4.42
   0   1   4   90.29    4.42
  -1  -1  -4    8.82    0.49
  -1  -1  -4    9.32    0.48
  -1  -1  -4    9.85    0.49
  -1  -1  -4    8.69    0.49
   1   1   4    9.19    0.48
   1   1   4    8.61    0.49
   1   1   4    8.67    0.49
   1   1   4    9.28    0.48
  -2  -1  -4   72.09    3.46
  -2  -1  -4   70.40    3.45
  -2  -1  -4   68.50    3.47
  -2  -1  -4   70.72    3.46
   2   1   4   66.37    3.46
   2   1   4   70.46    3.46
   2   1   4   71.26    3.46
   2   1   4   68.59    3.45
  -3  -1  -4    0.65    0.12
  -3  -1  -4    0.66    0.11
  -3  -1  -4    0.76    0.13
  -3  -1  -4    0.75    0.12
  -3  -1  -4    0.89    0.13
   3   1   4    0.76    0.11
   3   1   4    1.09    0.17
   3   1   4    0.70    0.11
   3   1   4    0.85    0.13
   3   1   4    0.70    0.12
  -4  -1  -4   38.71    1.91
  -4  -1  -4   38.15    1.93
  -4  -1  -4   41.67    1.94
  -4  -1  -4   38.25    1.93
  -4  -1  -4   35.39    1.92
   4   1   4   35.94    1.94
   4   1   4   40.29    1.93
   4   1   4   36.19    1.91
   4   1   4   36.57    1.92
  -5  -1  -4    1.75    0.28
  -5  -1  -4    2.37    0.26
  -5  -1  -4    1.58    0.21
  -5  -1  -4    1.66    0.24
  -5  -1  -4    1.74    0.20
   5   1   4    1.72    0.20
   5   1   4    2.00    0.22
   5   1   4    1.67    0.23
  -6  -1  -4   -0.13    0.14
  -6  -1  -4    0.01    0.14
  -6  -1  -4   -0.12    0.16
  -6  -1  -4    0.08    0.15
  -6  -1  -4   -0.14    0.19
   6   1   4   -0.17    0.14
   6   1   4    0.08    0.16
   6   1   4   -0.11    0.14
   6   1   4    0.36    0.23
  -7  -1  -4    5.73    0.50
  -7  -1  -4    6.19    0.49
  -7  -1  -4    5.33    0.50
  -7  -1  -4    4.98    0.47
   7   1   4    5.69    0.46
   7   1   4    5.72    0.48
   7   1   4    6.98    0.63
  -8  -1  -4    7.90    0.69
  -8  -1  -4    7.86    0.64
  -8  -1  -4    8.42    0.65
   8   1   4    9.37    0.79
  -9  -1  -4    2.57    0.40
  -9  -1  -4    2.64    0.38
   9   1   4    2.73    0.52
   9   1   4    2.60    0.35
 -10  -1  -4    0.51    0.31
 -10  -1  -4   -0.05    0.36
  10   1   4    0.04    0.34
  10   1   4    1.21    0.54
 -11  -1  -4    0.01    0.40
 -11  -1  -4    0.77    0.41
  11   1   4    0.78    0.67
  11   1   4   -0.15    0.42
  10  -2  -4    1.69    0.43
  10  -2  -4    1.85    0.53
 -10   2   4    1.05    0.39
   9  -2  -4    4.49    0.81
   9  -2  -4    4.54    0.57
  -9   2   4    4.98    0.52
   8  -2  -4   16.18    0.96
   8  -2  -4   14.60    1.13
  -8   2   4   16.45    1.00
   7  -2  -4    0.21    0.24
   7  -2  -4    0.12    0.21
   7  -2  -4   -0.11    0.31
   7  -2  -4    0.40    0.26
  -7   2   4    0.02    0.22
   6  -2  -4    2.10    0.28
   6  -2  -4    3.23    0.33
   6  -2  -4    2.38    0.29
  -6   2   4    2.59    0.35
  -6   2   4    2.11    0.31
  -6   2   4    2.38    0.29
   5  -2  -4    9.14    0.53
   5  -2  -4    7.14    0.63
   5  -2  -4    8.95    0.54
   5  -2  -4    8.88    0.54
  -5   2   4    7.42    0.58
  -5   2   4    8.91    0.53
  -5   2   4    8.32    0.55
   4  -2  -4   31.22    1.56
   4  -2  -4   29.10    1.57
   4  -2  -4   27.57    1.61
   4  -2  -4   31.32    1.55
  -4   2   4   30.70    1.56
  -4   2   4   29.85    1.60
  -4   2   4   31.70    1.54
   3  -2  -4   15.17    0.81
   3  -2  -4   15.09    0.80
   3  -2  -4   16.31    0.81
  -3   2   4   14.71    0.87
  -3   2   4   14.79    0.81
   2  -2  -4    0.58    0.11
   2  -2  -4    0.60    0.11
  -2   2   4    0.66    0.16
  -2   2   4    0.50    0.10
  -2   2   4    0.67    0.11
   1  -2  -4    0.26    0.08
   1  -2  -4    0.26    0.07
  -1   2   4    0.18    0.08
  -1   2   4    0.25    0.09
  -1   2   4    0.22    0.08
   0  -2  -4   11.45    0.59
   0  -2  -4   11.16    0.59
   0  -2  -4   11.10    0.60
   0  -2  -4   11.39    0.58
   0   2   4   11.05    0.59
   0   2   4   11.36    0.59
   0   2   4   11.18    0.60
  -1  -2  -4   99.29    4.89
  -1  -2  -4   97.48    4.90
  -1  -2  -4  103.41    4.89
  -1  -2  -4   92.25    4.88
   1   2   4  102.71    4.88
   1   2   4   98.74    4.90
   1   2   4   99.20    4.89
   1   2   4   99.54    4.89
  -2  -2  -4   14.83    0.76
  -2  -2  -4   15.31    0.77
  -2  -2  -4   14.70    0.76
  -2  -2  -4   14.43    0.78
   2   2   4   14.46    0.76
   2   2   4   14.47    0.75
   2   2   4   14.57    0.76
   2   2   4   14.70    0.78
   2   2   4   13.94    0.78
  -3  -2  -4    1.15    0.14
  -3  -2  -4    1.07    0.15
  -3  -2  -4    1.18    0.15
  -3  -2  -4    1.35    0.16
   3   2   4    1.09    0.17
   3   2   4    1.09    0.16
   3   2   4    1.27    0.15
   3   2   4    1.19    0.15
   3   2   4    1.08    0.13
  -4  -2  -4   16.98    0.89
  -4  -2  -4   16.50    0.88
  -4  -2  -4   16.62    0.89
  -4  -2  -4   15.11    0.90
  -4  -2  -4   17.03    0.91
   4   2   4   17.60    0.90
   4   2   4   16.63    0.91
   4   2   4   16.57    0.88
   4   2   4   16.56    0.89
  -5  -2  -4    7.61    0.51
  -5  -2  -4    7.90    0.52
  -5  -2  -4    8.25    0.49
  -5  -2  -4    7.12    0.51
  -5  -2  -4    8.37    0.53
   5   2   4    7.70    0.50
   5   2   4    7.58    0.50
   5   2   4    9.11    0.56
   5   2   4    9.12    0.54
   5   2   4    8.10    0.49
  -6  -2  -4    0.94    0.20
  -6  -2  -4    0.95    0.21
  -6  -2  -4    1.24    0.22
  -6  -2  -4    0.66    0.21
   6   2   4    0.85    0.19
   6   2   4    1.13    0.19
   6   2   4    1.01    0.25
   6   2   4    0.73    0.18
  -7  -2  -4    9.16    0.66
  -7  -2  -4    9.65    0.69
  -7  -2  -4   10.25    0.68
  -7  -2  -4   11.62    0.63
  -7  -2  -4   10.67    0.71
   7   2   4    9.83    0.64
   7   2   4    9.39    0.63
   7   2   4    9.59    0.65
  -8  -2  -4   -0.11    0.26
  -8  -2  -4    0.11    0.28
  -8  -2  -4   -0.26    0.22
   8   2   4    0.05    0.24
   8   2   4    0.29    0.32
  -9  -2  -4    0.02    0.32
  -9  -2  -4    0.04    0.27
   9   2   4   -0.01    0.24
 -10  -2  -4    1.11    0.34
 -10  -2  -4    1.13    0.40
  10   2   4    0.73    0.32
  10   2   4    0.83    0.52
 -11  -2  -4    1.74    0.49
 -11  -2  -4    3.35    0.53
  11   2   4    1.77    0.68
  11   2   4    1.60    0.43
  10  -3  -4    0.62    0.48
 -10   3   4    0.87    0.40
   9  -3  -4    4.46    0.51
  -9   3   4    4.11    0.50
   8  -3  -4   11.63    0.80
  -8   3   4   11.69    0.83
   7  -3  -4    7.93    0.63
   7  -3  -4    9.06    0.60
   7  -3  -4    9.09    0.68
  -7   3   4    6.99    0.84
  -7   3   4    5.89    0.72
   6  -3  -4    5.24    0.48
   6  -3  -4    5.14    0.46
   6  -3  -4    5.01    0.44
  -6   3   4    4.64    0.39
  -6   3   4    4.90    0.46
   5  -3  -4    4.97    0.39
   5  -3  -4    5.62    0.41
   5  -3  -4    5.58    0.42
  -5   3   4    4.50    0.36
  -5   3   4    4.51    0.47
  -5   3   4    5.38    0.43
   4  -3  -4    4.58    0.34
   4  -3  -4    3.84    0.31
   4  -3  -4    4.34    0.34
  -4   3   4    3.91    0.42
  -4   3   4    4.48    0.35
  -4   3   4    3.75    0.30
   3  -3  -4    7.27    0.44
   3  -3  -4    7.41    0.43
   3  -3  -4    7.15    0.42
  -3   3   4    7.04    0.42
  -3   3   4    7.22    0.44
  -3   3   4    6.60    0.50
   2  -3  -4    1.30    0.15
   2  -3  -4    1.00    0.13
   2  -3  -4    0.97    0.13
  -2   3   4    1.01    0.16
  -2   3   4    1.03    0.13
  -2   3   4    0.66    0.16
  -2   3   4    1.25    0.13
   1  -3  -4   18.34    0.95
   1  -3  -4   18.57    0.95
  -1   3   4   18.78    0.96
  -1   3   4   18.86    0.95
  -1   3   4   17.78    0.97
   0  -3  -4    0.05    0.08
   0  -3  -4    0.17    0.08
   0  -3  -4   -0.02    0.07
   0  -3  -4    0.11    0.05
   0   3   4    0.02    0.06
   0   3   4    0.10    0.08
   0   3   4    0.09    0.09
  -1  -3  -4   47.22    2.38
  -1  -3  -4   48.50    2.38
  -1  -3  -4   47.12    2.40
  -1  -3  -4   46.19    2.36
   1   3   4   49.36    2.36
   1   3   4   47.26    2.40
   1   3   4   48.19    2.38
   1   3   4   48.03    2.38
  -2  -3  -4   -0.11    0.09
  -2  -3  -4   -0.06    0.07
  -2  -3  -4   -0.07    0.08
   2   3   4    0.05    0.11
   2   3   4    0.04    0.07
   2   3   4   -0.10    0.09
   2   3   4   -0.02    0.06
  -3  -3  -4    0.74    0.13
  -3  -3  -4    0.82    0.13
  -3  -3  -4    0.73    0.13
  -3  -3  -4    0.69    0.14
   3   3   4    0.71    0.15
   3   3   4    0.60    0.11
   3   3   4    0.52    0.13
   3   3   4    0.67    0.11
   3   3   4    0.63    0.15
  -4  -3  -4    0.37    0.13
  -4  -3  -4    0.15    0.13
  -4  -3  -4    0.29    0.11
  -4  -3  -4    0.11    0.12
   4   3   4    0.05    0.12
   4   3   4    0.17    0.15
   4   3   4    0.17    0.10
   4   3   4    0.18    0.11
   4   3   4    0.27    0.14
  -5  -3  -4   40.80    2.07
  -5  -3  -4   40.95    2.05
  -5  -3  -4   36.09    2.08
  -5  -3  -4   40.35    2.06
  -5  -3  -4   40.87    2.09
   5   3   4   39.19    2.05
   5   3   4   41.68    2.06
   5   3   4   41.88    2.10
   5   3   4   40.15    2.06
   5   3   4   41.37    2.07
  -6  -3  -4   11.20    0.71
  -6  -3  -4   11.77    0.71
  -6  -3  -4   12.11    0.75
  -6  -3  -4   11.94    0.68
  -6  -3  -4   10.64    0.72
   6   3   4   12.37    0.73
   6   3   4   11.02    0.69
   6   3   4   11.19    0.70
   6   3   4   12.80    0.77
   6   3   4   11.19    0.70
  -7  -3  -4    8.50    0.66
  -7  -3  -4    9.67    0.61
  -7  -3  -4    9.45    0.66
  -7  -3  -4    9.33    0.70
  -7  -3  -4    8.77    0.64
   7   3   4   11.41    0.75
   7   3   4    9.77    0.62
   7   3   4    8.37    0.64
  -8  -3  -4    0.33    0.37
  -8  -3  -4    0.50    0.29
  -8  -3  -4    1.18    0.43
   8   3   4    0.76    0.34
   8   3   4    0.93    0.24
  -9  -3  -4   20.38    1.31
  -9  -3  -4   22.05    1.30
   9   3   4   21.13    1.24
   9   3   4   24.99    1.41
 -10  -3  -4    3.30    0.50
 -10  -3  -4    3.84    0.49
  10   3   4    2.58    0.38
  10   3   4    3.29    0.60
 -11  -3  -4    0.14    0.45
  11   3   4   -0.64    0.59
  11   3   4   -0.85    0.32
  10  -4  -4    0.20    0.61
 -10   4   4    0.92    0.44
   9  -4  -4    0.63    0.47
  -9   4   4    0.34    0.39
   8  -4  -4    0.18    0.37
  -8   4   4   -0.38    0.32
   7  -4  -4    5.01    0.51
   7  -4  -4    5.97    0.58
   7  -4  -4    5.03    0.55
  -7   4   4    4.69    0.55
   6  -4  -4    5.61    0.47
   6  -4  -4    5.34    0.51
   6  -4  -4    5.97    0.51
  -6   4   4    5.08    0.42
  -6   4   4    4.57    0.49
  -6   4   4    4.02    0.56
   5  -4  -4    0.31    0.18
   5  -4  -4    0.28    0.21
   5  -4  -4    0.45    0.21
  -5   4   4    0.17    0.20
  -5   4   4    0.43    0.16
  -5   4   4    0.49    0.25
   4  -4  -4    5.95    0.41
   4  -4  -4    5.37    0.41
   4  -4  -4    5.43    0.38
  -4   4   4    4.96    0.38
  -4   4   4    5.24    0.41
  -4   4   4    5.07    0.49
   3  -4  -4    1.41    0.18
   3  -4  -4    1.01    0.15
   3  -4  -4    1.17    0.17
  -3   4   4    1.20    0.21
  -3   4   4    1.01    0.17
  -3   4   4    0.94    0.15
   2  -4  -4   91.62    4.61
   2  -4  -4   96.59    4.63
   2  -4  -4   95.77    4.63
  -2   4   4   91.97    4.66
  -2   4   4   91.90    4.63
  -2   4   4   93.07    4.63
   1  -4  -4   11.48    0.60
   1  -4  -4   11.60    0.60
   1  -4  -4   10.57    0.56
  -1   4   4   10.94    0.60
  -1   4   4   11.16    0.61
  -1   4   4   11.02    0.64
   0  -4  -4    3.21    0.23
   0  -4  -4    3.53    0.23
   0  -4  -4    3.35    0.28
   0   4   4    2.99    0.24
   0   4   4    3.58    0.23
   0   4   4    3.01    0.28
  -1  -4  -4   24.96    1.25
  -1  -4  -4   24.27    1.25
  -1  -4  -4   25.36    1.29
  -1  -4  -4   24.25    1.23
   1   4   4   24.54    1.25
   1   4   4   23.95    1.26
   1   4   4   24.97    1.29
   1   4   4   25.34    1.23
  -2  -4  -4    7.23    0.45
  -2  -4  -4    6.68    0.38
  -2  -4  -4    6.97    0.40
  -2  -4  -4    6.97    0.40
   2   4   4    6.52    0.37
   2   4   4    7.02    0.45
   2   4   4    6.74    0.41
   2   4   4    6.83    0.40
  -3  -4  -4    0.08    0.11
  -3  -4  -4   -0.01    0.11
  -3  -4  -4    0.02    0.10
  -3  -4  -4   -0.12    0.10
   3   4   4    0.05    0.13
   3   4   4    0.06    0.14
   3   4   4    0.02    0.09
   3   4   4   -0.28    0.11
  -4  -4  -4   71.30    3.45
  -4  -4  -4   66.70    3.48
  -4  -4  -4   63.20    3.47
  -4  -4  -4   70.96    3.44
   4   4   4   70.15    3.44
   4   4   4   71.80    3.44
   4   4   4   69.73    3.47
   4   4   4   68.64    3.50
   4   4   4   68.37    3.45
  -5  -4  -4    3.60    0.33
  -5  -4  -4    3.42    0.33
  -5  -4  -4    3.74    0.33
  -5  -4  -4    2.94    0.36
   5   4   4    3.58    0.42
   5   4   4    2.94    0.29
   5   4   4    3.19    0.31
   5   4   4    3.07    0.32
   5   4   4    3.42    0.38
  -6  -4  -4    0.14    0.20
  -6  -4  -4    0.12    0.17
  -6  -4  -4    0.34    0.18
  -6  -4  -4    0.16    0.19
  -6  -4  -4    0.35    0.18
   6   4   4    0.34    0.16
   6   4   4    0.28    0.18
   6   4   4    0.42    0.21
   6   4   4   -0.02    0.17
   6   4   4    0.31    0.24
  -7  -4  -4    3.17    0.42
  -7  -4  -4    2.74    0.41
  -7  -4  -4    2.36    0.37
  -7  -4  -4    3.14    0.35
  -7  -4  -4    3.74    0.43
   7   4   4    3.32    0.45
   7   4   4    2.97    0.41
   7   4   4    2.99    0.38
   7   4   4    3.56    0.55
  -8  -4  -4   30.12    1.84
   8   4   4   35.47    1.85
   8   4   4   32.63    1.74
  -9  -4  -4    4.16    0.58
  -9  -4  -4    4.10    0.58
   9   4   4    3.94    0.50
   9   4   4    4.08    0.74
 -10  -4  -4    0.17    0.37
  10   4   4   -0.39    0.45
  10   4   4   -0.02    0.26
 -11  -4  -4    0.40    0.45
  11   4   4   -0.92    0.59
   9  -5  -4    1.55    0.60
  -9   5   4    0.95    0.44
   8  -5  -4    4.12    0.94
  -8   5   4    2.71    0.47
   7  -5  -4    2.05    0.41
   7  -5  -4    1.56    0.41
   7  -5  -4    2.30    0.40
  -7   5   4    1.31    0.36
   6  -5  -4    2.18    0.32
   6  -5  -4    2.28    0.35
   6  -5  -4    2.18    0.34
  -6   5   4    1.88    0.47
  -6   5   4    1.48    0.39
  -6   5   4    2.45    0.35
   5  -5  -4    0.00    0.22
   5  -5  -4   -0.12    0.18
   5  -5  -4   -0.29    0.22
  -5   5   4   -0.28    0.18
  -5   5   4    0.31    0.28
  -5   5   4   -0.34    0.21
   4  -5  -4   23.79    1.21
   4  -5  -4   23.53    1.24
  -4   5   4   21.01    1.30
  -4   5   4   22.71    1.23
  -4   5   4   25.18    1.26
   3  -5  -4    9.58    0.51
   3  -5  -4    8.84    0.51
   3  -5  -4    7.87    0.47
  -3   5   4    7.47    0.50
  -3   5   4    8.61    0.52
  -3   5   4    7.24    0.57
   2  -5  -4   33.73    1.59
   2  -5  -4   28.73    1.56
   2  -5  -4   32.69    1.59
  -2   5   4   32.41    1.61
  -2   5   4   29.94    1.64
  -2   5   4   30.68    1.60
   1  -5  -4    8.54    0.48
   1  -5  -4    9.16    0.49
  -1   5   4    8.69    0.51
  -1   5   4    8.76    0.56
  -1   5   4    9.00    0.51
   0  -5  -4   30.47    1.56
   0  -5  -4   32.56    1.63
   0  -5  -4   30.80    1.56
   0   5   4   31.54    1.63
   0   5   4   31.08    1.58
   0   5   4   30.99    1.58
  -1  -5  -4    1.48    0.16
  -1  -5  -4    1.44    0.17
  -1  -5  -4    1.24    0.18
   1   5   4    1.60    0.18
   1   5   4    1.75    0.26
   1   5   4    1.46    0.20
  -2  -5  -4   31.00    1.57
  -2  -5  -4   31.40    1.62
  -2  -5  -4   32.13    1.57
   2   5   4   29.88    1.55
   2   5   4   30.69    1.59
   2   5   4   31.84    1.62
   2   5   4   31.04    1.58
  -3  -5  -4   41.59    2.12
  -3  -5  -4   42.62    2.12
  -3  -5  -4   41.95    2.11
  -3  -5  -4   42.92    2.17
   3   5   4   40.41    2.19
   3   5   4   42.22    2.10
   3   5   4   42.76    2.16
   3   5   4   42.02    2.13
   3   5   4   42.36    2.12
  -4  -5  -4    0.13    0.13
  -4  -5  -4   -0.08    0.14
  -4  -5  -4   -0.06    0.12
  -4  -5  -4   -0.09    0.13
   4   5   4    0.15    0.13
   4   5   4   -0.21    0.15
   4   5   4    0.11    0.19
   4   5   4   -0.05    0.17
   4   5   4   -0.05    0.12
  -5  -5  -4   42.19    2.13
  -5  -5  -4   42.36    2.13
  -5  -5  -4   39.99    2.18
  -5  -5  -4   40.45    2.12
   5   5   4   41.52    2.12
   5   5   4   42.85    2.16
   5   5   4   40.64    2.20
   5   5   4   40.80    2.13
   5   5   4   43.71    2.12
  -6  -5  -4   31.33    1.64
  -6  -5  -4   31.53    1.64
  -6  -5  -4   28.58    1.70
  -6  -5  -4   32.31    1.64
   6   5   4   31.81    1.64
   6   5   4   30.86    1.65
   6   5   4   30.95    1.64
   6   5   4   31.37    1.71
   6   5   4   31.34    1.63
  -7  -5  -4   28.21    1.46
  -7  -5  -4   27.24    1.47
  -7  -5  -4   26.04    1.46
   7   5   4   27.85    1.48
   7   5   4   27.25    1.54
   7   5   4   27.21    1.44
   7   5   4   25.02    1.45
   7   5   4   25.01    1.50
  -8  -5  -4    1.91    0.33
  -8  -5  -4    2.01    0.57
   8   5   4    1.48    0.30
   8   5   4    2.18    0.42
  -9  -5  -4    0.14    0.30
   9   5   4   -0.25    0.37
   9   5   4    0.21    0.26
 -10  -5  -4    1.93    0.46
  10   5   4    2.28    0.35
  10   5   4    2.13    0.55
   9  -6  -4    5.03    1.14
  -9   6   4    4.81    0.62
   8  -6  -4    0.60    0.54
  -8   6   4    0.36    0.43
   7  -6  -4   -0.18    0.44
   7  -6  -4    0.52    0.41
   7  -6  -4    1.17    0.44
  -7   6   4    0.48    0.38
   6  -6  -4    1.06    0.32
   6  -6  -4    0.78    0.31
   6  -6  -4    1.25    0.36
   5  -6  -4   28.44    1.63
   5  -6  -4   34.12    1.66
   5  -6  -4   31.73    1.68
  -5   6   4   29.74    1.76
  -5   6   4   32.81    1.69
   4  -6  -4    6.63    0.48
   4  -6  -4    7.93    0.51
   4  -6  -4    7.53    0.51
  -4   6   4    7.59    0.55
  -4   6   4    6.34    0.52
  -4   6   4    9.02    0.66
   3  -6  -4    2.73    0.27
   3  -6  -4    2.03    0.24
   3  -6  -4    2.57    0.26
  -3   6   4    2.71    0.33
   2  -6  -4    0.54    0.11
   2  -6  -4    0.53    0.12
  -2   6   4    0.51    0.19
  -2   6   4    0.64    0.16
  -2   6   4    0.67    0.17
   1  -6  -4   51.61    2.45
  -1   6   4   49.61    2.48
  -1   6   4   47.06    2.54
   0  -6  -4   16.82    0.90
   0  -6  -4   18.27    0.88
   0   6   4   17.26    0.93
   0   6   4   17.69    0.92
   0   6   4   17.33    0.99
  -1  -6  -4   25.04    1.30
  -1  -6  -4   23.77    1.21
   1   6   4   23.57    1.24
   1   6   4   24.05    1.25
   1   6   4   24.67    1.31
  -2  -6  -4    0.12    0.15
  -2  -6  -4    0.08    0.10
  -2  -6  -4    0.20    0.09
   2   6   4    0.11    0.15
   2   6   4   -0.03    0.07
   2   6   4    0.08    0.14
  -3  -6  -4   36.20    1.84
  -3  -6  -4   38.65    1.85
  -3  -6  -4   37.14    1.92
   3   6   4   36.99    1.92
   3   6   4   35.48    1.84
   3   6   4   36.46    1.86
   3   6   4   35.78    1.95
   3   6   4   36.60    1.87
  -4  -6  -4   46.90    2.28
  -4  -6  -4   44.31    2.27
  -4  -6  -4   45.85    2.35
   4   6   4   44.24    2.29
   4   6   4   46.22    2.27
   4   6   4   45.14    2.38
   4   6   4   43.74    2.29
   4   6   4   44.86    2.33
  -5  -6  -4   49.29    2.66
  -5  -6  -4   55.69    2.67
  -5  -6  -4   53.19    2.74
   5   6   4   53.69    2.67
   5   6   4   52.52    2.68
   5   6   4   51.95    2.68
   5   6   4   52.95    2.71
   5   6   4   53.32    2.77
  -6  -6  -4    0.35    0.21
  -6  -6  -4   -0.04    0.25
  -6  -6  -4    0.20    0.24
   6   6   4    0.37    0.23
   6   6   4    0.34    0.28
   6   6   4    0.15    0.21
   6   6   4    0.33    0.24
   6   6   4    0.44    0.22
  -7  -6  -4    6.59    0.54
  -7  -6  -4    6.28    0.62
   7   6   4    5.86    1.01
   7   6   4    5.59    0.58
   7   6   4    5.95    0.56
   7   6   4    6.22    0.59
  -8  -6  -4    2.14    0.46
  -8  -6  -4    2.68    0.36
   8   6   4    2.06    0.33
   8   6   4    2.17    0.37
   8   6   4    2.05    0.45
  -9  -6  -4    2.53    0.42
   9   6   4    1.99    0.49
   9   6   4    2.29    0.36
 -10  -6  -4    9.53    0.87
  10   6   4    8.31    0.69
  10   6   4    6.74    0.99
  -8   7   4    0.83    0.49
   7  -7  -4    3.15    0.49
  -7   7   4    3.27    0.50
   6  -7  -4    6.91    0.59
   6  -7  -4    5.06    0.66
  -6   7   4    7.22    0.67
   5  -7  -4    3.13    0.35
  -5   7   4    4.09    0.52
  -5   7   4    2.69    0.38
   4  -7  -4    5.26    0.42
   4  -7  -4    5.07    0.35
  -4   7   4    5.13    0.58
  -4   7   4    4.96    0.50
  -4   7   4    4.40    0.49
   3  -7  -4    6.79    0.43
  -3   7   4    7.80    0.53
  -3   7   4    6.20    0.59
  -2   7   4   23.24    1.26
  -2   7   4   24.55    1.27
  -2   7   4   23.62    1.34
  -1   7   4    0.46    0.21
  -1   7   4    0.70    0.17
  -1   7   4    0.63    0.17
   0   7   4    1.38    0.25
   0   7   4    1.55    0.20
   0   7   4    1.40    0.19
  -1  -7  -4    0.14    0.15
   1   7   4    0.09    0.16
   1   7   4    0.01    0.16
   1   7   4    0.08    0.19
  -2  -7  -4   32.84    1.76
   2   7   4   34.17    1.77
   2   7   4   33.73    1.70
   2   7   4   31.79    1.64
   2   7   4   33.16    1.69
  -3  -7  -4    0.44    0.19
  -3  -7  -4    0.49    0.11
   3   7   4    0.43    0.16
   3   7   4    0.44    0.12
   3   7   4    0.36    0.25
   3   7   4    0.30    0.23
   3   7   4    0.45    0.19
  -4  -7  -4    6.40    0.40
  -4  -7  -4    5.96    0.40
  -4  -7  -4    5.31    0.53
   4   7   4    6.73    0.56
   4   7   4    5.91    0.41
   4   7   4    6.13    0.60
   4   7   4    6.08    0.46
   4   7   4    6.37    0.47
  -5  -7  -4    1.37    0.23
  -5  -7  -4    2.22    0.34
  -5  -7  -4    1.85    0.22
   5   7   4    1.79    0.31
   5   7   4    1.46    0.34
   5   7   4    1.67    0.27
   5   7   4    1.82    0.25
   5   7   4    1.90    0.27
  -6  -7  -4    0.41    0.25
  -6  -7  -4    1.03    0.22
  -6  -7  -4    0.78    0.33
   6   7   4    0.47    0.33
   6   7   4    1.01    0.31
   6   7   4    0.45    0.25
   6   7   4    1.05    0.27
   6   7   4    0.76    0.26
  -7  -7  -4    0.56    0.26
  -7  -7  -4    0.48    0.32
   7   7   4    0.46    0.27
   7   7   4    0.70    0.36
   7   7   4    0.32    0.31
   7   7   4    0.42    0.34
  -8  -7  -4    5.41    0.62
  -8  -7  -4    6.51    0.59
   8   7   4    5.89    0.68
   8   7   4    4.85    0.79
   8   7   4    5.79    0.59
  -9  -7  -4    4.27    0.49
   9   7   4    4.24    0.57
   9   7   4    3.79    0.59
 -10  -7  -4    1.46    0.47
  10   7   4    0.40    0.52
  10   7   4    1.49    0.36
  -7   8   4    0.12    0.46
  -7   8   4    0.42    0.48
  -6   8   4    1.10    0.43
  -6   8   4    1.20    0.42
   5  -8  -4    0.19    0.31
  -5   8   4   -0.23    0.34
   4  -8  -4    9.82    0.61
  -4   8   4    7.82    0.71
  -4   8   4    8.66    0.77
  -4   8   4    9.75    0.72
  -3   8   4    0.27    0.46
  -3   8   4    0.36    0.26
  -3   8   4    0.74    0.27
  -2   8   4    0.98    0.23
  -2   8   4    0.88    0.27
  -1   8   4    1.14    0.29
  -1   8   4    0.96    0.22
  -1   8   4    1.16    0.23
   0   8   4    1.15    0.26
   0   8   4    1.34    0.21
   1   8   4    9.71    0.60
   1   8   4   10.19    0.72
   1   8   4    9.79    0.62
  -2  -8  -4   14.62    0.89
   2   8   4   13.59    0.81
   2   8   4   13.63    0.79
   2   8   4   14.35    0.90
  -3  -8  -4    0.73    0.26
   3   8   4    1.11    0.21
   3   8   4    0.90    0.14
   3   8   4    1.07    0.30
   3   8   4    1.23    0.33
   3   8   4    1.02    0.24
  -4  -8  -4    0.10    0.24
   4   8   4    0.20    0.22
   4   8   4    0.15    0.17
   4   8   4    0.54    0.28
   4   8   4    0.01    0.20
   4   8   4    0.21    0.28
  -5  -8  -4    2.46    0.25
  -5  -8  -4    1.92    0.37
  -5  -8  -4    2.72    0.28
   5   8   4    2.68    0.33
   5   8   4    2.37    0.37
   5   8   4    2.30    0.29
   5   8   4    2.54    0.35
  -6  -8  -4    0.20    0.23
  -6  -8  -4    0.21    0.18
   6   8   4    0.01    0.28
   6   8   4    0.23    0.27
   6   8   4    0.12    0.35
   6   8   4    0.20    0.31
  -7  -8  -4   10.77    0.68
  -7  -8  -4   10.36    0.77
   7   8   4    9.67    0.84
   7   8   4    9.80    0.82
   7   8   4   10.49    0.91
   7   8   4   11.17    0.78
  -8  -8  -4    0.59    0.30
   8   8   4    0.03    0.36
   8   8   4    0.15    0.41
   8   8   4   -0.12    0.31
  -9  -8  -4    0.64    0.38
   9   8   4    0.03    0.34
   9   8   4   -0.05    0.40
   9   8   4    0.14    0.48
  -7   9   4    3.74    0.68
  -6   9   4    0.12    0.50
  -6   9   4    0.28    0.45
  -5   9   4    4.52    0.54
  -5   9   4    3.71    0.54
  -4   9   4    1.17    0.40
  -4   9   4    1.32    0.38
  -3   9   4    0.58    0.34
  -3   9   4    0.61    0.31
  -3   9   4    0.53    0.35
  -2   9   4    1.39    0.29
  -2   9   4    1.00    0.32
  -2   9   4    1.09    0.33
  -1   9   4    4.53    0.44
  -1   9   4    3.54    0.48
   0   9   4    0.22    0.23
   0   9   4   -0.04    0.24
   0   9   4    0.19    0.29
   1   9   4   13.33    0.80
   1   9   4   13.86    0.82
   1   9   4   13.20    0.93
   2   9   4    0.41    0.35
   2   9   4    0.65    0.32
   2   9   4    0.58    0.26
   2   9   4    0.99    0.23
   3   9   4   10.26    0.59
   3   9   4   11.28    0.71
   3   9   4   11.68    0.73
   3   9   4   11.34    0.85
   4   9   4    0.30    0.19
   4   9   4    0.32    0.32
   4   9   4    0.43    0.26
   4   9   4    0.70    0.28
   4   9   4    0.66    0.35
   5   9   4   16.96    1.04
   5   9   4   15.99    1.03
   5   9   4   16.79    1.20
   5   9   4   17.10    1.18
   5   9   4   16.98    0.96
   6   9   4    1.20    0.43
   6   9   4    1.15    0.37
   6   9   4    1.77    0.36
   7   9   4    0.95    0.45
   7   9   4    0.84    0.39
   7   9   4    1.64    0.38
   7   9   4    0.87    0.41
   8   9   4    0.69    0.46
   8   9   4    1.43    0.44
   8   9   4    1.61    0.39
   9   9   4    9.24    1.01
   9   9   4    9.77    0.85
   9   9   4    8.95    1.07
  -5  10   4    0.23    0.50
  -5  10   4    0.58    0.46
  -4  10   4    0.62    0.42
  -4  10   4    0.10    0.43
  -3  10   4    1.43    0.45
  -3  10   4    1.51    0.39
  -2  10   4    2.99    0.48
  -2  10   4    2.76    0.43
  -2  10   4    3.42    0.41
  -1  10   4   12.91    0.91
  -1  10   4   13.88    1.02
  -1  10   4   13.69    0.86
   0  10   4    0.22    0.29
   0  10   4    0.08    0.34
   0  10   4   -0.03    0.32
   1  10   4    2.00    0.34
   1  10   4    2.22    0.36
   1  10   4    2.12    0.43
   2  10   4    1.37    0.33
   2  10   4    1.70    0.47
   2  10   4    1.46    0.35
   2  10   4    1.66    0.39
   3  10   4    3.13    0.48
   3  10   4    2.99    0.38
   3  10   4    2.75    0.38
   3  10   4    2.74    0.50
   4  10   4    4.10    0.39
   4  10   4    5.59    0.74
   4  10   4    4.93    0.58
   4  10   4    5.32    0.78
   4  10   4    4.39    0.58
   5  10   4    0.00    0.38
   5  10   4   -0.13    0.37
   5  10   4    0.23    0.44
   5  10   4    0.27    0.35
   6  10   4    0.18    0.41
   6  10   4    1.19    0.41
   6  10   4    0.55    0.41
   7  10   4    0.41    0.41
   7  10   4   -0.10    0.42
   7  10   4    0.09    0.45
   8  10   4   19.17    1.19
   8  10   4   16.19    1.33
   8  10   4   16.90    1.26
  -4  11   4    1.64    0.55
  -4  11   4    1.62    0.54
  -3  11   4    0.12    0.46
  -3  11   4    0.11    0.46
  -2  11   4    1.38    0.41
  -2  11   4    1.76    0.48
  -1  11   4    0.82    0.37
  -1  11   4    0.10    0.49
  -1  11   4   -0.22    0.41
   0  11   4    8.43    0.81
   0  11   4    8.24    0.75
   0  11   4    7.25    0.89
   1  11   4    1.49    0.41
   1  11   4    1.78    0.43
   1  11   4    1.19    0.45
   2  11   4    0.83    0.49
   2  11   4    0.55    0.44
   2  11   4    0.02    0.39
   2  11   4    0.41    0.37
   3  11   4    7.61    0.78
   3  11   4    8.75    0.96
   3  11   4    9.23    0.81
   3  11   4    9.19    1.02
   4  11   4    2.10    0.43
   4  11   4    1.03    0.50
   4  11   4    1.03    0.48
   5  11   4    4.67    0.67
   5  11   4    3.04    0.57
   5  11   4    4.88    0.59
   6  11   4    8.53    1.00
   6  11   4    8.55    1.02
   6  11   4   10.19    0.92
   7  11   4    2.74    0.57
   7  11   4    4.88    0.60
   7  11   4    2.99    0.60
  -2  12   4    1.13    0.54
  -2  12   4    1.45    0.56
  -1  12   4    6.66    1.01
  -1  12   4    7.90    0.87
   0  12   4    2.25    0.53
   0  12   4    1.12    0.52
   1  12   4    3.91    0.66
   1  12   4    5.03    0.60
   1  12   4    6.44    1.05
   2  12   4    1.30    0.61
   2  12   4    1.19    0.56
   2  12   4    0.41    0.50
   3  12   4    1.84    0.63
   3  12   4    1.16    0.50
   3  12   4    1.47    0.59
   4  12   4    1.20    0.52
   4  12   4    0.12    0.55
   4  12   4    1.11    0.59
   5  12   4    5.29    0.75
   5  12   4    7.78    1.09
   6  12   4   -0.73    0.56
   6  12   4   -0.66    0.60
   1  13   4    0.50    0.72
   1  13   4    0.66    0.65
   2  13   4    3.61    0.78
   2  13   4    7.13    1.25
   3  13   4    0.10    0.69
   3  13   4   -0.79    0.69
   5  11  -5    0.19    0.67
   4  11  -5    2.62    0.66
   4  11  -5    1.74    0.67
   3  11  -5    2.23    0.64
   3  11  -5    0.97    0.60
   2  11  -5    2.99    0.60
   2  11  -5    2.43    0.69
   2  11  -5    2.80    0.65
   1  11  -5    0.32    0.55
   1  11  -5   -0.16    0.59
   1  11  -5    0.10    1.01
   0  11  -5    1.15    0.74
   0  11  -5    2.07    0.58
   0  11  -5    1.22    0.59
  -1  11  -5   -0.26    0.66
  -1  11  -5    1.17    0.82
  -1  11  -5    0.04    0.70
  -2  11  -5    1.23    0.75
   7  10  -5   -0.78    0.54
   6  10  -5    0.04    0.55
   6  10  -5    0.61    0.40
   5  10  -5    6.24    1.00
   5  10  -5    7.32    0.65
   4  10  -5    1.16    0.31
   4  10  -5    0.99    0.37
   4  10  -5    0.68    0.51
   3  10  -5    0.56    0.41
   3  10  -5    1.07    0.30
   3  10  -5    0.80    0.49
   3  10  -5    0.97    0.49
   2  10  -5   -0.71    0.42
   2  10  -5    0.39    0.57
   2  10  -5    0.68    0.42
   1  10  -5    4.59    0.83
   1  10  -5    5.00    0.57
   1  10  -5    4.72    0.59
   0  10  -5    0.20    0.43
   0  10  -5   -0.51    0.46
   0  10  -5    0.24    0.47
  -1  10  -5    6.03    0.92
  -1  10  -5    6.85    1.03
  -1  10  -5    7.17    0.85
  -2  10  -5    0.46    0.53
  -2  10  -5    0.32    0.52
  -2  10  -5    0.25    0.54
  -3  10  -5    0.88    0.55
  -3  10  -5    0.02    0.62
  -4  10  -5   -0.36    0.62
  -4  10  -5    1.09    0.74
   8   9  -5    0.12    0.44
   7   9  -5    3.72    0.62
   7   9  -5    4.30    0.48
   6   9  -5    9.95    0.76
   6   9  -5   10.64    1.01
   5   9  -5    1.04    0.30
   5   9  -5    1.06    0.45
   5   9  -5    0.78    0.26
   4   9  -5    5.55    0.57
   4   9  -5    5.59    0.50
   4   9  -5    5.31    0.57
   4   9  -5    6.49    0.80
   3   9  -5   15.76    0.96
   3   9  -5   19.52    1.19
   3   9  -5   17.48    0.95
   3   9  -5   18.17    1.07
   2   9  -5   13.69    0.97
   2   9  -5   13.79    0.93
   2   9  -5   14.13    1.00
   1   9  -5    1.83    0.40
   1   9  -5    2.02    0.39
   1   9  -5    1.65    0.41
   0   9  -5    3.66    0.47
   0   9  -5    3.22    0.51
   0   9  -5    4.12    0.65
  -1   9  -5    0.52    0.41
  -1   9  -5    0.41    0.37
  -1   9  -5    0.20    0.38
  -2   9  -5    6.70    0.55
  -2   9  -5    7.07    0.80
  -2   9  -5    7.87    0.77
  -2   9  -5    6.35    0.89
  -3   9  -5    0.39    0.33
  -3   9  -5    0.32    0.44
  -3   9  -5    0.21    0.44
  -4   9  -5    1.46    0.59
  -4   9  -5    1.59    0.52
  -4   9  -5    0.74    0.42
  -5   9  -5    1.06    0.59
  -5   9  -5    1.03    0.56
   9   8  -5   -0.59    0.45
   8   8  -5   10.09    0.80
   8   8  -5    9.19    0.95
   7   8  -5    0.81    0.34
   7   8  -5    0.48    0.41
   6   8  -5    0.04    0.27
   6   8  -5   -0.12    0.39
   6   8  -5   -0.04    0.40
   5   8  -5    0.35    0.24
   5   8  -5    0.55    0.39
   5   8  -5    0.43    0.31
   5   8  -5    0.45    0.20
   4   8  -5   10.00    0.63
   4   8  -5    9.81    0.60
   4   8  -5    8.23    0.63
   4   8  -5   10.61    0.84
   3   8  -5    0.28    0.23
   3   8  -5    0.32    0.32
   3   8  -5    0.33    0.17
   3   8  -5   -0.02    0.19
   2   8  -5    1.54    0.34
   2   8  -5    0.92    0.32
   2   8  -5    0.99    0.27
   1   8  -5    0.22    0.28
   1   8  -5   -0.30    0.30
   1   8  -5    0.16    0.29
   0   8  -5   15.25    0.98
   0   8  -5   15.37    1.00
   0   8  -5   17.09    1.03
  -1   8  -5   10.50    0.83
  -1   8  -5   10.93    0.77
  -1   8  -5   10.56    0.78
  -2   8  -5    2.38    0.27
  -2   8  -5    3.31    0.42
  -2   8  -5    2.18    0.26
  -2   8  -5    3.14    0.56
  -3   8  -5    0.38    0.27
  -3   8  -5    0.21    0.39
  -3   8  -5    0.13    0.35
  -3   8  -5   -0.02    0.27
  -4   8  -5   13.65    0.94
  -4   8  -5   14.73    1.16
  -4   8  -5   14.06    0.93
  -5   8  -5    0.41    0.41
  -5   8  -5   -0.30    0.47
  -6   8  -5    0.79    0.53
  -6   8  -5    0.89    0.57
   9   7  -5    0.86    0.39
   9   7  -5    0.36    0.44
   8   7  -5    1.08    0.34
   8   7  -5    0.66    0.41
   7   7  -5    8.21    0.78
   7   7  -5    6.74    0.89
   6   7  -5    3.79    0.46
   6   7  -5    4.17    0.57
   6   7  -5    4.69    0.65
   5   7  -5    8.31    0.57
   5   7  -5    8.04    0.63
   5   7  -5    9.04    0.75
   5   7  -5    9.15    0.52
   4   7  -5    3.93    0.36
   4   7  -5    3.90    0.56
   4   7  -5    3.79    0.35
   4   7  -5    3.44    0.38
   3   7  -5    2.81    0.28
   3   7  -5    2.51    0.30
   3   7  -5    3.57    0.49
   3   7  -5    3.27    0.37
   2   7  -5    2.88    0.38
   2   7  -5    3.32    0.45
   2   7  -5    2.63    0.23
   1   7  -5   27.71    1.47
   1   7  -5   25.83    1.46
   1   7  -5   27.70    1.46
   0   7  -5    3.09    0.44
   0   7  -5    3.32    0.44
   0   7  -5    2.58    0.34
  -1   7  -5    6.71    0.55
  -1   7  -5    6.06    0.55
  -2   7  -5    3.85    0.50
  -2   7  -5    2.93    0.30
  -2   7  -5    3.18    0.46
  -3   7  -5    6.21    0.47
  -3   7  -5    5.81    0.48
  -3   7  -5    5.67    0.74
  -3   7  -5    6.22    0.63
  -4   7  -5    3.81    0.67
  -4   7  -5    3.21    0.38
  -4   7  -5    3.14    0.44
  -4   7  -5    2.99    0.36
  -5   7  -5    0.66    0.34
  -5   7  -5   -0.05    0.64
  -5   7  -5    0.21    0.38
  -5   7  -5    0.36    0.40
  -6   7  -5    0.76    0.46
  -6   7  -5   -0.75    0.48
  -7   7  -5    0.14    0.56
  -7   7  -5   -0.21    0.51
  10   6  -5    2.39    0.54
  10   6  -5    3.46    0.47
   9   6  -5   -0.18    0.32
   9   6  -5   -0.60    0.35
   8   6  -5    4.98    0.54
   8   6  -5    4.92    0.67
   7   6  -5   12.34    0.91
   7   6  -5   12.14    0.77
  -7  -6   5   11.90    0.75
   6   6  -5    4.43    0.51
   6   6  -5    4.15    0.41
   6   6  -5    4.66    0.63
  -6  -6   5    4.03    0.40
   5   6  -5   -0.18    0.20
   5   6  -5    0.19    0.27
   5   6  -5   -0.01    0.18
  -5  -6   5    0.11    0.30
   4   6  -5    0.93    0.20
   4   6  -5    1.59    0.22
   4   6  -5    1.12    0.18
   4   6  -5    1.16    0.29
  -4  -6   5    1.28    0.31
   3   6  -5    4.72    0.34
   3   6  -5    4.93    0.36
   3   6  -5    4.41    0.33
   3   6  -5    5.16    0.49
   2   6  -5   11.23    0.69
   2   6  -5   10.46    0.62
   2   6  -5   10.33    0.57
   1   6  -5    1.63    0.25
   1   6  -5    1.76    0.27
   1   6  -5    1.75    0.23
   0   6  -5    1.35    0.25
   0   6  -5    1.44    0.24
   0   6  -5    1.40    0.23
  -1   6  -5    0.68    0.19
  -1   6  -5    0.20    0.21
  -2   6  -5    8.28    0.49
  -2   6  -5    8.67    0.57
  -2   6  -5    9.26    0.62
  -2   6  -5    8.67    0.50
  -3   6  -5    2.25    0.41
  -3   6  -5    2.30    0.32
  -3   6  -5    1.87    0.24
  -4   6  -5    2.29    0.29
  -4   6  -5    2.53    0.36
  -4   6  -5    2.12    0.32
  -4   6  -5    2.37    0.30
   4  -6   5    1.23    0.32
  -5   6  -5    0.15    0.28
  -5   6  -5    0.53    0.53
  -5   6  -5    0.24    0.29
  -5   6  -5   -0.26    0.32
  -6   6  -5    0.74    0.36
  -6   6  -5    0.56    0.39
  -6   6  -5    0.01    0.55
  -7   6  -5    0.88    0.49
  -7   6  -5   -0.08    0.42
  -8   6  -5    7.95    0.99
  -8   6  -5    9.16    1.03
  10   5  -5    2.53    0.41
  10   5  -5    2.08    0.48
   9   5  -5    0.22    0.29
   9   5  -5   -0.44    0.36
  -9  -5   5   -0.29    0.35
   8   5  -5    5.85    0.54
   8   5  -5    5.71    0.67
  -8  -5   5    4.13    0.51
  -8  -5   5    6.32    0.78
  -8  -5   5    4.72    0.55
   7   5  -5    0.44    0.30
   7   5  -5    0.15    0.22
  -7  -5   5    0.43    0.29
  -7  -5   5    0.05    0.22
  -7  -5   5    0.02    0.20
   6   5  -5   10.29    0.77
   6   5  -5    9.49    0.64
   6   5  -5   10.37    0.69
   6   5  -5   10.74    0.69
  -6  -5   5    9.82    0.57
  -6  -5   5   11.13    0.61
  -6  -5   5   10.11    0.61
   5   5  -5    0.43    0.25
   5   5  -5    0.50    0.18
   5   5  -5    0.51    0.20
  -5  -5   5    0.45    0.14
  -5  -5   5    0.39    0.26
   4   5  -5    9.57    0.64
   4   5  -5    8.58    0.54
   4   5  -5    9.08    0.52
  -4  -5   5    8.21    0.66
   3   5  -5    1.28    0.15
   3   5  -5    1.23    0.23
   3   5  -5    1.32    0.19
   3   5  -5    1.17    0.16
  -3  -5   5    1.02    0.24
   2   5  -5    6.77    0.47
   2   5  -5    5.72    0.42
   2   5  -5    6.35    0.37
   2   5  -5    6.51    0.39
   1   5  -5   11.74    0.64
   1   5  -5   10.71    0.65
   0   5  -5   17.75    0.97
   0   5  -5   18.42    0.99
  -1   5  -5    3.60    0.36
  -1   5  -5    3.74    0.24
  -1   5  -5    3.71    0.31
  -2   5  -5    7.14    0.43
  -2   5  -5    7.60    0.51
  -2   5  -5    7.30    0.42
  -3   5  -5    7.14    0.51
  -3   5  -5    6.01    0.44
  -3   5  -5    6.55    0.46
  -3   5  -5    6.31    0.42
   3  -5   5    5.83    0.49
  -4   5  -5    1.10    0.23
  -4   5  -5    0.79    0.27
  -4   5  -5    0.64    0.22
  -4   5  -5    0.57    0.21
   4  -5   5    0.62    0.24
  -5   5  -5    1.76    0.29
  -5   5  -5    1.24    0.28
  -5   5  -5    1.84    0.30
  -5   5  -5    2.18    0.35
   5  -5   5    1.55    0.32
  -6   5  -5    7.74    0.64
  -6   5  -5    8.13    0.64
  -6   5  -5    6.40    0.68
  -6   5  -5    5.76    0.63
  -7   5  -5    4.97    0.67
  -7   5  -5    6.01    0.76
  -8   5  -5    0.18    0.45
  -8   5  -5   -0.10    0.44
  -9   5  -5   -0.40    0.52
  10   4  -5   15.24    0.99
  10   4  -5   15.42    1.14
 -10  -4   5   16.27    1.13
   9   4  -5   -0.19    0.25
   9   4  -5   -0.07    0.33
  -9  -4   5    0.35    0.36
  -9  -4   5    1.45    0.87
   8   4  -5    0.26    0.25
   8   4  -5    0.21    0.32
  -8  -4   5    0.47    0.29
  -8  -4   5    0.39    0.28
  -8  -4   5    0.38    0.39
   7   4  -5    0.73    0.23
   7   4  -5    0.74    0.27
  -7  -4   5    0.47    0.29
  -7  -4   5    0.67    0.24
  -7  -4   5    0.61    0.22
   6   4  -5    1.68    0.24
   6   4  -5    1.89    0.25
   6   4  -5    1.90    0.31
   6   4  -5    1.59    0.27
  -6  -4   5    1.69    0.27
  -6  -4   5    1.55    0.34
  -6  -4   5    1.81    0.23
  -6  -4   5    1.54    0.20
   5   4  -5    5.09    0.38
   5   4  -5    5.64    0.49
   5   4  -5    5.15    0.41
  -5  -4   5    4.80    0.55
  -5  -4   5    5.19    0.34
  -5  -4   5    4.98    0.37
  -5  -4   5    4.92    0.34
   4   4  -5   -0.17    0.13
   4   4  -5   -0.02    0.13
   4   4  -5    0.09    0.19
  -4  -4   5   -0.24    0.19
   3   4  -5    3.42    0.27
   3   4  -5    3.66    0.26
   3   4  -5    3.66    0.36
  -3  -4   5    3.21    0.37
   2   4  -5    0.24    0.10
   2   4  -5    0.17    0.08
   2   4  -5    0.20    0.09
   2   4  -5    0.19    0.14
  -2  -4   5    0.20    0.15
   1   4  -5   58.08    2.99
   1   4  -5   60.53    3.03
   1   4  -5   63.20    3.02
   1   4  -5   61.28    2.99
   0   4  -5    2.31    0.22
   0   4  -5    2.21    0.28
  -1   4  -5   18.28    0.92
  -1   4  -5   18.04    0.92
  -1   4  -5   18.51    0.98
  -2   4  -5    4.38    0.29
  -2   4  -5    4.33    0.28
  -2   4  -5    3.96    0.30
  -2   4  -5    4.37    0.36
  -3   4  -5   11.32    0.60
  -3   4  -5   11.18    0.61
  -3   4  -5   11.17    0.67
   3  -4   5    9.85    0.66
  -4   4  -5    1.18    0.19
  -4   4  -5    1.13    0.19
  -4   4  -5    1.16    0.21
  -4   4  -5    1.56    0.28
   4  -4   5    1.34    0.23
  -5   4  -5   26.08    1.37
  -5   4  -5   25.91    1.33
  -5   4  -5   25.88    1.33
  -5   4  -5   25.85    1.40
   5  -4   5   22.53    1.37
  -6   4  -5    0.51    0.25
  -6   4  -5    0.38    0.27
  -6   4  -5    0.07    0.28
  -7   4  -5    5.37    0.65
  -7   4  -5    4.68    0.64
  -7   4  -5    5.32    0.60
   7  -4   5    6.45    0.51
   7  -4   5    4.26    0.45
  -8   4  -5    1.00    0.43
  -8   4  -5    0.43    0.39
   8  -4   5    0.75    0.36
  -9   4  -5    8.07    0.90
  -9   4  -5    7.68    0.86
  10   3  -5    0.46    0.30
  10   3  -5   -0.14    0.36
 -10  -3   5    0.42    0.45
   9   3  -5    0.77    0.28
   9   3  -5    0.02    0.32
  -9  -3   5    0.73    0.36
  -9  -3   5    0.74    0.43
   8   3  -5    0.01    0.21
   8   3  -5    0.08    0.30
  -8  -3   5   -0.01    0.29
  -8  -3   5   -0.04    0.27
  -8  -3   5    0.42    0.37
   7   3  -5   10.23    0.70
   7   3  -5   10.14    0.66
   7   3  -5   10.57    0.77
  -7  -3   5   10.34    0.72
  -7  -3   5   10.11    0.69
   6   3  -5   14.32    0.85
   6   3  -5   12.43    0.78
   6   3  -5   12.55    0.77
   6   3  -5   12.70    0.75
  -6  -3   5   14.02    0.78
  -6  -3   5   12.25    0.89
  -6  -3   5   13.35    0.75
  -6  -3   5   13.01    0.76
   5   3  -5   18.08    0.98
   5   3  -5   17.25    0.96
   5   3  -5   18.85    1.04
  -5  -3   5   17.58    0.96
  -5  -3   5   18.68    0.97
  -5  -3   5   17.53    0.93
  -5  -3   5   17.82    1.09
   4   3  -5    0.88    0.15
   4   3  -5    0.98    0.21
   4   3  -5    0.90    0.15
  -4  -3   5    0.91    0.15
  -4  -3   5    0.80    0.10
  -4  -3   5    0.87    0.13
  -4  -3   5    0.78    0.22
   3   3  -5   57.30    2.74
   3   3  -5   55.92    2.77
   3   3  -5   55.54    2.73
  -3  -3   5   53.54    2.73
  -3  -3   5   52.75    2.71
   2   3  -5    7.71    0.42
   2   3  -5    7.73    0.43
   2   3  -5    7.89    0.47
  -2  -3   5    6.93    0.49
   1   3  -5   20.47    1.11
   1   3  -5   23.73    1.14
   1   3  -5   23.59    1.12
  -1  -3   5   20.90    1.15
   0   3  -5    0.37    0.11
   0   3  -5    0.50    0.07
   0   3  -5    0.60    0.07
   0   3  -5    0.52    0.14
  -1   3  -5    9.96    0.53
  -1   3  -5   10.71    0.60
  -2   3  -5   31.81    1.65
  -2   3  -5   31.66    1.61
  -2   3  -5   32.86    1.62
   2  -3   5   32.30    1.65
  -3   3  -5    0.51    0.17
  -3   3  -5    0.54    0.12
  -3   3  -5    0.58    0.10
   3  -3   5    0.64    0.16
  -4   3  -5   20.61    1.10
  -4   3  -5   20.95    1.13
  -4   3  -5   21.69    1.07
  -4   3  -5   21.44    1.08
   4  -3   5   19.16    1.04
   4  -3   5   19.65    1.11
  -5   3  -5    1.27    0.21
  -5   3  -5    1.16    0.23
  -5   3  -5    0.80    0.19
  -5   3  -5    0.62    0.18
  -5   3  -5    1.23    0.27
   5  -3   5    0.40    0.18
   5  -3   5    0.90    0.17
   5  -3   5    0.98    0.26
  -6   3  -5   10.65    0.72
  -6   3  -5   12.29    0.69
  -6   3  -5   12.29    0.74
  -6   3  -5    9.85    0.68
  -6   3  -5   12.02    0.77
   6  -3   5   10.58    0.83
   6  -3   5    9.45    0.68
  -7   3  -5    2.45    0.36
  -7   3  -5    3.42    0.43
   7  -3   5    2.09    0.34
   7  -3   5    3.63    0.46
  -8   3  -5    6.61    0.67
  -8   3  -5    6.20    0.77
  -8   3  -5    5.48    0.70
   8  -3   5    5.73    0.64
   8  -3   5    5.87    0.67
  -9   3  -5    5.47    0.73
  -9   3  -5    3.88    0.56
   9  -3   5    3.91    0.53
  11   2  -5    5.18    0.84
  10   2  -5    7.25    0.85
  10   2  -5    6.05    0.60
 -10  -2   5    6.96    0.82
   9   2  -5   10.27    0.73
   9   2  -5   11.14    0.90
  -9  -2   5    9.98    0.99
  -9  -2   5    9.68    0.80
   8   2  -5   32.45    1.73
   8   2  -5   34.76    1.84
  -8  -2   5   33.25    1.80
  -8  -2   5   30.43    1.76
   7   2  -5    2.03    0.33
   7   2  -5    1.90    0.26
   7   2  -5    1.94    0.27
  -7  -2   5    1.98    0.30
  -7  -2   5    1.97    0.31
  -7  -2   5    1.72    0.31
   6   2  -5    0.04    0.17
   6   2  -5    0.19    0.22
   6   2  -5    0.29    0.18
   6   2  -5    0.11    0.16
  -6  -2   5    0.39    0.21
  -6  -2   5    0.24    0.20
  -6  -2   5   -0.10    0.21
  -6  -2   5   -0.10    0.18
   5   2  -5    0.30    0.16
   5   2  -5    0.40    0.16
   5   2  -5    0.71    0.21
   5   2  -5    0.40    0.14
  -5  -2   5    0.51    0.16
  -5  -2   5    0.28    0.20
  -5  -2   5    0.50    0.17
  -5  -2   5    0.46    0.16
   4   2  -5  104.18    5.46
   4   2  -5  109.38    5.48
   4   2  -5  108.53    5.51
  -4  -2   5  110.18    5.54
  -4  -2   5  117.79    5.47
  -4  -2   5  109.12    5.47
  -4  -2   5  115.30    5.45
   3   2  -5    2.47    0.21
   3   2  -5    2.48    0.21
   3   2  -5    2.76    0.30
  -3  -2   5    2.52    0.31
  -3  -2   5    2.56    0.22
  -3  -2   5    2.31    0.21
   2   2  -5    3.96    0.31
   2   2  -5    3.64    0.25
   2   2  -5    3.63    0.25
  -2  -2   5    3.81    0.23
  -2  -2   5    3.80    0.32
   1   2  -5   12.95    0.68
   1   2  -5   13.09    0.66
   1   2  -5   12.39    0.65
  -1  -2   5   12.57    0.69
   0   2  -5   41.33    1.90
   0   2  -5   38.30    1.90
   0   2  -5   38.05    1.90
   0   2  -5   38.41    1.93
   0  -2   5   35.31    1.90
  -1   2  -5   17.84    0.91
  -1   2  -5   17.59    0.91
  -1   2  -5   18.32    0.91
  -1   2  -5   17.63    0.94
  -2   2  -5    6.91    0.44
  -2   2  -5    7.19    0.42
  -2   2  -5    6.87    0.39
  -2   2  -5    7.13    0.40
   2  -2   5    7.30    0.38
   2  -2   5    7.05    0.38
  -3   2  -5   -0.21    0.11
  -3   2  -5   -0.04    0.11
  -3   2  -5    0.14    0.13
  -3   2  -5   -0.14    0.09
   3  -2   5    0.21    0.10
   3  -2   5    0.18    0.09
   3  -2   5   -0.06    0.10
  -4   2  -5   13.80    0.76
  -4   2  -5   13.56    0.78
  -4   2  -5   13.37    0.76
  -4   2  -5   13.43    0.72
  -4   2  -5   13.65    0.74
   4  -2   5   13.30    0.73
   4  -2   5   13.82    0.77
   4  -2   5   13.73    0.73
  -5   2  -5   23.72    1.23
  -5   2  -5   23.61    1.26
  -5   2  -5   22.92    1.27
  -5   2  -5   22.57    1.25
  -5   2  -5   23.23    1.23
   5  -2   5   23.22    1.23
   5  -2   5   24.56    1.27
   5  -2   5   24.04    1.23
  -6   2  -5    9.56    0.60
  -6   2  -5    9.33    0.63
  -6   2  -5    8.97    0.61
  -6   2  -5    9.29    0.68
  -6   2  -5   10.10    0.65
   6  -2   5    9.44    0.62
   6  -2   5   10.65    0.63
   6  -2   5   10.06    0.66
  -7   2  -5    3.40    0.47
  -7   2  -5    3.52    0.57
  -7   2  -5    3.58    0.50
   7  -2   5    3.72    0.48
   7  -2   5    3.87    0.48
  -8   2  -5    0.40    0.36
  -8   2  -5    1.02    0.34
  -8   2  -5    0.84    0.36
   8  -2   5    0.99    0.36
   8  -2   5    1.15    0.33
  -9   2  -5    7.23    0.75
  -9   2  -5    6.78    0.74
   9  -2   5    5.98    0.75
 -10   2  -5    1.67    0.45
 -10   2  -5    1.29    0.47
  10  -2   5    0.32    0.51
  11   1  -5    1.56    0.51
  11   1  -5   -0.29    0.34
  10   1  -5    2.40    0.38
 -10  -1   5    2.59    0.49
   9   1  -5    4.64    0.73
   9   1  -5    4.33    0.47
  -9  -1   5    3.79    0.47
  -9  -1   5    3.18    0.52
   8   1  -5    1.85    0.39
   8   1  -5    2.19    0.30
  -8  -1   5    1.49    0.53
  -8  -1   5    1.58    0.35
   7   1  -5    5.75    0.60
   7   1  -5    5.57    0.45
  -7  -1   5    4.35    0.51
  -7  -1   5    6.44    0.51
  -7  -1   5    5.10    0.50
   6   1  -5   10.59    0.65
   6   1  -5   11.30    0.64
   6   1  -5   11.85    0.75
   6   1  -5   10.63    0.65
  -6  -1   5   10.53    0.66
  -6  -1   5    8.97    0.65
  -6  -1   5    9.54    0.74
  -6  -1   5   12.13    0.66
   5   1  -5   31.38    1.52
   5   1  -5   28.88    1.54
   5   1  -5   29.74    1.58
   5   1  -5   27.56    1.53
  -5  -1   5   27.09    1.59
  -5  -1   5   32.90    1.53
  -5  -1   5   28.72    1.53
   4   1  -5    0.76    0.19
   4   1  -5    0.86    0.14
   4   1  -5    0.80    0.14
  -4  -1   5    0.93    0.16
  -4  -1   5    0.81    0.15
  -4  -1   5    0.76    0.21
   3   1  -5    7.84    0.45
   3   1  -5    8.23    0.46
   3   1  -5    7.55    0.51
  -3  -1   5    8.31    0.45
  -3  -1   5    7.72    0.45
  -3  -1   5    7.41    0.52
   2   1  -5    1.58    0.16
   2   1  -5    1.27    0.22
   2   1  -5    1.66    0.16
  -2  -1   5    1.36    0.16
  -2  -1   5    1.77    0.17
  -2  -1   5    1.20    0.18
   1   1  -5   59.60    2.92
   1   1  -5   60.61    2.91
   1   1  -5   61.57    2.91
  -1  -1   5   59.36    2.91
  -1  -1   5   52.87    2.92
  -1  -1   5   58.36    2.90
   0   1  -5   -0.08    0.06
   0   1  -5   -0.05    0.07
   0   1  -5    0.04    0.07
   0   1  -5    0.06    0.06
   0   1  -5   -0.03    0.08
   0  -1   5    0.01    0.06
   0  -1   5    0.03    0.07
   0  -1   5    0.03    0.06
  -1   1  -5   11.25    0.58
  -1   1  -5   11.87    0.62
  -1   1  -5   11.90    0.59
  -1   1  -5   11.13    0.59
   1  -1   5   10.55    0.61
   1  -1   5   10.05    0.61
   1  -1   5   11.41    0.58
  -2   1  -5    2.63    0.19
  -2   1  -5    2.34    0.20
  -2   1  -5    2.51    0.23
  -2   1  -5    2.61    0.21
   2  -1   5    2.70    0.23
   2  -1   5    2.43    0.18
   2  -1   5    2.24    0.19
  -3   1  -5   86.15    4.23
  -3   1  -5   84.99    4.22
  -3   1  -5   86.47    4.24
  -3   1  -5   78.63    4.20
  -3   1  -5   75.53    4.26
   3  -1   5   88.29    4.22
   3  -1   5   97.16    4.22
   3  -1   5   83.62    4.24
   3  -1   5   86.63    4.21
  -4   1  -5   -0.01    0.11
  -4   1  -5    0.02    0.10
  -4   1  -5   -0.15    0.12
  -4   1  -5   -0.05    0.15
  -4   1  -5    0.03    0.11
   4  -1   5    0.08    0.12
   4  -1   5    0.09    0.15
   4  -1   5    0.07    0.11
   4  -1   5   -0.15    0.17
  -5   1  -5   21.81    1.20
  -5   1  -5   21.78    1.16
  -5   1  -5   22.11    1.19
  -5   1  -5   21.35    1.17
  -5   1  -5   21.29    1.18
   5  -1   5   22.74    1.20
   5  -1   5   23.85    1.23
   5  -1   5   22.06    1.16
   5  -1   5   22.40    1.17
  -6   1  -5    2.19    0.26
  -6   1  -5    2.25    0.28
  -6   1  -5    2.42    0.32
   6  -1   5    1.71    0.25
   6  -1   5    1.82    0.25
   6  -1   5    1.94    0.42
   6  -1   5    1.94    0.35
  -7   1  -5    0.48    0.24
  -7   1  -5    0.55    0.25
  -7   1  -5    0.73    0.28
  -7   1  -5    0.66    0.21
   7  -1   5    0.41    0.23
   7  -1   5    0.51    0.34
   7  -1   5    0.42    0.26
  -8   1  -5    2.66    0.41
  -8   1  -5    3.55    0.48
  -8   1  -5    3.29    0.43
   8  -1   5    2.94    0.49
   8  -1   5    3.45    0.38
   8  -1   5    2.44    0.41
  -9   1  -5    4.60    0.64
  -9   1  -5    5.00    0.63
  -9   1  -5    3.82    0.57
   9  -1   5    5.41    0.63
   9  -1   5    4.81    0.64
 -10   1  -5    0.85    0.43
 -10   1  -5    1.20    0.37
  10  -1   5    0.58    0.55
  10  -1   5    0.71    0.45
  11   0  -5    1.43    0.52
  10   0  -5    5.24    0.83
  10   0  -5    3.69    0.45
 -10   0   5    3.72    0.54
   9   0  -5    5.08    0.73
   9   0  -5    3.57    0.50
  -9   0   5    4.19    0.59
   8   0  -5    9.50    0.84
   8   0  -5    9.74    0.66
  -8   0   5   10.15    0.71
  -8   0   5    8.08    0.71
   7   0  -5   31.14    1.76
   7   0  -5   33.82    1.85
   7   0  -5   34.19    1.74
  -7   0   5   35.89    1.75
  -7   0   5   33.25    1.77
  -7   0   5   31.03    1.74
   6   0  -5    1.18    0.22
   6   0  -5    0.91    0.28
   6   0  -5    1.32    0.20
   6   0  -5    1.52    0.24
  -6   0   5    0.87    0.29
  -6   0   5    1.20    0.23
  -6   0   5    1.09    0.22
   5   0  -5    5.35    0.37
   5   0  -5    5.26    0.50
   5   0  -5    4.86    0.37
   5   0  -5    4.98    0.39
  -5   0   5    5.44    0.50
  -5   0   5    4.58    0.40
  -5   0   5    5.74    0.39
   4   0  -5   17.54    0.95
   4   0  -5   17.08    1.00
   4   0  -5   18.48    0.96
   4   0  -5   18.71    0.94
  -4   0   5   16.57    1.01
  -4   0   5   17.54    0.95
  -4   0   5   18.83    0.94
   3   0  -5   51.82    2.66
   3   0  -5   54.57    2.62
   3   0  -5   53.11    2.63
  -3   0   5   52.56    2.63
  -3   0   5   53.27    2.62
  -3   0   5   49.69    2.66
   2   0  -5   31.85    1.57
   2   0  -5   31.07    1.60
   2   0  -5   32.50    1.58
  -2   0   5   31.37    1.56
  -2   0   5   31.65    1.58
  -2   0   5   28.90    1.60
  -2   0   5   31.61    1.57
   1   0  -5    4.71    0.26
   1   0  -5    3.85    0.30
   1   0  -5    5.01    0.28
   1   0  -5    4.82    0.28
  -1   0   5    4.80    0.28
  -1   0   5    4.65    0.26
  -1   0   5    4.62    0.28
  -1   0   5    4.83    0.32
   0   0  -5    0.95    0.12
   0   0  -5    0.89    0.11
   0   0  -5    1.27    0.13
   0   0   5    0.81    0.10
   0   0   5    1.06    0.15
   0   0   5    1.06    0.13
   0   0   5    1.12    0.13
  -1   0  -5    2.64    0.19
  -1   0  -5    2.63    0.19
  -1   0  -5    2.69    0.21
  -1   0  -5    2.61    0.19
   1   0   5    2.17    0.19
   1   0   5    2.79    0.19
   1   0   5    2.54    0.21
   1   0   5    2.44    0.20
  -2   0  -5   80.79    3.95
  -2   0  -5   79.17    3.94
  -2   0  -5   80.71    3.93
  -2   0  -5   82.31    3.94
   2   0   5   76.16    3.94
   2   0   5   75.73    3.93
   2   0   5   75.87    3.92
   2   0   5   80.20    3.93
   2   0   5   85.43    3.95
  -3   0  -5   13.53    0.72
  -3   0  -5   13.84    0.73
  -3   0  -5   13.17    0.72
  -3   0  -5   13.10    0.70
   3   0   5   12.63    0.70
   3   0   5   13.52    0.71
   3   0   5   13.38    0.75
  -4   0  -5    1.29    0.18
  -4   0  -5    1.40    0.18
  -4   0  -5    1.37    0.21
  -4   0  -5    1.27    0.18
  -4   0  -5    1.79    0.21
   4   0   5    1.50    0.27
   4   0   5    1.07    0.18
   4   0   5    1.31    0.17
  -5   0  -5    1.73    0.22
  -5   0  -5    1.22    0.20
  -5   0  -5    1.31    0.23
  -5   0  -5    1.25    0.22
  -5   0  -5    1.45    0.17
   5   0   5    1.32    0.25
   5   0   5    1.31    0.20
   5   0   5    1.32    0.22
   5   0   5    1.28    0.19
  -6   0  -5    7.94    0.55
  -6   0  -5    7.95    0.49
  -6   0  -5    7.76    0.55
  -6   0  -5    8.10    0.58
  -6   0  -5    7.53    0.54
   6   0   5    7.30    0.56
   6   0   5    8.05    0.52
   6   0   5    7.94    0.54
   6   0   5    8.07    0.64
  -7   0  -5    1.32    0.29
  -7   0  -5    0.87    0.25
  -7   0  -5    1.10    0.26
   7   0   5    1.11    0.24
   7   0   5    1.17    0.36
   7   0   5    1.16    0.27
  -8   0  -5    4.99    0.52
  -8   0  -5    4.99    0.55
  -8   0  -5    4.12    0.59
   8   0   5    4.76    0.51
   8   0   5    4.94    0.57
  -9   0  -5   -0.03    0.40
  -9   0  -5    0.41    0.33
  -9   0  -5   -0.22    0.29
   9   0   5   -0.23    0.30
   9   0   5    0.16    0.47
 -10   0  -5    0.31    0.40
 -10   0  -5    0.95    0.33
  10   0   5    0.17    0.39
  10   0   5   -0.35    0.54
  10  -1  -5    6.09    0.83
  10  -1  -5    4.87    0.52
 -10   1   5    4.14    0.55
   9  -1  -5    0.59    0.41
   9  -1  -5    0.34    0.27
  -9   1   5    0.31    0.30
   8  -1  -5    6.15    0.73
   8  -1  -5    6.15    0.53
  -8   1   5    6.41    0.58
   7  -1  -5   15.52    0.87
   7  -1  -5   14.22    1.02
   7  -1  -5   14.25    0.89
  -7   1   5   15.22    0.90
   6  -1  -5   15.39    0.82
   6  -1  -5   13.80    0.95
   6  -1  -5   14.48    0.83
   6  -1  -5   14.43    0.84
  -6   1   5   14.55    0.84
  -6   1   5   13.42    0.90
  -6   1   5   14.17    0.81
   5  -1  -5    6.65    0.41
   5  -1  -5    5.52    0.42
   5  -1  -5    5.21    0.54
   5  -1  -5    5.67    0.41
  -5   1   5    6.01    0.43
  -5   1   5    6.02    0.54
  -5   1   5    6.52    0.42
   4  -1  -5    5.52    0.37
   4  -1  -5    4.85    0.46
   4  -1  -5    5.84    0.38
   4  -1  -5    5.74    0.38
  -4   1   5    5.45    0.48
  -4   1   5    5.48    0.38
  -4   1   5    5.50    0.37
   3  -1  -5    4.54    0.40
   3  -1  -5    5.07    0.36
   3  -1  -5    5.48    0.34
  -3   1   5    5.27    0.33
  -3   1   5    5.34    0.35
  -3   1   5    5.42    0.41
   2  -1  -5   12.60    0.76
   2  -1  -5   13.54    0.73
   2  -1  -5   14.47    0.73
  -2   1   5   14.13    0.73
  -2   1   5   13.70    0.72
  -2   1   5   13.45    0.76
  -2   1   5   13.79    0.72
   1  -1  -5    2.57    0.18
   1  -1  -5    2.53    0.20
   1  -1  -5    2.84    0.20
  -1   1   5    2.57    0.20
  -1   1   5    2.58    0.20
  -1   1   5    2.21    0.19
  -1   1   5    2.49    0.24
   0  -1  -5    7.17    0.42
   0  -1  -5    7.59    0.42
   0  -1  -5    7.72    0.42
   0   1   5    7.41    0.42
   0   1   5    7.38    0.42
   0   1   5    7.52    0.42
  -1  -1  -5    0.49    0.09
  -1  -1  -5    0.33    0.09
  -1  -1  -5    0.41    0.10
  -1  -1  -5    0.38    0.09
   1   1   5    0.37    0.09
   1   1   5    0.30    0.08
   1   1   5    0.39    0.08
   1   1   5    0.34    0.09
  -2  -1  -5   27.16    1.36
  -2  -1  -5   26.21    1.37
  -2  -1  -5   26.87    1.36
  -2  -1  -5   28.72    1.37
   2   1   5   25.86    1.37
   2   1   5   26.63    1.36
   2   1   5   25.42    1.36
   2   1   5   27.62    1.36
  -3  -1  -5    0.51    0.14
  -3  -1  -5    0.53    0.11
  -3  -1  -5    0.38    0.11
   3   1   5    0.42    0.12
   3   1   5    0.44    0.13
   3   1   5    0.44    0.12
   3   1   5    0.39    0.11
   3   1   5    0.48    0.11
  -4  -1  -5    0.34    0.13
  -4  -1  -5    0.23    0.11
  -4  -1  -5    0.29    0.11
  -4  -1  -5    0.30    0.14
  -4  -1  -5    0.21    0.15
   4   1   5    0.41    0.14
   4   1   5    0.36    0.15
   4   1   5    0.20    0.13
   4   1   5    0.25    0.12
   4   1   5    0.09    0.11
  -5  -1  -5    3.71    0.34
  -5  -1  -5    3.85    0.36
  -5  -1  -5    3.96    0.36
  -5  -1  -5    4.32    0.32
  -5  -1  -5    3.30    0.32
   5   1   5    3.83    0.33
   5   1   5    3.55    0.32
   5   1   5    3.77    0.32
   5   1   5    4.24    0.39
  -6  -1  -5   12.26    0.76
  -6  -1  -5   12.82    0.77
  -6  -1  -5   12.97    0.73
  -6  -1  -5   12.61    0.76
  -6  -1  -5   11.11    0.74
   6   1   5   11.75    0.72
   6   1   5   14.31    0.81
   6   1   5   12.47    0.75
   6   1   5   12.55    0.74
  -7  -1  -5   14.17    0.90
  -7  -1  -5   14.60    0.89
  -7  -1  -5   14.18    0.91
   7   1   5   14.57    0.87
   7   1   5   17.19    0.99
   7   1   5   14.42    0.89
  -8  -1  -5    1.66    0.33
  -8  -1  -5    2.47    0.33
  -8  -1  -5    1.65    0.34
   8   1   5    1.53    0.39
   8   1   5    1.73    0.41
  -9  -1  -5    0.62    0.41
  -9  -1  -5    0.44    0.30
  -9  -1  -5    0.69    0.32
   9   1   5    0.36    0.44
   9   1   5    0.31    0.28
 -10  -1  -5   13.10    0.94
 -10  -1  -5   12.43    0.91
  10   1   5   10.79    0.88
  10   1   5   11.79    1.23
 -11  -1  -5    2.47    0.53
  11   1   5    3.03    0.74
  10  -2  -5    3.08    0.49
 -10   2   5    4.15    0.51
   9  -2  -5    0.58    0.44
   9  -2  -5   -0.30    0.29
  -9   2   5   -0.02    0.31
   8  -2  -5    1.61    0.30
   8  -2  -5    1.53    0.42
  -8   2   5    1.73    0.33
   7  -2  -5    0.57    0.35
   7  -2  -5    0.60    0.28
   7  -2  -5    0.99    0.24
  -7   2   5    0.96    0.26
   6  -2  -5   13.61    0.81
   6  -2  -5   12.39    0.92
   6  -2  -5   14.76    0.80
   6  -2  -5   14.05    0.82
  -6   2   5   14.46    0.83
  -6   2   5   12.46    0.86
   5  -2  -5   16.51    0.92
   5  -2  -5   17.25    0.92
   5  -2  -5   17.15    0.91
   5  -2  -5   15.35    1.01
  -5   2   5   17.14    0.93
  -5   2   5   16.93    0.92
  -5   2   5   15.97    0.98
   4  -2  -5    0.27    0.13
   4  -2  -5    0.01    0.18
   4  -2  -5    0.10    0.12
   4  -2  -5    0.20    0.14
  -4   2   5    0.15    0.14
  -4   2   5    0.21    0.13
  -4   2   5    0.29    0.20
   3  -2  -5   10.15    0.57
   3  -2  -5   11.08    0.58
  -3   2   5   10.19    0.59
  -3   2   5   10.05    0.58
  -3   2   5   10.12    0.65
   2  -2  -5    0.20    0.09
   2  -2  -5    0.32    0.10
  -2   2   5    0.19    0.15
  -2   2   5    0.21    0.10
  -2   2   5    0.23    0.09
  -2   2   5    0.35    0.11
   1  -2  -5  148.18    7.22
   1  -2  -5  146.62    7.22
   1  -2  -5  149.04    7.23
  -1   2   5  143.01    7.23
  -1   2   5  143.32    7.22
  -1   2   5  149.25    7.22
   0  -2  -5   36.63    1.85
   0  -2  -5   37.53    1.85
   0  -2  -5   36.80    1.86
   0  -2  -5   37.06    1.84
   0   2   5   38.15    1.85
   0   2   5   36.18    1.86
   0   2   5   36.10    1.85
  -1  -2  -5    1.56    0.16
  -1  -2  -5    1.56    0.14
  -1  -2  -5    1.47    0.17
  -1  -2  -5    1.42    0.17
   1   2   5    1.60    0.19
   1   2   5    1.35    0.17
   1   2   5    1.46    0.16
   1   2   5    1.69    0.15
  -2  -2  -5   16.81    0.86
  -2  -2  -5   16.38    0.85
  -2  -2  -5   16.50    0.86
  -2  -2  -5   16.36    0.88
   2   2   5   15.78    0.86
   2   2   5   16.80    0.86
   2   2   5   16.36    0.88
   2   2   5   16.45    0.85
  -3  -2  -5    6.06    0.38
  -3  -2  -5    5.74    0.40
  -3  -2  -5    5.91    0.37
   3   2   5    5.73    0.37
   3   2   5    5.78    0.36
   3   2   5    6.10    0.40
   3   2   5    5.75    0.36
   3   2   5    5.98    0.40
  -4  -2  -5    0.10    0.13
  -4  -2  -5   -0.02    0.10
  -4  -2  -5    0.01    0.12
  -4  -2  -5   -0.11    0.11
   4   2   5   -0.03    0.11
   4   2   5    0.00    0.14
   4   2   5    0.27    0.14
   4   2   5    0.04    0.09
   4   2   5    0.00    0.12
  -5  -2  -5   49.96    2.53
  -5  -2  -5   47.49    2.51
  -5  -2  -5   45.38    2.53
  -5  -2  -5   48.72    2.53
  -5  -2  -5   53.03    2.55
   5   2   5   53.05    2.53
   5   2   5   48.33    2.51
   5   2   5   53.30    2.55
   5   2   5   49.10    2.52
   5   2   5   49.52    2.52
  -6  -2  -5    1.30    0.23
  -6  -2  -5    1.58    0.26
  -6  -2  -5    2.03    0.25
  -6  -2  -5    1.59    0.25
  -6  -2  -5    1.31    0.23
   6   2   5    1.98    0.29
   6   2   5    1.24    0.22
   6   2   5    1.35    0.22
   6   2   5    1.40    0.24
  -7  -2  -5    0.02    0.21
  -7  -2  -5    0.12    0.19
  -7  -2  -5    0.07    0.21
  -7  -2  -5    0.06    0.24
   7   2   5   -0.26    0.18
   7   2   5    0.11    0.20
   7   2   5    0.05    0.20
   7   2   5    0.63    0.28
  -8  -2  -5    4.04    0.46
  -8  -2  -5    3.75    0.49
  -8  -2  -5    2.89    0.42
   8   2   5    4.73    0.67
   8   2   5    4.00    0.45
  -9  -2  -5   18.93    1.18
  -9  -2  -5   17.70    1.15
   9   2   5   22.91    1.65
   9   2   5   17.88    1.10
 -10  -2  -5    2.37    0.40
 -10  -2  -5    1.82    0.45
  10   2   5    1.39    0.35
  10   2   5    1.53    0.55
 -11  -2  -5    0.80    0.42
 -11  -2  -5    0.01    0.41
  11   2   5    0.04    0.67
  11   2   5   -0.49    0.39
  10  -3  -5    0.53    0.49
 -10   3   5    0.44    0.41
   9  -3  -5    2.59    0.45
  -9   3   5    1.96    0.38
   8  -3  -5    2.15    0.37
  -8   3   5    1.97    0.35
   7  -3  -5   12.47    0.82
   7  -3  -5   12.84    0.81
  -7   3   5   12.67    0.86
   6  -3  -5    2.46    0.31
   6  -3  -5    2.67    0.33
   6  -3  -5    2.50    0.30
  -6   3   5    1.69    0.34
  -6   3   5    2.17    0.30
   5  -3  -5    6.92    0.48
   5  -3  -5    7.31    0.50
   5  -3  -5    7.57    0.51
  -5   3   5    6.38    0.55
  -5   3   5    7.13    0.51
  -5   3   5    6.52    0.46
   4  -3  -5    0.94    0.19
   4  -3  -5    1.31    0.19
  -4   3   5    1.31    0.18
  -4   3   5    0.96    0.19
  -4   3   5    1.38    0.26
   3  -3  -5   35.86    1.92
   3  -3  -5   39.55    1.90
   3  -3  -5   38.22    1.88
  -3   3   5   35.69    1.94
  -3   3   5   36.87    1.89
  -3   3   5   37.96    1.90
   2  -3  -5   18.76    0.96
   2  -3  -5   19.04    0.96
   2  -3  -5   18.66    0.94
  -2   3   5   18.46    0.98
  -2   3   5   18.03    0.95
  -2   3   5   15.77    1.04
  -2   3   5   19.03    0.96
   1  -3  -5   60.88    3.02
   1  -3  -5   61.26    3.02
  -1   3   5   61.22    3.02
  -1   3   5   59.43    3.04
  -1   3   5   60.68    3.02
   0  -3  -5    4.97    0.32
   0  -3  -5    5.03    0.31
   0  -3  -5    5.08    0.33
   0  -3  -5    5.29    0.29
   0   3   5    4.95    0.35
   0   3   5    4.97    0.32
   0   3   5    5.13    0.31
  -1  -3  -5   21.97    1.16
  -1  -3  -5   23.44    1.16
  -1  -3  -5   22.97    1.19
   1   3   5   22.35    1.14
   1   3   5   22.50    1.17
   1   3   5   23.04    1.16
   1   3   5   22.53    1.18
  -2  -3  -5   11.17    0.59
  -2  -3  -5   10.78    0.63
  -2  -3  -5   11.10    0.61
  -2  -3  -5   11.13    0.61
   2   3   5   11.08    0.60
   2   3   5   11.22    0.59
   2   3   5   11.36    0.64
   2   3   5   10.89    0.61
  -3  -3  -5   29.58    1.48
  -3  -3  -5   28.95    1.48
  -3  -3  -5   28.51    1.51
  -3  -3  -5   28.44    1.47
   3   3   5   29.90    1.47
   3   3   5   29.17    1.49
   3   3   5   28.65    1.48
   3   3   5   29.03    1.50
   3   3   5   27.57    1.51
  -4  -3  -5   42.88    2.16
  -4  -3  -5   43.67    2.16
  -4  -3  -5   42.08    2.19
  -4  -3  -5   42.69    2.15
   4   3   5   40.56    2.17
   4   3   5   42.93    2.16
   4   3   5   42.98    2.19
   4   3   5   41.64    2.15
   4   3   5   43.58    2.17
  -5  -3  -5    0.19    0.17
  -5  -3  -5    0.32    0.14
  -5  -3  -5    0.38    0.17
  -5  -3  -5    0.11    0.13
   5   3   5    0.20    0.17
   5   3   5    0.36    0.17
   5   3   5    0.02    0.14
   5   3   5    0.28    0.20
   5   3   5    0.25    0.15
  -6  -3  -5   47.85    2.44
  -6  -3  -5   47.37    2.42
  -6  -3  -5   42.58    2.46
  -6  -3  -5   46.98    2.44
  -6  -3  -5   49.98    2.48
   6   3   5   51.05    2.48
   6   3   5   51.48    2.45
   6   3   5   47.04    2.42
   6   3   5   46.06    2.43
   6   3   5   45.36    2.43
  -7  -3  -5   19.92    1.13
  -7  -3  -5   21.36    1.19
  -7  -3  -5   19.61    1.13
  -7  -3  -5   17.35    1.15
  -7  -3  -5   19.70    1.10
   7   3   5   19.87    1.10
   7   3   5   23.53    1.21
   7   3   5   17.93    1.12
  -8  -3  -5   18.65    1.28
  -8  -3  -5   22.13    1.25
  -8  -3  -5   20.23    1.23
   8   3   5   21.28    1.20
   8   3   5   24.70    1.32
  -9  -3  -5    1.20    0.33
  -9  -3  -5    1.72    0.39
   9   3   5    1.83    0.46
   9   3   5    1.86    0.31
 -10  -3  -5    0.76    0.35
 -10  -3  -5    0.37    0.39
  10   3   5    0.00    0.29
  10   3   5    0.29    0.52
 -11  -3  -5    0.61    0.44
 -11  -3  -5    1.01    0.49
  11   3   5    0.06    0.34
  11   3   5   -0.71    0.63
  10  -4  -5    2.31    0.66
   9  -4  -5    2.30    0.53
  -9   4   5    2.50    0.44
   8  -4  -5    9.63    0.82
  -8   4   5    9.92    0.78
   7  -4  -5   -0.14    0.34
   7  -4  -5   -0.08    0.30
   7  -4  -5   -0.05    0.30
  -7   4   5   -0.12    0.27
   6  -4  -5    3.95    0.50
   6  -4  -5    4.59    0.49
   6  -4  -5    4.52    0.46
  -6   4   5    3.65    0.39
  -6   4   5    5.18    0.48
   5  -4  -5    0.35    0.19
   5  -4  -5    0.39    0.22
   5  -4  -5    0.40    0.21
  -5   4   5    0.21    0.24
  -5   4   5    0.29    0.20
  -5   4   5    0.05    0.15
   4  -4  -5   70.87    3.49
   4  -4  -5   73.07    3.49
   4  -4  -5   66.07    3.48
  -4   4   5   66.39    3.47
  -4   4   5   70.99    3.49
   3  -4  -5    1.68    0.20
   3  -4  -5    1.53    0.20
  -3   4   5    1.43    0.24
  -3   4   5    1.33    0.18
  -3   4   5    1.26    0.20
  -3   4   5    1.30    0.19
   2  -4  -5    4.69    0.30
   2  -4  -5    5.28    0.34
   2  -4  -5    5.07    0.35
  -2   4   5    4.66    0.38
  -2   4   5    4.98    0.35
  -2   4   5    4.76    0.33
   1  -4  -5    7.99    0.43
   1  -4  -5    8.40    0.48
   1  -4  -5    8.79    0.48
  -1   4   5    8.25    0.48
  -1   4   5    8.00    0.52
  -1   4   5    8.10    0.48
   0  -4  -5   92.63    4.52
   0  -4  -5   91.55    4.55
   0  -4  -5   94.45    4.59
   0  -4  -5   92.88    4.55
   0   4   5   91.12    4.59
   0   4   5   89.16    4.56
   0   4   5   92.78    4.56
  -1  -4  -5   33.55    1.68
  -1  -4  -5   32.95    1.71
  -1  -4  -5   32.31    1.65
  -1  -4  -5   33.31    1.68
   1   4   5   33.54    1.71
   1   4   5   33.30    1.68
   1   4   5   33.52    1.68
  -2  -4  -5   51.26    2.57
  -2  -4  -5   48.97    2.63
  -2  -4  -5   50.86    2.54
   2   4   5   51.58    2.57
   2   4   5   52.25    2.60
   2   4   5   52.00    2.54
   2   4   5   51.82    2.57
  -3  -4  -5    0.34    0.14
  -3  -4  -5    0.51    0.13
  -3  -4  -5    0.50    0.13
  -3  -4  -5    0.60    0.14
   3   4   5    0.43    0.11
   3   4   5    0.63    0.17
   3   4   5    0.42    0.14
   3   4   5    0.65    0.18
   3   4   5    0.56    0.12
  -4  -4  -5   32.84    1.63
  -4  -4  -5   32.09    1.64
  -4  -4  -5   30.54    1.67
  -4  -4  -5   32.44    1.64
   4   4   5   32.48    1.64
   4   4   5   31.56    1.69
   4   4   5   32.29    1.67
   4   4   5   31.51    1.63
   4   4   5   30.51    1.64
  -5  -4  -5   35.76    1.99
  -5  -4  -5   38.91    1.96
  -5  -4  -5   37.90    1.95
  -5  -4  -5   38.97    1.97
   5   4   5   38.65    2.02
   5   4   5   37.99    1.95
   5   4   5   38.16    1.98
   5   4   5   38.01    1.95
   5   4   5   38.48    1.95
  -6  -4  -5   41.28    2.14
  -6  -4  -5   42.32    2.15
  -6  -4  -5   41.93    2.15
  -6  -4  -5   40.29    2.20
   6   4   5   43.51    2.21
   6   4   5   41.57    2.14
   6   4   5   42.24    2.16
   6   4   5   40.75    2.14
   6   4   5   40.52    2.14
  -7  -4  -5    0.05    0.21
  -7  -4  -5    0.12    0.24
  -7  -4  -5    0.48    0.23
  -7  -4  -5   -0.19    0.29
   7   4   5    0.15    0.30
   7   4   5   -0.10    0.22
   7   4   5   -0.07    0.20
   7   4   5   -0.28    0.22
  -8  -4  -5    6.17    0.59
  -8  -4  -5    4.94    0.56
  -8  -4  -5    5.63    0.69
   8   4   5    6.47    0.73
   8   4   5    6.19    0.53
  -9  -4  -5    4.10    0.58
  -9  -4  -5    4.37    0.51
   9   4   5    4.27    0.76
   9   4   5    3.88    0.50
 -10  -4  -5    0.63    0.38
 -10  -4  -5    0.04    0.36
  10   4   5    0.28    0.51
  10   4   5    0.09    0.28
  11   4   5    7.57    0.90
  11   4   5    6.01    0.69
   9  -5  -5    1.15    0.61
  -9   5   5    0.69    0.44
   8  -5  -5    2.81    0.53
  -8   5   5    2.69    0.43
   7  -5  -5    2.12    0.45
   7  -5  -5    2.26    0.41
   7  -5  -5    3.57    0.46
  -7   5   5    2.95    0.41
   6  -5  -5    9.74    0.70
   6  -5  -5   11.02    0.77
   6  -5  -5   10.53    0.76
  -6   5   5   10.92    0.76
   5  -5  -5   15.76    0.92
   5  -5  -5   16.38    0.96
   5  -5  -5   17.57    0.95
  -5   5   5   17.33    0.97
  -5   5   5   15.16    1.03
   4  -5  -5    4.01    0.40
   4  -5  -5    4.42    0.35
   4  -5  -5    4.51    0.41
  -4   5   5    5.34    0.48
  -4   5   5    4.08    0.38
  -4   5   5    4.19    0.41
   3  -5  -5    6.41    0.40
   3  -5  -5    6.63    0.45
   3  -5  -5    6.93    0.45
  -3   5   5    7.06    0.47
  -3   5   5    6.30    0.51
  -3   5   5    5.88    0.43
  -3   5   5    6.30    0.52
   2  -5  -5   24.73    1.23
   2  -5  -5   21.86    1.19
   2  -5  -5   24.72    1.23
  -2   5   5   23.98    1.29
  -2   5   5   22.84    1.23
  -2   5   5   24.42    1.25
   1  -5  -5   35.87    1.77
   1  -5  -5   35.81    1.77
  -1   5   5   35.27    1.83
  -1   5   5   32.97    1.80
  -1   5   5   35.39    1.78
   0  -5  -5    6.52    0.40
   0  -5  -5    6.76    0.40
   0  -5  -5    7.54    0.47
   0   5   5    6.65    0.42
   0   5   5    6.67    0.41
   0   5   5    6.85    0.47
  -1  -5  -5    0.26    0.11
  -1  -5  -5    0.18    0.12
  -1  -5  -5    0.26    0.11
  -1  -5  -5    0.23    0.05
   1   5   5   -0.05    0.09
   1   5   5    0.18    0.12
   1   5   5    0.28    0.14
  -2  -5  -5    0.10    0.11
  -2  -5  -5    0.08    0.13
  -2  -5  -5    0.08    0.12
  -2  -5  -5    0.13    0.09
   2   5   5    0.10    0.08
   2   5   5    0.08    0.14
   2   5   5    0.16    0.13
   2   5   5    0.04    0.11
  -3  -5  -5   51.23    2.50
  -3  -5  -5   47.98    2.50
  -3  -5  -5   51.08    2.55
  -3  -5  -5   50.77    2.48
   3   5   5   50.63    2.54
   3   5   5   49.60    2.51
   3   5   5   50.46    2.48
   3   5   5   50.08    2.50
   3   5   5   46.00    2.57
  -4  -5  -5   -0.01    0.14
  -4  -5  -5    0.24    0.15
  -4  -5  -5    0.11    0.14
  -4  -5  -5   -0.11    0.14
   4   5   5    0.04    0.16
   4   5   5    0.02    0.13
   4   5   5    0.22    0.17
   4   5   5    0.07    0.12
   4   5   5    0.17    0.20
  -5  -5  -5    1.95    0.26
  -5  -5  -5    2.27    0.27
  -5  -5  -5    2.45    0.31
  -5  -5  -5    2.02    0.30
   5   5   5    2.08    0.27
   5   5   5    2.60    0.29
   5   5   5    2.21    0.29
   5   5   5    2.34    0.42
   5   5   5    2.21    0.30
  -6  -5  -5    1.14    0.26
  -6  -5  -5    1.05    0.23
  -6  -5  -5    0.82    0.28
  -6  -5  -5    1.38    0.25
   6   5   5    1.29    0.21
   6   5   5    1.01    0.27
   6   5   5    1.22    0.26
   6   5   5    1.05    0.23
   6   5   5    0.99    0.31
  -7  -5  -5    4.34    0.53
  -7  -5  -5    4.15    0.47
  -7  -5  -5    4.81    0.47
   7   5   5    4.10    0.50
   7   5   5    4.43    0.53
   7   5   5    4.99    0.63
   7   5   5    4.57    0.47
  -8  -5  -5    1.68    0.39
  -8  -5  -5    1.80    0.36
   8   5   5    2.20    0.32
   8   5   5    1.85    0.43
  -9  -5  -5    7.52    0.70
  -9  -5  -5    7.18    0.72
   9   5   5    7.65    0.63
   9   5   5    7.16    0.87
 -10  -5  -5    4.69    0.56
  10   5   5    4.71    0.57
  10   5   5    5.45    0.70
   9  -6  -5    3.25    0.79
  -9   6   5    3.31    0.61
  -8   6   5    0.04    0.41
   7  -6  -5    4.07    0.53
   7  -6  -5    4.82    0.56
   7  -6  -5    4.76    0.56
  -7   6   5    4.92    0.68
   6  -6  -5   -0.21    0.30
   6  -6  -5    0.31    0.33
   6  -6  -5   -0.15    0.32
  -6   6   5    0.01    0.30
   5  -6  -5    3.31    0.40
   5  -6  -5    3.72    0.46
  -5   6   5    3.48    0.47
   4  -6  -5    3.20    0.32
   4  -6  -5    2.76    0.40
   4  -6  -5    3.37    0.38
  -4   6   5    3.18    0.41
  -4   6   5    2.45    0.29
  -4   6   5    3.22    0.48
   3  -6  -5   23.61    1.17
   3  -6  -5   24.15    1.17
   3  -6  -5   20.62    1.13
  -3   6   5   20.23    1.24
  -3   6   5   23.72    1.20
  -3   6   5   21.11    1.24
  -3   6   5   21.45    1.18
   2  -6  -5    2.13    0.26
   2  -6  -5    2.17    0.25
   2  -6  -5    1.92    0.17
  -2   6   5    2.35    0.37
  -2   6   5    2.37    0.30
  -2   6   5    2.18    0.24
   1  -6  -5    0.21    0.12
  -1   6   5    0.03    0.14
  -1   6   5    0.09    0.17
  -1   6   5    0.27    0.14
   0  -6  -5    6.36    0.38
   0  -6  -5    6.50    0.38
   0   6   5    6.33    0.42
   0   6   5    6.40    0.48
   0   6   5    6.25    0.41
  -1  -6  -5    5.47    0.43
  -1  -6  -5    5.17    0.33
  -1  -6  -5    5.01    0.33
   1   6   5    5.43    0.44
   1   6   5    4.46    0.35
   1   6   5    5.22    0.37
  -2  -6  -5   35.37    1.79
  -2  -6  -5   35.96    1.80
  -2  -6  -5   36.00    1.86
   2   6   5   34.87    1.77
   2   6   5   34.52    1.81
   2   6   5   36.66    1.87
   2   6   5   35.83    1.82
  -3  -6  -5   24.30    1.22
  -3  -6  -5   23.95    1.28
  -3  -6  -5   22.98    1.21
   3   6   5   22.79    1.24
   3   6   5   21.78    1.32
   3   6   5   23.53    1.22
   3   6   5   24.05    1.28
   3   6   5   23.43    1.19
  -4  -6  -5    0.04    0.18
  -4  -6  -5    0.02    0.15
  -4  -6  -5    0.03    0.14
   4   6   5    0.03    0.22
   4   6   5    0.09    0.18
   4   6   5    0.20    0.15
   4   6   5    0.18    0.21
   4   6   5   -0.03    0.14
  -5  -6  -5   -0.17    0.17
  -5  -6  -5   -0.04    0.19
  -5  -6  -5   -0.08    0.20
  -5  -6  -5    0.03    0.17
   5   6   5    0.11    0.21
   5   6   5    0.07    0.17
   5   6   5    0.01    0.22
   5   6   5    0.20    0.18
   5   6   5   -0.04    0.26
  -6  -6  -5    3.58    0.40
  -6  -6  -5    3.13    0.42
  -6  -6  -5    3.10    0.36
  -6  -6  -5    3.42    0.40
   6   6   5    3.65    0.49
   6   6   5    4.33    0.41
   6   6   5    3.89    0.43
   6   6   5    3.37    0.55
   6   6   5    3.42    0.41
  -7  -6  -5    0.74    0.26
  -7  -6  -5    0.78    0.34
  -7  -6  -5    0.84    0.28
   7   6   5    0.63    0.30
   7   6   5    0.60    0.29
   7   6   5    0.66    0.30
  -8  -6  -5   14.44    1.00
   8   6   5   14.61    0.92
   8   6   5   14.51    1.10
   8   6   5   15.04    0.99
  -9  -6  -5    2.20    0.40
   9   6   5    2.02    0.51
   9   6   5    1.93    0.35
 -10  -6  -5    0.35    0.44
  10   6   5   -0.93    0.48
  10   6   5    0.16    0.30
  -8   7   5    1.61    0.54
   7  -7  -5    0.96    0.49
  -7   7   5    0.56    0.43
   6  -7  -5    9.73    0.84
   6  -7  -5   12.59    0.85
   6  -7  -5   12.77    0.85
  -6   7   5   11.25    0.89
  -6   7   5   11.31    0.94
   5  -7  -5    1.13    0.28
   5  -7  -5    1.61    0.29
  -5   7   5    0.55    0.32
  -5   7   5    0.67    0.32
   4  -7  -5   12.91    0.73
   4  -7  -5   12.13    0.72
   4  -7  -5   13.18    0.73
  -4   7   5   13.99    0.82
  -4   7   5   11.23    0.93
  -4   7   5   11.18    0.78
   3  -7  -5    0.75    0.17
   3  -7  -5    0.75    0.18
   3  -7  -5    0.87    0.15
  -3   7   5    0.59    0.26
  -3   7   5    0.55    0.24
  -3   7   5    0.81    0.24
   2  -7  -5    0.60    0.13
  -2   7   5    0.51    0.24
  -2   7   5    0.49    0.21
  -2   7   5    0.80    0.20
  -1   7   5    1.49    0.23
  -1   7   5    1.87    0.23
  -1   7   5    1.47    0.28
   0   7   5   15.39    0.93
   0   7   5   15.00    0.85
   0   7   5   15.81    0.85
  -1  -7  -5    1.02    0.13
  -1  -7  -5    1.42    0.23
   1   7   5    1.11    0.19
   1   7   5    1.16    0.24
   1   7   5    1.21    0.21
  -2  -7  -5   30.11    1.58
  -2  -7  -5   30.65    1.68
  -2  -7  -5   33.39    1.59
   2   7   5   31.62    1.63
   2   7   5   31.58    1.62
   2   7   5   31.55    1.69
  -3  -7  -5    0.19    0.18
  -3  -7  -5   -0.06    0.14
  -3  -7  -5    0.01    0.13
   3   7   5    0.09    0.12
   3   7   5    0.30    0.16
   3   7   5   -0.35    0.18
   3   7   5    0.16    0.23
   3   7   5   -0.01    0.23
  -4  -7  -5    9.30    0.55
  -4  -7  -5    9.17    0.56
  -4  -7  -5    9.96    0.68
   4   7   5    9.60    0.69
   4   7   5    8.70    0.54
   4   7   5    8.69    0.73
   4   7   5    8.73    0.58
   4   7   5    8.70    0.61
  -5  -7  -5    0.97    0.23
  -5  -7  -5    0.92    0.29
  -5  -7  -5    1.18    0.22
   5   7   5    1.11    0.22
   5   7   5    0.87    0.31
   5   7   5    1.15    0.29
   5   7   5    1.14    0.27
   5   7   5    1.37    0.25
  -6  -7  -5   16.42    0.89
  -6  -7  -5   13.84    0.91
   6   7   5   15.70    0.90
   6   7   5   15.38    0.92
   6   7   5   15.17    0.98
   6   7   5   15.37    0.93
   6   7   5   13.60    1.10
  -7  -7  -5    1.19    0.37
  -7  -7  -5    1.14    0.28
   7   7   5    0.82    0.32
   7   7   5    1.43    0.35
   7   7   5    1.53    0.40
   7   7   5    1.39    0.32
  -8  -7  -5    1.61    0.34
  -8  -7  -5    1.24    0.50
   8   7   5    0.61    0.36
   8   7   5    1.48    0.45
   8   7   5    1.32    0.33
  -9  -7  -5    2.97    0.45
   9   7   5    2.67    0.57
   9   7   5    2.19    0.38
 -10  -7  -5    6.48    0.85
  10   7   5    5.15    0.73
  10   7   5    6.33    0.68
  -7   8   5    1.29    0.51
  -7   8   5    0.81    0.51
  -6   8   5    1.15    0.47
  -6   8   5    1.61    0.45
   5  -8  -5    0.51    0.33
  -5   8   5   -0.16    0.35
  -5   8   5    0.53    0.37
   4  -8  -5    0.07    0.22
  -4   8   5    0.35    0.30
  -4   8   5   -0.16    0.32
  -4   8   5    0.11    0.32
  -3   8   5    0.61    0.27
  -3   8   5    0.95    0.33
  -3   8   5    0.19    0.28
  -2   8   5    5.39    0.48
  -2   8   5    4.86    0.57
  -2   8   5    4.43    0.48
  -1   8   5   12.78    0.76
  -1   8   5   12.37    0.77
  -1   8   5   13.22    0.87
   0   8   5   24.07    1.28
   0   8   5   23.66    1.36
   0   8   5   23.93    1.28
   1   8   5    0.17    0.19
   1   8   5    0.49    0.25
   1   8   5    0.09    0.20
  -2  -8  -5    5.81    0.53
   2   8   5    5.24    0.49
   2   8   5    5.99    0.45
   2   8   5    5.53    0.57
  -3  -8  -5    4.94    0.52
   3   8   5    5.42    0.34
   3   8   5    5.87    0.46
   3   8   5    5.50    0.58
   3   8   5    5.42    0.48
   3   8   5    5.50    0.63
  -4  -8  -5    3.41    0.30
  -4  -8  -5    3.85    0.29
  -4  -8  -5    3.79    0.51
   4   8   5    3.09    0.40
   4   8   5    3.47    0.44
   4   8   5    3.79    0.58
   4   8   5    4.16    0.55
   4   8   5    2.68    0.33
  -5  -8  -5    8.76    0.54
  -5  -8  -5    7.67    0.51
   5   8   5    7.83    0.56
   5   8   5    6.95    1.10
   5   8   5    7.86    0.71
   5   8   5    8.49    0.64
   5   8   5    7.67    0.61
  -6  -8  -5    1.23    0.36
  -6  -8  -5    1.24    0.25
   6   8   5    0.70    0.30
   6   8   5    0.54    0.36
   6   8   5    1.03    0.39
   6   8   5    1.18    0.47
  -7  -8  -5    2.55    0.43
  -7  -8  -5    3.63    0.48
   7   8   5    3.32    0.42
   7   8   5    3.56    0.46
   7   8   5    2.95    0.51
   7   8   5    3.06    0.44
  -8  -8  -5    0.31    0.32
   8   8   5    0.05    0.43
   8   8   5   -0.03    0.31
   8   8   5   -0.21    0.36
  -9  -8  -5   21.54    1.73
   9   8   5   24.64    1.49
   9   8   5   23.07    1.60
   9   8   5   24.64    1.40
  -6   9   5   -0.20    0.42
  -6   9   5    0.10    0.48
  -5   9   5    0.07    0.41
  -5   9   5    0.08    0.37
  -4   9   5    2.03    0.41
  -3   9   5    8.09    0.74
  -3   9   5    9.23    0.80
  -3   9   5    9.14    0.71
  -2   9   5    0.13    0.31
  -2   9   5    0.61    0.29
  -2   9   5    0.58    0.33
  -1   9   5    6.16    0.72
  -1   9   5    5.37    0.50
  -1   9   5    4.66    0.54
   0   9   5    0.91    0.27
   0   9   5    0.18    0.29
   0   9   5    0.96    0.28
   1   9   5   20.34    1.14
   1   9   5   20.21    1.24
   1   9   5   20.26    1.13
   2   9   5    8.74    0.74
   2   9   5    8.05    0.61
   2   9   5    8.66    0.63
   3   9   5    0.87    0.29
   3   9   5    0.78    0.43
   3   9   5    0.93    0.34
   3   9   5    1.07    0.27
   4   9   5   17.06    0.99
   4   9   5   16.33    0.99
   4   9   5   15.94    1.15
   4   9   5   15.76    0.89
   4   9   5   17.75    1.12
   5   9   5    2.34    0.41
   5   9   5    1.55    0.28
   5   9   5    2.47    0.48
   5   9   5    2.17    0.47
   5   9   5    1.88    0.36
   6   9   5    9.90    0.87
   6   9   5   10.08    0.78
   6   9   5   11.84    0.82
   6   9   5   10.48    0.95
  -7  -9  -5   15.43    0.87
   7   9   5   15.31    1.17
   7   9   5   14.07    1.09
   7   9   5   15.36    1.11
   7   9   5   15.91    1.04
   8   9   5    4.93    0.86
   8   9   5    5.63    0.80
   8   9   5    6.25    0.71
   9   9   5    0.23    0.39
   9   9   5   -0.89    0.52
   9   9   5   -0.15    0.48
  -5  10   5    0.20    0.52
  -4  10   5    2.72    0.49
  -4  10   5    3.32    0.53
  -3  10   5    0.32    0.38
  -3  10   5    0.43    0.38
  -2  10   5   -0.03    0.36
  -2  10   5   -0.15    0.32
  -2  10   5   -0.22    0.41
  -1  10   5    1.45    0.33
  -1  10   5    1.43    0.40
  -1  10   5    0.81    0.37
   0  10   5   18.57    1.22
   0  10   5   16.80    1.10
   0  10   5   19.97    1.10
   1  10   5    0.45    0.32
   1  10   5    0.84    0.36
   1  10   5    0.24    0.31
   2  10   5    4.54    0.57
   2  10   5    5.70    0.73
   2  10   5    5.72    0.60
   2  10   5    5.51    0.78
   3  10   5   -0.42    0.37
   3  10   5    0.91    0.33
   3  10   5    0.32    0.32
   3  10   5    0.46    0.39
   4  10   5    6.95    0.66
   4  10   5    6.52    0.84
   4  10   5    6.78    0.45
   4  10   5    6.98    0.70
   4  10   5    7.69    0.81
   5  10   5    2.04    0.45
   5  10   5    3.06    0.56
   6  10   5   16.59    1.04
   6  10   5   14.34    1.18
   6  10   5   13.91    1.11
   7  10   5   -0.58    0.44
   7  10   5    0.25    0.41
   7  10   5   -0.24    0.44
   8  10   5    2.12    0.54
   8  10   5    2.41    0.48
   8  10   5    1.36    0.52
  -4  11   5    0.19    0.52
  -4  11   5    0.10    0.52
  -3  11   5    1.91    0.51
  -3  11   5    1.93    0.50
  -2  11   5    6.39    0.79
  -2  11   5    6.42    0.90
  -1  11   5    5.18    0.68
  -1  11   5    5.52    0.81
  -1  11   5    5.89    0.99
   0  11   5    0.62    0.45
   0  11   5    0.51    0.39
   0  11   5    0.31    0.40
   1  11   5    0.25    0.44
   1  11   5    0.31    0.39
   1  11   5   -0.24    0.40
   2  11   5    1.29    0.48
   2  11   5    1.67    0.53
   2  11   5    0.88    0.44
   2  11   5    1.19    0.42
   3  11   5   13.04    1.14
   3  11   5   15.26    1.21
   3  11   5   13.25    0.98
   4  11   5    0.18    0.55
   4  11   5    0.27    0.47
   4  11   5    0.21    0.46
   5  11   5    2.37    0.51
   5  11   5    1.88    0.57
   5  11   5    1.83    0.51
   6  11   5    1.47    0.48
   6  11   5   -0.18    0.49
   6  11   5    0.34    0.49
   7  11   5    4.13    0.66
   7  11   5    5.32    0.73
  -2  12   5    1.04    0.53
  -2  12   5    0.02    0.52
  -1  12   5   -0.60    0.50
  -1  12   5   -0.32    0.60
   0  12   5    1.04    0.53
   0  12   5    0.73    0.53
   1  12   5    2.30    0.54
   1  12   5    1.42    0.60
   1  12   5    1.37    0.53
   2  12   5    3.01    0.66
   2  12   5    2.36    0.59
   2  12   5    2.16    0.62
   3  12   5    0.75    0.58
   3  12   5    1.94    0.62
   4  12   5   -0.06    0.49
   4  12   5    0.96    0.58
   4  12   5    0.31    0.58
   5  12   5   -0.64    0.57
   5  12   5    0.03    0.61
   5  12   5   -0.04    0.56
   6  12   5    4.14    0.72
   6  12   5    3.61    0.69
   1  13   5    1.36    0.67
   1  13   5    1.56    0.73
   2  13   5    2.27    0.72
   2  13   5    1.35    0.68
   2  13   5    2.18    0.74
   4  11  -6   -0.25    0.68
   4  11  -6    1.28    0.69
   3  11  -6    3.15    0.71
   3  11  -6    2.53    0.71
   2  11  -6    7.85    1.09
   2  11  -6   10.51    1.19
   1  11  -6    4.19    0.83
   1  11  -6    4.27    0.71
   1  11  -6    3.44    0.69
   0  11  -6   -0.34    0.62
   0  11  -6    0.43    0.62
  -1  11  -6    2.19    0.72
  -1  11  -6    0.04    0.72
   6  10  -6    0.69    0.61
   5  10  -6   -0.08    0.54
   4  10  -6    0.65    0.54
   3  10  -6    7.07    0.98
   3  10  -6    7.13    0.76
   3  10  -6    7.61    0.96
   2  10  -6    0.26    0.43
   2  10  -6    0.30    0.56
   2  10  -6   -0.59    0.93
   1  10  -6   -0.76    0.46
   1  10  -6    0.28    0.60
   1  10  -6    0.17    0.47
   0  10  -6   -0.29    0.47
   0  10  -6   -0.40    0.88
   0  10  -6   -0.73    0.48
  -1  10  -6    4.58    0.70
  -1  10  -6    4.96    0.86
  -1  10  -6    5.11    0.74
  -2  10  -6    4.29    0.66
  -2  10  -6    2.33    0.65
  -3  10  -6    0.88    0.62
  -3  10  -6    0.09    0.66
   7   9  -6    0.21    0.52
   7   9  -6    0.66    0.42
   6   9  -6    3.80    0.46
   6   9  -6    4.45    0.62
   5   9  -6    1.82    0.50
   5   9  -6    1.76    0.34
   4   9  -6    3.86    0.48
   4   9  -6    4.65    0.78
   4   9  -6    4.25    0.47
   3   9  -6    2.28    0.47
   3   9  -6    2.44    0.27
   3   9  -6    2.50    0.36
   3   9  -6    2.58    0.48
   2   9  -6    1.05    0.43
   2   9  -6    1.00    0.34
   2   9  -6    1.19    0.41
   1   9  -6   -0.06    0.36
   1   9  -6    0.52    0.38
   1   9  -6    0.46    0.39
   0   9  -6    6.81    0.76
   0   9  -6    7.23    0.84
   0   9  -6    8.29    0.76
  -1   9  -6    3.99    0.51
  -1   9  -6    2.94    0.46
  -1   9  -6    3.39    0.54
  -2   9  -6    0.36    0.49
  -2   9  -6    1.14    0.42
  -2   9  -6    1.16    0.28
  -2   9  -6    1.34    0.59
  -3   9  -6    0.85    0.54
  -3   9  -6    1.32    0.39
  -3   9  -6    1.20    0.49
  -4   9  -6    2.02    0.60
  -5   9  -6    1.68    0.69
   8   8  -6   -0.38    0.39
   8   8  -6   -0.58    0.46
   7   8  -6    4.90    0.62
   7   8  -6    5.49    0.62
   6   8  -6    4.33    0.55
   6   8  -6    4.06    0.53
   6   8  -6    3.62    0.52
   5   8  -6    4.04    0.72
   5   8  -6    3.55    0.46
   5   8  -6    3.67    0.43
   4   8  -6    0.70    0.21
   4   8  -6    1.21    0.40
   4   8  -6    0.93    0.23
   4   8  -6    0.67    0.27
   3   8  -6    0.73    0.24
   3   8  -6    0.14    0.21
   3   8  -6    0.77    0.35
   3   8  -6    0.69    0.20
   2   8  -6    3.69    0.58
   2   8  -6    2.57    0.33
   2   8  -6    2.96    0.43
   2   8  -6    3.16    0.28
   1   8  -6    7.10    0.64
   1   8  -6    6.43    0.62
   1   8  -6    5.73    0.66
   0   8  -6    0.49    0.33
   0   8  -6   -0.05    0.29
   0   8  -6   -0.29    0.31
  -1   8  -6    0.26    0.29
  -1   8  -6    0.33    0.36
  -1   8  -6   -0.16    0.34
  -2   8  -6    1.28    0.33
  -2   8  -6    1.42    0.41
  -2   8  -6    0.83    0.25
  -2   8  -6    1.29    0.23
  -3   8  -6    1.56    0.36
  -3   8  -6    1.34    0.31
  -3   8  -6    2.10    0.48
  -3   8  -6    1.53    0.31
  -4   8  -6    1.33    0.39
  -4   8  -6    1.49    0.48
  -4   8  -6    1.39    0.38
  -5   8  -6    0.53    0.45
  -5   8  -6    0.10    0.51
  -6   8  -6   -0.54    0.53
  -6   8  -6    0.34    0.61
   9   7  -6    3.79    0.50
   9   7  -6    2.52    0.55
   8   7  -6   -0.55    0.38
   8   7  -6   -0.28    0.33
   7   7  -6    4.18    0.71
   7   7  -6    3.50    0.46
   6   7  -6   -0.50    0.32
   6   7  -6   -0.08    0.25
   6   7  -6    0.03    0.34
   5   7  -6   10.57    0.66
   5   7  -6   11.10    0.85
   5   7  -6    9.93    0.73
   4   7  -6    0.66    0.20
   4   7  -6    0.67    0.32
   4   7  -6    0.64    0.23
   3   7  -6    8.10    0.54
   3   7  -6    8.34    0.52
   3   7  -6    9.85    0.71
   3   7  -6    8.64    0.55
   2   7  -6    0.58    0.14
   2   7  -6    0.82    0.21
   2   7  -6    0.93    0.28
   2   7  -6    0.48    0.16
   1   7  -6    5.27    0.56
   1   7  -6    5.78    0.52
   1   7  -6    4.70    0.50
   0   7  -6    6.96    0.56
   0   7  -6    7.03    0.60
   0   7  -6    7.59    0.61
  -1   7  -6    7.04    0.61
  -1   7  -6    6.77    0.41
  -1   7  -6    7.44    0.56
  -2   7  -6    0.91    0.25
  -2   7  -6    0.79    0.19
  -2   7  -6    0.93    0.32
  -3   7  -6    3.60    0.40
  -3   7  -6    3.30    0.55
  -3   7  -6    2.94    0.42
  -3   7  -6    3.92    0.46
  -3   7  -6    3.64    0.45
  -4   7  -6    0.73    0.62
  -4   7  -6    0.39    0.29
  -4   7  -6    0.44    0.31
  -4   7  -6    0.02    0.34
  -5   7  -6   -0.27    0.42
  -5   7  -6    0.45    0.37
  -5   7  -6    0.49    0.41
  -6   7  -6    2.04    0.54
  -6   7  -6    2.17    0.49
  -7   7  -6    1.17    0.58
  -7   7  -6    2.21    0.66
   9   6  -6    6.60    0.86
   9   6  -6    7.66    0.69
   8   6  -6   -0.06    0.30
   8   6  -6   -0.31    0.35
   7   6  -6   -0.18    0.33
   6   6  -6    2.06    0.46
   6   6  -6    2.30    0.29
   6   6  -6    1.63    0.36
   5   6  -6    0.24    0.29
   5   6  -6    0.31    0.24
   5   6  -6    0.30    0.20
  -5  -6   6    0.32    0.36
   4   6  -6    7.48    0.61
   4   6  -6    6.04    0.48
   4   6  -6    6.80    0.45
  -4  -6   6    6.38    0.67
   3   6  -6    0.34    0.16
   3   6  -6    0.49    0.25
   3   6  -6    0.37    0.15
   2   6  -6    1.85    0.28
   2   6  -6    2.35    0.40
   2   6  -6    1.74    0.21
   2   6  -6    2.01    0.25
   1   6  -6    0.62    0.21
   1   6  -6    0.51    0.19
   1   6  -6    0.59    0.26
   0   6  -6   33.90    1.78
   0   6  -6   34.55    1.78
   0   6  -6   33.08    1.75
  -1   6  -6   -0.24    0.21
  -1   6  -6    0.19    0.17
  -1   6  -6    0.09    0.11
  -2   6  -6    8.05    0.49
  -2   6  -6    8.27    0.62
  -2   6  -6    7.86    0.47
  -2   6  -6    7.75    0.52
  -3   6  -6    3.14    0.37
  -3   6  -6    4.56    0.53
  -3   6  -6    3.01    0.39
  -3   6  -6    3.83    0.43
  -3   6  -6    3.77    0.35
  -4   6  -6    3.65    0.45
  -4   6  -6    3.35    0.44
  -4   6  -6    3.97    0.43
  -4   6  -6    3.12    0.45
  -5   6  -6    0.70    0.30
  -5   6  -6    1.61    0.35
  -5   6  -6    1.41    0.32
  -5   6  -6    1.21    0.39
  -6   6  -6   12.80    1.16
  -6   6  -6   11.04    0.94
  -7   6  -6    0.13    0.45
  -7   6  -6    0.63    0.50
  -8   6  -6    1.67    0.64
  10   5  -6    0.52    0.42
  10   5  -6    1.06    0.41
   9   5  -6   -0.59    0.35
   9   5  -6   -0.39    0.29
  -9  -5   6   -0.26    0.35
   8   5  -6    2.05    0.43
   8   5  -6    2.82    0.36
  -8  -5   6    2.97    0.35
   7   5  -6   -0.04    0.24
   7   5  -6    0.02    0.30
  -7  -5   6   -0.03    0.28
  -7  -5   6   -0.24    0.18
  -7  -5   6    0.27    0.20
   6   5  -6    6.68    0.51
   6   5  -6    5.85    0.56
   6   5  -6    6.77    0.64
   5   5  -6   12.03    0.69
   5   5  -6   12.21    0.81
   5   5  -6   12.13    0.73
  -5  -5   6   11.38    0.89
   4   5  -6    7.63    0.51
   4   5  -6    7.90    0.59
   4   5  -6    7.64    0.48
  -4  -5   6    7.65    0.66
   3   5  -6    1.16    0.24
   3   5  -6    1.03    0.16
   3   5  -6    1.06    0.16
  -3  -5   6    0.83    0.25
   2   5  -6   36.41    1.78
   2   5  -6   37.56    1.85
   2   5  -6   36.33    1.79
   2   5  -6   32.18    1.80
   1   5  -6    7.55    0.45
   1   5  -6    7.32    0.48
   1   5  -6    7.11    0.39
   1   5  -6    5.88    0.38
   0   5  -6    7.35    0.45
   0   5  -6    7.08    0.38
   0   5  -6    6.50    0.38
   0   5  -6    6.68    0.51
  -1   5  -6    0.10    0.13
  -1   5  -6    0.05    0.10
  -1   5  -6    0.06    0.17
  -1   5  -6    0.09    0.14
  -2   5  -6    6.84    0.51
  -2   5  -6    5.95    0.42
  -2   5  -6    6.58    0.40
  -2   5  -6    7.27    0.42
  -3   5  -6   15.59    0.87
  -3   5  -6   16.95    0.96
  -4   5  -6    0.23    0.20
  -4   5  -6    0.37    0.21
  -4   5  -6    0.10    0.29
   4  -5   6    0.16    0.28
  -5   5  -6    7.60    0.61
  -5   5  -6    6.97    0.53
  -5   5  -6    7.40    0.68
  -5   5  -6    7.85    0.59
  -6   5  -6    0.17    0.29
  -6   5  -6    0.48    0.34
  -6   5  -6    0.18    0.36
  -7   5  -6    6.36    0.75
  -7   5  -6    4.30    0.54
  -8   5  -6    1.21    0.54
  -8   5  -6    0.19    0.48
  10   4  -6    1.42    0.47
  10   4  -6    1.14    0.36
 -10  -4   6    1.76    0.52
   9   4  -6    6.77    0.67
   9   4  -6    5.70    0.73
  -9  -4   6    6.59    0.70
   8   4  -6    8.38    0.77
   8   4  -6    8.02    0.60
  -8  -4   6    7.32    0.85
  -8  -4   6    7.82    0.65
  -8  -4   6    5.52    0.80
   7   4  -6   20.17    1.07
   7   4  -6   19.25    1.18
  -7  -4   6   17.75    1.03
  -7  -4   6   19.18    1.06
   6   4  -6    0.15    0.20
   6   4  -6    0.31    0.26
   6   4  -6    0.19    0.19
   6   4  -6    0.44    0.22
  -6  -4   6    0.30    0.23
  -6  -4   6    0.15    0.14
  -6  -4   6   -0.11    0.29
  -6  -4   6    0.27    0.18
   5   4  -6    1.63    0.22
   5   4  -6    1.53    0.28
   5   4  -6    1.39    0.24
  -5  -4   6    1.49    0.19
  -5  -4   6    1.11    0.32
  -5  -4   6    1.33    0.17
   4   4  -6    1.10    0.25
   4   4  -6    1.33    0.20
   4   4  -6    1.17    0.18
  -4  -4   6    0.84    0.28
   3   4  -6   86.93    4.27
   3   4  -6   88.26    4.32
   3   4  -6   87.45    4.28
  -3  -4   6   82.59    4.35
   2   4  -6    6.67    0.44
   2   4  -6    5.95    0.36
   2   4  -6    6.25    0.37
  -2  -4   6    5.38    0.46
   1   4  -6    5.62    0.37
   1   4  -6    4.94    0.34
   1   4  -6    5.12    0.32
   0   4  -6    6.85    0.39
   0   4  -6    6.10    0.35
   0   4  -6    6.50    0.46
   0   4  -6    5.96    0.39
  -1   4  -6   32.08    1.66
  -1   4  -6   33.68    1.73
  -1   4  -6   34.30    1.67
  -2   4  -6   18.41    1.01
  -2   4  -6   18.03    0.94
  -2   4  -6   18.46    0.95
  -3   4  -6    7.36    0.46
  -3   4  -6    7.55    0.54
   3  -4   6    6.34    0.51
  -4   4  -6   -0.02    0.18
  -4   4  -6   -0.03    0.24
  -4   4  -6   -0.03    0.19
   4  -4   6   -0.09    0.22
  -5   4  -6    5.06    0.50
  -5   4  -6    5.75    0.48
  -5   4  -6    6.57    0.59
  -5   4  -6    6.39    0.51
  -5   4  -6    6.48    0.45
  -6   4  -6   11.47    0.78
  -6   4  -6   11.65    0.75
  -6   4  -6   10.58    0.81
  -6   4  -6   10.94    0.72
  -7   4  -6    4.25    0.49
  -7   4  -6    3.70    0.46
  -7   4  -6    2.68    0.44
  -8   4  -6    1.30    0.48
  -8   4  -6    1.02    0.42
  -9   4  -6    0.07    0.50
  -9   4  -6    0.37    0.50
  10   3  -6    2.56    0.40
  10   3  -6    2.88    0.50
 -10  -3   6    3.46    0.56
   9   3  -6    0.10    0.33
   9   3  -6    0.76    0.30
  -9  -3   6    0.92    0.38
   8   3  -6    6.10    0.67
   8   3  -6    6.49    0.55
  -8  -3   6    6.61    0.74
  -8  -3   6    5.97    0.60
  -8  -3   6    6.23    0.61
   7   3  -6    4.20    0.42
  -7  -3   6    4.12    0.44
  -7  -3   6    3.69    0.46
  -7  -3   6    4.01    0.43
   6   3  -6   13.18    0.81
   6   3  -6   14.34    0.89
   6   3  -6   14.08    0.78
  -6  -3   6   11.78    0.94
  -6  -3   6   13.40    0.74
  -6  -3   6   14.02    0.78
  -6  -3   6   12.83    0.81
   5   3  -6    5.10    0.41
   5   3  -6    5.63    0.51
   5   3  -6    5.27    0.39
  -5  -3   6    4.81    0.31
  -5  -3   6    4.83    0.42
  -5  -3   6    5.11    0.56
  -5  -3   6    4.93    0.38
   4   3  -6   46.31    2.30
   4   3  -6   46.22    2.34
   4   3  -6   45.80    2.29
  -4  -3   6   44.97    2.28
  -4  -3   6   44.80    2.39
  -4  -3   6   44.99    2.27
   3   3  -6    0.55    0.13
   3   3  -6    0.37    0.17
   3   3  -6    0.55    0.12
  -3  -3   6    0.32    0.09
  -3  -3   6    0.46    0.12
  -3  -3   6    0.29    0.19
   2   3  -6    2.80    0.24
   2   3  -6    3.27    0.31
   2   3  -6    3.15    0.23
  -2  -3   6    2.81    0.32
   1   3  -6    1.93    0.14
   1   3  -6    2.32    0.23
   1   3  -6    1.85    0.19
   1   3  -6    2.04    0.17
  -1  -3   6    1.89    0.24
   0   3  -6   40.29    1.92
   0   3  -6   35.39    1.93
   0   3  -6   39.18    1.92
   0   3  -6   39.59    1.97
  -1   3  -6    0.51    0.10
  -1   3  -6    0.40    0.11
  -1   3  -6    0.49    0.16
  -2   3  -6    8.59    0.48
  -2   3  -6    8.21    0.46
  -2   3  -6    8.39    0.53
   2  -3   6    8.17    0.52
  -3   3  -6    2.16    0.26
  -3   3  -6    2.16    0.25
   3  -3   6    1.56    0.22
  -4   3  -6   31.15    1.61
  -4   3  -6   31.56    1.59
  -4   3  -6   31.21    1.64
  -4   3  -6   32.23    1.62
   4  -3   6   28.83    1.54
   4  -3   6   31.25    1.63
  -5   3  -6    0.34    0.25
  -5   3  -6    0.42    0.16
  -5   3  -6    0.45    0.19
  -5   3  -6    0.51    0.21
   5  -3   6    0.16    0.20
   5  -3   6    0.53    0.15
   5  -3   6    0.12    0.18
  -6   3  -6    6.73    0.52
  -6   3  -6    6.35    0.60
  -6   3  -6    6.88    0.50
  -6   3  -6    6.99    0.57
   6  -3   6    6.26    0.47
   6  -3   6    5.04    0.50
  -7   3  -6    0.86    0.31
  -7   3  -6    1.08    0.35
  -7   3  -6    1.12    0.33
   7  -3   6    1.32    0.31
   7  -3   6    1.00    0.29
  -8   3  -6   -0.19    0.32
  -8   3  -6    0.76    0.40
   8  -3   6    0.45    0.35
  -9   3  -6    2.17    0.50
  -9   3  -6    2.25    0.50
   9  -3   6    2.23    0.49
  10   2  -6    1.25    0.32
  10   2  -6    1.70    0.45
 -10  -2   6    1.91    0.50
   9   2  -6    7.78    0.82
   9   2  -6    7.69    0.63
  -9  -2   6    9.62    1.02
  -9  -2   6    8.33    0.78
   8   2  -6    4.56    0.65
   8   2  -6    4.85    0.48
  -8  -2   6    5.39    0.64
  -8  -2   6    4.58    0.58
   7   2  -6    9.13    0.81
   7   2  -6   10.14    0.65
   7   2  -6    9.37    0.75
  -7  -2   6    9.63    0.68
  -7  -2   6   10.32    0.95
  -7  -2   6   10.43    0.72
   6   2  -6   26.96    1.53
   6   2  -6   29.39    1.59
   6   2  -6   29.95    1.52
  -6  -2   6   32.29    1.52
  -6  -2   6   25.05    1.62
  -6  -2   6   28.65    1.53
  -6  -2   6   30.56    1.54
   5   2  -6    0.69    0.17
   5   2  -6    0.54    0.17
   5   2  -6    0.74    0.23
  -5  -2   6    0.73    0.21
  -5  -2   6    0.82    0.16
  -5  -2   6    0.63    0.18
  -5  -2   6    0.19    0.24
   4   2  -6    8.50    0.58
   4   2  -6    8.69    0.51
   4   2  -6    8.65    0.52
  -4  -2   6    8.63    0.50
  -4  -2   6    7.02    0.62
  -4  -2   6    8.95    0.52
   3   2  -6   20.92    1.10
   3   2  -6   21.10    1.11
   3   2  -6   20.51    1.14
  -3  -2   6   21.17    1.09
  -3  -2   6   22.90    1.10
   2   2  -6   17.47    0.90
   2   2  -6   17.06    0.92
   2   2  -6   16.83    0.89
  -2  -2   6   18.49    0.88
  -2  -2   6   16.57    0.95
  -2  -2   6   16.69    0.88
   1   2  -6   19.68    1.02
   1   2  -6   20.73    1.01
   1   2  -6   20.66    1.00
  -1  -2   6   19.38    1.03
  -1  -2   6   18.07    0.98
   0   2  -6    2.68    0.21
   0   2  -6    3.18    0.27
   0   2  -6    3.24    0.21
   0   2  -6    2.93    0.21
   0   2  -6    2.51    0.19
   0  -2   6    2.71    0.21
  -1   2  -6    7.09    0.40
  -1   2  -6    7.27    0.44
  -1   2  -6    7.16    0.39
  -1   2  -6    6.53    0.40
  -2   2  -6    7.14    0.39
  -2   2  -6    7.03    0.41
  -2   2  -6    6.89    0.45
  -2   2  -6    6.82    0.41
   2  -2   6    6.71    0.44
   2  -2   6    6.18    0.38
   2  -2   6    7.00    0.37
  -3   2  -6   60.91    3.06
  -3   2  -6   60.59    3.04
  -3   2  -6   61.10    3.05
   3  -2   6   59.83    3.02
   3  -2   6   59.78    3.02
   3  -2   6   63.40    3.07
  -4   2  -6    3.69    0.33
  -4   2  -6    3.86    0.31
  -4   2  -6    4.36    0.39
  -4   2  -6    3.76    0.34
   4  -2   6    3.37    0.33
   4  -2   6    3.82    0.29
   4  -2   6    3.73    0.31
  -5   2  -6    0.46    0.17
  -5   2  -6    0.51    0.15
  -5   2  -6    0.50    0.20
  -5   2  -6    0.50    0.22
  -5   2  -6    0.10    0.17
   5  -2   6    0.68    0.18
   5  -2   6    0.52    0.21
   5  -2   6    0.35    0.19
  -6   2  -6    4.44    0.38
  -6   2  -6    3.77    0.40
  -6   2  -6    4.04    0.46
  -6   2  -6    3.25    0.46
   6  -2   6    3.97    0.41
   6  -2   6    5.31    0.44
  -7   2  -6    4.80    0.53
  -7   2  -6    5.47    0.57
   7  -2   6    5.50    0.54
   7  -2   6    5.60    0.53
  -8   2  -6   -0.15    0.34
  -8   2  -6   -0.12    0.29
  -8   2  -6   -0.28    0.35
   8  -2   6    0.62    0.39
   8  -2   6    1.17    0.34
  -9   2  -6    1.42    0.45
  -9   2  -6    2.05    0.43
   9  -2   6    2.07    0.56
 -10   2  -6    0.19    0.43
 -10   2  -6    0.47    0.47
  10  -2   6   -0.24    0.52
  10   1  -6   -0.31    0.29
  10   1  -6    0.25    0.37
 -10  -1   6    0.01    0.43
   9   1  -6    8.59    0.84
   9   1  -6    8.63    0.65
  -9  -1   6    7.45    0.91
  -9  -1   6    8.24    0.77
   8   1  -6   -0.14    0.31
   8   1  -6    0.04    0.22
  -8  -1   6    0.24    0.32
  -8  -1   6    0.60    0.36
   7   1  -6    3.83    0.56
   7   1  -6    3.65    0.39
  -7  -1   6    3.22    0.48
  -7  -1   6    3.99    0.50
  -7  -1   6    3.31    0.45
   6   1  -6   24.54    1.30
   6   1  -6   21.92    1.21
   6   1  -6   21.98    1.20
   6   1  -6   23.95    1.20
  -6  -1   6   19.88    1.19
  -6  -1   6   22.70    1.22
  -6  -1   6   24.09    1.21
  -6  -1   6   19.04    1.27
   5   1  -6   40.37    1.85
   5   1  -6   35.64    1.86
   5   1  -6   36.69    1.87
   5   1  -6   36.78    1.91
  -5  -1   6   38.43    1.86
  -5  -1   6   30.33    1.82
  -5  -1   6   33.38    1.93
  -5  -1   6   37.87    1.86
   4   1  -6    0.66    0.14
   4   1  -6    0.60    0.14
   4   1  -6    0.51    0.20
  -4  -1   6    0.53    0.21
  -4  -1   6    0.24    0.21
  -4  -1   6    0.65    0.16
   3   1  -6    6.55    0.40
   3   1  -6    6.33    0.47
  -3  -1   6    6.46    0.41
  -3  -1   6    7.17    0.41
   2   1  -6    0.82    0.16
   2   1  -6    0.94    0.13
   2   1  -6    1.03    0.14
  -2  -1   6    0.96    0.13
  -2  -1   6    0.96    0.12
   1   1  -6    0.74    0.14
   1   1  -6    1.00    0.10
   1   1  -6    1.10    0.13
   1   1  -6    1.14    0.13
  -1  -1   6    0.87    0.11
  -1  -1   6    0.86    0.11
   0   1  -6    3.70    0.24
   0   1  -6    3.89    0.28
   0   1  -6    3.87    0.25
   0   1  -6    3.95    0.25
   0  -1   6    3.56    0.23
   0  -1   6    3.30    0.23
  -1   1  -6   38.45    1.92
  -1   1  -6   39.05    1.90
  -1   1  -6   38.81    1.90
  -1   1  -6   37.21    1.90
   1  -1   6   34.85    1.88
   1  -1   6   38.99    1.89
  -2   1  -6    3.08    0.27
  -2   1  -6    2.92    0.22
  -2   1  -6    3.07    0.24
  -2   1  -6    2.84    0.23
   2  -1   6    3.11    0.22
   2  -1   6    2.91    0.23
   2  -1   6    3.01    0.30
  -3   1  -6   29.52    1.47
  -3   1  -6   28.33    1.48
  -3   1  -6   26.18    1.50
  -3   1  -6   28.79    1.46
   3  -1   6   29.49    1.45
   3  -1   6   27.46    1.44
   3  -1   6   29.60    1.48
  -4   1  -6   -0.08    0.12
  -4   1  -6   -0.02    0.17
  -4   1  -6    0.03    0.12
  -4   1  -6    0.00    0.14
  -4   1  -6   -0.10    0.09
   4  -1   6   -0.05    0.15
   4  -1   6    0.13    0.13
   4  -1   6   -0.17    0.18
   4  -1   6    0.04    0.14
  -5   1  -6    0.06    0.12
  -5   1  -6    0.30    0.18
  -5   1  -6    0.24    0.13
  -5   1  -6    0.36    0.22
  -5   1  -6    0.23    0.13
   5  -1   6    0.52    0.18
   5  -1   6    0.39    0.19
   5  -1   6    0.38    0.17
   5  -1   6    0.22    0.22
  -6   1  -6    2.96    0.40
  -6   1  -6    3.06    0.32
  -6   1  -6    3.27    0.32
  -6   1  -6    3.00    0.41
  -6   1  -6    2.49    0.35
   6  -1   6    3.18    0.52
   6  -1   6    2.96    0.39
  -7   1  -6    7.64    0.67
  -7   1  -6    6.88    0.60
  -7   1  -6    7.90    0.63
   7  -1   6    7.47    0.74
   7  -1   6    8.11    0.63
   7  -1   6    8.80    0.60
  -8   1  -6    6.30    0.61
  -8   1  -6    6.64    0.65
  -8   1  -6    5.80    0.65
   8  -1   6    6.97    0.62
   8  -1   6    6.24    0.67
   8  -1   6    4.78    0.76
  -9   1  -6    2.29    0.45
  -9   1  -6    1.93    0.41
   9  -1   6    1.68    0.49
   9  -1   6    1.92    0.40
 -10   1  -6    0.30    0.44
 -10   1  -6    0.81    0.38
  10  -1   6    1.13    0.47
  10  -1   6    0.71    0.57
  10   0  -6    0.35    0.30
  10   0  -6    1.58    0.43
 -10   0   6    1.19    0.44
   9   0  -6    5.71    0.54
   9   0  -6    5.32    0.77
  -9   0   6    6.03    0.65
   8   0  -6    0.19    0.22
   8   0  -6    0.15    0.32
  -8   0   6   -0.22    0.29
  -8   0   6   -0.01    0.28
   7   0  -6    1.11    0.23
   7   0  -6    1.28    0.34
  -7   0   6    1.66    0.30
  -7   0   6    1.07    0.27
  -7   0   6    1.28    0.28
   6   0  -6    1.94    0.34
   6   0  -6    2.14    0.28
   6   0  -6    2.28    0.32
  -6   0   6    2.05    0.28
  -6   0   6    2.08    0.28
   5   0  -6   14.83    0.78
   5   0  -6   13.63    0.87
   5   0  -6   13.88    0.79
   5   0  -6   13.17    0.79
  -5   0   6   13.84    0.80
  -5   0   6   14.86    0.79
  -5   0   6   13.00    0.86
   4   0  -6   34.40    1.69
   4   0  -6   31.54    1.74
   4   0  -6   32.28    1.69
  -4   0   6   31.73    1.75
  -4   0   6   33.68    1.70
  -4   0   6   34.72    1.69
   3   0  -6    1.27    0.18
   3   0  -6    1.23    0.21
   3   0  -6    1.21    0.16
  -3   0   6    1.12    0.15
  -3   0   6    1.05    0.34
  -3   0   6    1.40    0.16
  -3   0   6    1.31    0.17
   2   0  -6   13.98    0.72
   2   0  -6   12.56    0.75
   2   0  -6   13.34    0.72
  -2   0   6   13.59    0.77
  -2   0   6   13.58    0.72
  -2   0   6   13.51    0.69
  -2   0   6   13.30    0.71
   1   0  -6    6.78    0.37
   1   0  -6    5.61    0.40
   1   0  -6    6.97    0.39
   1   0  -6    6.87    0.39
  -1   0   6    7.47    0.43
  -1   0   6    6.64    0.39
  -1   0   6    6.53    0.37
  -1   0   6    6.41    0.38
   0   0  -6  145.01    7.27
   0   0  -6  149.49    7.28
   0   0  -6  140.54    7.28
   0   0  -6  154.96    7.28
   0   0   6  143.36    7.27
   0   0   6  149.94    7.27
   0   0   6  153.21    7.27
   0   0   6  145.30    7.27
  -1   0  -6   14.17    0.75
  -1   0  -6   14.72    0.74
  -1   0  -6   14.26    0.75
  -1   0  -6   14.55    0.76
   1   0   6   14.41    0.74
   1   0   6   13.95    0.75
   1   0   6   12.75    0.74
  -2   0  -6    0.73    0.14
  -2   0  -6    0.55    0.11
  -2   0  -6    0.51    0.11
  -2   0  -6    0.29    0.09
   2   0   6    0.59    0.11
   2   0   6    0.32    0.11
   2   0   6    0.54    0.11
   2   0   6    0.75    0.12
   2   0   6    0.33    0.13
  -3   0  -6    3.80    0.33
  -3   0  -6    3.89    0.30
  -3   0  -6    4.09    0.28
  -3   0  -6    4.34    0.32
   3   0   6    3.65    0.30
   3   0   6    4.06    0.29
   3   0   6    3.86    0.29
   3   0   6    4.45    0.29
  -4   0  -6    5.10    0.39
  -4   0  -6    4.91    0.37
  -4   0  -6    5.74    0.35
  -4   0  -6    5.03    0.38
   4   0   6    5.57    0.39
   4   0   6    5.11    0.39
   4   0   6    4.76    0.36
   4   0   6    5.27    0.36
  -5   0  -6    6.49    0.47
  -5   0  -6    5.93    0.43
  -5   0  -6    6.87    0.42
  -5   0  -6    6.84    0.49
  -5   0  -6    6.14    0.45
   5   0   6    6.73    0.45
   5   0   6    6.80    0.48
   5   0   6    6.56    0.52
   5   0   6    6.04    0.45
  -6   0  -6   23.36    1.29
  -6   0  -6   23.78    1.24
  -6   0  -6   23.45    1.29
  -6   0  -6   21.57    1.27
   6   0   6   25.97    1.32
   6   0   6   22.79    1.25
   6   0   6   23.46    1.27
  -7   0  -6    2.71    0.38
  -7   0  -6    2.78    0.41
  -7   0  -6    2.98    0.35
   7   0   6    3.18    0.43
   7   0   6    2.99    0.34
   7   0   6    2.46    0.32
  -8   0  -6    0.37    0.32
  -8   0  -6    0.56    0.27
  -8   0  -6    0.60    0.31
   8   0   6    0.50    0.40
   8   0   6    0.30    0.33
  -9   0  -6    3.42    0.55
  -9   0  -6    5.00    0.60
  -9   0  -6    4.14    0.50
   9   0   6    4.82    0.60
   9   0   6    4.77    0.87
 -10   0  -6   12.49    0.93
 -10   0  -6   11.43    0.89
  10   0   6   10.16    1.20
  10   0   6    8.35    0.90
  10  -1  -6    2.53    0.44
  10  -1  -6    4.91    0.78
 -10   1   6    3.28    0.51
   9  -1  -6    0.16    0.29
   9  -1  -6    0.93    0.36
  -9   1   6    0.27    0.35
   8  -1  -6    3.43    0.45
   8  -1  -6    3.70    0.62
  -8   1   6    3.86    0.43
   7  -1  -6    1.50    0.35
   7  -1  -6    2.46    0.30
  -7   1   6    2.59    0.34
   6  -1  -6   14.43    0.83
   6  -1  -6   13.73    0.95
   6  -1  -6   14.55    0.84
   6  -1  -6   14.58    0.84
  -6   1   6   14.41    0.83
  -6   1   6   14.24    0.85
   5  -1  -6    2.75    0.30
   5  -1  -6    2.93    0.31
   5  -1  -6    2.81    0.37
   5  -1  -6    3.10    0.31
  -5   1   6    2.85    0.31
  -5   1   6    2.59    0.44
  -5   1   6    2.88    0.33
   4  -1  -6    6.99    0.44
   4  -1  -6    6.21    0.52
   4  -1  -6    6.61    0.45
   4  -1  -6    7.09    0.44
  -4   1   6    7.19    0.44
  -4   1   6    6.57    0.53
  -4   1   6    7.09    0.45
   3  -1  -6    3.74    0.38
   3  -1  -6    4.87    0.33
   3  -1  -6    4.85    0.33
  -3   1   6    4.81    0.33
  -3   1   6    4.67    0.32
  -3   1   6    4.25    0.31
  -3   1   6    5.14    0.41
   2  -1  -6   33.06    1.61
   2  -1  -6   31.77    1.61
  -2   1   6   30.67    1.61
  -2   1   6   31.21    1.60
  -2   1   6   32.14    1.64
  -2   1   6   31.69    1.60
   1  -1  -6   22.34    1.16
   1  -1  -6   23.66    1.17
   1  -1  -6   23.60    1.18
  -1   1   6   22.86    1.19
  -1   1   6   22.22    1.16
  -1   1   6   22.64    1.17
  -1   1   6   22.51    1.16
   0  -1  -6   38.66    1.92
   0  -1  -6   39.88    1.92
   0  -1  -6   38.65    1.91
   0  -1  -6   37.91    1.92
   0   1   6   38.54    1.91
   0   1   6   35.37    1.91
   0   1   6   37.77    1.91
  -1  -1  -6    0.77    0.12
  -1  -1  -6    0.78    0.12
  -1  -1  -6    0.82    0.12
  -1  -1  -6    0.72    0.12
   1   1   6    0.90    0.11
   1   1   6    0.64    0.12
   1   1   6    0.59    0.12
  -2  -1  -6   22.09    1.10
  -2  -1  -6   23.20    1.11
  -2  -1  -6   21.46    1.12
  -2  -1  -6   21.58    1.11
   2   1   6   19.13    1.10
   2   1   6   21.77    1.10
   2   1   6   21.66    1.11
   2   1   6   21.08    1.10
   2   1   6   20.55    1.11
  -3  -1  -6   19.92    1.02
  -3  -1  -6   20.32    1.03
  -3  -1  -6   20.48    1.03
  -3  -1  -6   18.05    1.06
   3   1   6   18.54    1.02
   3   1   6   20.11    1.02
   3   1   6   19.55    1.02
   3   1   6   18.76    1.04
  -4  -1  -6    9.21    0.56
  -4  -1  -6    9.08    0.53
  -4  -1  -6    8.64    0.55
  -4  -1  -6    8.88    0.55
   4   1   6    9.28    0.58
   4   1   6    9.19    0.55
   4   1   6    9.66    0.56
   4   1   6    9.36    0.54
   4   1   6    8.59    0.54
  -5  -1  -6   34.40    1.78
  -5  -1  -6   31.25    1.76
  -5  -1  -6   34.64    1.78
  -5  -1  -6   33.96    1.75
  -5  -1  -6   34.12    1.77
   5   1   6   35.15    1.77
   5   1   6   35.59    1.77
   5   1   6   35.26    1.76
   5   1   6   32.87    1.75
  -6  -1  -6    1.57    0.28
  -6  -1  -6    1.53    0.41
  -6  -1  -6    1.51    0.25
  -6  -1  -6    1.19    0.22
  -6  -1  -6    2.16    0.28
   6   1   6    1.35    0.24
   6   1   6    1.18    0.23
   6   1   6    1.60    0.29
   6   1   6    1.34    0.23
  -7  -1  -6   34.89    1.85
  -7  -1  -6   31.59    1.83
  -7  -1  -6   34.32    1.84
   7   1   6   39.33    1.88
   7   1   6   33.76    1.81
   7   1   6   33.40    1.82
  -8  -1  -6   15.39    1.08
  -8  -1  -6   17.20    1.06
  -8  -1  -6   16.67    1.03
   8   1   6   19.19    1.16
   8   1   6   16.94    1.00
  -9  -1  -6   12.63    0.88
  -9  -1  -6   10.20    0.98
  -9  -1  -6   12.04    0.86
   9   1   6   11.56    0.82
   9   1   6   12.77    1.10
 -10  -1  -6    1.18    0.36
 -10  -1  -6    1.51    0.44
  10   1   6    0.82    0.39
  10   1   6    0.57    0.58
  10  -2  -6   -0.77    0.39
 -10   2   6   -0.36    0.40
   9  -2  -6   10.23    0.97
   9  -2  -6    8.08    0.71
  -9   2   6    8.95    0.78
   8  -2  -6    6.62    0.58
   8  -2  -6    6.98    0.80
  -8   2   6    6.89    0.65
   7  -2  -6   19.79    1.13
   7  -2  -6   20.60    1.28
   6  -2  -6    0.01    0.18
   6  -2  -6   -0.26    0.25
   6  -2  -6   -0.17    0.19
   6  -2  -6    0.34    0.21
  -6   2   6    0.08    0.20
   5  -2  -6    9.17    0.56
   5  -2  -6    8.64    0.56
   5  -2  -6    8.10    0.67
   5  -2  -6    9.53    0.57
  -5   2   6    8.75    0.68
  -5   2   6    9.24    0.58
  -5   2   6    8.47    0.56
   4  -2  -6    0.35    0.14
   4  -2  -6    0.36    0.14
   4  -2  -6    0.04    0.13
  -4   2   6    0.32    0.16
  -4   2   6    0.79    0.24
  -4   2   6    0.26    0.14
   3  -2  -6  110.24    5.44
   3  -2  -6  109.81    5.45
  -3   2   6  108.74    5.43
  -3   2   6  111.63    5.45
  -3   2   6  110.24    5.45
  -3   2   6  108.49    5.48
   2  -2  -6    6.44    0.39
   2  -2  -6    6.94    0.40
  -2   2   6    6.16    0.46
  -2   2   6    6.49    0.40
  -2   2   6    6.43    0.40
  -2   2   6    5.94    0.42
   1  -2  -6   13.28    0.71
   1  -2  -6   13.41    0.71
   1  -2  -6   13.88    0.71
  -1   2   6   13.25    0.71
  -1   2   6   12.59    0.71
  -1   2   6   11.83    0.73
  -1   2   6   13.04    0.70
   0  -2  -6    0.14    0.09
   0  -2  -6   -0.02    0.08
   0  -2  -6    0.09    0.10
   0  -2  -6    0.16    0.09
   0   2   6    0.18    0.10
   0   2   6    0.12    0.09
   0   2   6    0.05    0.09
  -1  -2  -6  104.42    5.18
  -1  -2  -6  106.64    5.19
  -1  -2  -6  103.92    5.20
  -1  -2  -6  105.77    5.19
   1   2   6  105.75    5.18
   1   2   6  102.79    5.19
   1   2   6  104.89    5.19
  -2  -2  -6   57.86    2.91
  -2  -2  -6   57.49    2.93
  -2  -2  -6   59.76    2.92
  -2  -2  -6   58.71    2.91
   2   2   6   56.66    2.91
   2   2   6   58.86    2.91
   2   2   6   59.84    2.91
   2   2   6   57.36    2.92
  -3  -2  -6   38.01    1.89
  -3  -2  -6   37.10    1.89
  -3  -2  -6   36.95    1.91
  -3  -2  -6   38.36    1.90
   3   2   6   36.36    1.90
   3   2   6   36.67    1.89
   3   2   6   37.08    1.90
   3   2   6   36.89    1.89
   3   2   6   38.00    1.89
  -4  -2  -6    0.03    0.13
  -4  -2  -6   -0.13    0.11
  -4  -2  -6    0.16    0.14
  -4  -2  -6    0.06    0.14
   4   2   6    0.00    0.15
   4   2   6    0.06    0.11
   4   2   6   -0.08    0.13
   4   2   6    0.14    0.15
   4   2   6    0.07    0.14
  -5  -2  -6   35.69    1.84
  -5  -2  -6   36.01    1.86
  -5  -2  -6   33.99    1.82
  -5  -2  -6   35.78    1.84
   5   2   6   35.27    1.83
   5   2   6   36.14    1.84
   5   2   6   36.04    1.83
   5   2   6   36.30    1.85
   5   2   6   33.82    1.82
  -6  -2  -6   36.82    2.09
  -6  -2  -6   43.12    2.22
  -6  -2  -6   39.12    2.06
  -6  -2  -6   40.92    2.10
  -6  -2  -6   40.10    2.09
   6   2   6   40.37    2.09
   6   2   6   44.70    2.11
   6   2   6   38.91    2.06
   6   2   6   38.58    2.07
  -7  -2  -6   24.46    1.44
  -7  -2  -6   27.22    1.45
  -7  -2  -6   26.94    1.44
   7   2   6   26.43    1.40
   7   2   6   27.12    1.44
   7   2   6   24.42    1.46
  -8  -2  -6    0.89    0.32
  -8  -2  -6    0.19    0.29
  -8  -2  -6    0.34    0.25
   8   2   6    0.64    0.36
   8   2   6    0.36    0.25
  -9  -2  -6    6.22    0.66
  -9  -2  -6    5.48    0.62
   9   2   6    6.92    0.88
   9   2   6    5.28    0.57
 -10  -2  -6    5.56    0.70
 -10  -2  -6    6.27    0.74
  10   2   6    5.74    0.72
  10   2   6    4.98    0.63
  10  -3  -6   -0.42    0.47
 -10   3   6   -0.24    0.42
   9  -3  -6    5.91    0.70
  -9   3   6    5.09    0.57
   8  -3  -6    0.57    0.32
  -8   3   6   -0.12    0.30
   7  -3  -6    0.90    0.36
   7  -3  -6    1.90    0.32
  -7   3   6    1.15    0.30
   6  -3  -6    6.09    0.54
   6  -3  -6    7.79    0.57
   6  -3  -6    7.63    0.55
  -6   3   6    6.96    0.56
   5  -3  -6    8.24    0.55
   5  -3  -6    8.35    0.56
   5  -3  -6    8.63    0.55
  -5   3   6    8.40    0.57
  -5   3   6    7.48    0.64
  -5   3   6    7.74    0.54
   4  -3  -6   30.42    1.55
   4  -3  -6   30.36    1.54
   4  -3  -6   29.47    1.53
  -4   3   6   28.09    1.53
  -4   3   6   29.87    1.55
   3  -3  -6    4.54    0.31
   3  -3  -6    4.03    0.33
   3  -3  -6    4.55    0.35
  -3   3   6    4.61    0.38
  -3   3   6    3.93    0.45
  -3   3   6    4.26    0.34
  -3   3   6    4.42    0.33
   2  -3  -6   16.84    0.88
  -2   3   6   16.48    0.89
  -2   3   6   14.98    0.91
  -2   3   6   15.88    0.86
  -2   3   6   17.00    0.87
   1  -3  -6   20.47    1.07
   1  -3  -6   20.76    1.06
   1  -3  -6   20.66    1.05
  -1   3   6   20.02    1.05
  -1   3   6   19.65    1.05
  -1   3   6   19.88    1.07
   0  -3  -6   75.38    3.73
   0  -3  -6   75.20    3.71
   0  -3  -6   76.22    3.69
   0  -3  -6   76.35    3.71
   0   3   6   73.19    3.73
   0   3   6   72.00    3.71
   0   3   6   74.58    3.71
  -1  -3  -6    0.38    0.11
  -1  -3  -6    0.46    0.11
  -1  -3  -6    0.46    0.10
  -1  -3  -6    0.35    0.11
   1   3   6    0.33    0.13
   1   3   6    0.54    0.11
   1   3   6    0.39    0.12
  -2  -3  -6    0.57    0.12
  -2  -3  -6    0.59    0.11
  -2  -3  -6    0.50    0.12
  -2  -3  -6    0.24    0.12
   2   3   6    0.40    0.14
   2   3   6    0.33    0.13
   2   3   6    0.49    0.11
  -3  -3  -6    0.19    0.13
  -3  -3  -6    0.34    0.13
  -3  -3  -6    0.17    0.12
   3   3   6    0.28    0.11
   3   3   6    0.33    0.15
   3   3   6    0.24    0.14
   3   3   6    0.23    0.15
   3   3   6    0.23    0.12
  -4  -3  -6   59.45    2.96
  -4  -3  -6   58.19    3.00
  -4  -3  -6   60.17    2.96
  -4  -3  -6   59.47    2.97
   4   3   6   57.52    2.96
   4   3   6   59.18    2.98
   4   3   6   59.65    2.96
   4   3   6   59.94    3.00
   4   3   6   57.15    2.96
  -5  -3  -6    1.85    0.25
  -5  -3  -6    1.34    0.24
  -5  -3  -6    1.89    0.24
  -5  -3  -6    1.51    0.23
   5   3   6    1.29    0.21
   5   3   6    1.61    0.24
   5   3   6    1.39    0.22
   5   3   6    1.50    0.20
   5   3   6    1.54    0.26
  -6  -3  -6    1.15    0.20
  -6  -3  -6    1.24    0.22
  -6  -3  -6    1.13    0.25
  -6  -3  -6    1.19    0.23
   6   3   6    1.06    0.24
   6   3   6    1.51    0.30
   6   3   6    1.10    0.23
   6   3   6    0.91    0.19
   6   3   6    1.08    0.25
  -7  -3  -6    1.98    0.30
  -7  -3  -6    2.11    0.33
   7   3   6    1.66    0.32
   7   3   6    1.67    0.28
   7   3   6    2.45    0.37
  -8  -3  -6    5.16    0.55
  -8  -3  -6    4.88    0.62
  -8  -3  -6    4.49    0.52
   8   3   6    6.13    0.72
   8   3   6    5.32    0.51
  -9  -3  -6    4.23    0.51
  -9  -3  -6    3.20    0.45
   9   3   6    4.72    0.79
   9   3   6    4.41    0.55
 -10  -3  -6    6.04    0.76
 -10  -3  -6    6.26    0.72
  10   3   6    5.87    0.74
  10   3   6    5.16    0.61
   9  -4  -6   -0.29    0.46
  -9   4   6   -0.21    0.37
   8  -4  -6   10.25    0.86
  -8   4   6   10.81    0.83
   7  -4  -6    0.20    0.32
   7  -4  -6    0.23    0.34
  -7   4   6   -0.16    0.28
   6  -4  -6   12.35    0.76
   6  -4  -6   11.53    0.77
   6  -4  -6   10.87    0.72
  -6   4   6    9.43    0.90
  -6   4   6   11.03    0.75
   5  -4  -6    0.10    0.22
   5  -4  -6    0.46    0.23
   5  -4  -6    0.03    0.20
  -5   4   6    0.12    0.20
  -5   4   6    0.19    0.23
   4  -4  -6    7.24    0.51
   4  -4  -6    8.32    0.53
   4  -4  -6    8.34    0.55
  -4   4   6    7.79    0.63
  -4   4   6    8.31    0.59
  -4   4   6    7.23    0.49
  -4   4   6    8.21    0.54
   3  -4  -6    1.28    0.20
   3  -4  -6    1.17    0.15
   3  -4  -6    0.84    0.18
  -3   4   6    0.74    0.16
  -3   4   6    1.11    0.21
  -3   4   6    1.05    0.19
  -3   4   6    1.05    0.26
   2  -4  -6   41.22    2.02
   2  -4  -6   39.54    1.98
  -2   4   6   36.02    2.05
  -2   4   6   39.94    2.04
  -2   4   6   39.88    2.01
  -2   4   6   41.31    2.02
   1  -4  -6    0.22    0.11
   1  -4  -6    0.14    0.12
  -1   4   6    0.10    0.13
  -1   4   6    0.24    0.12
  -1   4   6    0.20    0.11
   0  -4  -6    0.10    0.07
   0  -4  -6    0.05    0.13
   0  -4  -6    0.06    0.11
   0  -4  -6    0.04    0.10
   0   4   6    0.00    0.12
   0   4   6    0.14    0.12
  -1  -4  -6   16.62    0.86
  -1  -4  -6   17.08    0.90
  -1  -4  -6   16.43    0.86
  -1  -4  -6   14.29    0.83
   1   4   6   15.99    0.87
   1   4   6   16.47    0.89
  -2  -4  -6    3.72    0.33
  -2  -4  -6    3.61    0.29
  -2  -4  -6    3.54    0.28
  -2  -4  -6    3.51    0.25
   2   4   6    3.53    0.26
   2   4   6    3.83    0.25
   2   4   6    3.73    0.34
   2   4   6    3.47    0.30
  -3  -4  -6   29.62    1.58
  -3  -4  -6   29.57    1.54
  -3  -4  -6   29.64    1.53
  -3  -4  -6   30.95    1.55
   3   4   6   29.63    1.54
   3   4   6   30.89    1.58
   3   4   6   28.32    1.59
   3   4   6   31.61    1.53
   3   4   6   29.74    1.55
  -4  -4  -6   14.03    0.79
  -4  -4  -6   13.98    0.77
  -4  -4  -6   14.46    0.78
  -4  -4  -6   13.47    0.82
   4   4   6   13.08    0.76
   4   4   6   13.77    0.82
   4   4   6   13.68    0.84
   4   4   6   14.06    0.77
   4   4   6   13.81    0.79
  -5  -4  -6    2.63    0.32
  -5  -4  -6    2.83    0.33
  -5  -4  -6    2.75    0.34
  -5  -4  -6    2.55    0.32
   5   4   6    2.38    0.32
   5   4   6    2.89    0.30
   5   4   6    2.41    0.38
   5   4   6    2.40    0.34
   5   4   6    2.52    0.42
  -6  -4  -6    0.07    0.19
  -6  -4  -6    0.20    0.21
  -6  -4  -6    0.18    0.21
  -6  -4  -6   -0.18    0.17
   6   4   6    0.30    0.23
   6   4   6   -0.28    0.19
   6   4   6   -0.05    0.20
   6   4   6    0.14    0.26
  -7  -4  -6    8.44    0.62
  -7  -4  -6    8.60    0.63
   7   4   6    8.04    0.60
   7   4   6    7.15    0.64
   7   4   6    9.41    0.76
   7   4   6    8.33    0.67
  -8  -4  -6    0.37    0.30
  -8  -4  -6    0.18    0.25
   8   4   6    0.05    0.36
   8   4   6   -0.07    0.24
  -9  -4  -6   10.88    0.87
  -9  -4  -6   10.52    0.84
   9   4   6   11.43    0.80
   9   4   6   13.27    1.03
 -10  -4  -6    1.55    0.41
 -10  -4  -6    0.84    0.41
  10   4   6    0.58    0.54
  10   4   6    0.64    0.31
   9  -5  -6    3.82    0.67
  -9   5   6    1.77    0.49
   8  -5  -6    2.35    0.52
  -8   5   6    1.33    0.42
   7  -5  -6    5.00    0.56
   7  -5  -6    6.66    0.69
  -7   5   6    4.64    0.65
   6  -5  -6    4.41    0.54
   6  -5  -6    3.61    0.47
   6  -5  -6    3.60    0.43
  -6   5   6    3.18    0.47
   5  -5  -6   20.31    1.13
   5  -5  -6   21.73    1.17
   5  -5  -6   21.49    1.18
  -5   5   6   17.93    1.21
  -5   5   6   22.28    1.18
   4  -5  -6    4.12    0.42
   4  -5  -6    4.24    0.40
   4  -5  -6    3.98    0.38
  -4   5   6    3.92    0.48
  -4   5   6    3.93    0.46
  -4   5   6    4.39    0.42
  -4   5   6    3.23    0.36
   3  -5  -6   18.61    0.98
   3  -5  -6   19.08    1.03
   3  -5  -6   19.62    1.02
  -3   5   6   17.28    1.08
  -3   5   6   19.54    1.08
  -3   5   6   17.97    1.01
  -3   5   6   20.03    1.04
   2  -5  -6    6.05    0.41
   2  -5  -6    5.64    0.34
   2  -5  -6    6.03    0.50
  -2   5   6    6.26    0.48
  -2   5   6    5.42    0.40
  -2   5   6    6.47    0.43
   1  -5  -6   -0.18    0.12
   1  -5  -6    0.02    0.13
   1  -5  -6    0.04    0.06
  -1   5   6    0.05    0.13
  -1   5   6    0.03    0.12
  -1   5   6    0.02    0.15
   0  -5  -6   17.18    0.89
   0  -5  -6   18.00    0.94
   0  -5  -6   15.05    0.83
   0  -5  -6   17.54    0.89
   0   5   6   16.83    0.94
   0   5   6   16.48    0.89
   0   5   6   16.49    0.90
  -1  -5  -6   28.98    1.48
  -1  -5  -6   29.49    1.49
  -1  -5  -6   27.99    1.44
  -1  -5  -6   29.48    1.54
   1   5   6   29.14    1.50
   1   5   6   29.10    1.49
   1   5   6   29.56    1.54
  -2  -5  -6    5.11    0.31
  -2  -5  -6    4.82    0.36
  -2  -5  -6    5.67    0.42
   2   5   6    5.45    0.32
   2   5   6    5.24    0.43
   2   5   6    5.05    0.35
   2   5   6    4.78    0.38
  -3  -5  -6   31.42    1.61
  -3  -5  -6   31.48    1.66
  -3  -5  -6   31.97    1.58
  -3  -5  -6   30.03    1.60
   3   5   6   29.02    1.67
   3   5   6   31.27    1.60
   3   5   6   32.95    1.65
   3   5   6   31.30    1.58
  -4  -5  -6    2.16    0.32
  -4  -5  -6    2.49    0.31
  -4  -5  -6    2.78    0.27
  -4  -5  -6    2.29    0.30
   4   5   6    2.37    0.37
   4   5   6    2.56    0.40
   4   5   6    2.35    0.25
   4   5   6    2.02    0.26
  -5  -5  -6   18.28    1.01
  -5  -5  -6   17.68    1.07
  -5  -5  -6   18.25    1.03
  -5  -5  -6   18.40    1.02
   5   5   6   19.28    1.07
   5   5   6   18.17    1.11
   5   5   6   18.13    1.02
   5   5   6   18.76    1.01
   5   5   6   18.86    1.01
  -6  -5  -6    0.59    0.23
  -6  -5  -6    0.55    0.22
  -6  -5  -6    0.10    0.24
  -6  -5  -6    0.50    0.23
   6   5   6    0.71    0.26
   6   5   6    0.37    0.23
   6   5   6    0.14    0.16
   6   5   6    0.45    0.29
   6   5   6    0.22    0.22
  -7  -5  -6   17.67    1.03
  -7  -5  -6   18.53    1.04
  -7  -5  -6   18.00    1.07
   7   5   6   19.24    1.16
   7   5   6   16.43    1.07
   7   5   6   15.67    1.04
   7   5   6   17.23    1.17
  -8  -5  -6    2.50    0.40
  -8  -5  -6    1.72    0.36
   8   5   6    2.25    0.46
   8   5   6    2.29    0.33
  -9  -5  -6    1.11    0.36
  -9  -5  -6    0.99    0.36
   9   5   6    1.36    0.31
   9   5   6    1.05    0.47
 -10  -5  -6    3.52    0.53
 -10  -5  -6    3.86    0.55
  10   5   6    3.99    0.55
  10   5   6    3.53    0.65
   8  -6  -6    0.91    0.58
  -8   6   6   -0.64    0.42
   7  -6  -6    0.57    0.48
   7  -6  -6    0.43    0.45
   7  -6  -6    0.73    0.49
  -7   6   6    0.20    0.37
   6  -6  -6    5.79    0.70
   6  -6  -6    7.11    0.62
   6  -6  -6    7.88    0.71
  -6   6   6    7.42    0.69
   5  -6  -6    4.22    0.44
   5  -6  -6    4.31    0.52
   5  -6  -6    4.08    0.52
  -5   6   6    4.02    0.59
  -5   6   6    4.27    0.51
   4  -6  -6   -0.12    0.23
   4  -6  -6    0.09    0.17
   4  -6  -6   -0.05    0.23
  -4   6   6   -0.02    0.24
  -4   6   6    0.06    0.23
  -4   6   6   -0.18    0.20
   3  -6  -6    0.02    0.13
   3  -6  -6    0.01    0.20
   3  -6  -6    0.26    0.19
  -3   6   6    0.43    0.20
  -3   6   6   -0.31    0.18
  -3   6   6    0.05    0.20
  -3   6   6    0.01    0.20
   2  -6  -6    1.28    0.15
   2  -6  -6    1.45    0.21
   2  -6  -6    1.38    0.20
  -2   6   6    1.28    0.21
  -2   6   6    1.10    0.23
  -2   6   6    1.31    0.22
   1  -6  -6    8.63    0.50
   1  -6  -6    8.45    0.51
  -1   6   6    8.24    0.53
  -1   6   6    8.21    0.53
  -1   6   6    8.59    0.60
   0  -6  -6   31.50    1.63
   0  -6  -6   31.16    1.55
   0  -6  -6   30.63    1.56
   0   6   6   29.97    1.58
   0   6   6   30.47    1.57
   0   6   6   29.58    1.63
  -1  -6  -6   37.73    1.93
  -1  -6  -6   36.23    1.85
   1   6   6   36.53    1.87
   1   6   6   36.54    1.87
   1   6   6   36.31    1.92
  -2  -6  -6    1.42    0.19
  -2  -6  -6    1.82    0.25
  -2  -6  -6    2.14    0.32
  -2  -6  -6    1.55    0.19
   2   6   6    1.67    0.20
   2   6   6    1.54    0.23
   2   6   6    1.58    0.17
   2   6   6    1.77    0.26
  -3  -6  -6    4.39    0.31
  -3  -6  -6    4.04    0.35
  -3  -6  -6    4.85    0.41
   3   6   6    4.44    0.35
   3   6   6    4.53    0.31
   3   6   6    4.51    0.46
   3   6   6    3.75    0.47
   3   6   6    3.85    0.39
  -4  -6  -6    4.69    0.39
  -4  -6  -6    4.41    0.36
  -4  -6  -6    4.07    0.39
  -4  -6  -6    4.80    0.45
   4   6   6    5.14    0.49
   4   6   6    4.79    0.52
   4   6   6    4.45    0.41
   4   6   6    4.26    0.36
   4   6   6    4.30    0.36
  -5  -6  -6    2.60    0.33
  -5  -6  -6    1.73    0.30
  -5  -6  -6    2.39    0.29
  -5  -6  -6    2.83    0.38
   5   6   6    2.10    0.32
   5   6   6    2.15    0.37
   5   6   6    2.35    0.32
   5   6   6    2.70    0.32
   5   6   6    2.41    0.27
  -6  -6  -6    9.43    0.70
  -6  -6  -6   10.67    0.66
  -6  -6  -6    9.76    0.65
   6   6   6    9.54    0.65
   6   6   6    9.75    0.68
   6   6   6    9.49    0.80
   6   6   6    9.75    0.73
   6   6   6    9.64    0.66
  -7  -6  -6   -0.31    0.33
  -7  -6  -6    0.21    0.26
  -7  -6  -6    0.10    0.24
   7   6   6   -0.39    0.29
   7   6   6    0.10    0.28
   7   6   6   -0.12    0.26
  -8  -6  -6    3.22    0.42
  -8  -6  -6    2.21    0.37
   8   6   6    2.38    0.49
   8   6   6    2.46    0.36
   8   6   6    2.25    0.39
  -9  -6  -6    0.89    0.37
   9   6   6    0.41    0.30
   9   6   6    0.43    0.48
 -10  -6  -6   17.92    1.18
  10   6   6   15.39    1.36
  10   6   6   16.62    1.06
  -8   7   6    7.70    0.89
  -8   7   6    6.05    0.79
   7  -7  -6    2.09    0.55
  -7   7   6    1.98    0.50
  -7   7   6    2.72    0.49
   6  -7  -6    7.39    0.77
   6  -7  -6   10.73    0.81
   6  -7  -6    9.14    0.82
  -6   7   6   10.71    0.83
  -6   7   6    8.71    0.89
   5  -7  -6    0.55    0.32
   5  -7  -6    0.44    0.31
   5  -7  -6   -0.06    0.27
  -5   7   6    0.32    0.31
  -5   7   6   -0.03    0.37
   4  -7  -6    0.06    0.20
   4  -7  -6    0.39    0.25
  -4   7   6    0.23    0.26
  -4   7   6    0.79    0.29
   3  -7  -6    3.53    0.30
   3  -7  -6    3.73    0.38
   3  -7  -6    4.19    0.40
  -3   7   6    4.82    0.54
  -3   7   6    3.45    0.37
  -3   7   6    4.18    0.45
   2  -7  -6   20.32    1.05
   2  -7  -6   21.48    1.06
  -2   7   6   18.89    1.09
  -2   7   6   18.86    1.17
  -2   7   6   19.96    1.10
   1  -7  -6    0.40    0.14
   1  -7  -6    0.41    0.16
  -1   7   6    0.49    0.24
  -1   7   6    0.34    0.19
  -1   7   6    0.37    0.19
   0  -7  -6    7.95    0.47
   0   7   6    7.71    0.60
   0   7   6    7.63    0.53
   0   7   6    8.07    0.52
  -1  -7  -6    2.06    0.28
  -1  -7  -6    1.75    0.20
  -1  -7  -6    2.14    0.25
   1   7   6    1.89    0.29
   1   7   6    2.03    0.26
   1   7   6    1.58    0.23
  -2  -7  -6   28.36    1.48
  -2  -7  -6   29.15    1.57
  -2  -7  -6   29.95    1.48
   2   7   6   28.24    1.50
   2   7   6   28.52    1.52
   2   7   6   29.63    1.58
  -3  -7  -6   10.56    0.59
  -3  -7  -6    9.97    0.59
  -3  -7  -6    9.46    0.67
   3   7   6    8.93    0.74
   3   7   6   10.65    0.55
   3   7   6   10.01    0.71
   3   7   6    9.43    0.63
   3   7   6    9.40    0.61
  -4  -7  -6   -0.03    0.17
  -4  -7  -6    0.01    0.20
  -4  -7  -6    0.59    0.22
   4   7   6    0.31    0.18
   4   7   6   -0.14    0.20
   4   7   6    0.16    0.17
   4   7   6    0.14    0.27
   4   7   6    0.17    0.25
  -5  -7  -6   11.72    0.79
  -5  -7  -6   13.68    0.77
  -5  -7  -6   13.99    0.93
   5   7   6   12.88    0.83
   5   7   6   12.02    0.79
   5   7   6   13.13    0.87
   5   7   6   12.81    0.77
   5   7   6   13.14    0.93
  -6  -7  -6    3.08    0.35
  -6  -7  -6    2.97    0.37
   6   7   6    3.58    0.40
   6   7   6    3.49    0.37
   6   7   6    3.39    0.46
  -7  -7  -6   20.86    1.12
  -7  -7  -6   17.34    1.18
   7   7   6   18.60    1.16
   7   7   6   20.36    1.28
   7   7   6   19.61    1.15
   7   7   6   18.54    1.18
   8   7   6   10.75    0.88
   8   7   6   11.30    1.00
   8   7   6   10.61    0.79
  -9  -7  -6    5.60    0.69
   9   7   6    5.16    0.58
   9   7   6    4.48    0.68
   9   7   6    4.76    0.63
 -10  -7  -6    0.25    0.49
  10   7   6   -0.85    0.55
  10   7   6    0.70    0.36
  -7   8   6    0.99    0.52
  -7   8   6    0.04    0.53
   6  -8  -6   -0.38    0.45
  -6   8   6   -0.10    0.39
  -6   8   6   -0.46    0.41
   5  -8  -6    0.82    0.57
   5  -8  -6    0.08    0.27
  -5   8   6    0.14    0.37
  -5   8   6   -0.05    0.37
   4  -8  -6    0.61    0.20
   4  -8  -6    0.41    0.22
   4  -8  -6    0.53    0.23
  -4   8   6    0.71    0.32
  -4   8   6    0.54    0.35
  -3   8   6   14.71    0.93
  -3   8   6   13.94    0.85
  -3   8   6   10.92    0.84
  -2   8   6    0.03    0.24
  -2   8   6   -0.01    0.27
  -2   8   6   -0.13    0.26
  -1   8   6   -0.15    0.23
  -1   8   6   -0.13    0.22
  -1   8   6    0.29    0.23
   0   8   6    1.58    0.26
   0   8   6    1.44    0.29
   0   8   6    1.67    0.27
  -1  -8  -6   38.91    2.22
   1   8   6   41.28    2.17
   1   8   6   41.16    2.08
   1   8   6   40.75    2.09
  -2  -8  -6    1.65    0.22
  -2  -8  -6    1.27    0.26
  -2  -8  -6    1.35    0.16
   2   8   6    1.29    0.27
   2   8   6    1.45    0.31
   2   8   6    1.59    0.25
  -3  -8  -6    9.09    0.69
  -3  -8  -6    9.37    0.54
  -3  -8  -6    9.06    0.53
   3   8   6    9.54    0.73
   3   8   6    9.10    0.64
   3   8   6    8.80    0.50
   3   8   6    9.06    0.62
   3   8   6    9.44    0.79
  -4  -8  -6    1.80    0.24
  -4  -8  -6    1.51    0.22
   4   8   6    1.22    0.29
   4   8   6    1.64    0.36
   4   8   6    1.98    0.36
   4   8   6    1.79    0.27
   4   8   6    1.64    0.22
  -5  -8  -6   12.49    0.72
  -5  -8  -6   12.37    0.82
   5   8   6   12.49    0.94
   5   8   6   11.92    0.74
   5   8   6   11.37    0.80
   5   8   6   11.00    0.77
   5   8   6   11.22    0.90
  -6  -8  -6    5.57    0.60
  -6  -8  -6    6.72    0.52
   6   8   6    4.51    0.56
   6   8   6    4.96    0.65
   6   8   6    5.86    0.60
   6   8   6    4.86    0.72
  -7  -8  -6   17.54    1.19
  -7  -8  -6   20.20    1.10
   7   8   6   17.08    1.17
   7   8   6   19.01    1.29
   7   8   6   18.56    1.19
   7   8   6   19.48    1.14
  -8  -8  -6    0.34    0.34
   8   8   6    0.02    0.45
   8   8   6   -0.47    0.55
   8   8   6   -0.10    0.37
  -9  -8  -6    2.80    0.49
   9   8   6    2.66    0.62
   9   8   6    2.65    0.44
   9   8   6    2.93    0.52
  -6   9   6   -0.26    0.50
  -6   9   6    0.20    0.48
  -5   9   6    8.91    0.90
  -5   9   6    8.77    0.87
  -4   9   6    8.69    0.86
  -4   9   6    9.27    0.79
  -3   9   6    0.57    0.32
  -3   9   6    0.11    0.33
  -2   9   6    4.53    0.63
  -2   9   6    3.57    0.43
  -2   9   6    3.82    0.50
  -1   9   6   11.55    0.87
  -1   9   6   12.56    0.77
  -1   9   6   10.16    0.78
   0   9   6   11.54    0.75
   0   9   6   10.69    0.75
   1   9   6    0.28    0.25
   1   9   6    0.10    0.27
   1   9   6    0.43    0.30
   2   9   6    0.00    0.28
   2   9   6    0.02    0.30
   2   9   6    0.00    0.24
   3   9   6    1.35    0.39
   3   9   6    1.64    0.30
   3   9   6    0.58    0.48
   3   9   6    1.31    0.32
   4   9   6   23.47    1.29
   4   9   6   21.40    1.28
   4   9   6   22.95    1.45
   4   9   6   22.72    1.18
   4   9   6   23.00    1.37
  -5  -9  -6    0.21    0.17
  -5  -9  -6    0.04    0.20
   5   9   6    0.17    0.35
   5   9   6    0.04    0.39
   5   9   6   -0.12    0.31
   5   9   6   -0.31    0.26
  -6  -9  -6    3.64    0.40
   6   9   6    2.64    0.45
   6   9   6    2.78    0.52
   6   9   6    3.31    0.44
  -7  -9  -6    0.40    0.28
   7   9   6    0.07    0.39
   7   9   6   -0.04    0.42
   7   9   6    0.59    0.36
  -8  -9  -6    8.93    0.72
   8   9   6    8.27    0.96
   8   9   6    6.13    0.85
   8   9   6    7.54    0.80
   9   9   6   -0.99    0.55
   9   9   6   -0.53    0.48
   9   9   6   -0.19    0.40
  -5  10   6    0.37    0.45
  -5  10   6    0.94    0.53
  -4  10   6    2.77    0.55
  -4  10   6    3.18    0.51
  -3  10   6    1.92    0.43
  -3  10   6    1.55    0.44
  -2  10   6   10.45    0.80
  -2  10   6   10.02    0.92
  -1  10   6    0.44    0.33
  -1  10   6    0.74    0.40
  -1  10   6    0.38    0.37
   0  10   6    1.61    0.38
   0  10   6    2.12    0.38
   0  10   6    2.00    0.42
   1  10   6   -0.02    0.33
   1  10   6   -0.16    0.33
   1  10   6    0.22    0.35
   2  10   6    7.11    0.68
   2  10   6    7.76    0.80
   2  10   6    7.51    0.69
   3  10   6    3.21    0.43
   3  10   6    3.33    0.56
   3  10   6    3.50    0.45
   3  10   6    3.07    0.51
   4  10   6    5.29    0.77
   4  10   6    6.24    0.65
   4  10   6    6.09    0.83
   5  10   6    0.25    0.39
   5  10   6    0.60    0.44
   5  10   6   -0.08    0.36
   6  10   6    2.11    0.43
   6  10   6   -0.17    0.44
   6  10   6   -0.26    0.42
   7  10   6    4.87    0.61
   7  10   6    5.15    0.70
   8  10   6    1.98    0.56
   8  10   6    3.53    0.63
   8  10   6    3.95    0.55
  -4  11   6    0.29    0.54
  -4  11   6    0.06    0.51
  -3  11   6    2.70    0.54
  -3  11   6    2.45    0.53
  -2  11   6    1.98    0.46
  -2  11   6    1.20    0.46
  -1  11   6    0.30    0.43
  -1  11   6    1.49    0.45
   0  11   6    0.27    0.40
   0  11   6    0.05    0.40
   1  11   6   10.70    0.99
   1  11   6   12.12    0.90
   2  11   6    0.06    0.45
   2  11   6    0.03    0.41
   2  11   6    0.08    0.44
   3  11   6    6.20    0.92
   3  11   6    4.51    0.60
   3  11   6    3.84    0.61
   4  11   6    1.81    0.55
   4  11   6    2.42    0.46
   4  11   6    1.78    0.50
   5  11   6    5.44    0.62
   5  11   6    6.12    0.92
   5  11   6    7.92    0.96
   6  11   6    1.78    0.49
   6  11   6   -0.28    0.50
   6  11   6   -0.64    0.49
   7  11   6   -0.43    0.51
   7  11   6    1.36    0.53
   7  11   6   -0.51    0.50
  -2  12   6    0.48    0.55
  -2  12   6    0.14    0.54
  -1  12   6    0.86    0.55
  -1  12   6   -0.60    0.48
   0  12   6    0.83    0.54
   0  12   6    0.21    0.49
   1  12   6    0.70    0.49
   1  12   6    0.46    0.57
   2  12   6    0.80    0.55
   2  12   6    0.76    0.57
   2  12   6    0.32    0.55
   3  12   6    0.68    0.58
   3  12   6    0.06    0.55
   3  12   6    0.56    0.52
   4  12   6    2.54    0.63
   4  12   6    2.33    0.62
   4  12   6    1.94    0.54
   5  12   6    2.95    0.66
   5  12   6    2.32    0.68
   5  12   6    2.64    0.62
   1  13   6    0.79    0.65
   2  13   6    8.30    1.29
   2  13   6   10.01    1.33
   2  11  -7    1.78    0.74
   2  11  -7    0.60    0.68
   1  11  -7    0.35    0.69
   5  10  -7    1.94    0.64
   4  10  -7    2.06    0.61
   4  10  -7    1.82    0.62
   3  10  -7    0.26    0.57
   3  10  -7    0.95    0.56
   2  10  -7   -0.03    0.52
   2  10  -7    0.71    0.55
   1  10  -7    0.40    0.53
   1  10  -7    0.03    0.50
   1  10  -7   -0.05    0.57
   0  10  -7    1.57    0.58
   0  10  -7    1.01    0.59
   0  10  -7    1.71    0.53
  -1  10  -7    0.53    0.60
  -1  10  -7   -0.31    0.62
  -2  10  -7    0.96    0.67
  -2  10  -7    1.55    0.68
   7   9  -7   -0.04    0.45
   7   9  -7   -0.73    0.55
   6   9  -7   -0.11    0.53
   6   9  -7    0.36    0.39
   5   9  -7   -0.16    0.49
   5   9  -7   -0.47    0.32
   4   9  -7    6.73    0.59
   4   9  -7    7.44    0.90
   3   9  -7    0.06    0.24
   3   9  -7    0.21    0.45
   3   9  -7    0.35    0.28
   3   9  -7    0.18    0.46
   2   9  -7    1.37    0.44
   2   9  -7    1.08    0.35
   2   9  -7    0.77    0.50
   1   9  -7    1.05    0.40
   1   9  -7    1.61    0.43
   0   9  -7    0.23    0.45
   0   9  -7    0.53    0.39
   0   9  -7   -1.00    0.74
  -1   9  -7    3.57    0.65
  -1   9  -7    2.81    0.55
  -1   9  -7    3.01    0.54
  -2   9  -7    4.57    0.61
  -2   9  -7    2.87    0.61
  -2   9  -7    2.62    0.60
  -3   9  -7    0.61    0.58
  -4   9  -7   -0.14    0.62
   8   8  -7    4.86    0.55
   8   8  -7    3.60    0.64
   7   8  -7    0.03    0.36
   7   8  -7   -0.50    0.47
   6   8  -7    0.08    0.44
   6   8  -7    0.26    0.32
   5   8  -7    1.83    0.41
   5   8  -7    2.33    0.33
   5   8  -7    1.84    0.47
   4   8  -7    0.31    0.24
   4   8  -7   -0.21    0.29
   4   8  -7    0.55    0.40
   3   8  -7    4.47    0.43
   3   8  -7    2.98    0.49
   3   8  -7    5.57    0.70
   3   8  -7    4.48    0.40
   2   8  -7    0.25    0.38
   2   8  -7    0.16    0.25
   2   8  -7    0.89    0.35
   2   8  -7   -0.11    0.20
   2   8  -7    0.35    0.18
   1   8  -7    1.14    0.34
   1   8  -7    0.61    0.31
   1   8  -7    0.21    0.38
   0   8  -7    0.53    0.36
   0   8  -7   -0.43    0.36
   0   8  -7    0.31    0.30
  -1   8  -7   12.14    0.77
  -1   8  -7   10.40    0.63
  -1   8  -7   11.51    0.89
  -1   8  -7   10.73    0.92
  -2   8  -7    0.85    0.79
  -2   8  -7    0.76    0.30
  -2   8  -7    1.09    0.40
  -3   8  -7    1.67    0.51
  -3   8  -7    1.40    0.33
  -4   8  -7    0.04    0.39
  -4   8  -7   -0.10    0.50
  -5   8  -7    0.90    0.61
  -5   8  -7    1.15    0.52
   9   7  -7    0.98    0.53
   8   7  -7   -0.66    0.44
   8   7  -7    0.26    0.36
   7   7  -7    1.21    0.45
   7   7  -7    2.32    0.37
   6   7  -7   -0.56    0.38
   6   7  -7   -0.10    0.38
   6   7  -7   -0.18    0.27
   5   7  -7    4.30    0.57
   5   7  -7    4.75    0.67
   5   7  -7    5.14    0.48
   4   7  -7    8.07    0.72
   4   7  -7    7.43    0.52
   4   7  -7    6.36    0.57
   3   7  -7    8.18    0.54
   3   7  -7    9.54    0.73
   2   7  -7    1.73    0.36
   2   7  -7    1.95    0.26
   2   7  -7    1.87    0.24
   2   7  -7    1.71    0.33
   2   7  -7    1.77    0.24
   1   7  -7   12.38    0.86
   1   7  -7   13.03    0.80
   1   7  -7   11.17    0.76
   0   7  -7    4.05    0.47
   0   7  -7    3.21    0.41
   0   7  -7    3.85    0.51
  -1   7  -7    1.74    0.26
  -1   7  -7    1.41    0.21
  -1   7  -7    1.35    0.35
  -1   7  -7    1.33    0.19
  -2   7  -7    0.07    0.21
  -2   7  -7    0.34    0.35
  -2   7  -7    0.30    0.23
  -3   7  -7    1.95    0.49
  -3   7  -7    0.67    0.30
  -3   7  -7    1.45    0.28
  -4   7  -7   11.26    0.95
  -4   7  -7   11.26    0.80
  -4   7  -7   10.20    0.78
  -5   7  -7    0.66    0.41
  -5   7  -7    1.10    0.50
  -6   7  -7    2.96    0.55
  -6   7  -7    2.80    0.62
   9   6  -7    1.64    0.51
   9   6  -7    3.06    0.47
   8   6  -7    5.51    0.62
   8   6  -7    5.50    0.98
   7   6  -7    4.45    0.70
   7   6  -7    4.67    0.53
   6   6  -7   14.95    1.02
   6   6  -7   14.38    0.87
   6   6  -7   13.84    0.96
   5   6  -7    0.74    0.23
   5   6  -7    0.75    0.32
   5   6  -7    0.61    0.27
  -5  -6   7    0.38    0.71
   4   6  -7    0.71    0.20
   4   6  -7    0.95    0.30
   4   6  -7    0.74    0.24
  -4  -6   7    0.57    0.35
   3   6  -7    1.50    0.30
   3   6  -7    1.08    0.18
   2   6  -7   44.33    2.24
   2   6  -7   44.92    2.23
   2   6  -7   41.73    2.24
   2   6  -7   47.80    2.31
   1   6  -7    5.90    0.54
   1   6  -7    4.67    0.33
   1   6  -7    4.79    0.43
   1   6  -7    5.82    0.47
   1   6  -7    4.88    0.35
   0   6  -7    3.80    0.38
   0   6  -7    3.13    0.27
   0   6  -7    2.57    0.35
   0   6  -7    2.91    0.32
  -1   6  -7    3.34    0.30
  -1   6  -7    4.50    0.36
  -1   6  -7    3.69    0.41
  -1   6  -7    3.87    0.32
  -2   6  -7   10.18    0.60
  -2   6  -7   10.91    0.63
  -2   6  -7   11.21    0.74
  -2   6  -7   10.13    0.61
  -3   6  -7    9.94    0.76
  -3   6  -7    8.97    0.60
  -4   6  -7    1.43    0.30
  -4   6  -7    1.48    0.30
  -5   6  -7    0.17    0.37
  -5   6  -7    0.21    0.33
  -5   6  -7   -0.63    0.37
  -6   6  -7    1.88    0.50
  -6   6  -7    1.63    0.44
  -7   6  -7    2.58    0.58
  -7   6  -7    2.81    0.57
   9   5  -7    3.21    0.44
   9   5  -7    2.42    0.50
   8   5  -7    0.57    0.39
   8   5  -7    1.08    0.33
  -8  -5   7    1.19    0.29
   7   5  -7    4.65    0.67
   7   5  -7    5.23    0.67
   6   5  -7    3.68    0.57
   6   5  -7    2.78    0.38
   6   5  -7    3.48    0.41
   5   5  -7   11.77    0.70
   5   5  -7   12.72    0.84
   5   5  -7   11.58    0.74
  -5  -5   7   10.66    0.94
   4   5  -7    5.78    0.54
   4   5  -7    5.36    0.43
   4   5  -7    4.99    0.40
  -4  -5   7    4.52    0.60
   3   5  -7   32.67    1.63
   3   5  -7   30.67    1.55
  -3  -5   7   28.16    1.66
   2   5  -7    0.27    0.13
   2   5  -7    0.50    0.16
   2   5  -7    0.51    0.21
   1   5  -7    4.32    0.39
   1   5  -7    3.77    0.30
   1   5  -7    3.88    0.42
   1   5  -7    3.77    0.28
   1   5  -7    3.98    0.33
   0   5  -7    0.59    0.13
   0   5  -7    0.78    0.25
   0   5  -7    0.80    0.18
   0   5  -7    0.69    0.13
  -1   5  -7   19.71    1.08
  -1   5  -7   19.07    1.00
  -1   5  -7   18.87    0.99
  -2   5  -7    0.50    0.16
  -2   5  -7    0.72    0.27
  -2   5  -7    0.92    0.17
  -3   5  -7    1.48    0.31
  -3   5  -7    1.37    0.23
  -3   5  -7    1.63    0.22
  -4   5  -7    2.87    0.40
  -4   5  -7    2.48    0.29
  -4   5  -7    2.24    0.32
  -5   5  -7   14.22    0.95
  -5   5  -7   14.50    0.88
  -5   5  -7   14.03    0.91
  -6   5  -7    0.46    0.37
  -6   5  -7    0.74    0.39
  -7   5  -7    1.32    0.49
  -7   5  -7    1.31    0.44
  -8   5  -7    1.26    0.59
  -8   5  -7    0.72    0.53
  10   4  -7    0.30    0.35
  10   4  -7    0.31    0.40
 -10  -4   7   -0.59    0.52
   9   4  -7    0.25    0.33
   9   4  -7    0.44    0.39
  -9  -4   7    0.27    0.40
   8   4  -7    5.62    0.55
   8   4  -7    4.95    0.70
  -8  -4   7    5.37    0.58
  -8  -4   7    3.80    0.58
   7   4  -7    6.26    0.68
  -7  -4   7    6.95    0.52
  -7  -4   7    4.51    0.62
   6   4  -7   19.52    1.07
   6   4  -7   20.20    1.17
   6   4  -7   19.40    1.10
  -6  -4   7   16.73    1.05
  -6  -4   7   19.96    1.03
   5   4  -7   23.27    1.27
   5   4  -7   24.04    1.24
   5   4  -7   24.16    1.33
  -5  -4   7   24.50    1.20
  -5  -4   7   19.35    1.41
  -5  -4   7   24.61    1.20
   4   4  -7    3.79    0.34
   4   4  -7    3.69    0.35
   4   4  -7    4.21    0.46
  -4  -4   7    2.83    0.42
   3   4  -7    9.00    0.59
   3   4  -7    8.49    0.49
   3   4  -7    7.81    0.56
  -3  -4   7    7.30    0.62
   2   4  -7   14.62    0.76
   2   4  -7   14.74    0.78
   2   4  -7   15.37    0.83
  -2  -4   7   12.92    0.84
   1   4  -7   10.71    0.58
   1   4  -7   11.01    0.62
   1   4  -7   11.11    0.60
   1   4  -7   12.30    0.65
   0   4  -7   18.38    0.98
   0   4  -7   18.89    1.06
   0   4  -7   20.22    0.99
   0   4  -7   19.05    0.98
  -1   4  -7    0.31    0.12
  -1   4  -7    0.10    0.12
  -1   4  -7    0.08    0.18
  -2   4  -7    1.04    0.16
  -2   4  -7    1.14    0.25
  -2   4  -7    1.23    0.18
  -3   4  -7    0.72    0.19
  -3   4  -7    0.56    0.23
  -3   4  -7    0.40    0.16
   3  -4   7    0.44    0.21
  -4   4  -7   24.83    1.34
  -4   4  -7   25.95    1.38
  -4   4  -7   25.20    1.35
  -4   4  -7   25.81    1.31
   4  -4   7   22.77    1.37
  -5   4  -7    1.14    0.32
  -5   4  -7    1.07    0.27
  -5   4  -7    1.17    0.27
  -6   4  -7    0.53    0.31
  -6   4  -7   -0.03    0.33
  -7   4  -7    0.85    0.38
  -7   4  -7    0.63    0.42
  -8   4  -7    2.25    0.50
  -8   4  -7    2.90    0.57
  -9   4  -7    0.60    0.55
  10   3  -7   -0.10    0.32
  10   3  -7   -0.21    0.39
 -10  -3   7    0.18    0.49
   9   3  -7    0.14    0.29
   9   3  -7    0.01    0.36
  -9  -3   7    0.25    0.39
   8   3  -7   12.95    0.84
   8   3  -7   13.71    0.98
  -8  -3   7   13.59    0.89
  -8  -3   7   11.80    1.00
   7   3  -7   -0.23    0.28
   7   3  -7   -0.02    0.34
  -7  -3   7   -0.06    0.34
  -7  -3   7   -0.61    0.24
  -7  -3   7   -0.28    0.18
   6   3  -7    5.50    0.45
   6   3  -7    5.36    0.49
   6   3  -7    5.35    0.57
  -6  -3   7    5.54    0.45
  -6  -3   7    4.61    0.53
  -6  -3   7    5.04    0.35
   5   3  -7    9.27    0.69
   5   3  -7    9.71    0.57
   5   3  -7    9.28    0.60
  -5  -3   7    8.93    0.55
  -5  -3   7    8.08    0.59
   4   3  -7   25.24    1.25
   4   3  -7   25.52    1.32
   4   3  -7   25.26    1.27
  -4  -3   7   22.46    1.24
  -4  -3   7   24.98    1.23
  -4  -3   7   20.37    1.36
   3   3  -7    2.39    0.24
   3   3  -7    2.01    0.25
   3   3  -7    1.94    0.26
  -3  -3   7    1.80    0.30
  -3  -3   7    1.87    0.18
   2   3  -7    2.56    0.23
   2   3  -7    2.50    0.31
   2   3  -7    2.57    0.25
  -2  -3   7    2.28    0.34
   1   3  -7    0.73    0.14
   1   3  -7    0.66    0.12
  -1  -3   7    0.38    0.15
   0   3  -7    0.61    0.13
   0   3  -7    0.57    0.18
   0   3  -7    0.58    0.12
   0   3  -7    0.51    0.12
   0   3  -7    0.46    0.10
  -1   3  -7    4.82    0.38
  -1   3  -7    4.32    0.31
  -1   3  -7    4.50    0.30
  -1   3  -7    4.43    0.31
  -2   3  -7   12.08    0.67
  -2   3  -7   12.60    0.66
  -2   3  -7   11.84    0.67
  -2   3  -7   11.58    0.71
  -3   3  -7    1.76    0.27
  -3   3  -7    1.57    0.21
  -3   3  -7    2.15    0.25
   3  -3   7    1.25    0.23
  -4   3  -7    5.22    0.40
  -4   3  -7    5.49    0.50
  -4   3  -7    5.24    0.43
   4  -3   7    4.95    0.45
  -5   3  -7    0.53    0.21
  -5   3  -7    0.34    0.27
  -5   3  -7   -0.13    0.21
   5  -3   7    0.35    0.15
   5  -3   7    0.74    0.19
   5  -3   7    0.87    0.34
  -6   3  -7    0.56    0.31
  -6   3  -7    0.42    0.27
  -6   3  -7    0.64    0.26
  -6   3  -7    0.37    0.19
   6  -3   7    0.38    0.24
   6  -3   7    0.26    0.21
  -7   3  -7    2.13    0.42
  -7   3  -7    2.24    0.39
  -7   3  -7    1.67    0.30
   7  -3   7    1.49    0.49
   7  -3   7    2.27    0.34
  -8   3  -7    1.46    0.46
  -8   3  -7    1.36    0.42
   8  -3   7    2.11    0.40
  -9   3  -7    2.09    0.52
  -9   3  -7    2.38    0.54
  10   2  -7    1.26    0.36
  10   2  -7    1.71    0.44
 -10  -2   7    2.45    0.54
   9   2  -7    1.18    0.41
   9   2  -7    1.11    0.31
  -9  -2   7    1.26    0.42
   8   2  -7    5.50    0.67
   8   2  -7    5.61    0.51
  -8  -2   7    4.83    0.61
  -8  -2   7    5.82    0.65
   7   2  -7    0.88    0.30
   7   2  -7    0.48    0.37
  -7  -2   7    0.94    0.33
  -7  -2   7    0.75    0.27
  -7  -2   7    0.80    0.27
   6   2  -7    2.04    0.34
   6   2  -7    2.25    0.29
   6   2  -7    2.39    0.28
  -6  -2   7    2.56    0.33
  -6  -2   7    2.85    0.34
  -6  -2   7    2.22    0.30
   5   2  -7    5.54    0.42
   5   2  -7    4.65    0.42
   5   2  -7    5.50    0.53
  -5  -2   7    5.61    0.47
  -5  -2   7    5.28    0.42
  -5  -2   7    5.57    0.34
   4   2  -7    7.71    0.60
   4   2  -7    8.62    0.53
   4   2  -7    8.51    0.52
  -4  -2   7    8.21    0.51
  -4  -2   7    8.88    0.53
   3   2  -7   24.95    1.30
   3   2  -7   25.03    1.29
   3   2  -7   24.41    1.33
  -3  -2   7   26.41    1.29
  -3  -2   7   24.59    1.28
   2   2  -7    0.07    0.15
   2   2  -7    0.07    0.12
   2   2  -7    0.05    0.11
  -2  -2   7    0.05    0.11
  -2  -2   7   -0.24    0.16
  -2  -2   7    0.02    0.10
   1   2  -7    0.23    0.13
   1   2  -7    0.31    0.11
   1   2  -7    0.30    0.11
  -1  -2   7    0.32    0.14
  -1  -2   7    0.19    0.09
  -1  -2   7    0.24    0.08
   0   2  -7    0.89    0.13
   0   2  -7    0.86    0.18
   0   2  -7    0.81    0.11
   0   2  -7    0.80    0.14
   0   2  -7    0.62    0.11
   0  -2   7    0.68    0.11
  -1   2  -7  120.56    6.10
  -1   2  -7  120.39    6.07
  -1   2  -7  124.86    6.07
  -1   2  -7  126.60    6.08
  -2   2  -7    9.25    0.50
  -2   2  -7    8.36    0.55
  -2   2  -7    8.87    0.51
  -2   2  -7    8.45    0.51
   2  -2   7    9.04    0.47
   2  -2   7    8.72    0.54
  -3   2  -7    0.38    0.15
  -3   2  -7    0.94    0.21
  -3   2  -7    0.17    0.14
  -3   2  -7    0.69    0.14
   3  -2   7    0.44    0.12
   3  -2   7    0.34    0.15
   3  -2   7    0.61    0.14
  -4   2  -7    2.90    0.29
  -4   2  -7    2.91    0.37
  -4   2  -7    2.10    0.25
   4  -2   7    3.01    0.32
   4  -2   7    2.41    0.30
   4  -2   7    2.08    0.25
  -5   2  -7    3.60    0.35
  -5   2  -7    3.18    0.40
  -5   2  -7    3.95    0.43
  -5   2  -7    3.27    0.28
  -5   2  -7    2.98    0.36
   5  -2   7    3.74    0.34
   5  -2   7    3.76    0.37
   5  -2   7    3.01    0.37
  -6   2  -7    2.96    0.41
  -6   2  -7    2.47    0.33
  -6   2  -7    2.07    0.33
  -6   2  -7    3.56    0.39
  -6   2  -7    2.05    0.33
   6  -2   7    2.36    0.29
  -7   2  -7   14.78    0.95
  -7   2  -7   13.95    0.91
   7  -2   7   13.18    0.87
   7  -2   7   13.94    0.88
  -8   2  -7   -0.31    0.30
  -8   2  -7    0.30    0.38
   8  -2   7    0.62    0.36
   8  -2   7    0.08    0.41
  -9   2  -7   -0.64    0.37
  -9   2  -7    0.46    0.39
  10   1  -7   -0.08    0.29
  10   1  -7    0.47    0.40
 -10  -1   7    0.04    0.46
   9   1  -7    3.55    0.63
   9   1  -7    3.05    0.38
  -9  -1   7    2.66    0.47
   8   1  -7    1.30    0.28
   8   1  -7    0.89    0.34
  -8  -1   7    1.07    0.36
  -8  -1   7    0.86    0.33
  -7  -1   7   10.59    0.76
  -7  -1   7    9.83    0.70
  -7  -1   7   10.16    0.71
   6   1  -7   -0.05    0.25
   6   1  -7   -0.23    0.16
   6   1  -7    0.03    0.18
   6   1  -7    0.38    0.16
  -6  -1   7   -0.29    0.24
  -6  -1   7   -0.12    0.20
  -6  -1   7   -0.19    0.19
   5   1  -7   19.78    1.12
   5   1  -7   19.51    1.04
   5   1  -7   18.89    1.05
  -5  -1   7   18.21    1.01
  -5  -1   7   20.05    1.05
  -5  -1   7   21.45    1.06
  -5  -1   7   16.54    1.13
   4   1  -7   10.61    0.63
   4   1  -7   11.16    0.62
   4   1  -7   10.30    0.69
  -4  -1   7   11.10    0.64
  -4  -1   7   10.93    0.63
  -4  -1   7   10.61    0.60
   3   1  -7    3.36    0.37
   3   1  -7    3.95    0.30
   3   1  -7    4.05    0.29
  -3  -1   7    4.06    0.30
  -3  -1   7    2.95    0.41
  -3  -1   7    4.28    0.32
   2   1  -7    6.94    0.41
   2   1  -7    7.19    0.42
   2   1  -7    6.27    0.46
  -2  -1   7    7.07    0.41
  -2  -1   7    6.60    0.41
   1   1  -7   46.27    2.48
   1   1  -7   50.90    2.47
   1   1  -7   49.96    2.45
   1   1  -7   51.23    2.48
  -1  -1   7   51.68    2.47
  -1  -1   7   47.30    2.46
   0   1  -7   31.48    1.50
   0   1  -7   29.74    1.49
   0   1  -7   32.14    1.51
   0   1  -7   31.23    1.53
   0  -1   7   28.98    1.49
   0  -1   7   28.76    1.48
   0  -1   7   25.31    1.49
  -1   1  -7   48.98    2.31
  -1   1  -7   45.62    2.33
  -1   1  -7   47.35    2.31
  -1   1  -7   45.40    2.30
   1  -1   7   41.29    2.29
   1  -1   7   48.01    2.29
  -2   1  -7    1.35    0.18
  -2   1  -7    1.29    0.16
  -2   1  -7    1.13    0.15
  -2   1  -7    1.47    0.20
   2  -1   7    1.10    0.14
   2  -1   7    0.79    0.17
   2  -1   7    1.01    0.14
  -3   1  -7    5.20    0.36
  -3   1  -7    4.85    0.39
  -3   1  -7    4.72    0.35
  -3   1  -7    5.07    0.33
   3  -1   7    4.22    0.33
   3  -1   7    5.32    0.39
   3  -1   7    4.77    0.33
  -4   1  -7   11.21    0.62
  -4   1  -7   11.36    0.68
  -4   1  -7   10.53    0.64
   4  -1   7   10.74    0.62
   4  -1   7   10.81    0.66
   4  -1   7   10.49    0.60
   4  -1   7   10.32    0.61
  -5   1  -7    3.30    0.39
  -5   1  -7    3.69    0.32
  -5   1  -7    3.16    0.41
  -5   1  -7    2.42    0.34
   5  -1   7    4.04    0.34
   5  -1   7    2.43    0.39
   5  -1   7    3.57    0.34
   5  -1   7    3.30    0.46
  -6   1  -7   14.42    0.91
  -6   1  -7   16.11    0.94
  -6   1  -7   17.18    0.90
  -6   1  -7   16.37    0.96
  -6   1  -7   14.53    0.89
   6  -1   7   15.77    0.90
   6  -1   7   15.93    0.96
   6  -1   7   16.96    0.92
  -7   1  -7   -0.09    0.26
  -7   1  -7    0.36    0.28
  -7   1  -7   -0.14    0.23
   7  -1   7    0.19    0.26
   7  -1   7    0.11    0.29
  -8   1  -7   18.91    1.19
  -8   1  -7   22.11    1.21
  -8   1  -7   22.10    1.23
   8  -1   7   18.62    1.23
   8  -1   7   17.11    1.22
   8  -1   7   18.94    1.16
  -9   1  -7    2.39    0.47
  -9   1  -7    3.63    0.47
   9  -1   7    3.38    0.47
   9  -1   7    3.05    0.53
 -10   1  -7    3.24    0.54
 -10   1  -7    4.22    0.56
  10  -1   7    4.34    0.60
  10   0  -7    2.30    0.40
  10   0  -7    2.38    0.48
 -10   0   7    3.43    0.55
   9   0  -7    0.08    0.32
   9   0  -7   -0.40    0.25
  -9   0   7   -0.11    0.48
  -9   0   7   -0.14    0.36
   8   0  -7   15.98    0.91
   8   0  -7   14.99    1.06
  -8   0   7   15.21    0.99
  -8   0   7   13.56    0.96
  -7   0   7    5.80    0.55
  -7   0   7    6.10    0.57
   6   0  -7   25.13    1.29
   6   0  -7   23.48    1.31
   6   0  -7   24.76    1.39
  -6   0   7   25.27    1.32
  -6   0   7   25.08    1.31
  -6   0   7   20.20    1.52
   5   0  -7    0.12    0.23
   5   0  -7   -0.16    0.12
   5   0  -7    0.02    0.16
   5   0  -7    0.17    0.15
  -5   0   7   -0.12    0.18
  -5   0   7   -0.17    0.19
  -5   0   7   -0.23    0.22
   4   0  -7   13.23    0.76
   4   0  -7   12.77    0.83
   4   0  -7   14.16    0.76
  -4   0   7   13.89    0.77
  -4   0   7   14.21    0.75
  -4   0   7   13.24    0.86
  -4   0   7   14.20    0.77
   3   0  -7    0.00    0.17
   3   0  -7    0.07    0.10
   3   0  -7    0.09    0.12
  -3   0   7    0.09    0.20
  -3   0   7    0.19    0.13
  -3   0   7    0.04    0.09
  -3   0   7    0.30    0.17
   2   0  -7  107.89    5.06
   2   0  -7   95.62    5.07
  -2   0   7  104.10    5.06
  -2   0   7  101.53    5.05
  -2   0   7   94.72    5.04
  -2   0   7  109.57    5.09
   1   0  -7    0.59    0.09
   1   0  -7    0.65    0.12
   1   0  -7    0.55    0.11
  -1   0   7    0.60    0.17
  -1   0   7    0.62    0.13
  -1   0   7    0.47    0.12
   0   0  -7   19.41    1.03
   0   0  -7   19.57    1.05
   0   0  -7   19.81    1.04
   0   0  -7   20.30    1.04
   0   0   7   21.28    1.04
   0   0   7   19.61    1.03
   0   0   7   19.47    1.03
   0   0   7   20.06    1.03
  -1   0  -7    0.35    0.14
  -1   0  -7    0.27    0.11
  -1   0  -7    0.34    0.11
  -1   0  -7    0.32    0.11
   1   0   7    0.33    0.10
   1   0   7    0.18    0.11
   1   0   7    0.40    0.12
   1   0   7    0.26    0.10
  -2   0  -7   75.89    3.71
  -2   0  -7   67.67    3.73
  -2   0  -7   74.90    3.72
  -2   0  -7   79.03    3.71
   2   0   7   75.79    3.71
   2   0   7   72.33    3.67
   2   0   7   70.33    3.69
   2   0   7   77.35    3.70
   2   0   7   76.87    3.71
  -3   0  -7   50.41    2.54
  -3   0  -7   49.53    2.56
  -3   0  -7   51.83    2.56
  -3   0  -7   51.25    2.55
   3   0   7   48.68    2.54
   3   0   7   51.29    2.56
   3   0   7   51.10    2.52
   3   0   7   51.55    2.54
  -4   0  -7   14.19    0.82
  -4   0  -7   14.78    0.80
  -4   0  -7   14.92    0.84
   4   0   7   14.44    0.81
   4   0   7   14.40    0.81
   4   0   7   15.89    0.81
   4   0   7   14.03    0.82
  -5   0  -7    0.87    0.24
  -5   0  -7    0.64    0.20
  -5   0  -7    0.64    0.15
  -5   0  -7    0.22    0.14
   5   0   7    0.66    0.18
   5   0   7    0.78    0.23
   5   0   7    0.45    0.19
   5   0   7    0.86    0.22
  -6   0  -7   27.55    1.57
  -6   0  -7   30.10    1.59
  -6   0  -7   30.75    1.55
  -6   0  -7   26.40    1.55
  -6   0  -7   29.26    1.59
   6   0   7   30.41    1.57
   6   0   7   33.68    1.60
   6   0   7   28.18    1.55
  -7   0  -7   22.87    1.28
  -7   0  -7   19.59    1.44
  -7   0  -7   20.28    1.23
   7   0   7   25.00    1.32
   7   0   7   23.01    1.26
   7   0   7   20.76    1.21
  -8   0  -7   13.94    0.91
  -8   0  -7   11.76    0.89
  -8   0  -7   13.01    0.88
   8   0   7   11.34    0.88
   8   0   7   13.81    1.04
  -9   0  -7   -0.13    0.30
  -9   0  -7    0.15    0.35
   9   0   7   -0.10    0.47
   9   0   7    0.18    0.36
 -10   0  -7    5.30    0.71
 -10   0  -7    3.83    0.53
  10   0   7    3.48    0.80
  10   0   7    3.17    0.55
  10  -1  -7    6.22    0.70
 -10   1   7    7.96    0.85
   9  -1  -7    1.86    0.44
   9  -1  -7    1.16    0.33
  -9   1   7    2.07    0.43
   8  -1  -7    6.39    0.56
   8  -1  -7    5.70    0.68
  -8   1   7    7.07    0.66
   7  -1  -7    0.33    0.28
   7  -1  -7    0.24    0.32
  -7   1   7    0.25    0.43
   6  -1  -7    4.67    0.42
   6  -1  -7    4.68    0.55
   6  -1  -7    4.46    0.45
  -6   1   7    3.27    0.45
  -6   1   7    4.74    0.46
   5  -1  -7   18.28    1.01
   5  -1  -7   17.24    1.08
   5  -1  -7   19.08    1.01
   5  -1  -7   18.65    1.00
  -5   1   7   18.49    1.00
  -5   1   7   17.30    1.07
  -5   1   7   18.67    1.02
   4  -1  -7    8.48    0.53
   4  -1  -7    8.46    0.51
   4  -1  -7    6.96    0.58
  -4   1   7    8.54    0.52
  -4   1   7    8.13    0.53
  -4   1   7    8.53    0.61
  -4   1   7    8.51    0.51
   3  -1  -7   40.11    1.96
   3  -1  -7   34.94    1.99
   3  -1  -7   39.06    1.96
  -3   1   7   38.51    1.96
  -3   1   7   39.05    1.95
  -3   1   7   38.25    1.95
  -3   1   7   39.67    2.00
   2  -1  -7    1.18    0.16
   2  -1  -7    1.02    0.15
  -2   1   7    0.94    0.15
  -2   1   7    1.20    0.21
  -2   1   7    0.82    0.13
  -2   1   7    1.14    0.17
   1  -1  -7   36.85    1.82
   1  -1  -7   36.08    1.83
   1  -1  -7   35.90    1.82
  -1   1   7   36.16    1.82
  -1   1   7   35.01    1.81
  -1   1   7   35.56    1.82
  -1   1   7   36.81    1.84
   0  -1  -7   26.89    1.33
   0  -1  -7   26.22    1.33
   0  -1  -7   26.68    1.33
   0  -1  -7   26.92    1.33
   0   1   7   23.98    1.33
   0   1   7   25.54    1.32
   0   1   7   24.91    1.32
   0   1   7   25.93    1.32
  -1  -1  -7   84.85    4.26
  -1  -1  -7   88.77    4.26
  -1  -1  -7   87.31    4.25
  -1  -1  -7   86.87    4.25
   1   1   7   83.46    4.24
   1   1   7   83.06    4.24
   1   1   7   85.38    4.25
  -2  -1  -7    0.11    0.11
  -2  -1  -7    0.07    0.11
  -2  -1  -7    0.03    0.10
  -2  -1  -7    0.04    0.11
   2   1   7   -0.15    0.11
   2   1   7   -0.02    0.09
   2   1   7    0.00    0.10
   2   1   7    0.10    0.13
  -3  -1  -7    0.24    0.10
  -3  -1  -7    0.10    0.12
  -3  -1  -7    0.13    0.14
  -3  -1  -7    0.07    0.12
   3   1   7    0.00    0.11
   3   1   7   -0.02    0.11
   3   1   7    0.10    0.15
   3   1   7    0.07    0.12
   3   1   7    0.10    0.14
  -4  -1  -7    0.03    0.11
  -4  -1  -7   -0.08    0.11
  -4  -1  -7   -0.14    0.15
   4   1   7    0.18    0.16
   4   1   7   -0.01    0.13
   4   1   7    0.13    0.13
   4   1   7    0.17    0.16
   4   1   7    0.23    0.18
  -5  -1  -7   48.81    2.51
  -5  -1  -7   48.68    2.53
  -5  -1  -7   51.41    2.54
  -5  -1  -7   48.36    2.53
   5   1   7   51.29    2.53
   5   1   7   47.29    2.50
   5   1   7   49.83    2.52
   5   1   7   50.62    2.52
  -6  -1  -7   -0.02    0.22
  -6  -1  -7    0.22    0.18
  -6  -1  -7    0.15    0.20
   6   1   7    0.14    0.21
   6   1   7    0.26    0.22
   6   1   7    0.23    0.21
   6   1   7    0.48    0.26
  -7  -1  -7    0.46    0.24
   7   1   7    0.19    0.26
   7   1   7    0.61    0.33
   7   1   7    0.62    0.24
  -8  -1  -7    0.26    0.31
  -8  -1  -7    0.40    0.27
  -8  -1  -7    0.29    0.31
   8   1   7    0.38    0.39
   8   1   7    0.28    0.28
  -9  -1  -7    3.24    0.46
  -9  -1  -7    2.15    0.52
  -9  -1  -7    3.04    0.41
   9   1   7    2.19    0.39
   9   1   7    2.61    0.55
 -10  -1  -7    2.69    0.48
 -10  -1  -7    3.59    0.51
  10   1   7    2.96    0.67
  10   1   7    2.81    0.49
  10  -2  -7    0.98    0.44
 -10   2   7    0.43    0.44
   9  -2  -7    0.56    0.35
  -9   2   7    1.86    0.41
   8  -2  -7    0.32    0.35
   8  -2  -7   -0.06    0.27
  -8   2   7   -0.07    0.30
   7  -2  -7   12.29    0.80
   7  -2  -7   12.34    0.95
  -7   2   7   13.03    0.83
   6  -2  -7    0.09    0.22
   6  -2  -7    0.65    0.23
   6  -2  -7    0.42    0.30
   6  -2  -7    0.78    0.23
  -6   2   7    0.43    0.24
  -6   2   7    0.65    0.23
   5  -2  -7   14.14    0.78
   5  -2  -7   13.18    0.78
   5  -2  -7   13.16    0.78
  -5   2   7   12.89    0.76
  -5   2   7   12.13    0.87
  -5   2   7   14.09    0.80
   4  -2  -7   -0.15    0.12
   4  -2  -7   -0.04    0.14
   4  -2  -7    0.01    0.14
  -4   2   7    0.00    0.15
  -4   2   7   -0.11    0.13
  -4   2   7    0.12    0.20
  -4   2   7    0.14    0.16
   3  -2  -7   12.90    0.72
   3  -2  -7   13.09    0.72
  -3   2   7   12.70    0.72
  -3   2   7   12.59    0.72
  -3   2   7   13.44    0.79
  -3   2   7   12.14    0.71
   2  -2  -7   11.17    0.61
   2  -2  -7   10.56    0.59
  -2   2   7   10.32    0.60
  -2   2   7   10.39    0.60
  -2   2   7    9.21    0.69
  -2   2   7   10.83    0.59
   1  -2  -7   36.05    1.79
   1  -2  -7   36.71    1.79
  -1   2   7   34.24    1.80
  -1   2   7   35.10    1.79
  -1   2   7   32.98    1.80
  -1   2   7   36.01    1.79
   0  -2  -7    6.67    0.43
   0  -2  -7    7.05    0.42
   0  -2  -7    6.92    0.43
   0  -2  -7    7.12    0.44
   0   2   7    7.27    0.44
   0   2   7    7.00    0.42
   0   2   7    6.97    0.43
  -1  -2  -7    2.81    0.25
  -1  -2  -7    2.51    0.25
  -1  -2  -7    2.64    0.24
  -1  -2  -7    2.74    0.23
   1   2   7    2.48    0.22
   1   2   7    2.89    0.25
   1   2   7    2.66    0.27
  -2  -2  -7   19.98    1.01
  -2  -2  -7   19.93    1.02
  -2  -2  -7   19.62    1.02
  -2  -2  -7   19.10    1.04
   2   2   7   19.55    1.03
   2   2   7   18.86    1.02
   2   2   7   19.12    1.01
   2   2   7   18.27    1.03
  -3  -2  -7    5.28    0.36
  -3  -2  -7    4.97    0.36
  -3  -2  -7    5.11    0.36
  -3  -2  -7    5.07    0.37
   3   2   7    4.86    0.34
   3   2   7    4.69    0.38
   3   2   7    5.10    0.39
   3   2   7    4.81    0.36
   3   2   7    4.67    0.35
  -4  -2  -7   44.39    2.24
  -4  -2  -7   43.31    2.22
  -4  -2  -7   44.71    2.23
  -4  -2  -7   43.81    2.25
   4   2   7   44.32    2.23
   4   2   7   41.86    2.22
   4   2   7   43.50    2.24
   4   2   7   44.47    2.24
   4   2   7   44.08    2.23
  -5  -2  -7    8.42    0.58
  -5  -2  -7    8.35    0.57
  -5  -2  -7    8.14    0.57
  -5  -2  -7    9.01    0.55
   5   2   7    9.02    0.60
   5   2   7    8.26    0.56
   5   2   7    8.62    0.57
   5   2   7    8.31    0.55
   5   2   7    8.91    0.61
  -6  -2  -7    2.20    0.30
  -6  -2  -7    1.47    0.26
   6   2   7    1.58    0.24
   6   2   7    1.22    0.25
   6   2   7    1.41    0.25
  -7  -2  -7    0.19    0.28
  -7  -2  -7    0.11    0.28
   7   2   7    0.42    0.31
   7   2   7    0.02    0.23
  -8  -2  -7    8.19    0.72
  -8  -2  -7    8.79    0.71
   8   2   7    8.86    0.68
   8   2   7   11.24    0.86
  -9  -2  -7    0.49    0.32
  -9  -2  -7    0.94    0.37
   9   2   7    0.52    0.48
   9   2   7    0.88    0.33
 -10  -2  -7    6.38    0.77
 -10  -2  -7    9.42    0.85
  10   2   7    9.41    1.16
  10   2   7    7.57    0.76
  10  -3  -7    1.28    0.53
 -10   3   7    1.08    0.48
   9  -3  -7    1.58    0.43
  -9   3   7    2.24    0.43
   8  -3  -7    5.18    0.61
  -8   3   7    5.36    0.64
   7  -3  -7   -0.01    0.26
  -7   3   7    0.06    0.27
   6  -3  -7    5.80    0.51
   6  -3  -7    5.61    0.51
   6  -3  -7    4.95    0.51
  -6   3   7    5.54    0.52
   5  -3  -7    1.73    0.26
   5  -3  -7    1.67    0.25
   5  -3  -7    1.60    0.25
  -5   3   7    1.70    0.27
   4  -3  -7   47.00    2.30
   4  -3  -7   45.18    2.28
   4  -3  -7   44.12    2.29
  -4   3   7   41.65    2.28
  -4   3   7   46.58    2.30
  -4   3   7   43.84    2.35
  -4   3   7   46.07    2.32
   3  -3  -7    4.05    0.34
   3  -3  -7    4.17    0.35
  -3   3   7    4.11    0.45
  -3   3   7    4.46    0.37
  -3   3   7    4.21    0.35
  -3   3   7    3.96    0.35
   2  -3  -7   32.39    1.63
   2  -3  -7   32.82    1.64
  -2   3   7   30.69    1.62
  -2   3   7   31.70    1.65
  -2   3   7   30.82    1.67
  -2   3   7   32.35    1.63
   1  -3  -7    0.81    0.14
   1  -3  -7    0.84    0.15
   1  -3  -7    0.94    0.15
  -1   3   7    0.62    0.15
  -1   3   7    0.53    0.14
  -1   3   7    0.61    0.15
   0  -3  -7    0.10    0.11
   0  -3  -7    0.19    0.11
   0  -3  -7    0.20    0.10
   0   3   7    0.36    0.12
   0   3   7    0.26    0.13
   0   3   7    0.11    0.12
  -1  -3  -7   10.50    0.60
  -1  -3  -7   10.63    0.62
  -1  -3  -7   10.86    0.57
   1   3   7    9.93    0.59
   1   3   7   10.57    0.62
   1   3   7   10.41    0.60
  -2  -3  -7   36.64    1.94
  -2  -3  -7   38.16    1.92
  -2  -3  -7   38.08    1.92
  -2  -3  -7   39.35    1.91
   2   3   7   36.37    1.91
   2   3   7   38.18    1.94
   2   3   7   37.45    1.92
   2   3   7   38.07    1.90
  -3  -3  -7    5.48    0.38
  -3  -3  -7    5.53    0.38
  -3  -3  -7    5.70    0.39
  -3  -3  -7    5.28    0.40
   3   3   7    5.98    0.43
   3   3   7    5.58    0.37
   3   3   7    5.17    0.39
   3   3   7    4.96    0.42
   3   3   7    5.85    0.38
  -4  -3  -7   26.52    1.36
  -4  -3  -7   25.70    1.35
  -4  -3  -7   25.57    1.38
  -4  -3  -7   25.74    1.35
   4   3   7   25.98    1.34
   4   3   7   25.29    1.39
   4   3   7   26.54    1.38
   4   3   7   25.31    1.35
   4   3   7   24.81    1.35
  -5  -3  -7    2.75    0.30
  -5  -3  -7    1.98    0.28
  -5  -3  -7    2.17    0.27
  -5  -3  -7    2.37    0.27
   5   3   7    2.58    0.38
   5   3   7    1.88    0.30
   5   3   7    2.37    0.27
   5   3   7    1.92    0.26
   5   3   7    2.56    0.29
  -6  -3  -7   16.13    0.92
  -6  -3  -7   15.49    0.92
  -6  -3  -7   15.57    0.89
   6   3   7   16.64    0.97
   6   3   7   16.11    0.94
   6   3   7   14.83    0.90
   6   3   7   14.97    0.89
   6   3   7   15.07    0.92
  -7  -3  -7    0.61    0.27
  -7  -3  -7    0.83    0.29
   7   3   7    0.43    0.26
   7   3   7    0.83    0.33
   7   3   7    0.26    0.30
  -8  -3  -7   11.36    0.83
  -8  -3  -7   10.79    0.78
   8   3   7   12.20    0.93
   8   3   7   10.96    0.76
  -9  -3  -7    2.14    0.43
  -9  -3  -7    1.67    0.36
   9   3   7    1.63    0.35
   9   3   7    2.04    0.52
 -10  -3  -7    0.58    0.37
 -10  -3  -7    1.14    0.43
  10   3   7    0.39    0.35
  10   3   7   -0.06    0.58
   9  -4  -7    0.26    0.48
  -9   4   7    0.18    0.40
   8  -4  -7    0.82    0.40
  -8   4   7    1.29    0.38
   7  -4  -7    0.15    0.31
  -7   4   7   -0.28    0.28
   6  -4  -7   -0.04    0.28
   6  -4  -7    0.46    0.30
   6  -4  -7    0.12    0.26
   5  -4  -7   10.88    0.73
   5  -4  -7   12.38    0.75
   5  -4  -7   11.17    0.71
  -5   4   7   11.23    0.75
  -5   4   7   11.50    0.79
   4  -4  -7   11.52    0.68
   4  -4  -7   10.57    0.63
   4  -4  -7   10.87    0.68
  -4   4   7    9.67    0.63
  -4   4   7   10.78    0.71
  -4   4   7   11.32    0.68
  -4   4   7   10.30    0.79
   3  -4  -7    0.08    0.16
   3  -4  -7    0.31    0.14
   3  -4  -7    0.43    0.18
  -3   4   7    0.17    0.13
  -3   4   7    0.47    0.18
  -3   4   7    0.32    0.17
  -3   4   7    0.63    0.25
   2  -4  -7    0.42    0.16
   2  -4  -7    0.34    0.15
  -2   4   7    0.18    0.16
  -2   4   7    0.04    0.12
  -2   4   7    0.30    0.18
  -2   4   7    0.14    0.15
   1  -4  -7   10.33    0.58
   1  -4  -7   10.50    0.59
  -1   4   7    9.86    0.59
  -1   4   7    9.97    0.62
  -1   4   7    9.61    0.57
   0  -4  -7    7.02    0.38
   0  -4  -7    6.56    0.44
   0  -4  -7    6.61    0.43
   0  -4  -7    6.20    0.47
   0   4   7    6.50    0.43
   0   4   7    6.20    0.41
   0   4   7    6.77    0.46
  -1  -4  -7   38.06    1.90
  -1  -4  -7   36.59    1.91
  -1  -4  -7   37.73    1.87
  -1  -4  -7   38.28    1.94
   1   4   7   37.48    1.93
   1   4   7   36.49    1.90
   1   4   7   37.40    1.91
  -2  -4  -7   38.19    1.93
  -2  -4  -7   37.89    1.96
  -2  -4  -7   38.18    1.99
  -2  -4  -7   39.22    1.96
   2   4   7   38.08    1.96
   2   4   7   39.25    1.99
   2   4   7   39.11    1.94
   2   4   7   38.18    1.95
  -3  -4  -7    0.98    0.16
  -3  -4  -7    0.62    0.17
  -3  -4  -7    0.80    0.17
   3   4   7    0.94    0.15
   3   4   7    0.68    0.19
   3   4   7    0.72    0.18
   3   4   7    1.08    0.16
   3   4   7    0.68    0.20
  -4  -4  -7    2.20    0.31
  -4  -4  -7    2.33    0.30
  -4  -4  -7    2.87    0.35
  -4  -4  -7    2.68    0.30
   4   4   7    2.44    0.29
   4   4   7    2.18    0.27
   4   4   7    2.70    0.39
   4   4   7    2.56    0.30
   4   4   7    2.74    0.37
  -5  -4  -7   15.81    0.95
  -5  -4  -7   15.77    0.91
  -5  -4  -7   16.22    0.91
  -5  -4  -7   15.91    0.91
   5   4   7   15.16    0.89
   5   4   7   16.64    0.98
   5   4   7   15.81    0.91
   5   4   7   15.85    0.94
   5   4   7   16.15    0.90
  -6  -4  -7    0.19    0.23
  -6  -4  -7    0.31    0.21
  -6  -4  -7    0.30    0.22
   6   4   7   -0.14    0.22
   6   4   7    0.41    0.24
   6   4   7    0.56    0.28
   6   4   7    0.26    0.22
  -7  -4  -7   11.18    0.76
  -7  -4  -7   10.80    0.75
   7   4   7    9.44    0.91
   7   4   7    9.69    0.77
   7   4   7   11.78    0.86
   7   4   7   10.89    0.73
  -8  -4  -7    0.82    0.29
  -8  -4  -7    1.01    0.33
   8   4   7    0.66    0.29
   8   4   7    0.62    0.40
  -9  -4  -7    5.08    0.57
  -9  -4  -7    4.44    0.51
   9   4   7    4.14    0.56
   9   4   7    4.54    0.60
 -10  -4  -7    0.32    0.45
 -10  -4  -7    0.92    0.39
  10   4   7    0.33    0.58
  10   4   7    0.46    0.33
   9  -5  -7    1.78    0.64
  -9   5   7    2.39    0.52
   8  -5  -7    2.29    0.54
  -8   5   7    2.39    0.46
   7  -5  -7   12.61    0.95
  -7   5   7   12.41    0.91
   6  -5  -7    3.34    0.45
   6  -5  -7    3.29    0.43
   6  -5  -7    3.41    0.40
  -6   5   7    2.97    0.48
  -6   5   7    3.24    0.41
   5  -5  -7   14.60    0.90
   5  -5  -7   13.38    0.85
   5  -5  -7   15.72    0.91
  -5   5   7   14.77    0.90
  -5   5   7   14.37    0.97
   4  -5  -7    2.66    0.38
   4  -5  -7    2.67    0.32
   4  -5  -7    2.55    0.29
  -4   5   7    2.35    0.26
  -4   5   7    2.57    0.31
  -4   5   7    2.59    0.34
  -4   5   7    2.24    0.41
   3  -5  -7    1.51    0.24
   3  -5  -7    1.39    0.23
   3  -5  -7    1.53    0.18
  -3   5   7    1.68    0.31
  -3   5   7    1.23    0.21
  -3   5   7    1.51    0.24
  -3   5   7    1.19    0.24
   2  -5  -7   -0.03    0.16
   2  -5  -7   -0.02    0.10
   2  -5  -7    0.04    0.16
  -2   5   7   -0.03    0.16
  -2   5   7   -0.09    0.17
   1  -5  -7   30.05    1.51
   1  -5  -7   28.58    1.50
  -1   5   7   29.79    1.56
  -1   5   7   28.80    1.52
  -1   5   7   28.89    1.51
   0  -5  -7    8.02    0.50
   0  -5  -7    8.04    0.43
   0  -5  -7    7.54    0.54
   0  -5  -7    8.36    0.53
   0   5   7    7.98    0.49
   0   5   7    8.11    0.55
   0   5   7    7.86    0.51
  -1  -5  -7    5.09    0.41
  -1  -5  -7    5.35    0.38
  -1  -5  -7    5.75    0.41
  -1  -5  -7    4.94    0.37
   1   5   7    5.19    0.40
   1   5   7    5.82    0.37
   1   5   7    5.49    0.44
  -2  -5  -7    4.70    0.40
  -2  -5  -7    4.12    0.29
  -2  -5  -7    4.07    0.35
  -2  -5  -7    4.36    0.34
   2   5   7    3.86    0.37
   2   5   7    4.23    0.32
   2   5   7    4.47    0.42
   2   5   7    4.34    0.30
  -3  -5  -7   49.61    2.43
  -3  -5  -7   49.36    2.40
  -3  -5  -7   45.81    2.47
  -3  -5  -7   47.24    2.43
   3   5   7   46.83    2.43
   3   5   7   49.08    2.47
   3   5   7   49.03    2.43
   3   5   7   50.12    2.40
   3   5   7   43.64    2.48
  -4  -5  -7   31.63    1.63
  -4  -5  -7   32.30    1.61
  -4  -5  -7   30.16    1.67
  -4  -5  -7   31.19    1.63
   4   5   7   31.01    1.63
   4   5   7   30.55    1.70
   4   5   7   31.42    1.66
   4   5   7   32.12    1.61
   4   5   7   30.22    1.62
  -5  -5  -7    0.36    0.21
  -5  -5  -7    0.30    0.21
  -5  -5  -7    0.34    0.18
  -5  -5  -7    0.66    0.21
   5   5   7    0.37    0.21
   5   5   7    0.54    0.14
   5   5   7    0.40    0.28
   5   5   7    0.40    0.25
   5   5   7    0.34    0.20
  -6  -5  -7   25.08    1.35
  -6  -5  -7   24.77    1.37
  -6  -5  -7   25.12    1.36
   6   5   7   24.04    1.35
   6   5   7   24.51    1.35
   6   5   7   24.41    1.38
   6   5   7   25.23    1.44
  -7  -5  -7    2.46    0.34
  -7  -5  -7    2.95    0.36
   7   5   7    2.54    0.43
   7   5   7    1.88    0.32
   7   5   7    2.39    0.38
   7   5   7    1.88    0.35
  -8  -5  -7   18.11    1.09
  -8  -5  -7   16.89    1.06
   8   5   7   17.18    1.20
   8   5   7   17.36    1.03
   8   5   7   16.16    1.09
  -9  -5  -7    7.66    0.78
  -9  -5  -7    7.46    0.75
   9   5   7    8.33    0.97
   9   5   7    7.83    0.68
 -10  -5  -7    3.07    0.55
 -10  -5  -7    4.05    0.55
  10   5   7    2.66    0.43
  10   5   7    3.63    0.68
   8  -6  -7    3.89    0.66
  -8   6   7    2.81    0.62
  -8   6   7    2.87    0.53
   7  -6  -7    8.48    1.14
  -7   6   7    7.01    0.89
  -7   6   7    8.27    0.80
   6  -6  -7    0.03    0.39
   6  -6  -7    0.35    0.33
   6  -6  -7    0.60    0.40
  -6   6   7    0.16    0.32
  -6   6   7    0.06    0.37
   5  -6  -7   -0.07    0.30
   5  -6  -7    0.24    0.32
   5  -6  -7    0.16    0.25
  -5   6   7   -0.20    0.35
  -5   6   7    0.01    0.54
   4  -6  -7    0.34    0.26
   4  -6  -7    0.36    0.19
   4  -6  -7    0.32    0.26
  -4   6   7    0.34    0.27
  -4   6   7    0.38    0.26
  -4   6   7    0.21    0.21
   3  -6  -7    0.28    0.21
   3  -6  -7    0.17    0.14
   3  -6  -7    0.16    0.21
  -3   6   7    0.12    0.22
  -3   6   7    0.24    0.21
  -3   6   7   -0.22    0.20
   2  -6  -7   23.66    1.25
   2  -6  -7   26.50    1.32
   2  -6  -7   26.06    1.32
  -2   6   7   25.23    1.33
  -2   6   7   23.15    1.32
  -2   6   7   25.18    1.39
   1  -6  -7    0.96    0.19
  -1   6   7    0.96    0.20
  -1   6   7    0.74    0.19
  -1   6   7    0.71    0.23
   0  -6  -7    0.18    0.14
   0  -6  -7    0.32    0.19
   0  -6  -7    0.30    0.14
   0   6   7    0.32    0.20
   0   6   7    0.08    0.17
   0   6   7    0.24    0.14
  -1  -6  -7    1.85    0.26
  -1  -6  -7    1.39    0.24
  -1  -6  -7    1.75    0.13
   1   6   7    1.84    0.26
   1   6   7    1.79    0.26
   1   6   7    1.73    0.24
  -2  -6  -7   48.71    2.39
  -2  -6  -7   48.68    2.44
   2   6   7   48.18    2.45
   2   6   7   48.86    2.49
   2   6   7   46.52    2.44
  -3  -6  -7    1.12    0.16
  -3  -6  -7    0.78    0.22
  -3  -6  -7    1.26    0.21
  -3  -6  -7    0.94    0.21
   3   6   7    1.12    0.25
   3   6   7    0.69    0.27
   3   6   7    1.17    0.17
   3   6   7    1.22    0.19
   3   6   7    1.01    0.22
  -4  -6  -7    4.97    0.37
  -4  -6  -7    4.80    0.41
  -4  -6  -7    4.04    0.42
  -4  -6  -7    4.35    0.45
   4   6   7    4.63    0.39
   4   6   7    4.93    0.55
   4   6   7    4.47    0.43
   4   6   7    4.56    0.50
  -5  -6  -7    4.37    0.41
  -5  -6  -7    4.18    0.42
  -5  -6  -7    3.92    0.44
  -5  -6  -7    3.59    0.47
   5   6   7    3.83    0.37
   5   6   7    3.87    0.46
   5   6   7    4.19    0.41
   5   6   7    4.32    0.52
   5   6   7    4.41    0.57
  -6  -6  -7   12.56    0.85
  -6  -6  -7   13.60    0.82
  -6  -6  -7   14.24    0.82
   6   6   7   12.69    0.95
   6   6   7   12.55    0.82
   6   6   7   13.06    0.88
   6   6   7   12.54    0.83
  -7  -6  -7   11.14    0.77
  -7  -6  -7   10.83    0.75
   7   6   7   11.55    0.81
   7   6   7    9.99    1.33
   7   6   7    9.77    0.82
   7   6   7   10.74    0.76
  -8  -6  -7    9.65    0.75
  -8  -6  -7    9.02    0.76
   8   6   7    9.97    0.74
   8   6   7    8.94    0.81
   8   6   7   10.18    0.96
  -9  -6  -7    0.32    0.36
  -9  -6  -7    0.26    0.38
   9   6   7    0.05    0.50
   9   6   7   -0.35    0.28
 -10  -6  -7    7.34    0.86
  10   6   7    5.29    0.69
  10   6   7    6.40    0.80
   8  -7  -7    1.52    0.75
  -8   7   7    1.00    0.51
  -8   7   7    0.12    0.62
   7  -7  -7    0.70    0.57
  -7   7   7    0.42    0.49
  -7   7   7    0.44    0.45
   6  -7  -7    8.87    0.90
   6  -7  -7    9.38    0.92
   6  -7  -7   11.06    0.98
  -6   7   7    9.64    0.94
  -6   7   7   12.82    0.87
   5  -7  -7    0.22    0.35
   5  -7  -7   -0.31    0.35
   5  -7  -7   -0.25    0.28
  -5   7   7    0.05    0.33
  -5   7   7    0.33    0.35
   4  -7  -7   19.03    1.04
   4  -7  -7   18.63    1.04
   4  -7  -7   15.73    0.95
  -4   7   7   16.59    1.19
  -4   7   7   17.81    1.05
   3  -7  -7   13.15    0.74
   3  -7  -7   12.25    0.74
   3  -7  -7   11.09    0.64
  -3   7   7    9.32    0.74
  -3   7   7   11.82    0.85
  -3   7   7   12.87    0.77
  -3   7   7   12.23    0.79
   2  -7  -7    0.70    0.29
   2  -7  -7    0.75    0.20
  -2   7   7    0.29    0.23
  -2   7   7    0.36    0.25
  -2   7   7    0.39    0.23
   1  -7  -7   15.38    0.84
   1  -7  -7   15.70    0.84
  -1   7   7   16.15    0.96
  -1   7   7   15.12    0.88
  -1   7   7   13.22    0.86
   0  -7  -7   17.02    0.90
   0  -7  -7   17.23    0.91
   0   7   7   16.01    0.93
   0   7   7   16.63    1.01
   0   7   7   17.02    0.95
  -1  -7  -7   17.66    0.95
  -1  -7  -7   18.77    1.06
   1   7   7   17.64    1.00
   1   7   7   17.13    0.98
   1   7   7   17.95    1.06
  -2  -7  -7    0.37    0.23
  -2  -7  -7    0.28    0.17
  -2  -7  -7    0.28    0.21
   2   7   7    0.14    0.17
   2   7   7    0.29    0.24
   2   7   7    0.27    0.22
  -3  -7  -7    3.23    0.36
  -3  -7  -7    2.88    0.33
  -3  -7  -7    2.93    0.40
   3   7   7    2.67    0.35
   3   7   7    2.85    0.33
   3   7   7    2.42    0.42
   3   7   7    2.88    0.27
   3   7   7    3.28    0.35
  -4  -7  -7    1.43    0.27
  -4  -7  -7    1.93    0.23
  -4  -7  -7    2.08    0.31
  -4  -7  -7    1.72    0.25
   4   7   7    1.35    0.28
   4   7   7    2.43    0.31
   4   7   7    1.96    0.27
   4   7   7    2.30    0.40
   4   7   7    1.67    0.32
  -5  -7  -7   50.52    2.54
  -5  -7  -7   51.74    2.52
  -5  -7  -7   45.94    2.54
   5   7   7   50.10    2.67
   5   7   7   50.23    2.56
   5   7   7   50.13    2.60
   5   7   7   48.06    2.55
   5   7   7   50.04    2.52
  -6  -7  -7   -0.17    0.24
  -6  -7  -7    0.34    0.30
  -6  -7  -7    0.19    0.25
   6   7   7    0.23    0.46
   6   7   7    0.19    0.31
   6   7   7    0.06    0.29
   6   7   7    0.21    0.28
  -7  -7  -7    4.11    0.51
  -7  -7  -7    2.81    0.48
  -7  -7  -7    3.84    0.52
   7   7   7    3.94    0.71
   7   7   7    3.03    0.45
   7   7   7    3.40    0.49
   7   7   7    5.08    0.57
  -8  -7  -7    0.74    0.34
   8   7   7    1.04    0.46
   8   7   7    0.73    0.31
   8   7   7    0.26    0.36
  -9  -7  -7   13.74    0.99
   9   7   7   12.22    1.18
   9   7   7   13.09    0.89
   9   7   7   11.53    1.00
  -7   8   7    5.16    0.65
  -7   8   7    3.96    0.67
   6  -8  -7    0.10    0.45
  -6   8   7    0.28    0.44
  -6   8   7    0.36    0.44
   5  -8  -7    2.15    0.40
  -5   8   7    2.72    0.50
  -5   8   7    2.64    0.45
   4  -8  -7    0.22    0.22
   4  -8  -7   -0.04    0.27
  -4   8   7    0.32    0.33
  -4   8   7   -0.27    0.32
   3  -8  -7    5.50    0.45
   3  -8  -7    5.15    0.47
  -3   8   7    5.10    0.56
  -3   8   7    4.38    0.63
   2  -8  -7    6.27    0.46
   2  -8  -7    6.03    0.44
  -2   8   7    6.39    0.55
  -2   8   7    5.32    0.56
   1  -8  -7   18.94    0.94
  -1   8   7   15.45    1.01
  -1   8   7   17.69    1.02
  -1   8   7   17.90    1.10
   0  -8  -7    1.04    0.19
   0  -8  -7    1.00    0.18
   0   8   7    0.62    0.28
   0   8   7    1.26    0.27
   0   8   7    1.01    0.26
  -1  -8  -7    3.30    0.31
   1   8   7    3.23    0.44
   1   8   7    2.45    0.31
   1   8   7    3.77    0.50
  -2  -8  -7    1.57    0.21
  -2  -8  -7    1.40    0.21
   2   8   7    1.29    0.25
   2   8   7    1.61    0.34
   2   8   7    1.04    0.29
  -3  -8  -7    8.43    0.56
  -3  -8  -7    9.13    0.55
   3   8   7    8.11    0.48
   3   8   7    8.10    0.62
   3   8   7    8.79    0.72
   3   8   7    8.55    0.77
   3   8   7    8.52    0.60
  -4  -8  -7    8.91    0.57
  -4  -8  -7    8.63    0.63
   4   8   7    8.48    0.54
   4   8   7    8.72    0.73
   4   8   7    8.83    0.83
   4   8   7    6.98    0.63
   4   8   7    7.67    0.61
  -5  -8  -7    7.92    0.63
  -5  -8  -7    7.39    0.55
   5   8   7    5.96    0.63
   5   8   7    7.87    0.58
   5   8   7    7.13    0.70
   5   8   7    7.80    0.81
  -6  -8  -7    1.05    0.38
  -6  -8  -7    1.01    0.29
   6   8   7    0.94    0.36
   6   8   7    0.73    0.35
   6   8   7    1.19    0.44
   6   8   7    1.54    0.34
  -7  -8  -7    0.48    0.30
  -7  -8  -7   -0.60    0.44
   7   8   7   -0.07    0.42
   7   8   7    0.04    0.43
   7   8   7    0.32    0.34
   7   8   7   -0.14    0.36
  -8  -8  -7   10.72    0.84
   8   8   7    9.63    0.81
   8   8   7    9.88    0.90
   8   8   7   11.15    1.06
  -9  -8  -7    2.65    0.50
   9   8   7    2.11    0.49
   9   8   7    2.28    0.66
   9   8   7    2.61    0.43
  -6   9   7    0.07    0.51
  -6   9   7    1.34    0.53
  -5   9   7    1.13    0.44
  -5   9   7   -0.17    0.43
  -4   9   7    7.24    0.73
  -4   9   7    6.44    0.81
  -3   9   7   -0.10    0.33
  -2   9   7    2.90    0.47
  -2   9   7    3.90    0.52
  -2   9   7    4.06    0.63
  -1   9   7    1.42    0.32
  -1   9   7    1.06    0.33
  -1   9   7    1.75    0.35
   0   9   7    6.47    0.57
   0   9   7    6.37    0.66
   0   9   7    4.14    0.54
   1   9   7    0.15    0.27
   1   9   7    0.30    0.31
   1   9   7   -0.19    0.28
   2   9   7   21.73    1.21
   2   9   7   20.71    1.28
   2   9   7   19.96    1.18
   3   9   7    0.26    0.29
   3   9   7    0.15    0.37
   3   9   7    0.18    0.34
   3   9   7    0.54    0.28
  -4  -9  -7    3.51    0.35
  -4  -9  -7    3.49    0.38
   4   9   7    3.47    0.47
   4   9   7    4.44    0.70
   4   9   7    3.41    0.35
   4   9   7    3.05    0.40
  -5  -9  -7    4.36    0.43
  -5  -9  -7    3.93    0.49
   5   9   7    4.50    0.49
   5   9   7    4.00    0.74
   5   9   7    3.75    0.51
   5   9   7    3.97    0.46
  -6  -9  -7   12.01    0.75
   6   9   7   11.35    1.06
   6   9   7   13.25    0.87
   6   9   7   10.39    0.93
   6   9   7   10.95    0.84
  -7  -9  -7    0.11    0.31
   7   9   7   -0.38    0.46
   7   9   7    0.66    0.38
   7   9   7   -0.76    0.40
  -8  -9  -7    0.51    0.40
   8   9   7    0.19    0.39
   8   9   7    0.38    0.51
  -5  10   7    3.57    0.60
  -5  10   7    2.65    0.54
  -4  10   7    8.34    0.86
  -4  10   7    7.71    0.93
  -3  10   7    0.91    0.42
  -3  10   7    1.23    0.43
  -2  10   7    0.36    0.38
  -2  10   7    0.31    0.51
  -1  10   7    0.48    0.35
  -1  10   7    0.50    0.37
   0  10   7    2.67    0.43
   0  10   7    2.72    0.44
   0  10   7    3.01    0.47
   1  10   7    0.24    0.34
   1  10   7   -0.09    0.36
   1  10   7    0.23    0.34
   2  10   7    2.95    0.44
   2  10   7    3.09    0.49
   2  10   7    3.59    0.50
   3  10   7    1.01    0.37
   3  10   7    1.31    0.44
   3  10   7    1.04    0.42
   4  10   7   -0.06    0.40
   4  10   7    0.19    0.42
   4  10   7    0.41    0.36
   5  10   7    4.60    0.83
   5  10   7    3.72    0.48
   5  10   7    3.47    0.54
   6  10   7    3.48    0.63
   6  10   7    2.57    0.50
   7  10   7    0.71    0.44
   7  10   7   -0.31    0.46
   7  10   7   -0.11    0.53
   8  10   7    0.23    0.52
   8  10   7    1.68    0.50
   8  10   7    1.94    0.64
  -4  11   7    1.28    0.52
  -4  11   7    0.14    0.56
  -3  11   7    0.50    0.48
  -3  11   7    0.92    0.50
  -2  11   7    0.76    0.46
  -2  11   7    0.81    0.46
  -1  11   7    1.08    0.47
  -1  11   7    1.36    0.46
   0  11   7    0.88    0.43
   1  11   7    1.92    0.48
   2  11   7    0.38    0.42
   3  11   7   11.52    1.10
   3  11   7   11.16    1.04
   3  11   7   10.48    0.92
   4  11   7    0.29    0.45
   4  11   7   -0.03    0.48
   4  11   7    0.47    0.42
   5  11   7    0.61    0.49
   5  11   7    0.53    0.46
   5  11   7    2.02    0.58
   6  11   7    3.89    0.70
   6  11   7    3.17    0.61
   7  11   7    1.31    0.55
   7  11   7   -1.01    0.56
   7  11   7   -0.39    0.53
  -2  12   7    4.48    0.67
  -2  12   7    5.56    0.70
  -1  12   7    0.53    0.56
  -1  12   7   -0.17    0.48
   0  12   7    0.34    0.57
   0  12   7    0.81    0.50
   1  12   7    0.96    0.55
   1  12   7    0.45    0.54
   2  12   7   11.77    1.17
   2  12   7   12.78    1.22
   2  12   7   10.18    1.10
   3  12   7    0.71    0.56
   3  12   7    1.52    0.61
   3  12   7    0.27    0.52
   4  12   7   -0.03    0.50
   4  12   7   -0.54    0.56
   4  12   7   -0.32    0.53
   5  12   7    0.74    0.59
   5  12   7    3.48    0.68
   5  12   7    1.76    0.62
   4  10  -8    0.53    0.64
   4  10  -8    1.06    0.66
   3  10  -8    0.23    0.60
   3  10  -8   -0.24    0.62
   2  10  -8    0.43    0.58
   2  10  -8    1.48    0.60
   1  10  -8    0.79    0.79
   1  10  -8    0.27    0.62
   0  10  -8    0.47    0.65
   0  10  -8   -1.18    0.61
  -1  10  -8   -0.03    0.68
  -1  10  -8    1.19    0.69
  -2  10  -8    5.42    0.82
  -2  10  -8    3.87    0.82
   6   9  -8    0.96    0.61
   6   9  -8    2.06    0.60
   5   9  -8   -0.04    0.54
   5   9  -8    0.48    0.39
   4   9  -8    0.69    0.52
   4   9  -8    1.11    0.35
   3   9  -8    5.08    0.65
   3   9  -8    4.32    0.52
   3   9  -8    5.31    0.87
   2   9  -8    0.89    0.53
   2   9  -8    1.15    0.47
   2   9  -8    1.21    0.35
   1   9  -8    1.36    0.51
   1   9  -8    1.06    0.43
   1   9  -8    1.47    0.46
   0   9  -8    7.23    0.92
   0   9  -8    9.00    0.84
   0   9  -8    7.27    0.92
  -1   9  -8    1.57    0.56
  -1   9  -8    1.51    0.55
  -2   9  -8    0.67    0.58
  -2   9  -8    0.16    0.59
  -3   9  -8    0.06    0.65
  -4   9  -8    0.58    0.69
   7   8  -8    4.46    0.67
   7   8  -8    4.60    0.54
   6   8  -8    2.45    0.56
   6   8  -8    2.95    0.46
   5   8  -8    8.48    0.69
   5   8  -8    8.32    0.94
   4   8  -8    0.15    0.43
   4   8  -8    0.08    0.27
   4   8  -8   -0.20    0.56
   3   8  -8    0.76    0.31
   3   8  -8    0.80    0.40
   3   8  -8    0.48    0.25
   2   8  -8    1.43    0.27
   2   8  -8    1.20    0.28
   2   8  -8    1.96    0.41
   2   8  -8    1.35    0.45
   2   8  -8    1.56    0.24
   1   8  -8   21.77    1.21
   1   8  -8   20.59    1.17
   1   8  -8   19.02    1.47
   1   8  -8   19.00    1.05
   1   8  -8   18.48    1.08
   0   8  -8    0.86    0.52
   0   8  -8    1.62    0.36
   0   8  -8    1.86    0.41
  -1   8  -8    1.08    0.46
  -1   8  -8    1.39    0.45
  -1   8  -8    1.89    0.27
  -1   8  -8    1.67    0.33
  -2   8  -8    0.43    0.47
  -3   8  -8    2.11    0.41
  -3   8  -8    3.56    0.58
  -4   8  -8    6.58    0.78
  -4   8  -8    5.85    0.75
  -5   8  -8    0.16    0.75
  -5   8  -8    0.25    0.65
   8   7  -8    1.41    0.56
   8   7  -8    2.84    0.48
   7   7  -8   -0.29    0.45
   7   7  -8    0.24    0.37
   6   7  -8    3.66    0.41
   6   7  -8    3.07    0.51
   5   7  -8    1.27    0.50
   5   7  -8    1.56    0.31
   5   7  -8    0.84    0.37
   4   7  -8   10.03    0.82
   4   7  -8    7.54    0.69
   4   7  -8    9.51    0.63
   3   7  -8    0.24    0.25
   3   7  -8    0.74    0.34
   3   7  -8    0.59    0.22
   2   7  -8   14.14    0.87
   2   7  -8   14.28    0.83
   2   7  -8   15.83    1.00
   2   7  -8   16.73    0.97
   2   7  -8   14.83    0.82
   1   7  -8    1.29    0.28
   1   7  -8    1.60    0.21
   1   7  -8    1.33    0.24
   1   7  -8    1.85    0.33
   1   7  -8    1.08    0.39
   0   7  -8    4.36    0.61
   0   7  -8    4.24    0.56
   0   7  -8    3.91    0.39
   0   7  -8    5.03    0.51
   0   7  -8    4.22    0.37
  -1   7  -8   -0.26    0.20
  -1   7  -8   -0.75    0.34
  -1   7  -8    0.49    0.24
  -1   7  -8    0.30    0.21
  -2   7  -8    8.36    0.62
  -2   7  -8    9.31    0.60
  -3   7  -8    1.97    0.35
  -3   7  -8    2.32    0.37
  -3   7  -8    3.66    0.51
  -4   7  -8    0.57    0.37
  -4   7  -8    0.06    0.49
  -5   7  -8    0.28    0.43
  -5   7  -8    0.78    0.52
  -6   7  -8    4.31    0.64
  -6   7  -8    3.83    0.70
   9   6  -8   -0.08    0.47
   9   6  -8    0.20    0.42
   8   6  -8    0.63    0.38
   8   6  -8   -0.05    0.42
   7   6  -8    3.89    0.53
   7   6  -8    4.23    0.58
   6   6  -8    4.32    0.51
   6   6  -8    4.30    0.70
   5   6  -8   14.00    0.99
   5   6  -8   14.89    0.85
   5   6  -8   13.18    0.90
   4   6  -8   11.45    0.69
   4   6  -8   10.44    0.73
   4   6  -8   12.44    0.84
  -4  -6   8   10.03    0.92
   3   6  -8    1.67    0.33
   3   6  -8    1.53    0.25
   3   6  -8    1.58    0.23
   2   6  -8    9.11    0.64
   2   6  -8    7.44    0.54
   2   6  -8    7.72    0.50
   1   6  -8    9.61    0.63
   1   6  -8   10.32    0.76
   1   6  -8    9.16    0.59
   1   6  -8   10.32    0.58
   1   6  -8   10.82    0.68
   0   6  -8    3.09    0.41
   0   6  -8    3.24    0.32
   0   6  -8    3.78    0.40
   0   6  -8    3.24    0.33
  -1   6  -8    8.10    0.68
  -1   6  -8    8.18    0.52
  -1   6  -8    8.35    0.52
  -2   6  -8    0.75    0.22
  -2   6  -8    1.17    0.22
  -2   6  -8    0.50    0.32
  -3   6  -8    0.87    0.62
  -3   6  -8    1.02    0.26
  -4   6  -8   -0.18    0.31
  -4   6  -8    0.34    0.41
  -4   6  -8   -0.07    0.30
  -5   6  -8    8.58    0.87
  -5   6  -8    8.61    0.98
  -5   6  -8    9.23    0.79
  -6   6  -8    0.38    0.50
  -6   6  -8    0.08    0.44
  -7   6  -8    1.25    0.58
  -7   6  -8    1.43    0.60
   9   5  -8   -0.07    0.39
   9   5  -8    0.00    0.37
   8   5  -8   -0.38    0.45
   8   5  -8   -0.04    0.33
   7   5  -8   11.74    0.78
   7   5  -8   10.64    0.92
   6   5  -8    0.61    0.27
   6   5  -8    0.63    0.35
   6   5  -8    0.46    0.41
   5   5  -8    2.13    0.32
   5   5  -8    2.52    0.39
   5   5  -8    2.31    0.29
  -5  -5   8    1.76    0.46
   4   5  -8    9.37    0.59
   4   5  -8    9.51    0.62
   4   5  -8   10.02    0.72
  -4  -5   8    7.48    0.78
   3   5  -8   22.90    1.21
   3   5  -8   21.21    1.11
   3   5  -8   21.23    1.13
  -3  -5   8   19.01    1.24
   2   5  -8    0.23    0.15
   2   5  -8    0.43    0.24
   2   5  -8    0.18    0.18
   1   5  -8    0.90    0.18
   1   5  -8    1.16    0.23
   1   5  -8    1.07    0.18
   1   5  -8    1.21    0.30
   1   5  -8    1.08    0.17
   1   5  -8    0.74    0.14
   0   5  -8    0.16    0.15
   0   5  -8   -0.09    0.16
   0   5  -8   -0.15    0.25
  -1   5  -8   -0.03    0.25
  -1   5  -8    0.20    0.15
  -1   5  -8    0.05    0.15
  -2   5  -8    4.97    0.44
  -2   5  -8    4.80    0.53
  -2   5  -8    5.43    0.41
  -2   5  -8    4.85    0.41
  -3   5  -8    6.45    0.62
  -3   5  -8    6.37    0.49
  -3   5  -8    6.07    0.46
  -3   5  -8    5.47    0.54
  -4   5  -8    1.87    0.32
  -4   5  -8    1.88    0.30
  -4   5  -8    1.35    0.33
  -5   5  -8    1.18    0.41
  -5   5  -8    1.04    0.33
  -5   5  -8    0.83    0.34
  -6   5  -8    0.51    0.39
  -6   5  -8   -0.22    0.41
  -7   5  -8    0.00    0.48
  -7   5  -8    0.59    0.47
  -8   5  -8    3.12    0.67
   9   4  -8    1.50    0.45
   9   4  -8    1.58    0.37
  -9  -4   8    2.13    0.46
   8   4  -8    4.01    0.56
   8   4  -8    3.71    0.67
  -8  -4   8    4.37    0.45
   7   4  -8    2.78    0.35
   7   4  -8    2.16    0.42
  -7  -4   8    2.70    0.33
  -7  -4   8    2.28    0.44
   6   4  -8    0.08    0.28
   6   4  -8    0.24    0.24
   6   4  -8    0.08    0.30
  -6  -4   8    0.09    0.20
  -6  -4   8    0.24    0.26
   5   4  -8    2.04    0.30
   5   4  -8    2.15    0.35
   5   4  -8    2.37    0.27
  -5  -4   8    1.34    0.42
   4   4  -8    2.71    0.46
   4   4  -8    1.83    0.26
   4   4  -8    2.30    0.31
  -4  -4   8    1.27    0.36
   3   4  -8    5.26    0.37
   3   4  -8    4.37    0.38
  -3  -4   8    3.49    0.52
   2   4  -8   12.47    0.75
   2   4  -8   14.17    0.79
   2   4  -8   13.72    0.73
  -2  -4   8   12.79    0.83
   1   4  -8    0.43    0.14
   1   4  -8    0.19    0.15
   0   4  -8    0.29    0.13
   0   4  -8    0.19    0.15
   0   4  -8    0.40    0.15
   0   4  -8    0.32    0.23
   0   4  -8    0.52    0.16
  -1   4  -8    2.89    0.29
  -1   4  -8    3.12    0.29
  -1   4  -8    2.91    0.40
  -1   4  -8    3.90    0.32
  -2   4  -8   42.65    2.09
  -2   4  -8   41.78    2.08
  -2   4  -8   38.53    2.08
  -2   4  -8   40.71    2.13
  -3   4  -8    2.33    0.35
  -3   4  -8    2.52    0.38
  -3   4  -8    2.40    0.28
  -3   4  -8    3.43    0.33
  -4   4  -8    0.63    0.31
  -4   4  -8    0.19    0.22
  -5   4  -8    1.18    0.36
  -5   4  -8    0.76    0.29
  -5   4  -8    0.58    0.28
  -6   4  -8    1.12    0.40
  -7   4  -8    2.94    0.52
  -7   4  -8    2.84    0.48
  -8   4  -8    4.07    0.60
  -8   4  -8    5.13    0.65
  10   3  -8    1.89    0.49
  10   3  -8    0.61    0.38
 -10  -3   8    0.16    0.57
   9   3  -8   -0.29    0.36
   9   3  -8   -0.61    0.30
  -9  -3   8   -1.09    0.42
   8   3  -8    3.93    0.51
   8   3  -8    3.68    0.66
  -8  -3   8    2.46    0.57
  -8  -3   8    4.13    0.46
   7   3  -8    0.77    0.25
   7   3  -8    0.51    0.34
  -7  -3   8    0.27    0.39
  -7  -3   8    0.58    0.29
   6   3  -8    6.84    0.49
   6   3  -8    5.85    0.63
   6   3  -8    5.49    0.53
  -6  -3   8    4.44    0.58
  -6  -3   8    6.20    0.49
   5   3  -8    1.34    0.31
   5   3  -8    1.63    0.24
   5   3  -8    1.59    0.25
  -5  -3   8    1.75    0.23
  -5  -3   8    0.88    0.26
   4   3  -8    9.63    0.57
   4   3  -8    9.40    0.55
   4   3  -8    9.14    0.64
  -4  -3   8    6.75    0.71
  -4  -3   8    9.23    0.51
  -4  -3   8    7.04    0.52
   3   3  -8    3.04    0.40
   3   3  -8    2.73    0.28
   3   3  -8    2.43    0.29
  -3  -3   8    2.06    0.34
   2   3  -8    2.48    0.26
   2   3  -8    2.23    0.34
  -2  -3   8    2.43    0.38
   1   3  -8   10.69    0.62
   1   3  -8   11.08    0.60
   1   3  -8   11.00    0.59
  -1  -3   8    9.45    0.63
   0   3  -8   23.56    1.17
   0   3  -8   20.68    1.15
   0   3  -8   22.18    1.15
   0   3  -8   23.62    1.16
   0   3  -8   22.61    1.22
  -1   3  -8   15.09    0.83
  -1   3  -8   15.78    0.89
  -1   3  -8   15.57    0.83
  -1   3  -8   15.70    0.83
  -2   3  -8    9.51    0.65
  -2   3  -8    9.85    0.60
  -2   3  -8   10.31    0.60
  -2   3  -8   10.67    0.59
  -3   3  -8    0.73    0.20
  -3   3  -8    1.01    0.18
  -3   3  -8    1.02    0.20
  -3   3  -8    0.71    0.24
   3  -3   8    0.39    0.19
  -4   3  -8    5.44    0.52
  -4   3  -8    4.03    0.45
  -4   3  -8    5.89    0.43
  -5   3  -8   10.97    0.76
  -5   3  -8    9.60    0.72
  -5   3  -8   10.89    0.68
  -6   3  -8    1.06    0.32
  -6   3  -8    1.10    0.35
   6  -3   8    0.57    0.22
  -7   3  -8    7.48    0.73
  -7   3  -8    6.68    0.75
   7  -3   8    7.82    0.62
  -8   3  -8   -0.33    0.44
  -8   3  -8    0.78    0.42
  -9   3  -8   10.75    1.05
  -9   3  -8   11.61    1.08
  10   2  -8    3.10    0.43
  10   2  -8    2.64    0.49
 -10  -2   8    2.92    0.60
   9   2  -8    1.65    0.34
   9   2  -8    1.53    0.42
  -9  -2   8    1.52    0.47
   8   2  -8    0.15    0.27
   8   2  -8   -0.38    0.33
  -8  -2   8   -0.20    0.52
  -8  -2   8    0.32    0.32
   7   2  -8   27.65    1.58
   7   2  -8   26.88    1.47
  -7  -2   8   27.44    1.49
  -7  -2   8   27.64    1.43
  -7  -2   8   26.26    1.51
   6   2  -8    4.19    0.45
   6   2  -8    4.31    0.59
   6   2  -8    3.87    0.43
  -6  -2   8    4.45    0.46
  -6  -2   8    3.78    0.50
  -6  -2   8    4.66    0.34
   5   2  -8   24.95    1.36
   5   2  -8   25.73    1.35
   5   2  -8   24.79    1.42
  -5  -2   8   26.05    1.36
  -5  -2   8   25.59    1.34
   4   2  -8    0.43    0.16
   4   2  -8    0.27    0.16
   4   2  -8    0.10    0.22
  -4  -2   8    0.25    0.20
  -4  -2   8   -0.25    0.27
  -4  -2   8    0.37    0.17
   3   2  -8   24.59    1.27
   3   2  -8   23.34    1.31
   3   2  -8   24.58    1.28
  -3  -2   8   24.73    1.26
  -3  -2   8   24.90    1.25
   2   2  -8    0.24    0.14
   2   2  -8    0.21    0.13
   2   2  -8    0.11    0.17
  -2  -2   8    0.19    0.11
  -2  -2   8   -0.02    0.20
  -2  -2   8    0.09    0.14
   1   2  -8  108.56    5.47
   1   2  -8  118.58    5.47
   1   2  -8  118.18    5.47
  -1  -2   8  102.57    5.44
  -1  -2   8  105.50    5.48
   0   2  -8    0.40    0.13
   0   2  -8    0.20    0.12
   0   2  -8    0.32    0.11
   0   2  -8    0.13    0.16
   0  -2   8    0.29    0.12
  -1   2  -8    5.90    0.38
  -1   2  -8    6.48    0.39
  -1   2  -8    6.31    0.39
  -1   2  -8    5.93    0.44
   1  -2   8    5.41    0.33
  -2   2  -8    0.00    0.14
  -2   2  -8    0.08    0.13
  -2   2  -8    0.12    0.16
  -2   2  -8   -0.01    0.13
   2  -2   8    0.23    0.18
   2  -2   8    0.04    0.10
  -3   2  -8   38.67    1.90
  -3   2  -8   38.44    1.90
  -3   2  -8   38.01    1.88
  -3   2  -8   38.63    1.93
   3  -2   8   34.20    1.86
   3  -2   8   35.95    1.92
   3  -2   8   35.93    1.85
  -4   2  -8   24.68    1.32
  -4   2  -8   26.47    1.31
  -4   2  -8   25.24    1.33
  -4   2  -8   24.94    1.35
   4  -2   8   24.46    1.28
   4  -2   8   22.96    1.27
  -5   2  -8    9.99    0.69
  -5   2  -8   10.39    0.61
  -5   2  -8    8.61    0.64
  -5   2  -8    8.12    0.61
   5  -2   8    9.23    0.60
   5  -2   8    9.01    0.57
  -6   2  -8    0.78    0.32
  -6   2  -8    0.28    0.32
  -6   2  -8   -0.18    0.25
   6  -2   8    0.64    0.25
   6  -2   8    0.39    0.26
  -7   2  -8    8.93    0.76
  -7   2  -8    9.39    0.73
   7  -2   8    8.61    0.71
   7  -2   8    9.46    0.71
  -8   2  -8   13.88    1.04
  -8   2  -8   15.97    1.07
   8  -2   8   14.89    1.01
  -9   2  -8    2.80    0.52
  -9   2  -8    2.54    0.50
  10   1  -8    0.35    0.41
 -10  -1   8   -0.77    0.48
   9   1  -8   13.55    1.03
   9   1  -8   13.13    0.88
  -9  -1   8   13.34    1.01
   8   1  -8    4.14    0.48
   8   1  -8    4.89    0.65
  -8  -1   8    4.96    0.66
  -8  -1   8    4.31    0.61
   7   1  -8    7.92    0.74
   7   1  -8    7.71    0.59
  -7  -1   8    8.20    0.66
  -7  -1   8    8.70    0.72
   6   1  -8    2.83    0.41
   6   1  -8    3.98    0.38
   6   1  -8    2.90    0.36
  -6  -1   8    3.12    0.38
  -6  -1   8    3.44    0.39
  -6  -1   8    3.40    0.36
  -6  -1   8    1.95    0.42
   5   1  -8    4.55    0.41
   5   1  -8    4.93    0.54
   5   1  -8    5.05    0.42
  -5  -1   8    5.09    0.48
  -5  -1   8    4.38    0.58
  -5  -1   8    5.39    0.36
  -5  -1   8    4.97    0.43
  -5  -1   8    5.59    0.38
   4   1  -8   16.91    0.92
   4   1  -8   15.83    0.98
   4   1  -8   17.08    0.92
  -4  -1   8   17.23    0.92
  -4  -1   8   17.46    0.92
  -4  -1   8   16.69    0.85
  -4  -1   8   15.38    1.02
   3   1  -8    8.77    0.51
   3   1  -8    8.46    0.51
   3   1  -8    7.81    0.57
  -3  -1   8    8.43    0.53
  -3  -1   8    8.71    0.51
  -3  -1   8    8.10    0.62
   2   1  -8   37.60    2.06
   2   1  -8   41.00    2.05
   2   1  -8   41.70    2.04
  -2  -1   8   41.16    2.03
  -2  -1   8   40.46    2.03
  -2  -1   8   40.48    2.09
   1   1  -8    4.61    0.27
   1   1  -8    4.09    0.37
   1   1  -8    3.54    0.33
   1   1  -8    4.79    0.32
  -1  -1   8    4.43    0.38
  -1  -1   8    4.06    0.30
  -1  -1   8    4.55    0.30
   0   1  -8   18.81    0.94
   0   1  -8   18.39    0.94
   0   1  -8   17.73    0.97
   0   1  -8   17.49    0.93
   0  -1   8   17.32    0.92
   0  -1   8   17.63    0.94
   0  -1   8   17.51    0.92
  -1   1  -8    4.46    0.39
  -1   1  -8    4.91    0.33
  -1   1  -8    4.56    0.36
  -1   1  -8    5.15    0.34
   1  -1   8    4.65    0.31
   1  -1   8    4.58    0.32
  -2   1  -8   29.70    1.58
  -2   1  -8   31.21    1.55
  -2   1  -8   30.93    1.56
  -2   1  -8   30.00    1.58
   2  -1   8   28.52    1.53
   2  -1   8   31.37    1.54
  -3   1  -8    1.12    0.17
  -3   1  -8    1.61    0.24
  -3   1  -8    1.17    0.19
  -3   1  -8    1.08    0.18
   3  -1   8    0.77    0.19
   3  -1   8    0.86    0.16
   3  -1   8    0.92    0.17
  -4   1  -8    1.53    0.26
  -4   1  -8    1.31    0.19
  -4   1  -8    0.66    0.19
  -4   1  -8    1.06    0.21
   4  -1   8    0.82    0.19
   4  -1   8    1.41    0.25
  -5   1  -8    1.29    0.21
  -5   1  -8    0.35    0.20
  -5   1  -8    0.64    0.24
  -5   1  -8    0.67    0.25
   5  -1   8    0.70    0.22
   5  -1   8    0.79    0.21
  -6   1  -8   28.77    1.53
  -6   1  -8   30.67    1.49
  -6   1  -8   28.05    1.60
  -6   1  -8   25.79    1.59
   6  -1   8   27.17    1.48
   6  -1   8   27.99    1.49
   6  -1   8   26.54    1.47
  -7   1  -8    3.40    0.44
  -7   1  -8    3.26    0.40
   7  -1   8    2.09    0.35
   7  -1   8    3.27    0.40
   7  -1   8    2.38    0.36
  -8   1  -8   -0.17    0.31
  -8   1  -8    0.36    0.37
   8  -1   8   -0.32    0.46
   8  -1   8    0.08    0.35
   8  -1   8   -0.06    0.35
  -9   1  -8    0.78    0.43
  -9   1  -8    1.19    0.39
   9  -1   8    1.18    0.43
  10   0  -8   20.16    1.33
  10   0  -8   18.59    1.21
 -10   0   8   21.30    1.38
   9   0  -8    1.06    0.36
   9   0  -8    0.29    0.31
  -9   0   8    0.40    0.41
   8   0  -8    0.02    0.33
   8   0  -8    0.30    0.27
  -8   0   8    0.10    0.34
  -8   0   8    0.38    0.33
   7   0  -8    0.06    0.30
   7   0  -8    0.16    0.22
  -7   0   8    0.58    0.27
  -7   0   8    0.40    0.28
   6   0  -8   23.05    1.24
   6   0  -8   21.61    1.31
   6   0  -8   23.11    1.22
  -6   0   8   24.20    1.25
  -6   0   8   18.86    1.37
  -6   0   8   22.62    1.25
   5   0  -8    1.06    0.20
   5   0  -8    1.44    0.23
   5   0  -8    0.89    0.29
  -5   0   8    0.89    0.30
  -5   0   8    1.39    0.20
  -5   0   8    1.45    0.26
  -5   0   8    1.18    0.24
   4   0  -8   10.52    0.63
   4   0  -8   10.43    0.62
   4   0  -8    9.54    0.70
  -4   0   8   11.15    0.60
  -4   0   8   10.51    0.64
  -4   0   8   10.79    0.76
  -4   0   8   10.73    0.64
   3   0  -8    0.14    0.12
   3   0  -8   -0.31    0.16
   3   0  -8    0.17    0.14
  -3   0   8   -0.11    0.13
  -3   0   8   -0.01    0.10
  -3   0   8    0.05    0.23
  -3   0   8    0.08    0.14
   2   0  -8   19.45    1.16
   2   0  -8   21.89    1.14
   2   0  -8   22.54    1.14
  -2   0   8   21.17    1.14
  -2   0   8   24.74    1.20
  -2   0   8   21.13    1.13
   1   0  -8    9.74    0.56
   1   0  -8    9.57    0.56
   1   0  -8    9.44    0.53
  -1   0   8   11.22    0.61
  -1   0   8    9.20    0.53
  -1   0   8    9.43    0.55
  -1   0   8    9.13    0.55
   0   0  -8   27.14    1.41
   0   0  -8   27.17    1.42
   0   0  -8   26.80    1.40
   0   0   8   26.31    1.40
   0   0   8   27.51    1.39
   0   0   8   29.80    1.41
   0   0   8   26.92    1.39
  -1   0  -8    6.02    0.42
  -1   0  -8    6.14    0.40
  -1   0  -8    6.08    0.40
  -1   0  -8    6.08    0.41
   1   0   8    5.72    0.39
   1   0   8    6.20    0.39
   1   0   8    6.98    0.42
   1   0   8    6.46    0.38
  -2   0  -8    4.58    0.33
  -2   0  -8    5.13    0.37
  -2   0  -8    4.39    0.33
  -2   0  -8    4.24    0.34
   2   0   8    4.23    0.32
   2   0   8    5.10    0.37
   2   0   8    4.48    0.34
   2   0   8    4.25    0.33
  -3   0  -8   13.92    0.81
  -3   0  -8   14.06    0.79
  -3   0  -8   14.10    0.79
  -3   0  -8   14.94    0.78
   3   0   8   13.96    0.79
   3   0   8   13.26    0.77
  -4   0  -8    6.21    0.39
  -4   0  -8    5.50    0.47
  -4   0  -8    5.24    0.42
  -4   0  -8    5.25    0.42
   4   0   8    6.79    0.46
   4   0   8    5.42    0.42
   4   0   8    5.01    0.40
   4   0   8    4.91    0.41
  -5   0  -8   26.84    1.48
  -5   0  -8   27.89    1.49
  -5   0  -8   28.41    1.50
  -5   0  -8   29.04    1.45
   5   0   8   26.61    1.48
   5   0   8   28.29    1.46
   5   0   8   27.01    1.45
  -6   0  -8    6.47    0.44
  -6   0  -8    5.66    0.54
  -6   0  -8    5.72    0.51
   6   0   8    5.44    0.51
   6   0   8    5.98    0.59
   6   0   8    5.02    0.49
  -7   0  -8    1.90    0.36
  -7   0  -8    1.86    0.32
   7   0   8    2.16    0.39
   7   0   8    2.05    0.37
   7   0   8    1.81    0.32
  -8   0  -8    0.64    0.36
  -8   0  -8   -0.19    0.30
   8   0   8   -0.14    0.31
   8   0   8   -0.08    0.41
  -9   0  -8    3.17    0.49
  -9   0  -8    3.16    0.45
   9   0   8    3.52    0.48
   9   0   8    3.33    0.58
 -10   0  -8    0.34    0.39
 -10   0  -8   -0.16    0.41
  10   0   8   -0.27    0.48
  10  -1  -8   -0.30    0.37
 -10   1   8    1.04    0.50
   9  -1  -8    0.67    0.33
   9  -1  -8    1.94    0.43
  -9   1   8    1.79    0.45
   8  -1  -8    3.07    0.37
   8  -1  -8    3.49    0.63
  -8   1   8    3.56    0.45
   7  -1  -8   10.10    0.84
   7  -1  -8   11.21    0.72
  -7   1   8   11.69    0.78
   6  -1  -8    0.41    0.27
   6  -1  -8    0.18    0.20
   6  -1  -8    0.08    0.22
  -6   1   8    0.24    0.24
  -6   1   8    0.13    0.25
   5  -1  -8    9.08    0.69
   5  -1  -8    9.19    0.59
   5  -1  -8    8.60    0.69
   5  -1  -8    9.26    0.60
  -5   1   8    8.62    0.71
  -5   1   8    9.51    0.62
  -5   1   8    9.25    0.61
  -5   1   8    9.64    0.61
   4  -1  -8    1.69    0.23
   4  -1  -8    1.22    0.26
   4  -1  -8    1.84    0.23
  -4   1   8    1.60    0.23
  -4   1   8    1.54    0.30
  -4   1   8    2.01    0.28
  -4   1   8    1.93    0.23
   3  -1  -8   69.03    3.45
   3  -1  -8   67.56    3.46
  -3   1   8   69.26    3.44
  -3   1   8   69.18    3.46
  -3   1   8   71.87    3.50
  -3   1   8   67.33    3.44
   2  -1  -8    5.50    0.37
   2  -1  -8    4.81    0.35
  -2   1   8    5.23    0.36
  -2   1   8    5.14    0.37
  -2   1   8    5.78    0.73
  -2   1   8    4.72    0.34
   1  -1  -8   44.52    2.29
   1  -1  -8   47.22    2.30
   1  -1  -8   46.26    2.30
  -1   1   8   45.47    2.30
  -1   1   8   42.79    2.31
  -1   1   8   44.59    2.28
  -1   1   8   48.41    2.32
   0  -1  -8    1.10    0.16
   0  -1  -8    1.02    0.15
   0  -1  -8    0.92    0.14
   0  -1  -8    1.11    0.16
   0   1   8    0.90    0.14
   0   1   8    1.03    0.15
   0   1   8    0.80    0.17
   0   1   8    0.86    0.16
  -1  -1  -8    0.13    0.12
  -1  -1  -8    0.16    0.11
  -1  -1  -8    0.24    0.11
  -1  -1  -8    0.11    0.12
   1   1   8    0.15    0.13
   1   1   8    0.24    0.13
   1   1   8    0.21    0.12
  -2  -1  -8   13.97    0.78
  -2  -1  -8   14.01    0.77
  -2  -1  -8   13.80    0.76
   2   1   8   12.85    0.78
   2   1   8   13.61    0.77
   2   1   8   15.86    0.78
   2   1   8   13.44    0.77
  -3  -1  -8   27.93    1.51
  -3  -1  -8   28.90    1.51
  -3  -1  -8   28.44    1.50
  -3  -1  -8   29.02    1.51
   3   1   8   29.04    1.51
   3   1   8   29.03    1.50
   3   1   8   31.60    1.52
   3   1   8   28.50    1.49
   3   1   8   28.78    1.49
  -4  -1  -8    1.99    0.25
  -4  -1  -8    2.05    0.29
  -4  -1  -8    2.43    0.25
  -4  -1  -8    2.32    0.28
   4   1   8    2.14    0.29
   4   1   8    2.87    0.31
   4   1   8    2.61    0.37
   4   1   8    1.98    0.25
   4   1   8    2.08    0.29
  -5  -1  -8   16.81    0.97
  -5  -1  -8   17.06    0.94
  -5  -1  -8   17.38    1.00
  -5  -1  -8   17.13    0.98
   5   1   8   16.60    0.95
   5   1   8   17.48    0.97
   5   1   8   17.54    0.98
   5   1   8   17.81    0.98
  -6  -1  -8    7.74    0.57
  -6  -1  -8    6.42    0.53
  -6  -1  -8    7.03    0.59
   6   1   8    7.95    0.57
   6   1   8    8.53    0.57
   6   1   8    6.98    0.54
  -7  -1  -8    5.41    0.55
  -7  -1  -8    6.21    0.59
   7   1   8    6.18    0.69
   7   1   8    4.73    0.51
  -8  -1  -8    2.33    0.44
  -8  -1  -8    1.73    0.36
   8   1   8    1.99    0.46
   8   1   8    1.80    0.34
  -9  -1  -8    2.44    0.47
  -9  -1  -8    2.95    0.43
   9   1   8    3.22    0.58
   9   1   8    2.32    0.42
 -10  -1  -8    1.01    0.44
 -10  -1  -8    0.15    0.37
  10   1   8   -0.16    0.45
  10   1   8   -0.13    0.63
  10  -2  -8    0.69    0.45
 -10   2   8    1.41    0.51
   9  -2  -8    3.24    0.47
  -9   2   8    2.95    0.49
   8  -2  -8    0.78    0.32
  -8   2   8    0.82    0.36
   7  -2  -8    0.18    0.26
  -7   2   8    0.15    0.28
   6  -2  -8   -0.06    0.23
   6  -2  -8    0.21    0.22
  -6   2   8    0.12    0.25
   5  -2  -8   -0.08    0.17
   5  -2  -8   -0.02    0.19
   5  -2  -8   -0.10    0.18
  -5   2   8   -0.02    0.20
  -5   2   8   -0.03    0.25
  -5   2   8   -0.24    0.17
  -5   2   8   -0.02    0.21
   4  -2  -8   25.32    1.36
   4  -2  -8   25.51    1.36
  -4   2   8   26.05    1.37
  -4   2   8   26.66    1.36
  -4   2   8   25.35    1.42
  -4   2   8   24.65    1.34
   3  -2  -8    7.56    0.49
   3  -2  -8    7.97    0.49
  -3   2   8    8.56    0.58
  -3   2   8    7.08    0.49
  -3   2   8    6.80    0.49
  -3   2   8    6.73    0.47
   2  -2  -8    0.88    0.17
   2  -2  -8    1.08    0.18
  -2   2   8    0.88    0.22
  -2   2   8    1.02    0.16
  -2   2   8    0.68    0.15
  -2   2   8    0.80    0.16
   1  -2  -8    0.76    0.16
   1  -2  -8    0.79    0.14
   1  -2  -8    0.77    0.16
  -1   2   8    0.63    0.15
  -1   2   8    0.87    0.20
  -1   2   8    0.63    0.14
  -1   2   8    0.64    0.14
   0  -2  -8    8.39    0.52
   0  -2  -8    8.58    0.51
   0  -2  -8    8.62    0.52
   0  -2  -8    8.85    0.52
   0   2   8    8.82    0.52
   0   2   8    8.54    0.52
   0   2   8    8.56    0.51
  -1  -2  -8    7.96    0.49
  -1  -2  -8    8.33    0.51
  -1  -2  -8    8.74    0.51
  -1  -2  -8    8.66    0.52
   1   2   8    8.78    0.52
   1   2   8    7.61    0.48
   1   2   8    8.07    0.50
  -2  -2  -8   37.99    1.96
  -2  -2  -8   39.04    1.95
  -2  -2  -8   38.43    1.95
  -2  -2  -8   38.67    1.94
   2   2   8   38.27    1.95
   2   2   8   37.28    1.94
   2   2   8   37.51    1.94
  -3  -2  -8   29.69    1.57
  -3  -2  -8   30.28    1.56
  -3  -2  -8   30.61    1.58
  -3  -2  -8   31.19    1.56
   3   2   8   29.31    1.57
   3   2   8   29.23    1.55
   3   2   8   32.80    1.58
   3   2   8   29.38    1.56
   3   2   8   29.06    1.56
  -4  -2  -8    0.40    0.16
  -4  -2  -8    0.81    0.20
  -4  -2  -8    0.46    0.15
   4   2   8    0.31    0.15
   4   2   8    0.66    0.19
   4   2   8    0.43    0.18
  -5  -2  -8    1.24    0.22
  -5  -2  -8    1.03    0.24
  -5  -2  -8    1.06    0.21
  -5  -2  -8    1.34    0.24
   5   2   8    1.51    0.26
   5   2   8    0.99    0.21
  -6  -2  -8   10.65    0.75
  -6  -2  -8   11.61    0.74
   6   2   8   10.38    0.72
   6   2   8   11.94    0.78
   6   2   8   10.74    0.72
   6   2   8   12.09    0.75
  -7  -2  -8    0.09    0.24
  -7  -2  -8    0.31    0.40
   7   2   8    1.31    0.34
   7   2   8    0.41    0.29
  -8  -2  -8    6.33    0.63
  -8  -2  -8    6.55    0.70
   8   2   8    6.81    0.62
   8   2   8    8.65    0.83
  -9  -2  -8    0.66    0.32
  -9  -2  -8    0.31    0.37
   9   2   8    1.15    0.51
   9   2   8    1.28    0.35
 -10  -2  -8    2.35    0.50
 -10  -2  -8    2.26    0.44
  10   2   8    1.91    0.46
  10   2   8    1.99    0.66
   9  -3  -8    0.26    0.42
  -9   3   8    1.09    0.43
   8  -3  -8    0.61    0.35
  -8   3   8    0.60    0.37
   7  -3  -8    1.00    0.32
  -7   3   8    0.97    0.33
   6  -3  -8   32.07    1.80
   6  -3  -8   33.65    1.81
  -6   3   8   36.10    1.85
   5  -3  -8    5.06    0.46
   5  -3  -8    5.30    0.47
   5  -3  -8    5.60    0.47
  -5   3   8    4.94    0.47
  -5   3   8    5.34    0.54
   4  -3  -8   24.12    1.35
   4  -3  -8   25.92    1.34
   4  -3  -8   25.96    1.36
  -4   3   8   26.03    1.36
  -4   3   8   25.50    1.37
  -4   3   8   24.49    1.41
   3  -3  -8    1.75    0.23
   3  -3  -8    1.97    0.27
  -3   3   8    1.63    0.22
  -3   3   8    1.39    0.27
  -3   3   8    1.33    0.22
  -3   3   8    1.48    0.21
   2  -3  -8    4.43    0.36
   2  -3  -8    4.79    0.34
  -2   3   8    4.21    0.36
  -2   3   8    4.36    0.37
  -2   3   8    4.05    0.35
  -2   3   8    4.83    0.45
   1  -3  -8    0.91    0.17
   1  -3  -8    0.81    0.16
   1  -3  -8    0.92    0.17
  -1   3   8    0.68    0.16
  -1   3   8    0.72    0.16
  -1   3   8    0.78    0.17
   0  -3  -8   46.67    2.26
   0  -3  -8   44.70    2.28
   0  -3  -8   45.24    2.28
   0   3   8   45.33    2.29
   0   3   8   44.02    2.27
   0   3   8   44.09    2.28
  -1  -3  -8    3.35    0.28
  -1  -3  -8    3.39    0.30
  -1  -3  -8    3.54    0.32
  -1  -3  -8    3.42    0.29
   1   3   8    3.54    0.31
   1   3   8    3.51    0.29
   1   3   8    3.30    0.34
  -2  -3  -8    5.89    0.40
  -2  -3  -8    5.98    0.39
  -2  -3  -8    6.29    0.40
  -2  -3  -8    5.69    0.42
   2   3   8    5.58    0.39
   2   3   8    5.29    0.40
   2   3   8    5.90    0.44
   2   3   8    5.54    0.38
  -3  -3  -8    7.52    0.48
  -3  -3  -8    7.80    0.48
  -3  -3  -8    6.90    0.48
  -3  -3  -8    6.86    0.46
   3   3   8    6.48    0.45
   3   3   8    7.46    0.46
   3   3   8    7.90    0.52
   3   3   8    6.64    0.51
   3   3   8    6.64    0.47
  -4  -3  -8   44.85    2.30
  -4  -3  -8   46.87    2.31
  -4  -3  -8   45.15    2.33
   4   3   8   45.07    2.30
   4   3   8   43.01    2.30
   4   3   8   44.80    2.30
   4   3   8   45.51    2.33
   4   3   8   45.96    2.32
  -5  -3  -8   27.88    1.48
  -5  -3  -8   28.00    1.46
  -5  -3  -8   27.27    1.50
   5   3   8   27.24    1.46
   5   3   8   28.37    1.51
   5   3   8   28.79    1.50
   5   3   8   27.15    1.47
   5   3   8   26.78    1.47
  -6  -3  -8    0.53    0.19
  -6  -3  -8    0.53    0.25
  -6  -3  -8   -0.13    0.20
   6   3   8    0.16    0.24
   6   3   8   -0.18    0.26
   6   3   8    0.10    0.20
   6   3   8    0.39    0.28
   6   3   8    0.13    0.22
  -7  -3  -8   15.64    1.04
  -7  -3  -8   15.48    0.98
   7   3   8   17.56    1.06
   7   3   8   15.42    0.96
  -8  -3  -8    1.10    0.36
  -8  -3  -8    0.79    0.32
   8   3   8    1.65    0.33
   8   3   8    1.89    0.43
  -9  -3  -8   13.76    1.01
  -9  -3  -8   13.59    0.96
   9   3   8   14.02    0.94
 -10  -3  -8    3.50    0.53
 -10  -3  -8    4.90    0.62
  10   3   8    3.49    0.48
  10   3   8    3.91    0.74
   9  -4  -8    0.56    0.50
  -9   4   8    1.38    0.45
   8  -4  -8   -0.18    0.38
  -8   4   8   -0.33    0.35
   7  -4  -8    7.90    0.70
  -7   4   8    8.08    0.71
   6  -4  -8   15.34    0.97
   6  -4  -8   14.45    0.95
  -6   4   8   16.34    0.98
  -6   4   8   16.42    1.05
   5  -4  -8   -0.04    0.24
   5  -4  -8    0.19    0.22
   5  -4  -8    0.19    0.24
  -5   4   8    0.08    0.25
  -5   4   8    0.16    0.23
   4  -4  -8    0.79    0.23
   4  -4  -8    0.84    0.21
   4  -4  -8    0.84    0.23
  -4   4   8    0.58    0.20
  -4   4   8    1.07    0.24
  -4   4   8    0.55    0.23
   3  -4  -8    4.85    0.41
   3  -4  -8    5.53    0.43
   3  -4  -8    5.02    0.37
  -3   4   8    3.95    0.37
  -3   4   8    5.32    0.50
  -3   4   8    5.23    0.46
  -3   4   8    4.53    0.41
   2  -4  -8    1.92    0.23
   2  -4  -8    1.80    0.23
  -2   4   8    1.78    0.23
  -2   4   8    1.86    0.21
  -2   4   8    1.63    0.23
  -2   4   8    1.65    0.25
   1  -4  -8   46.41    2.30
   1  -4  -8   45.24    2.31
   1  -4  -8   46.59    2.33
  -1   4   8   45.34    2.31
  -1   4   8   42.79    2.29
  -1   4   8   46.05    2.33
   0  -4  -8    2.97    0.24
   0  -4  -8    2.67    0.30
   0  -4  -8    3.11    0.29
   0  -4  -8    2.57    0.30
   0   4   8    3.02    0.33
   0   4   8    2.86    0.27
   0   4   8    2.72    0.30
  -1  -4  -8    2.46    0.30
  -1  -4  -8    2.21    0.28
  -1  -4  -8    2.32    0.28
  -1  -4  -8    2.60    0.24
   1   4   8    2.34    0.33
   1   4   8    2.41    0.29
   1   4   8    2.71    0.26
  -2  -4  -8    0.06    0.13
  -2  -4  -8    0.31    0.15
  -2  -4  -8    0.15    0.14
  -2  -4  -8    0.22    0.13
   2   4   8    0.04    0.12
   2   4   8    0.15    0.16
   2   4   8    0.14    0.13
   2   4   8   -0.06    0.14
  -3  -4  -8   77.75    3.78
  -3  -4  -8   75.34    3.78
  -3  -4  -8   73.21    3.81
  -3  -4  -8   77.80    3.76
   3   4   8   70.17    3.81
   3   4   8   77.90    3.80
   3   4   8   76.14    3.78
  -4  -4  -8    0.19    0.18
  -4  -4  -8   -0.14    0.14
  -4  -4  -8    0.02    0.17
  -4  -4  -8    0.00    0.16
   4   4   8   -0.19    0.18
   4   4   8    0.19    0.21
   4   4   8    0.14    0.17
   4   4   8    0.21    0.20
   4   4   8    0.30    0.16
  -5  -4  -8    6.98    0.51
  -5  -4  -8    6.60    0.50
  -5  -4  -8    6.25    0.51
   5   4   8    6.51    0.56
   5   4   8    6.70    0.60
   5   4   8    6.51    0.50
   5   4   8    6.39    0.51
  -6  -4  -8    3.42    0.47
  -6  -4  -8    4.18    0.47
  -6  -4  -8    3.88    0.44
   6   4   8    4.00    0.49
   6   4   8    3.60    0.49
   6   4   8    4.34    0.55
   6   4   8    3.26    0.45
  -7  -4  -8   12.73    0.83
  -7  -4  -8   11.78    0.83
   7   4   8   11.86    0.80
   7   4   8   13.39    0.95
   7   4   8   12.14    0.86
  -8  -4  -8   11.35    0.83
  -8  -4  -8   10.63    0.80
   8   4   8   10.31    0.77
   8   4   8   12.02    0.96
  -9  -4  -8   10.00    0.81
  -9  -4  -8    8.17    0.75
   9   4   8    6.36    0.68
   9   4   8    8.29    0.99
 -10  -4  -8    0.26    0.45
 -10  -4  -8   -0.17    0.41
  10   4   8    0.48    0.36
  10   4   8    0.41    0.61
   9  -5  -8    1.89    0.67
  -9   5   8    2.29    0.70
  -9   5   8    2.63    0.52
   8  -5  -8   -0.14    0.50
  -8   5   8    0.60    0.42
  -8   5   8    0.53    0.52
   7  -5  -8    0.99    0.43
  -7   5   8    1.96    0.40
  -7   5   8    1.58    0.47
   6  -5  -8    1.05    0.35
   6  -5  -8    1.80    0.37
  -6   5   8    1.94    0.36
   5  -5  -8   18.80    1.12
   5  -5  -8   21.83    1.19
   5  -5  -8   19.13    1.17
  -5   5   8   21.19    1.24
  -5   5   8   20.91    1.21
   4  -5  -8    3.44    0.36
   4  -5  -8    3.78    0.45
   4  -5  -8    3.19    0.45
  -4   5   8    3.31    0.42
  -4   5   8    4.31    0.51
   3  -5  -8   23.00    1.21
   3  -5  -8   22.07    1.16
   3  -5  -8   22.36    1.22
  -3   5   8   22.75    1.22
  -3   5   8   20.40    1.18
  -3   5   8   22.36    1.26
  -3   5   8   22.81    1.32
   2  -5  -8   39.75    1.98
   2  -5  -8   37.72    1.92
   2  -5  -8   39.95    1.97
  -2   5   8   39.72    1.98
  -2   5   8   40.05    2.02
  -2   5   8   36.44    1.96
  -2   5   8   34.47    2.01
   1  -5  -8    0.18    0.16
   1  -5  -8    0.05    0.11
   1  -5  -8   -0.16    0.16
  -1   5   8   -0.11    0.16
  -1   5   8   -0.06    0.13
  -1   5   8   -0.15    0.16
   0  -5  -8   18.68    1.05
   0  -5  -8   18.91    1.01
   0  -5  -8   19.16    1.01
   0  -5  -8   18.73    0.95
   0   5   8   18.86    1.01
   0   5   8   18.65    1.05
   0   5   8   17.11    0.99
  -1  -5  -8   26.00    1.40
  -1  -5  -8   26.82    1.37
  -1  -5  -8   25.83    1.37
  -1  -5  -8   25.97    1.32
   1   5   8   25.99    1.38
   1   5   8   25.67    1.36
   1   5   8   26.29    1.41
  -2  -5  -8   31.13    1.55
  -2  -5  -8   30.09    1.59
  -2  -5  -8   31.87    1.59
  -2  -5  -8   30.89    1.63
   2   5   8   31.29    1.63
   2   5   8   29.74    1.59
   2   5   8   29.20    1.58
  -3  -5  -8    0.89    0.18
  -3  -5  -8    0.82    0.19
  -3  -5  -8    0.86    0.22
   3   5   8    0.86    0.23
   3   5   8    0.77    0.16
   3   5   8    0.97    0.21
   3   5   8    0.75    0.17
  -4  -5  -8    0.41    0.20
  -4  -5  -8    0.50    0.20
  -4  -5  -8    0.35    0.20
  -4  -5  -8    0.77    0.19
   4   5   8    0.46    0.24
   4   5   8    0.65    0.16
   4   5   8    0.45    0.27
   4   5   8    0.67    0.19
   4   5   8    0.27    0.21
  -5  -5  -8    1.37    0.27
  -5  -5  -8    1.52    0.27
  -5  -5  -8    1.74    0.28
   5   5   8    1.84    0.31
   5   5   8    1.65    0.28
   5   5   8    1.33    0.25
   5   5   8    1.74    0.36
  -6  -5  -8   36.64    1.96
  -6  -5  -8   35.27    1.96
  -6  -5  -8   37.59    1.95
   6   5   8   36.26    1.95
   6   5   8   38.00    1.98
   6   5   8   38.35    2.03
   6   5   8   36.56    1.95
  -7  -5  -8    0.19    0.27
  -7  -5  -8    0.30    0.28
   7   5   8    0.47    0.29
   7   5   8    0.30    0.26
   7   5   8    0.73    0.38
   7   5   8   -0.03    0.34
  -8  -5  -8    1.27    0.33
  -8  -5  -8    1.48    0.38
   8   5   8    0.31    0.32
   8   5   8    1.07    0.31
   8   5   8    1.50    0.47
  -9  -5  -8    0.67    0.41
  -9  -5  -8    0.61    0.37
   9   5   8    0.24    0.31
   9   5   8    0.18    0.50
 -10  -5  -8    9.81    0.92
 -10  -5  -8    8.03    0.97
  10   5   8    9.54    0.81
  10   5   8    9.71    1.23
   8  -6  -8    0.37    0.61
  -8   6   8   -0.42    0.56
  -8   6   8    0.68    0.47
   7  -6  -8   -0.24    0.47
  -7   6   8    0.47    0.40
  -7   6   8    0.08    0.47
   6  -6  -8   10.72    0.82
   6  -6  -8   11.19    0.90
  -6   6   8   10.74    0.94
  -6   6   8   11.79    0.85
   5  -6  -8    0.47    0.34
   5  -6  -8    0.83    0.29
   5  -6  -8    0.71    0.35
  -5   6   8    0.27    0.62
  -5   6   8    0.58    0.30
   4  -6  -8    3.12    0.37
   4  -6  -8    3.32    0.39
  -4   6   8    2.26    0.32
  -4   6   8    4.48    0.55
  -4   6   8    3.36    0.46
   3  -6  -8   -0.18    0.15
   3  -6  -8    0.23    0.23
   3  -6  -8    0.13    0.24
  -3   6   8    0.01    0.24
  -3   6   8   -0.25    0.22
  -3   6   8   -0.30    0.20
   2  -6  -8   11.50    0.64
   2  -6  -8   12.05    0.73
   2  -6  -8   12.42    0.73
  -2   6   8   10.52    0.71
  -2   6   8   12.58    0.74
  -2   6   8   12.68    0.81
   1  -6  -8   11.03    0.57
   1  -6  -8   11.42    0.66
   1  -6  -8    9.87    0.56
   1  -6  -8   11.40    0.67
  -1   6   8   10.26    0.65
  -1   6   8   10.76    0.67
  -1   6   8   10.74    0.73
   0  -6  -8   27.23    1.39
   0  -6  -8   27.55    1.44
   0  -6  -8   25.26    1.31
   0  -6  -8   27.44    1.39
   0   6   8   25.04    1.39
   0   6   8   26.04    1.40
   0   6   8   26.79    1.45
  -1  -6  -8    1.79    0.23
  -1  -6  -8    1.90    0.23
  -1  -6  -8    1.55    0.24
  -1  -6  -8    1.87    0.22
   1   6   8    1.56    0.27
   1   6   8    1.90    0.22
   1   6   8    1.99    0.26
  -2  -6  -8   10.66    0.63
  -2  -6  -8   10.42    0.56
  -2  -6  -8   10.28    0.68
   2   6   8    9.08    0.60
   2   6   8    9.80    0.65
   2   6   8   10.11    0.70
  -3  -6  -8    4.16    0.33
  -3  -6  -8    4.10    0.45
  -3  -6  -8    3.48    0.38
  -3  -6  -8    3.20    0.40
   3   6   8    3.92    0.41
   3   6   8    3.78    0.32
   3   6   8    4.18    0.35
   3   6   8    4.02    0.48
  -4  -6  -8   11.50    0.76
  -4  -6  -8   12.95    0.72
  -4  -6  -8   12.90    0.76
   4   6   8   12.48    0.88
   4   6   8   12.42    0.73
   4   6   8   12.90    0.74
   4   6   8   12.62    0.82
   4   6   8   11.51    0.77
  -5  -6  -8   11.75    0.74
  -5  -6  -8   10.26    0.75
  -5  -6  -8   11.63    0.70
   5   6   8   11.88    0.80
   5   6   8   11.85    0.76
   5   6   8   11.88    0.86
   5   6   8   12.06    0.73
   5   6   8   10.14    0.70
  -6  -6  -8    4.11    0.55
  -6  -6  -8    4.61    0.49
  -6  -6  -8    4.64    0.48
   6   6   8    4.09    0.66
   6   6   8    4.17    0.53
   6   6   8    4.49    0.51
   6   6   8    4.09    0.55
  -7  -6  -8    3.22    0.40
  -7  -6  -8    2.99    0.38
   7   6   8    3.31    0.40
   7   6   8    3.24    0.41
   7   6   8    1.93    0.44
   7   6   8    3.03    0.60
  -8  -6  -8    1.74    0.37
  -8  -6  -8    1.77    0.41
   8   6   8    1.69    0.40
   8   6   8    1.83    0.51
   8   6   8    2.01    0.34
  -9  -6  -8   12.60    1.00
  -9  -6  -8   12.50    1.01
   9   6   8   14.07    1.23
   9   6   8   13.48    0.91
 -10  -6  -8    3.66    0.58
 -10  -6  -8    2.83    0.59
  10   6   8    2.95    0.71
  10   6   8    3.03    0.43
   8  -7  -8    2.63    0.80
  -8   7   8    2.34    0.70
   7  -7  -8   -0.06    0.60
  -7   7   8    1.18    0.54
  -7   7   8    1.50    0.48
   6  -7  -8    0.72    0.70
   6  -7  -8   -0.77    0.45
  -6   7   8   -0.05    0.43
  -6   7   8    0.45    0.39
   5  -7  -8    0.15    0.40
   5  -7  -8    0.15    0.38
   5  -7  -8    0.34    0.30
  -5   7   8    0.77    0.38
  -5   7   8    0.08    0.32
   4  -7  -8    0.59    0.33
   4  -7  -8    0.55    0.31
   4  -7  -8    0.37    0.22
  -4   7   8    0.54    0.34
   3  -7  -8   19.71    1.07
   3  -7  -8   21.79    1.17
   3  -7  -8   20.67    1.16
  -3   7   8   20.93    1.26
  -3   7   8   20.61    1.17
   2  -7  -8    0.21    0.22
   2  -7  -8    0.26    0.24
  -2   7   8   -0.01    0.25
  -2   7   8    0.23    0.24
  -2   7   8   -0.06    0.23
   1  -7  -8   12.02    0.69
   1  -7  -8   11.28    0.69
  -1   7   8   10.13    0.70
  -1   7   8   11.47    0.72
  -1   7   8   11.71    0.80
   0  -7  -8    0.98    0.22
   0  -7  -8    0.94    0.22
   0  -7  -8    1.10    0.22
   0   7   8    1.18    0.26
   0   7   8    0.71    0.21
   0   7   8    1.01    0.25
  -1  -7  -8   13.85    0.77
  -1  -7  -8   12.13    0.85
  -1  -7  -8   13.54    0.77
   1   7   8   13.84    0.88
   1   7   8   13.27    0.78
   1   7   8   13.74    0.82
  -2  -7  -8    1.03    0.22
  -2  -7  -8    1.27    0.23
  -2  -7  -8    0.90    0.16
   2   7   8    0.92    0.29
   2   7   8    1.35    0.26
   2   7   8    0.71    0.21
  -3  -7  -8   49.29    2.44
  -3  -7  -8   48.64    2.48
  -3  -7  -8   49.95    2.48
   3   7   8   49.38    2.55
   3   7   8   47.16    2.49
   3   7   8   48.48    2.44
   3   7   8   47.98    2.50
  -4  -7  -8    1.17    0.29
  -4  -7  -8    1.59    0.23
  -4  -7  -8    1.38    0.26
   4   7   8    0.95    0.28
   4   7   8    1.39    0.31
   4   7   8    1.49    0.32
   4   7   8    1.78    0.40
   4   7   8    2.72    0.36
  -5  -7  -8    6.45    0.53
  -5  -7  -8    5.65    0.49
  -5  -7  -8    4.07    0.55
   5   7   8    6.97    0.53
   5   7   8    6.11    0.70
   5   7   8    5.29    0.56
  -6  -7  -8    4.03    0.50
  -6  -7  -8    3.28    0.45
  -6  -7  -8    3.58    0.48
   6   7   8    5.06    0.54
   6   7   8    3.88    0.60
   6   7   8    3.91    0.68
   6   7   8    4.80    0.56
  -7  -7  -8   16.75    0.99
  -7  -7  -8   13.60    1.08
   7   7   8   16.92    1.01
   7   7   8   16.11    1.05
   7   7   8   15.58    1.16
   7   7   8   15.04    1.09
  -8  -7  -8    0.16    0.36
  -8  -7  -8    0.18    0.36
   8   7   8   -0.37    0.36
   8   7   8    0.15    0.29
   8   7   8    0.23    0.46
  -9  -7  -8    0.48    0.45
  -9  -7  -8    0.25    0.42
   9   7   8   -0.32    0.55
   9   7   8    0.26    0.34
   9   7   8   -0.83    0.39
  -7   8   8   -0.15    0.52
  -7   8   8    0.33    0.56
   6  -8  -8    1.67    0.56
  -6   8   8    2.05    0.53
  -6   8   8    1.00    0.47
   5  -8  -8   -0.12    0.40
  -5   8   8    1.23    0.43
  -5   8   8    0.02    0.37
   4  -8  -8    7.47    0.54
   4  -8  -8    7.75    0.67
   4  -8  -8    7.15    0.67
  -4   8   8    6.99    0.70
  -4   8   8    7.33    0.79
   3  -8  -8   11.59    0.77
   3  -8  -8   12.47    0.76
  -3   8   8   10.83    0.90
  -3   8   8   11.33    0.91
   2  -8  -8    3.87    0.41
  -2   8   8    3.65    0.49
  -2   8   8    2.39    0.37
  -2   8   8    3.79    0.58
   1  -8  -8    1.87    0.31
   1  -8  -8    2.16    0.26
  -1   8   8    2.06    0.33
  -1   8   8    1.78    0.30
  -1   8   8    1.49    0.32
   0  -8  -8    0.08    0.21
   0   8   8    0.33    0.26
   0   8   8   -0.22    0.22
   0   8   8    0.16    0.28
  -1  -8  -8    1.73    0.29
  -1  -8  -8    1.62    0.24
   1   8   8    1.55    0.27
   1   8   8    1.68    0.30
   1   8   8    1.35    0.32
  -2  -8  -8    0.54    0.20
  -2  -8  -8    0.36    0.31
   2   8   8    0.56    0.30
   2   8   8    0.67    0.24
   2   8   8    0.14    0.27
  -3  -8  -8    1.30    0.24
  -3  -8  -8    1.45    0.27
   3   8   8    1.45    0.30
   3   8   8    1.19    0.32
   3   8   8    0.83    0.36
   3   8   8    1.32    0.27
  -4  -8  -8    3.55    0.48
  -4  -8  -8    3.00    0.41
   4   8   8    2.43    0.36
   4   8   8    3.24    0.36
   4   8   8    2.89    0.42
  -5  -8  -8    0.39    0.25
  -5  -8  -8    0.60    0.34
   5   8   8    0.11    0.28
   5   8   8   -0.36    0.28
   5   8   8    0.22    0.32
   5   8   8    0.42    0.39
  -6  -8  -8    7.84    0.62
  -6  -8  -8    6.59    0.76
   6   8   8    6.62    0.86
   6   8   8    7.31    0.74
   6   8   8    7.75    0.72
   6   8   8    8.03    0.68
  -7  -8  -8    2.23    0.39
   7   8   8    2.57    0.52
   7   8   8    1.62    0.42
   7   8   8    2.17    0.54
   7   8   8    2.50    0.41
  -8  -8  -8    0.24    0.38
   8   8   8    1.07    0.37
   8   8   8    0.04    0.39
   8   8   8    0.25    0.51
  -9  -8  -8    1.21    0.49
   9   8   8    1.84    0.66
   9   8   8    2.47    0.42
   9   8   8    1.41    0.49
  -6   9   8    1.43    0.57
  -6   9   8    2.87    0.59
  -5   9   8    5.69    0.81
  -5   9   8    6.84    0.92
   4  -9  -8    0.67    0.32
  -4   9   8    1.44    0.42
  -4   9   8    1.06    0.42
  -3   9   8    2.18    0.41
  -3   9   8    1.99    0.44
   2  -9  -8    7.38    0.50
  -2   9   8    7.23    0.86
  -2   9   8    6.38    0.74
   1  -9  -8    0.65    0.20
  -1   9   8    1.21    0.54
  -1   9   8    0.17    0.32
  -1   9   8    0.56    0.33
   0   9   8    7.10    0.67
   0   9   8    4.67    0.59
   0   9   8    6.35    0.62
  -1  -9  -8    2.73    0.33
  -1  -9  -8    2.56    0.31
   1   9   8    2.10    0.36
   1   9   8    2.90    0.39
   1   9   8    3.18    0.43
  -2  -9  -8    0.97    0.20
  -2  -9  -8    0.53    0.21
   2   9   8    0.61    0.34
   2   9   8    1.24    0.32
   2   9   8    0.89    0.32
  -3  -9  -8    0.57    0.21
  -3  -9  -8    0.56    0.23
   3   9   8    0.78    0.39
   3   9   8    0.18    0.31
   3   9   8    0.68    0.35
  -4  -9  -8   21.81    1.19
   4   9   8   22.57    1.45
   4   9   8   23.33    1.36
   4   9   8   20.45    1.15
  -5  -9  -8    0.94    0.37
  -5  -9  -8    1.05    0.28
   5   9   8    0.81    0.35
   5   9   8    0.86    0.32
   5   9   8    1.21    0.45
   5   9   8    0.74    0.39
  -6  -9  -8    1.59    0.32
   6   9   8    2.41    0.42
   6   9   8    1.81    0.53
   6   9   8    0.78    0.42
   7   9   8    3.32    0.63
   7   9   8    3.58    0.58
  -8  -9  -8    0.35    0.46
   8   9   8   -0.60    0.44
   8   9   8    0.52    0.55
   8   9   8    1.29    0.42
  -5  10   8   -0.31    0.53
  -5  10   8   -0.16    0.52
  -4  10   8    1.51    0.51
  -4  10   8    1.72    0.50
  -3  10   8    0.53    0.45
  -3  10   8   -0.20    0.40
  -2  10   8   -0.65    0.36
  -2  10   8   -0.23    0.38
  -1  10   8   13.64    1.16
  -1  10   8   15.14    1.09
   0  10   8   -0.08    0.43
   0  10   8   -0.19    0.34
   1  10   8    1.22    0.39
   1  10   8    1.14    0.40
   2  10   8    0.28    0.38
   2  10   8    0.05    0.44
   3  10   8   16.36    1.17
   3  10   8   15.70    1.08
   3  10   8   17.69    1.27
   4  10   8    0.29    0.46
   4  10   8    0.33    0.40
   4  10   8   -0.13    0.34
   5  10   8    0.13    0.38
   5  10   8    0.79    0.49
   5  10   8    0.08    0.41
   6  10   8    2.58    0.49
   6  10   8    1.84    0.51
   6  10   8    2.46    0.62
   7  10   8    8.86    1.00
   7  10   8    8.57    1.09
  -4  11   8    0.38    0.57
  -3  11   8    1.13    0.53
  -3  11   8    0.22    0.48
  -2  11   8   -0.75    0.41
  -2  11   8    0.26    0.47
  -1  11   8    0.13    0.46
  -1  11   8    0.51    0.43
   0  11   8    5.85    0.82
   0  11   8    5.76    0.79
   1  11   8    8.64    0.93
   1  11   8    8.34    0.85
   2  11   8    3.96    0.60
   2  11   8    5.10    0.59
   3  11   8    1.46    0.49
   3  11   8    1.24    0.47
   3  11   8    1.67    0.55
   4  11   8    1.35    0.56
   4  11   8    0.80    0.43
   4  11   8    0.05    0.47
   5  11   8    2.80    0.52
   5  11   8    2.08    0.53
   5  11   8    2.90    0.63
   6  11   8    6.19    0.96
   6  11   8    7.75    1.09
  -2  12   8    0.94    0.55
  -1  12   8   -0.53    0.57
  -1  12   8    0.40    0.53
   0  12   8    6.96    0.96
   0  12   8    5.84    0.73
   1  12   8    0.95    0.57
   1  12   8   -1.09    0.48
   2  12   8    2.94    0.63
   2  12   8    3.61    0.64
   2  12   8    3.53    0.64
   3  12   8    0.75    0.59
   3  12   8    0.59    0.55
   3  12   8   -0.24    0.52
   4  12   8    1.37    0.63
   4  12   8    1.36    0.55
   4  12   8    0.89    0.59
   5  12   8    1.20    0.59
   5  12   8    1.92    0.69
   5  12   8    0.76    0.60
   3  10  -9   -0.54    0.72
   3  10  -9   -0.46    0.77
   2  10  -9    1.27    0.68
   1  10  -9   -0.12    0.69
   0  10  -9    6.64    0.87
   5   9  -9    2.15    0.66
   4   9  -9    1.98    0.61
   3   9  -9    6.74    0.98
   3   9  -9    7.77    1.03
   2   9  -9    0.95    0.59
   2   9  -9    1.11    0.54
   1   9  -9    9.68    0.96
   1   9  -9    9.18    1.02
   0   9  -9   -1.43    0.52
   0   9  -9   -0.06    0.48
  -1   9  -9    1.97    0.62
  -1   9  -9    0.96    0.60
  -2   9  -9   -0.57    0.63
  -2   9  -9    0.76    0.69
  -3   9  -9    3.32    0.81
   7   8  -9   -0.75    0.59
   7   8  -9    0.19    0.48
   6   8  -9    2.26    0.45
   6   8  -9    2.14    0.59
   5   8  -9    1.51    0.38
   5   8  -9    1.88    0.55
   4   8  -9   11.75    0.81
   3   8  -9    5.73    0.79
   3   8  -9    5.07    0.79
   3   8  -9    4.25    0.52
   2   8  -9    0.97    0.28
   2   8  -9    0.27    0.46
   2   8  -9    1.06    0.42
   1   8  -9    4.99    0.70
   1   8  -9    3.20    0.55
   1   8  -9    3.22    0.41
   1   8  -9    3.78    0.46
   0   8  -9    6.57    0.85
   0   8  -9    6.05    0.56
   0   8  -9    8.08    0.72
   0   8  -9    8.08    0.79
  -1   8  -9    0.25    0.30
  -1   8  -9   -0.48    0.45
  -1   8  -9   -0.74    0.46
  -2   8  -9    5.41    0.62
  -2   8  -9    6.87    0.93
  -3   8  -9    0.13    0.47
  -3   8  -9    1.77    0.61
  -4   8  -9   -0.18    0.68
   8   7  -9    0.05    0.54
   8   7  -9    0.21    0.47
   7   7  -9   -0.24    0.49
   7   7  -9    0.16    0.39
   6   7  -9    8.99    0.95
   5   7  -9    2.51    0.35
   5   7  -9    2.17    0.49
   5   7  -9    1.45    0.45
   4   7  -9    0.55    0.41
   4   7  -9    0.55    0.28
   4   7  -9    0.36    0.35
   3   7  -9    2.25    0.29
   3   7  -9    2.64    0.45
   3   7  -9    2.05    0.34
   2   7  -9   16.29    1.04
   2   7  -9   19.95    1.18
   2   7  -9   17.37    0.99
   2   7  -9   19.04    1.13
   1   7  -9    0.06    0.22
   1   7  -9    0.19    0.32
   1   7  -9    0.19    0.33
   1   7  -9    0.08    0.42
   1   7  -9   -0.11    0.25
   1   7  -9   -0.06    0.21
   0   7  -9    0.39    0.32
   0   7  -9    0.28    0.27
   0   7  -9    0.38    0.38
   0   7  -9    0.59    0.30
   0   7  -9   -0.05    0.28
   0   7  -9    0.49    0.23
  -1   7  -9    0.51    0.28
  -1   7  -9   -0.16    0.41
  -1   7  -9    0.19    0.25
  -1   7  -9    0.38    0.32
  -2   7  -9   -0.44    0.39
  -2   7  -9   -0.19    0.41
  -2   7  -9    0.01    0.30
  -2   7  -9    0.88    0.32
  -3   7  -9    1.27    0.49
  -4   7  -9    1.67    0.44
  -4   7  -9    1.88    0.56
  -5   7  -9    0.51    0.57
  -5   7  -9   -0.25    0.57
   8   6  -9   -0.15    0.47
   8   6  -9    0.94    0.41
   7   6  -9    2.97    0.55
   7   6  -9    4.48    0.60
   6   6  -9    1.06    0.40
   6   6  -9    1.05    0.44
   5   6  -9    0.31    0.38
   5   6  -9   -0.22    0.34
   5   6  -9    0.55    0.27
   4   6  -9    1.52    0.33
   4   6  -9    1.42    0.39
   4   6  -9    1.39    0.28
  -4  -6   9    1.07    0.48
   3   6  -9    2.80    0.41
   3   6  -9    2.32    0.33
   3   6  -9    3.15    0.38
   2   6  -9    1.93    0.34
   2   6  -9    1.45    0.23
   2   6  -9    1.73    0.28
   2   6  -9    1.61    0.38
   1   6  -9    5.03    0.39
   1   6  -9    5.85    0.63
   1   6  -9    5.37    0.43
   1   6  -9    5.83    0.67
   1   6  -9    6.88    0.57
   1   6  -9    5.09    0.45
   0   6  -9    0.24    0.20
   0   6  -9   -0.08    0.24
   0   6  -9    0.12    0.32
   0   6  -9   -0.22    0.24
   0   6  -9    0.36    0.25
  -1   6  -9    0.15    0.21
  -1   6  -9    0.35    0.24
  -1   6  -9   -0.21    0.25
  -1   6  -9   -0.16    0.33
  -2   6  -9    1.53    0.29
  -2   6  -9    1.71    0.64
  -2   6  -9    1.79    0.28
  -3   6  -9   18.95    1.09
  -3   6  -9   16.94    1.16
  -3   6  -9   19.62    1.08
  -3   6  -9   19.26    1.21
  -4   6  -9    0.33    0.37
  -4   6  -9    1.31    0.47
  -4   6  -9    2.21    0.41
  -5   6  -9    0.11    0.49
  -5   6  -9    0.16    0.41
  -6   6  -9    0.65    0.49
  -6   6  -9   -0.05    0.55
   9   5  -9    0.23    0.42
   9   5  -9    0.48    0.48
   8   5  -9    1.68    0.47
   8   5  -9    0.64    0.36
   7   5  -9    1.48    0.34
   7   5  -9    1.02    0.43
   6   5  -9    0.43    0.38
   6   5  -9    0.79    0.29
   5   5  -9    5.40    0.58
   5   5  -9    5.22    0.49
   5   5  -9    4.99    0.68
   4   5  -9    0.46    0.23
   4   5  -9    0.04    0.25
  -4  -5   9   -0.41    0.37
   3   5  -9    4.50    0.55
   3   5  -9    3.71    0.42
   3   5  -9    4.61    0.39
  -3  -5   9    3.27    0.58
   2   5  -9    4.16    0.42
   2   5  -9    4.97    0.51
   2   5  -9    4.44    0.38
   1   5  -9    0.78    0.15
   1   5  -9    1.06    0.26
   1   5  -9    0.80    0.19
   1   5  -9    1.18    0.19
   1   5  -9    1.17    0.30
   0   5  -9    6.99    0.46
   0   5  -9    6.65    0.61
   0   5  -9    6.77    0.45
   0   5  -9    5.96    0.52
  -1   5  -9   10.44    0.73
  -1   5  -9   10.64    0.62
  -1   5  -9    9.29    0.63
  -1   5  -9    9.97    0.63
  -2   5  -9    9.44    0.63
  -2   5  -9    9.50    0.75
  -2   5  -9   10.78    0.62
  -2   5  -9    9.09    0.66
  -3   5  -9    2.18    0.36
  -3   5  -9    3.55    0.43
  -4   5  -9   -0.81    0.34
  -4   5  -9    0.17    0.37
  -4   5  -9    1.28    0.32
  -5   5  -9    1.38    0.38
  -5   5  -9    0.90    0.44
  -6   5  -9    5.44    0.65
  -6   5  -9    5.61    0.76
  -7   5  -9    0.15    0.52
  -7   5  -9   -0.40    0.52
   9   4  -9    1.76    0.48
   9   4  -9    1.33    0.41
   8   4  -9    1.92    0.38
   8   4  -9    2.30    0.49
  -8  -4   9    2.08    0.41
   7   4  -9   -0.03    0.36
   7   4  -9   -0.09    0.29
  -7  -4   9   -0.02    0.27
   6   4  -9   17.56    1.06
  -6  -4   9   20.63    1.03
  -6  -4   9   17.08    0.98
   5   4  -9    4.18    0.44
   5   4  -9    3.66    0.40
   5   4  -9    5.22    0.61
  -5  -4   9    2.80    0.57
   4   4  -9   13.07    0.75
   4   4  -9   13.14    0.86
   4   4  -9   12.39    0.77
  -4  -4   9   11.97    0.96
   3   4  -9    0.16    0.18
   3   4  -9    0.20    0.20
   3   4  -9    0.66    0.28
  -3  -4   9   -0.20    0.30
   2   4  -9   17.64    0.95
   2   4  -9   17.86    1.01
   2   4  -9   17.52    0.97
   1   4  -9    1.97    0.21
   1   4  -9    1.17    0.28
   1   4  -9    1.64    0.37
   0   4  -9   50.14    2.48
   0   4  -9   51.01    2.55
   0   4  -9   47.23    2.47
  -1   4  -9   -0.14    0.24
  -1   4  -9    0.10    0.18
  -1   4  -9    0.31    0.17
  -2   4  -9   10.11    0.60
  -2   4  -9    9.30    0.61
  -2   4  -9    9.53    0.68
  -2   4  -9    9.92    0.61
  -3   4  -9   -0.54    0.23
  -3   4  -9    0.18    0.28
  -3   4  -9   -0.24    0.21
  -3   4  -9    0.11    0.21
  -4   4  -9   20.88    1.09
  -4   4  -9   20.39    1.41
  -4   4  -9   17.27    1.11
  -5   4  -9   15.20    0.90
  -5   4  -9   12.67    0.92
  -5   4  -9   13.30    0.99
  -6   4  -9    3.94    0.53
  -6   4  -9    2.68    0.45
  -7   4  -9   -0.09    0.41
  -8   4  -9    4.15    0.64
  -8   4  -9    4.49    0.64
   9   3  -9    0.80    0.35
   9   3  -9    0.59    0.43
  -9  -3   9    0.03    0.49
   8   3  -9    9.98    0.90
   8   3  -9   10.33    0.78
  -8  -3   9   11.42    0.84
   7   3  -9    3.16    0.37
   7   3  -9    2.57    0.45
  -7  -3   9    3.26    0.39
  -7  -3   9    2.69    0.50
   6   3  -9    3.37    0.59
   6   3  -9    4.06    0.45
  -6  -3   9    2.83    0.42
  -6  -3   9    3.82    0.44
   5   3  -9   -0.07    0.28
   5   3  -9    0.11    0.20
   5   3  -9   -0.06    0.24
  -5  -3   9   -0.33    0.19
  -5  -3   9   -0.24    0.25
  -5  -3   9   -0.12    0.40
   4   3  -9    3.94    0.40
   4   3  -9    4.38    0.38
   4   3  -9    3.70    0.51
  -4  -3   9    2.92    0.36
  -4  -3   9    3.48    0.31
  -4  -3   9    3.99    0.64
   3   3  -9   32.99    1.77
   3   3  -9   34.86    1.73
   3   3  -9   33.90    1.74
  -3  -3   9   33.00    1.84
   2   3  -9    3.25    0.38
   2   3  -9    2.62    0.30
   2   3  -9    2.34    0.32
  -2  -3   9    2.35    0.42
   1   3  -9   25.77    1.40
   1   3  -9   28.56    1.41
   1   3  -9   29.00    1.40
  -1  -3   9   25.18    1.42
   0   3  -9    0.56    0.24
   0   3  -9    0.39    0.22
   0   3  -9    0.53    0.13
   0   3  -9    0.54    0.16
  -1   3  -9   24.06    1.23
  -1   3  -9   22.65    1.22
  -1   3  -9   23.17    1.28
  -1   3  -9   23.85    1.23
  -2   3  -9    3.82    0.35
  -2   3  -9    3.61    0.42
  -2   3  -9    3.34    0.35
  -2   3  -9    3.96    0.35
  -3   3  -9   26.25    1.45
  -3   3  -9   26.91    1.41
  -3   3  -9   25.92    1.41
  -3   3  -9   26.76    1.38
  -4   3  -9    1.34    0.25
  -4   3  -9    1.77    0.33
  -4   3  -9    1.03    0.26
  -4   3  -9    0.93    0.26
  -5   3  -9    0.07    0.32
  -5   3  -9   -0.16    0.27
  -5   3  -9   -0.45    0.34
  -6   3  -9    1.29    0.40
  -6   3  -9    0.56    0.51
  -7   3  -9   14.05    0.99
  -7   3  -9   13.26    1.00
  -8   3  -9    1.05    0.48
  -8   3  -9    1.02    0.47
  10   2  -9    0.94    0.44
   9   2  -9   29.31    1.68
   9   2  -9   26.34    1.55
  -9  -2   9   27.28    1.65
   8   2  -9    0.09    0.35
   8   2  -9   -0.39    0.26
  -8  -2   9   -0.32    0.51
   7   2  -9   -0.31    0.32
   7   2  -9    0.13    0.24
  -7  -2   9    0.30    0.20
  -7  -2   9    0.02    0.30
  -7  -2   9    0.27    0.41
  -7  -2   9    0.15    0.18
   6   2  -9    0.46    0.32
   6   2  -9    0.57    0.23
  -6  -2   9    0.16    0.26
  -6  -2   9    0.35    0.34
   5   2  -9   23.37    1.23
   5   2  -9   21.91    1.31
   5   2  -9   22.76    1.26
  -5  -2   9   21.25    1.41
  -5  -2   9   23.96    1.23
  -5  -2   9   23.14    1.25
   4   2  -9    3.76    0.37
   4   2  -9    3.88    0.37
   4   2  -9    2.97    0.47
  -4  -2   9    2.63    0.44
  -4  -2   9    3.25    0.39
  -4  -2   9    3.29    0.34
   3   2  -9   11.88    0.69
   3   2  -9   11.27    0.74
   3   2  -9   12.30    0.67
  -3  -2   9   11.65    0.82
  -3  -2   9   11.29    0.65
  -3  -2   9   10.88    0.68
   2   2  -9    0.33    0.17
   2   2  -9    0.05    0.18
   2   2  -9    0.25    0.16
  -2  -2   9    0.35    0.13
  -2  -2   9    0.01    0.16
  -2  -2   9    0.11    0.24
   1   2  -9    8.11    0.47
   1   2  -9    7.58    0.40
   1   2  -9    7.94    0.47
  -1  -2   9    6.61    0.41
  -1  -2   9    6.14    0.42
  -1  -2   9    7.17    0.51
   0   2  -9    8.74    0.58
   0   2  -9    9.24    0.52
   0   2  -9    8.49    0.49
   0   2  -9    9.46    0.52
   0  -2   9    8.10    0.49
   0  -2   9    6.90    0.46
  -1   2  -9    6.52    0.49
  -1   2  -9    6.57    0.43
  -1   2  -9    6.71    0.44
  -1   2  -9    6.69    0.43
   1  -2   9    6.09    0.37
  -2   2  -9    5.11    0.40
  -2   2  -9    4.68    0.44
  -2   2  -9    5.49    0.39
  -2   2  -9    5.28    0.41
   2  -2   9    5.60    0.33
  -3   2  -9    3.32    0.43
  -3   2  -9    3.30    0.39
  -3   2  -9    3.48    0.37
  -3   2  -9    4.30    0.35
   3  -2   9    3.53    0.38
   3  -2   9    3.80    0.30
   3  -2   9    3.88    0.32
  -4   2  -9    9.93    0.68
  -4   2  -9    8.58    0.63
  -4   2  -9   10.48    0.62
  -4   2  -9   10.29    0.64
   4  -2   9    8.99    0.59
   4  -2   9    9.48    0.56
  -5   2  -9    0.52    0.28
  -5   2  -9   -0.04    0.31
  -5   2  -9    0.15    0.24
  -5   2  -9    1.06    0.24
   5  -2   9    0.78    0.24
  -6   2  -9   18.32    1.13
  -6   2  -9   19.94    1.30
   6  -2   9   19.13    1.05
   6  -2   9   16.45    1.03
  -7   2  -9    0.73    0.34
  -7   2  -9    0.52    0.37
   7  -2   9    0.72    0.33
   7  -2   9    0.16    0.35
  -8   2  -9    1.75    0.43
  -8   2  -9    0.93    0.41
   8  -2   9    1.79    0.44
  -9   2  -9    0.23    0.51
  -9   2  -9   -0.77    0.44
  10   1  -9    6.32    0.68
  10   1  -9    7.35    0.81
 -10  -1   9    5.48    0.75
   9   1  -9    1.01    0.41
   9   1  -9   -0.37    0.31
  -9  -1   9   -0.20    0.45
   8   1  -9    1.77    0.43
   8   1  -9    0.59    0.31
  -8  -1   9    1.06    0.39
   7   1  -9    3.82    0.62
   7   1  -9    3.58    0.40
  -7  -1   9    3.72    0.47
  -7  -1   9    3.25    0.53
  -7  -1   9    3.86    0.49
  -7  -1   9    3.91    0.44
   6   1  -9    8.12    0.73
   6   1  -9    8.61    0.63
  -6  -1   9    9.71    0.58
  -6  -1   9    8.18    0.71
  -6  -1   9    8.72    0.65
  -6  -1   9    9.56    0.57
   5   1  -9   -0.08    0.18
   5   1  -9    0.06    0.25
   5   1  -9    0.24    0.20
  -5  -1   9    0.24    0.28
  -5  -1   9    0.09    0.14
  -5  -1   9    0.11    0.22
  -5  -1   9    0.01    0.33
   4   1  -9    3.91    0.48
   4   1  -9    4.96    0.39
   4   1  -9    4.35    0.39
  -4  -1   9    4.50    0.45
  -4  -1   9    4.26    0.39
  -4  -1   9    4.42    0.58
   3   1  -9    3.26    0.42
   3   1  -9    3.88    0.35
   3   1  -9    4.34    0.35
  -3  -1   9    4.61    0.53
  -3  -1   9    4.06    0.35
   2   1  -9   45.02    2.53
   2   1  -9   50.57    2.52
   2   1  -9   49.71    2.52
  -2  -1   9   49.56    2.50
  -2  -1   9   56.94    2.58
  -2  -1   9   48.23    2.50
   1   1  -9    0.16    0.09
   1   1  -9    0.21    0.14
   1   1  -9    0.13    0.14
  -1  -1   9   -0.12    0.13
  -1  -1   9    0.10    0.21
  -1  -1   9    0.07    0.14
   0   1  -9   11.05    0.63
   0   1  -9   11.54    0.65
   0   1  -9   11.76    0.65
   0   1  -9   11.68    0.69
   0  -1   9   12.49    0.66
   0  -1   9   10.25    0.62
   0  -1   9   10.82    0.62
  -1   1  -9    0.08    0.13
  -1   1  -9    0.11    0.13
  -1   1  -9    0.08    0.17
  -1   1  -9   -0.19    0.13
   1  -1   9    0.05    0.12
   1  -1   9    0.06    0.13
  -2   1  -9    4.76    0.38
  -2   1  -9    5.54    0.38
  -2   1  -9    5.17    0.42
  -2   1  -9    4.71    0.38
   2  -1   9    5.25    0.35
   2  -1   9    4.66    0.36
  -3   1  -9   12.10    0.72
  -3   1  -9   12.60    0.75
  -3   1  -9   12.66    0.70
  -3   1  -9   12.72    0.71
   3  -1   9   11.35    0.73
   3  -1   9   11.74    0.68
   3  -1   9   11.44    0.69
  -4   1  -9   19.68    1.02
  -4   1  -9   19.76    1.08
  -4   1  -9   19.02    1.05
  -4   1  -9   18.67    1.05
   4  -1   9   17.01    1.03
   4  -1   9   18.34    1.01
  -5   1  -9    4.03    0.37
  -5   1  -9    3.20    0.44
  -5   1  -9    3.36    0.39
  -5   1  -9    2.32    0.32
   5  -1   9    3.88    0.41
   5  -1   9    3.26    0.39
  -6   1  -9    3.88    0.44
  -6   1  -9    4.77    0.49
   6  -1   9    3.40    0.46
   6  -1   9    3.87    0.49
  -7   1  -9    2.32    0.38
  -7   1  -9    2.66    0.44
   7  -1   9    1.97    0.39
   7  -1   9    1.89    0.36
  -8   1  -9    5.41    0.69
  -8   1  -9    4.64    0.66
   8  -1   9    4.36    0.51
  -9   1  -9    0.54    0.39
  -9   1  -9    0.54    0.45
   9  -1   9    0.89    0.46
  10   0  -9    1.95    0.42
 -10   0   9    3.59    0.61
   9   0  -9    0.82    0.32
   9   0  -9    0.85    0.37
  -9   0   9    1.13    0.45
   8   0  -9    4.65    0.66
   8   0  -9    5.03    0.52
  -8   0   9    5.02    0.66
  -8   0   9    4.59    0.70
   7   0  -9    1.56    0.28
   7   0  -9    1.41    0.37
  -7   0   9    1.75    0.32
  -7   0   9    1.48    0.31
  -7   0   9    1.38    0.44
   6   0  -9    0.35    0.21
   6   0  -9    0.10    0.27
  -6   0   9   -0.20    0.30
  -6   0   9   -0.04    0.25
  -6   0   9    0.23    0.22
   5   0  -9   -0.12    0.18
   5   0  -9   -0.15    0.15
   5   0  -9   -0.03    0.25
  -5   0   9    0.10    0.16
  -5   0   9   -0.05    0.25
  -5   0   9    0.40    0.30
  -5   0   9    0.02    0.22
   4   0  -9   -0.17    0.21
   4   0  -9    0.24    0.15
   4   0  -9    0.36    0.18
  -4   0   9    0.44    0.29
  -4   0   9    0.33    0.21
  -4   0   9    0.02    0.12
  -4   0   9    0.25    0.19
   3   0  -9   34.14    1.73
   3   0  -9   30.88    1.76
   3   0  -9   34.15    1.73
  -3   0   9   34.69    1.73
  -3   0   9   33.73    1.72
  -3   0   9   33.43    1.68
   2   0  -9    7.22    0.47
   2   0  -9    8.12    0.48
  -2   0   9    6.97    0.42
  -2   0   9    7.51    0.48
  -2   0   9    7.52    0.47
   1   0  -9    0.44    0.11
   1   0  -9    0.59    0.15
   1   0  -9    0.50    0.14
  -1   0   9    0.21    0.14
  -1   0   9    0.60    0.22
  -1   0   9    0.29    0.15
  -1   0   9    0.36    0.12
   0   0  -9    0.71    0.16
   0   0  -9    0.62    0.13
   0   0  -9    0.81    0.19
   0   0  -9    0.88    0.16
   0   0   9    0.53    0.15
   0   0   9    0.73    0.15
   0   0   9    0.73    0.15
   0   0   9    0.90    0.19
  -1   0  -9   11.67    0.68
  -1   0  -9   11.31    0.68
  -1   0  -9   11.66    0.71
  -1   0  -9   11.72    0.69
   1   0   9   12.02    0.67
   1   0   9   11.23    0.67
   1   0   9   13.79    0.67
   1   0   9   13.02    0.69
  -2   0  -9    3.69    0.34
  -2   0  -9    3.25    0.32
  -2   0  -9    3.44    0.33
  -2   0  -9    3.88    0.31
   2   0   9    3.94    0.37
   2   0   9    3.25    0.35
   2   0   9    3.05    0.31
  -3   0  -9   27.00    1.44
  -3   0  -9   28.22    1.46
  -3   0  -9   28.18    1.44
  -3   0  -9   27.68    1.42
   3   0   9   26.27    1.41
   3   0   9   26.62    1.41
  -4   0  -9   21.33    1.20
  -4   0  -9   21.74    1.15
  -4   0  -9   22.45    1.18
  -4   0  -9   20.33    1.18
   4   0   9   22.49    1.18
   4   0   9   21.56    1.15
   4   0   9   20.86    1.15
  -5   0  -9    0.60    0.22
  -5   0  -9    1.09    0.19
  -5   0  -9    1.09    0.29
  -5   0  -9    1.12    0.25
   5   0   9    0.47    0.22
   5   0   9    1.08    0.24
   5   0   9    1.01    0.24
   5   0   9    0.73    0.23
  -6   0  -9    0.06    0.24
   6   0   9    0.16    0.25
   6   0   9   -0.01    0.27
   6   0   9   -0.21    0.26
  -7   0  -9    6.43    0.64
  -7   0  -9    7.29    0.67
   7   0   9    6.09    0.59
   7   0   9    7.11    0.69
   7   0   9    7.82    0.70
  -8   0  -9    0.58    0.38
  -8   0  -9    0.73    0.33
   8   0   9   -0.33    0.33
   8   0   9   -0.06    0.40
  -9   0  -9    2.93    0.49
  -9   0  -9    3.28    0.47
   9   0   9    1.56    0.67
   9   0   9    2.11    0.47
  10  -1  -9    0.99    0.44
   9  -1  -9    1.59    0.43
   9  -1  -9    0.23    0.34
  -9   1   9    0.95    0.43
   8  -1  -9   -0.27    0.27
   8  -1  -9    0.33    0.36
  -8   1   9   -0.17    0.34
   7  -1  -9    1.64    0.38
   7  -1  -9    1.88    0.32
  -7   1   9    1.59    0.35
  -7   1   9    1.33    0.35
   6  -1  -9    2.29    0.34
   6  -1  -9    1.86    0.36
  -6   1   9    1.88    0.33
  -6   1   9    2.10    0.31
   5  -1  -9   29.76    1.84
   5  -1  -9   35.41    1.78
  -5   1   9   35.38    1.79
  -5   1   9   36.46    1.77
  -5   1   9   32.96    1.78
  -5   1   9   33.67    1.86
   4  -1  -9    4.37    0.39
   4  -1  -9    4.40    0.39
  -4   1   9    4.24    0.41
  -4   1   9    4.47    0.53
  -4   1   9    4.12    0.41
  -4   1   9    4.54    0.38
   3  -1  -9   27.70    1.44
   3  -1  -9   26.16    1.44
  -3   1   9   27.39    1.44
  -3   1   9   30.70    1.51
  -3   1   9   27.42    1.42
  -3   1   9   25.96    1.43
   2  -1  -9    2.45    0.27
   2  -1  -9    2.51    0.30
  -2   1   9    3.44    0.41
  -2   1   9    2.73    0.27
  -2   1   9    2.58    0.31
  -2   1   9    2.70    0.30
   1  -1  -9    2.25    0.27
   1  -1  -9    1.87    0.23
   1  -1  -9    2.45    0.26
  -1   1   9    2.49    0.25
  -1   1   9    2.95    0.37
  -1   1   9    2.14    0.29
  -1   1   9    2.37    0.27
   0  -1  -9    0.35    0.16
   0  -1  -9    0.08    0.13
   0  -1  -9    0.23    0.13
   0  -1  -9    0.24    0.12
   0   1   9    0.29    0.15
   0   1   9    0.48    0.15
  -1  -1  -9   26.50    1.39
  -1  -1  -9   26.33    1.39
  -1  -1  -9   26.65    1.39
  -1  -1  -9   27.71    1.38
   1   1   9   25.35    1.37
   1   1   9   26.03    1.37
   1   1   9   27.24    1.38
  -2  -1  -9    4.96    0.35
  -2  -1  -9    4.92    0.39
  -2  -1  -9    4.66    0.37
  -2  -1  -9    4.29    0.37
   2   1   9    5.26    0.40
   2   1   9    4.13    0.36
   2   1   9    4.37    0.35
  -3  -1  -9    2.39    0.31
  -3  -1  -9    2.57    0.34
  -3  -1  -9    2.52    0.31
  -3  -1  -9    2.53    0.27
   3   1   9    2.08    0.30
   3   1   9    2.14    0.25
   3   1   9    2.83    0.36
   3   1   9    2.48    0.29
   3   1   9    2.65    0.29
  -4  -1  -9   10.69    0.67
  -4  -1  -9   11.27    0.70
  -4  -1  -9   10.37    0.69
  -4  -1  -9   10.38    0.63
   4   1   9   10.74    0.68
   4   1   9   10.56    0.66
   4   1   9   12.82    0.68
  -5  -1  -9   20.78    1.21
  -5  -1  -9   21.83    1.17
  -5  -1  -9   22.22    1.22
  -5  -1  -9   22.08    1.21
   5   1   9   20.83    1.19
   5   1   9   24.09    1.19
   5   1   9   21.31    1.21
   5   1   9   20.98    1.19
  -6  -1  -9   27.13    1.50
  -6  -1  -9   27.69    1.52
  -6  -1  -9   25.43    1.65
   6   1   9   30.16    1.50
   6   1   9   24.87    1.47
   6   1   9   26.33    1.48
   6   1   9   30.07    1.64
  -7  -1  -9    0.72    0.29
  -7  -1  -9    0.19    0.29
   7   1   9    0.83    0.37
   7   1   9    1.02    0.31
  -8  -1  -9    9.47    0.75
  -8  -1  -9    9.59    0.85
   8   1   9    8.85    0.74
   8   1   9    9.95    0.90
  -9  -1  -9    0.35    0.42
  -9  -1  -9    0.93    0.36
   9   1   9    0.80    0.54
   9   1   9    0.11    0.39
 -10  -1  -9   10.34    0.95
  10   1   9    8.09    0.94
   9  -2  -9   -0.66    0.34
  -9   2   9   -0.07    0.40
   8  -2  -9    0.10    0.31
  -8   2   9    0.18    0.35
   7  -2  -9    0.03    0.27
  -7   2   9   -0.19    0.30
  -7   2   9    0.08    0.32
   6  -2  -9   15.80    0.98
  -6   2   9   16.99    1.00
  -6   2   9   15.73    1.14
   5  -2  -9   15.73    0.93
   5  -2  -9   16.84    0.94
  -5   2   9   14.48    1.02
  -5   2   9   17.39    0.95
  -5   2   9   14.78    0.91
  -5   2   9   16.63    0.95
   4  -2  -9   -0.11    0.16
   4  -2  -9    0.23    0.18
  -4   2   9    0.10    0.20
  -4   2   9    0.11    0.26
  -4   2   9   -0.22    0.16
  -4   2   9    0.22    0.19
   3  -2  -9   -0.11    0.14
   3  -2  -9   -0.06    0.15
  -3   2   9    0.22    0.24
  -3   2   9   -0.20    0.15
  -3   2   9   -0.15    0.16
  -3   2   9   -0.19    0.15
   2  -2  -9    6.51    0.44
   2  -2  -9    6.79    0.45
  -2   2   9    5.81    0.43
  -2   2   9    5.89    0.44
  -2   2   9    6.51    0.43
  -2   2   9    5.94    0.53
   1  -2  -9    1.11    0.19
   1  -2  -9    1.23    0.18
   1  -2  -9    1.24    0.20
  -1   2   9    1.02    0.17
  -1   2   9    0.83    0.18
  -1   2   9    1.25    0.27
  -1   2   9    0.94    0.17
   0  -2  -9   46.70    2.32
   0  -2  -9   48.12    2.31
   0  -2  -9   46.30    2.32
   0  -2  -9   47.41    2.32
   0   2   9   44.98    2.31
   0   2   9   41.16    2.31
   0   2   9   44.99    2.30
   0   2   9   45.51    2.31
  -1  -2  -9    1.67    0.21
  -1  -2  -9    1.43    0.22
  -1  -2  -9    1.67    0.21
  -1  -2  -9    1.67    0.20
   1   2   9    1.27    0.19
   1   2   9    1.17    0.19
   1   2   9    1.23    0.18
  -2  -2  -9    2.48    0.31
  -2  -2  -9    3.26    0.32
  -2  -2  -9    3.10    0.30
  -2  -2  -9    2.95    0.30
   2   2   9    2.82    0.28
   2   2   9    2.79    0.31
   2   2   9    3.51    0.35
  -3  -2  -9    0.10    0.15
  -3  -2  -9    0.14    0.16
  -3  -2  -9   -0.07    0.14
  -3  -2  -9    0.30    0.18
   3   2   9    0.28    0.18
   3   2   9    0.16    0.17
   3   2   9    0.16    0.17
   3   2   9    0.21    0.14
  -4  -2  -9   52.43    2.61
  -4  -2  -9   49.59    2.61
  -4  -2  -9   51.49    2.59
  -4  -2  -9   50.14    2.60
   4   2   9   49.42    2.58
   4   2   9   53.23    2.61
   4   2   9   51.35    2.60
   4   2   9   49.45    2.59
   4   2   9   51.70    2.60
  -5  -2  -9    0.24    0.23
  -5  -2  -9    0.09    0.20
  -5  -2  -9    0.01    0.16
   5   2   9    0.93    0.26
   5   2   9    0.34    0.23
   5   2   9    0.19    0.20
   5   2   9    0.62    0.24
   5   2   9   -0.01    0.20
  -6  -2  -9    0.68    0.26
  -6  -2  -9    1.19    0.27
  -6  -2  -9    1.35    0.32
   6   2   9    1.17    0.27
   6   2   9    1.50    0.32
   6   2   9    1.39    0.34
   6   2   9    1.46    0.28
  -7  -2  -9    4.42    0.56
  -7  -2  -9    4.18    0.51
  -8  -2  -9    8.95    0.75
  -8  -2  -9   11.13    0.85
   8   2   9    8.12    0.77
   8   2   9   11.49    0.93
  -9  -2  -9    8.55    0.74
  -9  -2  -9    6.60    0.84
   9   2   9    8.00    1.02
   9   2   9    8.00    0.73
 -10  -2  -9    3.48    0.55
 -10  -2  -9    2.94    0.47
  10   2   9    2.16    0.51
  10   2   9    3.40    0.76
   9  -3  -9   -0.23    0.43
  -9   3   9    0.21    0.59
  -9   3   9    0.48    0.43
   8  -3  -9    9.15    0.80
  -8   3   9    9.47    0.82
  -8   3   9    9.66    0.97
   7  -3  -9    0.28    0.29
  -7   3   9    0.25    0.33
  -7   3   9    0.27    0.37
   6  -3  -9    6.29    0.58
   6  -3  -9    5.19    0.57
  -6   3   9    6.95    0.59
  -6   3   9    6.87    0.64
   5  -3  -9    2.47    0.32
   5  -3  -9    2.44    0.32
   5  -3  -9    2.19    0.31
  -5   3   9    2.21    0.32
  -5   3   9    2.05    0.31
   4  -3  -9   24.70    1.29
   4  -3  -9   23.78    1.30
   4  -3  -9   25.18    1.31
  -4   3   9   22.95    1.36
  -4   3   9   25.01    1.31
  -4   3   9   21.82    1.28
  -4   3   9   25.02    1.33
   3  -3  -9    3.96    0.38
   3  -3  -9    4.01    0.36
  -3   3   9    3.70    0.49
  -3   3   9    3.27    0.37
  -3   3   9    3.90    0.40
  -3   3   9    3.20    0.34
   2  -3  -9   38.39    1.96
   2  -3  -9   40.07    1.98
  -2   3   9   36.69    1.95
  -2   3   9   38.25    1.97
  -2   3   9   38.64    1.97
  -2   3   9   37.62    2.01
   1  -3  -9   31.16    1.60
   1  -3  -9   31.19    1.62
   1  -3  -9   31.43    1.61
  -1   3   9   29.02    1.63
  -1   3   9   30.89    1.61
  -1   3   9   32.04    1.62
  -1   3   9   31.11    1.60
   0  -3  -9    1.60    0.21
   0  -3  -9    1.81    0.22
   0  -3  -9    1.86    0.21
   0  -3  -9    2.13    0.28
   0   3   9    1.92    0.22
   0   3   9    2.01    0.31
   0   3   9    1.67    0.23
  -1  -3  -9   38.97    1.97
  -1  -3  -9   38.08    1.95
  -1  -3  -9   39.88    1.99
  -1  -3  -9   38.48    1.97
   1   3   9   38.06    1.97
   1   3   9   37.29    1.96
   1   3   9   38.46    1.98
  -2  -3  -9   14.26    0.82
  -2  -3  -9   14.45    0.79
  -2  -3  -9   14.23    0.79
  -2  -3  -9   14.54    0.80
   2   3   9   13.55    0.79
   2   3   9   14.27    0.82
   2   3   9   13.18    0.77
  -3  -3  -9   31.74    1.58
  -3  -3  -9   31.18    1.59
  -3  -3  -9   30.61    1.61
  -3  -3  -9   29.65    1.58
   3   3   9   29.36    1.57
   3   3   9   28.65    1.60
   3   3   9   30.27    1.58
   3   3   9   31.90    1.60
   3   3   9   29.01    1.57
  -4  -3  -9    2.46    0.30
  -4  -3  -9    2.47    0.29
  -4  -3  -9    2.07    0.32
   4   3   9    2.19    0.29
   4   3   9    2.16    0.27
   4   3   9    1.72    0.25
   4   3   9    2.30    0.31
   4   3   9    2.48    0.31
  -5  -3  -9    3.33    0.41
  -5  -3  -9    2.58    0.37
  -5  -3  -9    2.62    0.34
   5   3   9    3.03    0.41
   5   3   9    3.51    0.37
   5   3   9    2.95    0.46
   5   3   9    3.75    0.45
   5   3   9    3.66    0.37
  -6  -3  -9    0.28    0.28
  -6  -3  -9    0.12    0.21
   6   3   9    0.03    0.25
   6   3   9    0.58    0.27
   6   3   9    0.53    0.30
   6   3   9    0.50    0.30
  -7  -3  -9   38.21    2.02
  -7  -3  -9   36.90    2.01
   7   3   9   36.04    1.98
   7   3   9   38.52    2.04
  -8  -3  -9    0.60    0.37
  -8  -3  -9    0.61    0.32
   8   3   9    0.93    0.34
   8   3   9    1.26    0.45
  -9  -3  -9   -0.02    0.38
  -9  -3  -9    0.40    0.33
   9   3   9    0.38    0.36
 -10  -3  -9    0.41    0.49
 -10  -3  -9    0.19    0.40
  10   3   9    0.73    0.42
  10   3   9    1.13    0.68
   9  -4  -9   13.88    1.16
  -9   4   9   12.79    1.37
  -9   4   9   14.44    1.09
   8  -4  -9    0.78    0.44
  -8   4   9    0.52    0.51
  -8   4   9    0.52    0.37
   7  -4  -9    0.60    0.36
  -7   4   9   -0.54    0.54
  -7   4   9    0.01    0.31
   6  -4  -9    0.57    0.33
   6  -4  -9   -0.37    0.27
  -6   4   9   -0.01    0.31
  -6   4   9   -0.08    0.28
   5  -4  -9   19.07    1.13
   5  -4  -9   19.71    1.18
   5  -4  -9   20.28    1.16
  -5   4   9   20.87    1.20
  -5   4   9   20.73    1.18
   4  -4  -9    6.11    0.48
   4  -4  -9    6.57    0.53
   4  -4  -9    5.98    0.53
  -4   4   9    6.29    0.52
  -4   4   9    6.77    0.57
   3  -4  -9    5.19    0.45
   3  -4  -9    5.60    0.45
  -3   4   9    5.18    0.53
  -3   4   9    5.57    0.49
  -3   4   9    4.21    0.42
  -3   4   9    5.18    0.45
   2  -4  -9    0.88    0.20
   2  -4  -9    0.72    0.20
  -2   4   9    0.56    0.19
  -2   4   9    0.64    0.19
  -2   4   9    0.62    0.20
  -2   4   9    0.74    0.25
   1  -4  -9   21.17    1.12
   1  -4  -9   20.57    1.12
   1  -4  -9   21.87    1.14
  -1   4   9   18.97    1.11
  -1   4   9   20.63    1.12
  -1   4   9   21.19    1.14
   0  -4  -9   22.62    1.21
   0  -4  -9   22.26    1.18
   0  -4  -9   21.96    1.19
   0  -4  -9   22.40    1.15
   0   4   9   21.65    1.18
   0   4   9   22.08    1.21
   0   4   9   21.85    1.18
  -1  -4  -9   35.66    1.83
  -1  -4  -9   36.51    1.79
  -1  -4  -9   35.43    1.82
  -1  -4  -9   36.42    1.85
   1   4   9   35.84    1.85
   1   4   9   33.41    1.81
   1   4   9   33.89    1.82
  -2  -4  -9    0.10    0.15
  -2  -4  -9   -0.10    0.16
  -2  -4  -9    0.24    0.15
  -2  -4  -9    0.02    0.15
   2   4   9    0.19    0.15
   2   4   9   -0.22    0.16
   2   4   9    0.16    0.19
  -3  -4  -9    9.37    0.57
  -3  -4  -9    7.86    0.57
  -3  -4  -9    9.08    0.55
  -3  -4  -9    8.86    0.55
   3   4   9    9.25    0.61
   3   4   9    8.99    0.54
   3   4   9    8.26    0.56
   3   4   9    7.41    0.53
   3   4   9    7.34    0.61
  -4  -4  -9    1.82    0.26
  -4  -4  -9    1.54    0.25
  -4  -4  -9    1.91    0.27
   4   4   9    1.93    0.29
   4   4   9    1.73    0.23
   4   4   9    1.53    0.30
   4   4   9    2.47    0.28
   4   4   9    1.72    0.28
  -5  -4  -9    6.39    0.52
  -5  -4  -9    6.63    0.53
  -5  -4  -9    6.37    0.54
   5   4   9    6.85    0.57
   5   4   9    7.04    0.63
   5   4   9    6.57    0.54
   5   4   9    6.87    0.54
  -6  -4  -9    7.35    0.60
  -6  -4  -9    7.90    0.65
   6   4   9    6.35    0.82
   6   4   9    8.56    0.67
   6   4   9    7.77    0.70
   6   4   9    8.06    0.70
  -7  -4  -9    2.95    0.39
   7   4   9    3.04    0.46
   7   4   9    2.96    0.37
   7   4   9    2.72    0.40
  -8  -4  -9    4.87    0.55
  -8  -4  -9    3.53    0.46
   8   4   9    5.84    0.80
   8   4   9    4.37    0.56
  -9  -4  -9    0.37    0.40
  -9  -4  -9   -0.12    0.35
   9   4   9    0.38    0.53
   9   4   9    0.46    0.35
 -10  -4  -9   10.50    1.05
 -10  -4  -9   11.36    0.97
  10   4   9   10.88    1.31
  10   4   9    9.03    0.90
   8  -5  -9    0.45    0.51
  -8   5   9    1.72    0.44
  -8   5   9    0.21    0.55
   7  -5  -9    8.10    0.81
  -7   5   9    8.30    0.74
  -7   5   9    6.51    0.91
   6  -5  -9    5.04    0.61
   6  -5  -9    4.28    0.59
  -6   5   9    3.49    0.62
  -6   5   9    5.27    0.59
   5  -5  -9    0.33    0.30
   5  -5  -9    0.17    0.34
   5  -5  -9    0.34    0.27
  -5   5   9    0.49    0.32
  -5   5   9   -0.02    0.27
   4  -5  -9    2.47    0.34
   4  -5  -9    2.12    0.28
   4  -5  -9    2.21    0.33
  -4   5   9    2.04    0.32
  -4   5   9    2.25    0.35
   3  -5  -9    0.54    0.23
   3  -5  -9    0.37    0.23
   3  -5  -9    0.67    0.19
  -3   5   9    1.20    0.35
  -3   5   9    0.51    0.23
  -3   5   9    0.72    0.25
  -3   5   9    0.24    0.17
   2  -5  -9   26.14    1.33
   2  -5  -9   26.07    1.34
  -2   5   9   22.28    1.36
  -2   5   9   24.93    1.33
  -2   5   9   22.95    1.30
  -2   5   9   25.75    1.37
   1  -5  -9    3.02    0.34
   1  -5  -9    2.09    0.27
   1  -5  -9    2.47    0.26
  -1   5   9    2.17    0.29
  -1   5   9    2.12    0.28
  -1   5   9    1.89    0.27
   0  -5  -9   13.43    0.72
   0  -5  -9   12.85    0.77
   0  -5  -9   13.05    0.78
   0  -5  -9   13.90    0.82
   0   5   9   13.28    0.79
   0   5   9   14.06    0.83
   0   5   9   13.14    0.75
  -1  -5  -9    2.67    0.26
  -1  -5  -9    3.15    0.35
  -1  -5  -9    2.35    0.32
  -1  -5  -9    2.33    0.33
   1   5   9    1.95    0.29
   1   5   9    2.36    0.28
   1   5   9    1.77    0.25
  -2  -5  -9   13.45    0.79
  -2  -5  -9   12.95    0.72
  -2  -5  -9   13.25    0.76
  -2  -5  -9   11.90    0.76
   2   5   9   12.76    0.77
   2   5   9   13.84    0.82
   2   5   9   12.58    0.73
  -3  -5  -9    2.13    0.30
  -3  -5  -9    2.14    0.27
  -3  -5  -9    1.78    0.26
  -3  -5  -9    1.99    0.26
   3   5   9    1.93    0.27
   3   5   9    1.89    0.27
   3   5   9    1.86    0.28
   3   5   9    1.24    0.21
  -4  -5  -9   30.72    1.81
  -4  -5  -9   35.06    1.76
  -4  -5  -9   32.66    1.78
  -4  -5  -9   34.92    1.79
   4   5   9   33.90    1.85
   4   5   9   33.97    1.79
   4   5   9   36.06    1.83
   4   5   9   34.86    1.76
  -5  -5  -9    0.44    0.24
  -5  -5  -9    0.40    0.24
  -5  -5  -9    0.69    0.25
   5   5   9    0.61    0.25
   5   5   9    0.47    0.31
   5   5   9    0.55    0.25
   5   5   9    0.63    0.28
  -6  -5  -9    0.78    0.29
  -6  -5  -9    0.57    0.27
   6   5   9    0.86    0.30
   6   5   9    0.82    0.27
   6   5   9    1.24    0.31
   6   5   9    0.70    0.36
  -7  -5  -9    8.51    0.69
  -7  -5  -9    9.10    0.81
   7   5   9    9.92    0.84
   7   5   9    7.91    0.73
   7   5   9    7.27    0.66
  -8  -5  -9   16.83    1.11
  -8  -5  -9   16.90    1.11
   8   5   9   16.53    1.11
   8   5   9   17.88    1.25
   8   5   9   16.97    1.05
  -9  -5  -9    0.73    0.45
  -9  -5  -9    1.00    0.40
   9   5   9    1.01    0.55
   9   5   9    0.38    0.34
 -10  -5  -9    0.44    0.55
  10   5   9   -0.05    0.66
  10   5   9   -0.70    0.36
   8  -6  -9    3.68    0.70
  -8   6   9    3.13    0.54
  -8   6   9    2.26    0.68
   7  -6  -9    0.58    0.52
  -7   6   9    0.44    0.50
  -7   6   9    0.50    0.40
   6  -6  -9    0.49    0.42
   6  -6  -9    0.68    0.41
  -6   6   9    0.20    0.39
  -6   6   9   -0.03    0.34
   5  -6  -9    3.52    0.47
   5  -6  -9    3.44    0.48
   5  -6  -9    3.75    0.50
  -5   6   9    3.69    0.45
  -5   6   9    4.92    0.66
   4  -6  -9    0.46    0.32
   4  -6  -9    0.74    0.25
   4  -6  -9    0.82    0.32
  -4   6   9    0.93    0.32
   3  -6  -9   16.21    0.94
   3  -6  -9   15.68    0.85
   3  -6  -9   15.34    0.94
  -3   6   9   13.32    0.89
  -3   6   9   16.03    1.00
  -3   6   9   16.41    0.94
   2  -6  -9   18.83    0.99
   2  -6  -9   20.07    1.09
   2  -6  -9   20.41    1.09
  -2   6   9   19.75    1.14
  -2   6   9   16.82    1.06
  -2   6   9   19.39    1.09
   1  -6  -9    7.78    0.56
   1  -6  -9    7.85    0.57
   1  -6  -9    8.15    0.46
  -1   6   9    7.44    0.53
  -1   6   9    8.21    0.63
  -1   6   9    8.01    0.57
   0  -6  -9    3.24    0.37
   0  -6  -9    3.12    0.37
   0  -6  -9    3.26    0.41
   0  -6  -9    3.31    0.29
   0   6   9    3.27    0.39
   0   6   9    3.22    0.44
   0   6   9    3.39    0.34
  -1  -6  -9    1.12    0.15
  -1  -6  -9    0.63    0.21
  -1  -6  -9    0.97    0.22
  -1  -6  -9    1.04    0.23
   1   6   9    1.00    0.24
   1   6   9    1.11    0.26
   1   6   9    1.07    0.19
  -2  -6  -9    2.13    0.26
  -2  -6  -9    1.56    0.26
  -2  -6  -9    1.85    0.25
  -2  -6  -9    1.45    0.24
   2   6   9    2.21    0.28
   2   6   9    1.61    0.27
   2   6   9    1.61    0.30
  -3  -6  -9    1.50    0.25
  -3  -6  -9    2.28    0.29
  -3  -6  -9    1.55    0.28
   3   6   9    1.52    0.27
   3   6   9    1.46    0.21
   3   6   9    2.10    0.32
   3   6   9    1.86    0.24
  -4  -6  -9    1.47    0.27
  -4  -6  -9    1.64    0.25
  -4  -6  -9    1.46    0.28
   4   6   9    0.78    0.27
   4   6   9    0.95    0.20
   4   6   9    1.89    0.24
   4   6   9    1.36    0.36
   4   6   9    1.29    0.28
  -5  -6  -9    5.89    0.52
  -5  -6  -9    6.10    0.53
  -5  -6  -9    5.59    0.57
   5   6   9    6.20    0.56
   5   6   9    5.70    0.67
   5   6   9    6.49    0.55
   5   6   9    6.09    0.62
  -6  -6  -9    0.67    0.29
  -6  -6  -9    0.77    0.28
   6   6   9    0.80    0.31
   6   6   9    1.24    0.34
   6   6   9    0.42    0.37
   6   6   9    0.37    0.30
  -7  -6  -9   13.28    0.89
  -7  -6  -9   12.27    0.90
   7   6   9   12.55    1.04
   7   6   9   13.49    0.89
   7   6   9   13.79    0.93
  -8  -6  -9    3.40    0.48
  -8  -6  -9    2.84    0.45
   8   6   9    2.66    0.44
   8   6   9    2.86    0.56
   8   6   9    2.61    0.38
  -9  -6  -9    0.56    0.43
  -9  -6  -9    0.10    0.45
   9   6   9    0.79    0.34
   9   6   9    0.15    0.58
   7  -7  -9   -0.16    0.61
  -7   7   9    0.68    0.55
  -7   7   9    0.59    0.46
   6  -7  -9   -0.98    0.57
  -6   7   9    0.97    0.46
  -6   7   9    0.24    0.39
   5  -7  -9    4.43    0.56
   5  -7  -9    5.29    0.59
   5  -7  -9    4.24    0.54
  -5   7   9    5.56    0.77
  -5   7   9    4.46    0.63
   4  -7  -9    5.62    0.67
   4  -7  -9    5.53    0.48
   4  -7  -9    5.96    0.64
  -4   7   9    5.30    0.61
  -4   7   9    6.38    0.72
   3  -7  -9    4.90    0.37
   3  -7  -9    4.06    0.54
   3  -7  -9    4.96    0.54
  -3   7   9    4.27    0.53
  -3   7   9    4.60    0.73
   2  -7  -9    2.91    0.23
   2  -7  -9    2.78    0.29
   2  -7  -9    3.17    0.35
   2  -7  -9    2.89    0.35
  -2   7   9    2.89    0.36
  -2   7   9    2.33    0.39
   1  -7  -9   13.34    0.78
   1  -7  -9   12.59    0.78
  -1   7   9   12.25    0.86
  -1   7   9   11.66    0.77
  -1   7   9   12.32    0.79
   0  -7  -9    0.75    0.23
   0  -7  -9    0.24    0.23
   0  -7  -9    0.31    0.21
   0   7   9    0.25    0.21
   0   7   9    0.40    0.26
   0   7   9    0.65    0.26
  -1  -7  -9   14.70    0.86
  -1  -7  -9   15.43    0.86
  -1  -7  -9   14.76    0.92
   1   7   9   15.18    0.90
   1   7   9   13.43    0.85
   1   7   9   15.14    0.95
  -2  -7  -9    6.54    0.39
  -2  -7  -9    6.43    0.53
   2   7   9    6.36    0.61
   2   7   9    5.78    0.55
   2   7   9    6.51    0.49
  -3  -7  -9    2.64    0.33
  -3  -7  -9    2.90    0.40
  -3  -7  -9    3.11    0.30
   3   7   9    2.35    0.33
   3   7   9    3.31    0.51
   3   7   9    2.11    0.29
  -4  -7  -9   -0.07    0.28
  -4  -7  -9    0.66    0.21
  -4  -7  -9    0.48    0.24
   4   7   9    0.65    0.32
   4   7   9    0.56    0.27
   4   7   9    0.83    0.23
   4   7   9    0.87    0.37
   4   7   9    0.74    0.28
  -5  -7  -9   22.07    1.15
  -5  -7  -9   18.51    1.20
  -5  -7  -9   21.71    1.18
   5   7   9   19.38    1.18
   5   7   9   20.76    1.24
   5   7   9   20.56    1.16
   5   7   9   20.44    1.31
  -6  -7  -9    1.20    0.32
  -6  -7  -9    1.37    0.32
   6   7   9    1.08    0.44
   6   7   9    1.14    0.34
   6   7   9    1.19    0.36
   6   7   9    1.56    0.38
  -7  -7  -9    2.87    0.43
  -7  -7  -9    2.47    0.39
   7   7   9    1.63    0.50
   7   7   9    2.03    0.57
   7   7   9    1.74    0.40
   7   7   9    2.83    0.40
  -8  -7  -9    2.74    0.50
  -8  -7  -9    3.37    0.47
   8   7   9    3.04    0.62
   8   7   9    2.54    0.46
   8   7   9    3.15    0.42
  -9  -7  -9    0.45    0.49
  -9  -7  -9   -0.33    0.44
   9   7   9    0.74    0.36
   9   7   9   -0.29    0.58
  -7   8   9    1.21    0.64
   6  -8  -9    0.90    0.60
  -6   8   9    1.77    0.55
  -6   8   9    1.44    0.49
   5  -8  -9    0.58    0.45
  -5   8   9    0.08    0.41
  -5   8   9    1.06    0.47
   4  -8  -9   -0.46    0.36
   4  -8  -9    0.09    0.40
  -4   8   9   -0.10    0.38
  -4   8   9   -0.55    0.34
   3  -8  -9    7.13    0.63
   3  -8  -9    5.72    0.64
  -3   8   9    5.74    0.73
  -3   8   9    6.35    0.65
   2  -8  -9    1.40    0.29
   2  -8  -9    0.77    0.30
  -2   8   9    1.32    0.34
  -2   8   9    0.72    0.34
   1  -8  -9   -0.19    0.26
   1  -8  -9    0.19    0.25
  -1   8   9    0.06    0.31
  -1   8   9    0.04    0.28
  -1   8   9    0.05    0.27
   0  -8  -9   30.81    1.61
   0  -8  -9   31.53    1.60
   0   8   9   30.67    1.65
   0   8   9   28.81    1.63
   0   8   9   30.53    1.85
  -1  -8  -9   -0.05    0.24
   1   8   9   -0.10    0.30
   1   8   9    0.31    0.28
   1   8   9   -0.03    0.23
  -2  -8  -9    0.39    0.26
  -2  -8  -9    0.12    0.23
   2   8   9    0.39    0.28
   2   8   9    0.50    0.25
   2   8   9    0.04    0.48
  -3  -8  -9    0.40    0.24
  -3  -8  -9    0.15    0.28
   3   8   9    0.01    0.31
   3   8   9   -0.05    0.27
  -4  -8  -9   24.62    1.37
  -4  -8  -9   24.91    1.34
   4   8   9   24.28    1.52
   4   8   9   23.35    1.29
   4   8   9   25.01    1.44
  -5  -8  -9    0.53    0.28
  -5  -8  -9    0.13    0.26
  -5  -8  -9    0.69    0.37
   5   8   9   -0.15    0.32
   5   8   9    0.61    0.42
   5   8   9    0.20    0.29
   5   8   9   -0.11    0.30
  -6  -8  -9    0.64    0.45
  -6  -8  -9    1.08    0.32
  -6  -8  -9    1.15    0.34
   6   8   9    1.09    0.41
   6   8   9    0.76    0.47
   6   8   9    0.56    0.36
   6   8   9    1.33    0.36
  -7  -8  -9    2.28    0.43
  -7  -8  -9    1.65    0.39
   7   8   9    3.05    0.44
   7   8   9    2.24    0.45
   7   8   9    3.27    0.77
   7   8   9    1.75    0.57
  -8  -8  -9   12.05    0.97
   8   8   9   13.44    0.94
   8   8   9   12.93    1.17
   8   8   9   10.38    0.98
   9   8   9    4.94    0.65
   9   8   9    2.53    0.55
   9   8   9    3.65    0.76
  -6   9   9    1.91    0.59
  -6   9   9    2.78    0.66
  -5   9   9   -0.86    0.44
  -5   9   9   -0.99    0.43
  -4   9   9    5.04    0.56
  -4   9   9    4.24    0.59
   3  -9  -9    1.19    0.33
  -3   9   9    1.01    0.43
  -3   9   9    1.10    0.40
   2  -9  -9    5.50    0.50
   2  -9  -9    6.05    0.79
  -2   9   9    4.67    0.72
  -2   9   9    4.78    0.64
   1  -9  -9    0.82    0.30
  -1   9   9    0.84    0.37
   0  -9  -9    0.65    0.25
   0  -9  -9    0.98    0.30
   0   9   9    1.04    0.36
   0   9   9    1.73    0.37
  -1  -9  -9   13.52    0.95
  -1  -9  -9   13.61    0.81
   1   9   9   14.07    0.93
   1   9   9   13.87    0.99
  -2  -9  -9   17.50    0.99
   2   9   9   18.27    1.17
   2   9   9   17.38    1.09
  -3  -9  -9   10.68    0.66
  -3  -9  -9    9.65    0.69
   3   9   9    9.58    0.83
   3   9   9    9.02    0.91
   3   9   9    7.27    0.91
  -4  -9  -9    1.06    0.29
  -4  -9  -9    1.08    0.36
   4   9   9    1.06    0.35
   4   9   9    0.79    0.40
   4   9   9    1.61    0.49
  -5  -9  -9    1.41    0.31
  -5  -9  -9    1.78    0.45
   5   9   9    1.07    0.36
   5   9   9    1.74    0.38
   5   9   9    0.75    0.39
   5   9   9    1.41    0.52
  -6  -9  -9    2.95    0.40
   6   9   9    3.10    0.61
   6   9   9    3.59    0.48
   6   9   9    2.28    0.47
   7   9   9   11.77    1.19
   7   9   9   12.91    1.05
   7   9   9   14.89    1.02
  -8  -9  -9    0.87    0.46
   8   9   9   -0.78    0.45
   8   9   9    1.00    0.42
   8   9   9   -0.16    0.58
  -5  10   9    3.63    0.66
  -5  10   9    2.79    0.64
  -4  10   9   -0.70    0.46
  -4  10   9   -0.47    0.49
  -3  10   9    1.87    0.48
  -3  10   9    1.39    0.48
  -2  10   9   -0.06    0.40
  -2  10   9   -0.23    0.39
  -1  10   9    5.66    0.69
  -1  10   9    3.44    0.55
   0  10   9    1.92    0.44
   0  10   9    1.69    0.44
   1  10   9    8.84    0.87
   1  10   9    9.34    0.80
   2  10   9    0.27    0.39
   2  10   9    0.35    0.38
  -3 -10  -9    7.70    0.52
   3  10   9    6.96    0.83
   3  10   9    7.26    0.75
   3  10   9    8.70    0.94
  -4 -10  -9    0.24    0.25
   4  10   9    0.06    0.42
   4  10   9    0.63    0.50
   4  10   9    0.33    0.37
  -5 -10  -9    2.61    0.34
   5  10   9    1.58    0.47
   5  10   9    3.55    0.64
   5  10   9    2.38    0.47
   6  10   9    4.30    0.59
   6  10   9    5.40    0.98
   7  10   9   -0.36    0.45
   7  10   9   -0.88    0.47
  -3  11   9    1.38    0.55
  -3  11   9    0.99    0.54
  -2  11   9    1.34    0.53
  -2  11   9    2.05    0.54
  -1  11   9    0.98    0.43
  -1  11   9   -0.09    0.48
   0  11   9    2.24    0.50
   0  11   9    2.21    0.53
   1  11   9    0.01    0.45
   1  11   9   -0.26    0.44
   2  11   9    6.24    0.89
   2  11   9    6.31    0.84
   3  11   9    0.66    0.53
   3  11   9   -0.53    0.43
   3  11   9   -0.43    0.45
   4  11   9    2.61    0.56
   4  11   9    3.02    0.62
   4  11   9    1.90    0.49
   5  11   9    0.15    0.54
   5  11   9    0.38    0.46
   5  11   9    0.15    0.50
   6  11   9   -0.10    0.63
   6  11   9   -0.64    0.50
   6  11   9    1.65    0.55
  -1  12   9    0.11    0.49
  -1  12   9    0.77    0.61
   0  12   9    1.33    0.55
   0  12   9    0.86    0.58
   1  12   9    0.34    0.55
   1  12   9    2.58    0.61
   2  12   9    1.15    0.59
   2  12   9    2.04    0.60
   2  12   9    1.75    0.60
   3  12   9    0.00    0.55
   3  12   9    0.99    0.57
   3  12   9    1.09    0.63
   4  12   9    0.35    0.63
   4  12   9   -0.43    0.56
   4  12   9    0.44    0.55
   4   9 -10    2.04    0.65
   4   9 -10    0.63    0.66
   3   9 -10    0.59    0.62
   3   9 -10    0.72    0.62
   2   9 -10    1.20    0.64
   1   9 -10    4.96    0.73
  -1   9 -10    0.40    0.65
  -2   9 -10    0.41    0.74
  -2   9 -10   -0.42    0.72
   6   8 -10    2.33    0.51
   6   8 -10    1.90    0.66
   5   8 -10   -0.13    0.56
   5   8 -10    0.71    0.42
   4   8 -10   -0.07    0.37
   4   8 -10    0.33    0.60
   3   8 -10    1.45    0.53
   3   8 -10    0.15    0.34
   3   8 -10    1.15    0.52
   2   8 -10    1.37    0.56
   2   8 -10    1.03    0.50
   2   8 -10    1.13    0.34
   1   8 -10    0.29    0.46
   1   8 -10   -0.42    0.46
   1   8 -10    0.57    0.32
   1   8 -10   -0.52    0.52
   0   8 -10    1.55    0.56
   0   8 -10    2.52    0.48
   0   8 -10    2.03    0.36
  -1   8 -10   -0.72    0.52
  -1   8 -10   -0.17    0.48
  -2   8 -10    0.08    0.56
  -3   8 -10    1.25    0.67
  -4   8 -10    5.20    0.89
   7   7 -10    0.34    0.57
   7   7 -10    0.91    0.46
   6   7 -10   -0.26    0.51
   6   7 -10    0.40    0.40
   5   7 -10    0.00    0.48
   5   7 -10    0.55    0.35
   4   7 -10    4.61    0.80
   4   7 -10    3.72    0.54
   4   7 -10    4.41    0.56
   3   7 -10    0.40    0.43
   3   7 -10    0.47    0.36
   3   7 -10    0.33    0.29
   2   7 -10    2.15    0.40
   2   7 -10    2.37    0.45
   2   7 -10    2.05    0.33
   2   7 -10    2.74    0.51
   1   7 -10    2.35    0.48
   1   7 -10    1.65    0.25
   1   7 -10    2.28    0.32
   1   7 -10    2.31    0.41
   1   7 -10    1.77    0.29
   1   7 -10    1.96    0.36
   0   7 -10    0.91    0.35
   0   7 -10    0.62    0.28
   0   7 -10    0.62    0.32
   0   7 -10    0.33    0.30
   0   7 -10    0.87    0.45
  -1   7 -10    1.61    0.39
  -1   7 -10    1.72    0.33
  -1   7 -10    1.17    0.48
  -1   7 -10    2.24    0.48
  -2   7 -10    3.58    0.43
  -2   7 -10    4.47    0.59
  -2   7 -10    2.39    0.52
  -3   7 -10    2.19    0.59
  -4   7 -10    1.33    0.51
  -4   7 -10    1.92    0.63
  -5   7 -10    0.72    0.56
  -5   7 -10    0.79    0.64
   8   6 -10    0.77    0.56
   8   6 -10    0.52    0.47
   7   6 -10    0.55    0.41
   7   6 -10    0.56    0.50
   6   6 -10   -0.31    0.45
   6   6 -10    0.07    0.34
   5   6 -10   13.95    1.08
   5   6 -10   15.97    0.95
   4   6 -10    1.48    0.42
   4   6 -10    1.36    0.37
   4   6 -10    1.42    0.30
  -4  -6  10    1.14    0.54
   3   6 -10    8.84    0.72
   3   6 -10   10.30    0.66
   3   6 -10    9.63    0.82
   2   6 -10    0.09    0.31
   2   6 -10    0.08    0.34
   2   6 -10    0.49    0.39
   2   6 -10   -0.19    0.23
   1   6 -10    9.87    0.64
   1   6 -10    9.14    0.57
   1   6 -10   10.70    0.83
   1   6 -10   10.13    0.73
   1   6 -10    9.42    0.68
   0   6 -10    0.74    0.28
   0   6 -10    1.17    0.39
   0   6 -10    1.50    0.26
   0   6 -10    1.10    0.26
  -1   6 -10   25.92    1.43
  -1   6 -10   24.43    1.30
  -1   6 -10   22.67    1.30
  -1   6 -10   23.27    1.31
  -2   6 -10   -0.70    0.34
  -2   6 -10   -0.16    0.38
  -2   6 -10    0.17    0.28
  -2   6 -10    0.16    0.33
  -3   6 -10    5.36    0.64
  -3   6 -10    3.94    0.56
  -3   6 -10    4.01    0.44
  -4   6 -10    0.74    0.53
  -4   6 -10    0.65    0.47
  -4   6 -10    0.18    0.41
  -5   6 -10    7.17    0.84
  -5   6 -10    6.59    0.75
  -6   6 -10    7.74    1.03
  -6   6 -10    8.46    1.08
   8   5 -10   -0.14    0.47
   8   5 -10    0.42    0.39
   7   5 -10   11.72    1.01
   7   5 -10   11.50    0.86
   6   5 -10    3.78    0.53
   6   5 -10    4.94    0.59
   5   5 -10    1.87    0.32
   5   5 -10    1.00    0.39
   5   5 -10    1.70    0.42
   4   5 -10    0.54    0.30
   4   5 -10    0.17    0.25
   4   5 -10    0.16    0.35
  -4  -5  10    0.33    0.44
   3   5 -10    4.69    0.44
   3   5 -10    4.27    0.59
   3   5 -10    3.93    0.48
  -3  -5  10    3.67    0.66
   2   5 -10   21.26    1.11
   2   5 -10   19.91    1.17
   2   5 -10   20.33    1.14
   1   5 -10    0.74    0.32
   1   5 -10    1.22    0.27
   1   5 -10    1.31    0.24
   0   5 -10   13.09    0.73
   0   5 -10   12.58    0.77
   0   5 -10   13.21    0.76
   0   5 -10   11.99    0.88
  -1   5 -10   -0.04    0.31
  -1   5 -10    0.11    0.22
  -1   5 -10    0.27    0.25
  -1   5 -10   -0.04    0.22
  -2   5 -10   10.37    0.84
  -2   5 -10   10.85    0.71
  -2   5 -10   10.32    0.73
  -2   5 -10   11.82    0.73
  -3   5 -10    1.36    0.32
  -3   5 -10    1.40    0.41
  -3   5 -10    0.91    0.31
  -4   5 -10    8.07    0.78
  -4   5 -10    7.95    0.72
  -5   5 -10    0.60    0.48
  -6   5 -10    0.05    0.50
  -6   5 -10    0.02    0.46
  -7   5 -10    0.08    0.57
  -7   5 -10    1.08    0.57
   9   4 -10    0.31    0.49
   9   4 -10   -0.87    0.36
   8   4 -10   23.37    1.36
   8   4 -10   22.64    1.49
   7   4 -10   -0.03    0.30
   7   4 -10   -0.29    0.40
  -7  -4  10   -0.01    0.28
   6   4 -10   -0.03    0.36
   6   4 -10    0.19    0.37
   5   4 -10    0.13    0.35
   5   4 -10   -0.07    0.24
   5   4 -10    0.05    0.31
  -5  -4  10   -0.39    0.49
   4   4 -10   20.76    1.23
   4   4 -10   19.20    1.16
   4   4 -10   21.90    1.15
  -4  -4  10   21.02    1.37
   3   4 -10    6.18    0.44
   3   4 -10    4.88    0.48
  -3  -4  10    4.26    0.65
   2   4 -10    4.19    0.41
   2   4 -10    4.26    0.49
   2   4 -10    4.44    0.44
  -2  -4  10    4.15    0.52
   1   4 -10    0.29    0.19
   1   4 -10    0.20    0.23
   1   4 -10    0.23    0.21
   1   4 -10    0.20    0.27
   0   4 -10   10.04    0.60
   0   4 -10   10.60    0.64
   0   4 -10   10.80    0.65
   0   4 -10    9.53    0.74
  -1   4 -10    8.07    0.56
  -1   4 -10    8.88    0.56
  -1   4 -10    8.59    0.65
  -1   4 -10    8.38    0.58
  -2   4 -10    4.01    0.45
  -2   4 -10    3.94    0.43
  -2   4 -10    4.38    0.42
  -2   4 -10    3.89    0.51
  -3   4 -10    3.25    0.60
  -3   4 -10    3.86    0.47
  -3   4 -10    3.11    0.49
  -3   4 -10    4.30    0.45
  -4   4 -10    2.74    0.37
  -4   4 -10    2.72    0.44
  -4   4 -10    1.81    0.36
  -5   4 -10    3.92    0.53
  -5   4 -10    4.58    0.64
  -6   4 -10    0.15    0.45
  -6   4 -10    0.12    0.40
  -7   4 -10    8.21    0.90
  -7   4 -10    6.77    0.91
   9   3 -10    4.99    0.72
   9   3 -10    8.27    0.87
  -9  -3  10    7.48    0.92
   8   3 -10   -0.11    0.41
   8   3 -10   -0.36    0.31
  -8  -3  10    0.21    0.41
   7   3 -10    4.11    0.54
   7   3 -10    3.91    0.71
  -7  -3  10    3.57    0.59
  -7  -3  10    5.22    0.58
   6   3 -10    1.37    0.51
   6   3 -10    1.44    0.45
  -6  -3  10    2.12    0.31
  -6  -3  10    1.55    0.41
   5   3 -10   18.26    1.16
   5   3 -10   19.22    1.06
   5   3 -10   17.80    1.10
  -5  -3  10   19.50    1.01
  -5  -3  10   18.76    1.36
  -5  -3  10   18.20    1.06
   4   3 -10    0.63    0.25
   4   3 -10    1.00    0.31
   4   3 -10    1.18    0.24
  -4  -3  10    0.49    0.41
  -4  -3  10    0.88    0.18
  -4  -3  10    0.98    0.23
   3   3 -10    5.80    0.57
   3   3 -10    6.17    0.48
   3   3 -10    6.08    0.49
  -3  -3  10    6.78    0.70
   2   3 -10    1.28    0.24
   2   3 -10    1.12    0.22
   2   3 -10    0.92    0.26
   1   3 -10   39.92    1.95
   1   3 -10   34.90    1.94
   1   3 -10   39.47    1.95
   1   3 -10   40.66    2.01
  -1  -3  10   35.92    1.96
   0   3 -10   -0.17    0.22
   0   3 -10    0.24    0.15
   0   3 -10    0.22    0.18
   0   3 -10    0.11    0.18
  -1   3 -10   11.23    0.65
  -1   3 -10   10.92    0.66
  -1   3 -10   11.00    0.66
  -1   3 -10   10.48    0.73
  -2   3 -10   -0.02    0.20
  -2   3 -10   -0.22    0.22
  -2   3 -10    0.33    0.22
  -2   3 -10    0.19    0.20
  -3   3 -10    0.04    0.24
  -3   3 -10    0.68    0.24
  -3   3 -10    0.75    0.24
  -3   3 -10    0.66    0.27
  -4   3 -10    7.82    0.61
  -4   3 -10    8.63    0.69
  -4   3 -10    6.83    0.66
  -4   3 -10    8.47    0.61
  -5   3 -10    4.26    0.57
  -5   3 -10    5.42    0.57
  -6   3 -10    0.61    0.35
  -6   3 -10    0.86    0.41
  -7   3 -10    0.96    0.43
  -7   3 -10    0.33    0.44
  -8   3 -10    1.62    0.54
  -8   3 -10    2.88    0.56
   9   2 -10    6.60    0.83
   9   2 -10    4.45    0.65
  -9  -2  10    5.18    0.66
   8   2 -10    0.29    0.33
   8   2 -10    1.20    0.42
  -8  -2  10    0.60    0.42
   7   2 -10    3.59    0.50
   7   2 -10    3.89    0.53
  -7  -2  10    2.99    0.53
  -7  -2  10    4.37    0.59
   6   2 -10    3.32    0.42
  -6  -2  10    2.91    0.45
  -6  -2  10    3.01    0.37
   5   2 -10   -0.07    0.24
   5   2 -10    0.19    0.23
   5   2 -10   -0.06    0.30
  -5  -2  10   -0.31    0.41
  -5  -2  10    0.06    0.23
  -5  -2  10    0.30    0.31
   4   2 -10    0.29    0.21
   4   2 -10    0.11    0.20
   4   2 -10   -0.10    0.26
  -4  -2  10    0.19    0.20
  -4  -2  10    0.05    0.38
   3   2 -10    0.30    0.20
   3   2 -10   -0.09    0.24
   3   2 -10    0.11    0.19
  -3  -2  10   -0.22    0.22
  -3  -2  10    0.07    0.17
  -3  -2  10   -0.22    0.32
   2   2 -10   22.03    1.13
   2   2 -10   22.09    1.14
   2   2 -10   19.73    1.15
  -2  -2  10   22.78    1.09
  -2  -2  10   18.57    1.10
   1   2 -10    0.95    0.20
   1   2 -10    1.25    0.21
   1   2 -10    1.05    0.13
  -1  -2  10    1.08    0.15
  -1  -2  10    0.85    0.18
  -1  -2  10    0.94    0.24
   0   2 -10   -0.01    0.13
   0   2 -10   -0.07    0.16
   0   2 -10    0.27    0.17
   0   2 -10    0.08    0.22
   0  -2  10    0.21    0.15
   0  -2  10   -0.05    0.13
  -1   2 -10    1.35    0.23
  -1   2 -10    1.78    0.22
  -1   2 -10    1.93    0.29
  -1   2 -10    1.56    0.21
   1  -2  10    1.62    0.20
  -2   2 -10    7.16    0.50
  -2   2 -10    6.78    0.49
  -2   2 -10    7.93    0.49
  -2   2 -10    6.36    0.53
   2  -2  10    7.08    0.41
   2  -2  10    5.82    0.44
  -3   2 -10    0.08    0.21
  -3   2 -10    0.25    0.21
  -3   2 -10    0.28    0.25
  -3   2 -10    0.61    0.21
   3  -2  10    0.31    0.18
   3  -2  10    0.25    0.14
  -4   2 -10   13.47    0.83
  -4   2 -10   11.56    0.79
  -4   2 -10   12.07    0.76
  -4   2 -10   13.13    0.75
   4  -2  10   11.45    0.71
   4  -2  10   10.89    0.67
  -5   2 -10    5.61    0.64
  -5   2 -10    7.75    0.57
  -5   2 -10    5.88    0.58
  -5   2 -10    4.03    0.60
   5  -2  10    5.63    0.46
   5  -2  10    6.16    0.51
  -6   2 -10    1.38    0.38
  -6   2 -10    1.31    0.36
   6  -2  10    1.37    0.32
   6  -2  10    1.12    0.33
  -7   2 -10    0.59    0.39
  -7   2 -10   -0.07    0.36
   7  -2  10    0.84    0.37
  -8   2 -10    3.66    0.56
  -8   2 -10    3.61    0.54
   8  -2  10    3.71    0.64
   9   1 -10    0.44    0.33
   9   1 -10    0.97    0.42
  -9  -1  10   -0.76    0.48
   8   1 -10    0.12    0.30
   8   1 -10    0.11    0.35
  -8  -1  10    0.24    0.33
  -8  -1  10   -0.23    0.39
   7   1 -10   -0.10    0.25
   7   1 -10   -0.29    0.34
  -7  -1  10    0.14    0.26
  -7  -1  10   -0.28    0.34
  -7  -1  10    0.06    0.25
   6   1 -10   -0.22    0.35
   6   1 -10    0.11    0.25
  -6  -1  10    0.06    0.18
  -6  -1  10    0.22    0.38
  -6  -1  10   -0.27    0.28
   5   1 -10    4.60    0.46
   5   1 -10    3.93    0.57
   5   1 -10    4.30    0.44
  -5  -1  10    5.22    0.71
  -5  -1  10    4.22    0.47
  -5  -1  10    5.64    0.56
   4   1 -10   36.44    2.00
   4   1 -10   39.03    2.00
   4   1 -10   35.47    2.04
  -4  -1  10   38.97    1.99
  -4  -1  10   42.81    2.12
  -4  -1  10   38.96    1.99
   3   1 -10    1.10    0.21
   3   1 -10    0.81    0.24
   3   1 -10    0.90    0.21
  -3  -1  10    0.82    0.21
  -3  -1  10    0.95    0.23
  -3  -1  10    1.17    0.34
   2   1 -10    8.44    0.52
   2   1 -10    8.12    0.53
   2   1 -10    6.91    0.54
  -2  -1  10    7.80    0.50
  -2  -1  10    9.07    0.70
  -2  -1  10    7.65    0.52
   1   1 -10    1.45    0.21
   1   1 -10    1.46    0.21
   1   1 -10    1.43    0.20
  -1  -1  10    1.39    0.28
  -1  -1  10    1.32    0.20
  -1  -1  10    1.28    0.18
   0   1 -10   12.17    0.71
   0   1 -10   12.02    0.71
   0   1 -10   11.59    0.68
   0   1 -10   11.89    0.75
   0  -1  10   12.24    0.68
   0  -1  10   11.56    0.68
   0  -1  10   14.15    0.72
  -1   1 -10    1.71    0.24
  -1   1 -10    1.55    0.20
  -1   1 -10    1.60    0.22
  -1   1 -10    1.70    0.23
   1  -1  10    1.92    0.27
   1  -1  10    1.53    0.19
  -2   1 -10   22.95    1.25
  -2   1 -10   23.11    1.22
  -2   1 -10   22.87    1.22
  -2   1 -10   24.38    1.22
   2  -1  10   20.85    1.18
   2  -1  10   22.88    1.19
  -3   1 -10    5.11    0.45
  -3   1 -10    6.00    0.43
  -3   1 -10    5.74    0.45
  -3   1 -10    5.79    0.50
   3  -1  10    5.13    0.42
   3  -1  10    4.74    0.40
  -4   1 -10    0.93    0.25
  -4   1 -10    1.19    0.28
  -4   1 -10    0.76    0.24
  -4   1 -10    1.42    0.24
   4  -1  10    1.20    0.24
   4  -1  10    0.57    0.21
  -5   1 -10    3.72    0.52
  -5   1 -10    5.84    0.46
   5  -1  10    4.27    0.47
   5  -1  10    5.11    0.49
  -6   1 -10   17.54    1.06
  -6   1 -10   16.82    1.04
   6  -1  10   16.21    0.98
   6  -1  10   15.08    0.98
  -7   1 -10   11.50    0.85
  -7   1 -10   10.58    0.86
   7  -1  10   11.04    0.83
   7  -1  10   12.03    0.88
  -8   1 -10   -0.04    0.36
  -8   1 -10    0.07    0.39
   8  -1  10    0.17    0.50
  -9   1 -10    3.37    0.54
  -9   1 -10    3.75    0.58
   9  -1  10    3.49    0.56
   9   0 -10    1.69    0.39
   9   0 -10    2.69    0.46
  -9   0  10    1.38    0.52
   8   0 -10    0.29    0.29
   8   0 -10    0.60    0.38
  -8   0  10    0.70    0.38
  -8   0  10    0.21    0.41
   7   0 -10   -0.08    0.25
   7   0 -10   -0.04    0.30
  -7   0  10   -0.34    0.32
  -7   0  10   -0.32    0.30
  -7   0  10    0.55    0.29
   6   0 -10    0.03    0.24
   6   0 -10   -0.41    0.53
  -6   0  10    0.18    0.36
  -6   0  10    0.13    0.29
  -6   0  10    0.18    0.22
   5   0 -10   23.08    1.32
   5   0 -10   21.09    1.38
   5   0 -10   25.81    1.33
  -5   0  10   25.19    1.28
  -5   0  10   25.35    1.46
  -5   0  10   25.11    1.34
  -5   0  10   24.55    1.35
   4   0 -10   11.53    0.81
   4   0 -10   12.46    0.75
   4   0 -10   12.56    0.75
  -4   0  10   13.07    0.68
  -4   0  10   11.99    0.77
  -4   0  10   12.41    0.76
   3   0 -10    0.20    0.18
   3   0 -10    0.01    0.20
   3   0 -10   -0.13    0.15
  -3   0  10    0.09    0.18
  -3   0  10    0.67    0.21
  -3   0  10    0.26    0.12
   2   0 -10    0.05    0.16
   2   0 -10    0.08    0.16
  -2   0  10    0.21    0.12
  -2   0  10    0.18    0.18
  -2   0  10    0.35    0.27
  -2   0  10    0.14    0.18
   1   0 -10   11.54    0.68
   1   0 -10   10.78    0.65
   1   0 -10   11.85    0.69
  -1   0  10   12.93    0.65
  -1   0  10   11.71    0.68
  -1   0  10   11.49    0.68
   0   0 -10    3.36    0.31
   0   0 -10    3.52    0.33
   0   0 -10    3.40    0.32
   0   0 -10    3.56    0.38
   0   0  10    3.54    0.33
  -1   0 -10   44.71    2.26
  -1   0 -10   44.20    2.26
  -1   0 -10   44.42    2.26
  -1   0 -10   43.07    2.27
   1   0  10   44.72    2.25
   1   0  10   48.27    2.23
   1   0  10   41.31    2.24
  -2   0 -10    0.73    0.20
  -2   0 -10    0.85    0.19
  -2   0 -10    0.88    0.20
  -2   0 -10    0.83    0.19
   2   0  10    0.88    0.18
   2   0  10    1.00    0.20
  -3   0 -10    1.92    0.25
  -3   0 -10    1.84    0.25
  -3   0 -10    2.06    0.29
  -3   0 -10    2.57    0.30
   3   0  10    1.64    0.23
   3   0  10    1.74    0.25
   3   0  10    1.62    0.23
  -4   0 -10    1.39    0.25
  -4   0 -10    1.05    0.20
  -4   0 -10    1.13    0.28
  -4   0 -10    0.72    0.23
   4   0  10    0.97    0.23
   4   0  10    0.68    0.21
   4   0  10    0.53    0.23
  -5   0 -10   28.49    1.49
  -5   0 -10   26.37    1.52
  -5   0 -10   29.47    1.55
   5   0  10   28.52    1.50
   5   0  10   27.22    1.49
  -6   0 -10    0.73    0.29
  -6   0 -10    0.79    0.32
   6   0  10    0.64    0.27
   6   0  10    0.81    0.31
   6   0  10    0.40    0.28
  -7   0 -10    0.19    0.29
  -7   0 -10   -0.34    0.32
   7   0  10   -0.08    0.38
   7   0  10    0.05    0.32
   7   0  10    0.02    0.31
  -8   0 -10    5.27    0.64
   8   0  10    3.22    0.46
   8   0  10    2.78    0.44
  -9   0 -10    3.77    0.55
  -9   0 -10    3.83    0.59
   9   0  10    3.87    0.54
   9  -1 -10    0.79    0.36
  -9   1  10   -0.32    0.53
  -9   1  10   -0.85    0.45
   8  -1 -10    0.41    0.36
   8  -1 -10    0.34    0.31
  -8   1  10   -0.32    0.39
  -8   1  10   -0.53    0.37
   7  -1 -10    8.03    0.64
   7  -1 -10    7.61    0.76
  -7   1  10    8.85    0.72
  -7   1  10    7.57    0.70
   6  -1 -10    0.92    0.34
   6  -1 -10    0.69    0.27
  -6   1  10    1.44    0.28
  -6   1  10    1.04    0.34
   5  -1 -10    2.67    0.33
  -5   1  10    2.69    0.35
  -5   1  10    2.58    0.35
  -5   1  10    4.28    0.64
  -5   1  10    2.56    0.39
   4  -1 -10    1.85    0.26
   4  -1 -10    1.95    0.27
  -4   1  10    1.99    0.24
  -4   1  10    1.64    0.27
  -4   1  10    2.07    0.29
  -4   1  10    2.43    0.38
   3  -1 -10   23.76    1.29
   3  -1 -10   24.00    1.30
  -3   1  10   26.56    1.38
  -3   1  10   22.58    1.29
  -3   1  10   24.25    1.27
  -3   1  10   24.81    1.31
   2  -1 -10    6.33    0.47
   2  -1 -10    5.90    0.44
  -2   1  10    6.54    0.48
  -2   1  10    6.58    0.43
  -2   1  10    6.23    0.46
  -2   1  10    7.56    0.58
   1  -1 -10   23.34    1.22
   1  -1 -10   23.72    1.23
   1  -1 -10   22.59    1.20
  -1   1  10   22.90    1.22
  -1   1  10   23.38    1.21
  -1   1  10   23.10    1.26
  -1   1  10   21.76    1.19
   0  -1 -10   29.39    1.51
   0  -1 -10   29.24    1.52
   0  -1 -10   27.88    1.51
   0  -1 -10   28.55    1.52
   0   1  10   29.29    1.50
   0   1  10   28.27    1.50
   0   1  10   30.33    1.52
   0   1  10   29.08    1.50
  -1  -1 -10    0.37    0.16
  -1  -1 -10    0.23    0.18
  -1  -1 -10    0.31    0.14
  -1  -1 -10    0.29    0.19
   1   1  10    0.59    0.17
   1   1  10    0.51    0.18
  -2  -1 -10   38.57    2.03
  -2  -1 -10   40.75    2.05
  -2  -1 -10   37.54    2.04
  -2  -1 -10   38.89    2.04
   2   1  10   39.91    2.02
   2   1  10   43.47    2.04
   2   1  10   38.16    2.02
  -3  -1 -10    7.10    0.53
  -3  -1 -10    7.19    0.47
  -3  -1 -10    6.47    0.51
  -3  -1 -10    7.36    0.50
   3   1  10    8.17    0.54
   3   1  10    6.26    0.50
   3   1  10    6.00    0.48
   3   1  10    6.87    0.49
   3   1  10    7.03    0.47
  -4  -1 -10   24.69    1.39
  -4  -1 -10   25.08    1.36
  -4  -1 -10   27.83    1.41
  -4  -1 -10   25.61    1.38
   4   1  10   27.50    1.34
   4   1  10   25.20    1.36
   4   1  10   24.94    1.36
   4   1  10   23.71    1.38
  -5  -1 -10    6.31    0.57
  -5  -1 -10    6.29    0.47
  -5  -1 -10    5.54    0.55
   5   1  10    7.78    0.54
   5   1  10    6.00    0.54
   5   1  10    6.32    0.54
   5   1  10    6.83    0.55
  -6  -1 -10    2.19    0.34
  -6  -1 -10    2.37    0.37
   6   1  10    2.46    0.37
   6   1  10    3.36    0.53
   6   1  10    1.98    0.34
  -7  -1 -10    0.25    0.33
  -7  -1 -10   -0.05    0.26
   7   1  10   -0.20    0.36
   7   1  10    0.47    0.37
  -8  -1 -10   23.62    1.43
  -8  -1 -10   22.92    1.38
   8   1  10   23.90    1.42
   8   1  10   21.44    1.34
  -9  -1 -10    0.29    0.37
  -9  -1 -10    0.23    0.45
   9   1  10   -0.28    0.42
   9  -2 -10   -0.41    0.38
  -9   2  10    0.37    0.57
  -9   2  10   -0.05    0.45
   8  -2 -10   24.48    1.51
  -8   2  10   28.52    1.57
  -8   2  10   26.63    1.61
   7  -2 -10    1.25    0.33
  -7   2  10    0.93    0.35
  -7   2  10    0.99    0.38
   6  -2 -10   -0.63    0.23
  -6   2  10    0.27    0.28
  -6   2  10   -0.31    0.27
   5  -2 -10   -0.23    0.21
   5  -2 -10   -0.08    0.25
  -5   2  10   -0.01    0.23
  -5   2  10   -0.12    0.28
  -5   2  10   -0.43    0.23
   4  -2 -10   29.42    1.53
  -4   2  10   29.17    1.52
  -4   2  10   25.76    1.50
  -4   2  10   29.71    1.53
   3  -2 -10    4.96    0.44
   3  -2 -10    5.49    0.44
  -3   2  10    5.04    0.44
  -3   2  10    5.27    0.43
  -3   2  10    5.63    0.45
   2  -2 -10    4.59    0.40
   2  -2 -10    4.72    0.40
  -2   2  10    4.21    0.39
  -2   2  10    5.63    0.52
  -2   2  10    4.77    0.41
  -2   2  10    5.31    0.40
   1  -2 -10    0.16    0.16
   1  -2 -10    0.11    0.15
   1  -2 -10    0.10    0.15
  -1   2  10    0.45    0.16
  -1   2  10    0.43    0.17
  -1   2  10    0.26    0.18
  -1   2  10    0.65    0.23
   0  -2 -10   26.68    1.38
   0  -2 -10   25.53    1.37
   0  -2 -10   27.58    1.38
   0   2  10   25.87    1.37
   0   2  10   26.54    1.37
   0   2  10   24.57    1.38
   0   2  10   26.22    1.37
  -1  -2 -10   34.47    1.76
  -1  -2 -10   34.96    1.78
  -1  -2 -10   34.40    1.77
  -1  -2 -10   33.94    1.77
   1   2  10   34.70    1.76
   1   2  10   33.60    1.76
   1   2  10   33.05    1.76
  -2  -2 -10   24.31    1.28
  -2  -2 -10   24.30    1.27
  -2  -2 -10   23.59    1.26
  -2  -2 -10   24.01    1.27
   2   2  10   23.27    1.26
   2   2  10   22.31    1.25
   2   2  10   23.74    1.27
  -3  -2 -10    0.14    0.21
  -3  -2 -10    0.22    0.18
  -3  -2 -10    0.07    0.16
  -3  -2 -10    0.25    0.18
   3   2  10    0.19    0.19
   3   2  10    0.01    0.16
   3   2  10   -0.09    0.20
   3   2  10    0.11    0.19
  -4  -2 -10   11.16    0.74
  -4  -2 -10   10.86    0.70
  -4  -2 -10   12.11    0.73
  -4  -2 -10   12.58    0.76
   4   2  10   11.56    0.73
   4   2  10   12.50    0.77
   4   2  10   12.16    0.74
   4   2  10   11.19    0.72
   4   2  10   11.28    0.71
  -5  -2 -10    3.41    0.47
  -5  -2 -10    3.68    0.42
  -5  -2 -10    3.36    0.43
   5   2  10    4.30    0.46
   5   2  10    2.99    0.42
  -6  -2 -10    4.35    0.50
  -6  -2 -10    4.79    0.62
   6   2  10    5.93    0.60
   6   2  10    4.12    0.52
  -7  -2 -10    6.22    0.65
  -7  -2 -10    6.13    0.57
   7   2  10    6.69    0.72
   7   2  10    4.78    0.57
  -8  -2 -10    0.95    0.34
  -8  -2 -10    2.11    0.48
   8   2  10    2.03    0.49
   8   2  10    1.62    0.38
  -9  -2 -10    3.98    0.51
  -9  -2 -10    3.32    0.53
   9   2  10    4.25    0.65
   9   2  10    3.57    0.50
   9  -3 -10    3.67    0.56
  -9   3  10    4.05    0.57
  -9   3  10    3.50    0.73
   8  -3 -10    2.04    0.42
  -8   3  10    1.68    0.43
  -8   3  10    1.14    0.53
   7  -3 -10    1.83    0.37
  -7   3  10    2.09    0.40
  -7   3  10    2.03    0.45
   6  -3 -10    3.74    0.52
  -6   3  10    5.23    0.63
  -6   3  10    4.50    0.55
   5  -3 -10    7.72    0.62
   5  -3 -10    7.76    0.60
  -5   3  10    7.87    0.65
  -5   3  10    7.17    0.62
   4  -3 -10    0.80    0.23
   4  -3 -10    0.90    0.24
  -4   3  10    0.40    0.20
  -4   3  10    0.81    0.24
  -4   3  10    0.81    0.24
  -4   3  10    0.36    0.29
   3  -3 -10    1.00    0.23
   3  -3 -10    1.02    0.21
  -3   3  10    0.85    0.20
  -3   3  10    0.66    0.30
  -3   3  10    0.72    0.22
  -3   3  10    1.02    0.24
   2  -3 -10   -0.01    0.15
   2  -3 -10    0.13    0.18
  -2   3  10    0.01    0.19
  -2   3  10    0.29    0.26
  -2   3  10   -0.31    0.15
  -2   3  10    0.06    0.17
   1  -3 -10   47.76    2.37
   1  -3 -10   46.47    2.37
   1  -3 -10   46.46    2.36
  -1   3  10   47.77    2.37
  -1   3  10   44.71    2.35
  -1   3  10   45.61    2.36
  -1   3  10   45.10    2.39
   0  -3 -10    0.73    0.18
   0  -3 -10    0.45    0.18
   0  -3 -10    0.52    0.18
   0  -3 -10    0.69    0.17
   0   3  10    0.48    0.19
   0   3  10    0.60    0.19
   0   3  10    0.54    0.16
  -1  -3 -10   15.72    0.88
  -1  -3 -10   15.97    0.90
  -1  -3 -10   15.28    0.87
  -1  -3 -10   15.35    0.86
   1   3  10   15.72    0.89
   1   3  10   14.69    0.85
   1   3  10   15.14    0.87
  -2  -3 -10    0.29    0.17
  -2  -3 -10    0.66    0.19
  -2  -3 -10    0.53    0.17
  -2  -3 -10    0.61    0.19
   2   3  10    0.62    0.17
   2   3  10    0.31    0.19
   2   3  10    0.56    0.20
  -3  -3 -10   16.76    0.97
  -3  -3 -10   18.17    0.95
  -3  -3 -10   16.37    0.95
  -3  -3 -10   16.99    0.94
   3   3  10   16.74    0.94
   3   3  10   15.39    0.97
   3   3  10   17.74    0.98
   3   3  10   16.44    0.93
   3   3  10   16.43    0.94
  -4  -3 -10    3.37    0.42
  -4  -3 -10    3.98    0.42
  -4  -3 -10    4.27    0.45
   4   3  10    4.36    0.46
   4   3  10    4.32    0.47
   4   3  10    3.31    0.38
   4   3  10    4.67    0.43
   4   3  10    4.65    0.43
  -5  -3 -10   35.25    1.78
  -5  -3 -10   32.79    1.78
  -5  -3 -10   32.11    1.79
   5   3  10   32.51    1.77
   5   3  10   34.88    1.79
   5   3  10   34.01    1.79
   5   3  10   32.71    1.76
   5   3  10   32.05    1.76
  -6  -3 -10    1.99    0.32
  -6  -3 -10    2.60    0.39
   6   3  10    3.14    0.56
   6   3  10    3.26    0.50
   6   3  10    1.40    0.35
  -7  -3 -10    0.82    0.30
  -7  -3 -10    0.71    0.36
   7   3  10    1.15    0.41
   7   3  10    0.55    0.32
  -8  -3 -10    6.26    0.74
  -8  -3 -10    5.56    0.66
   8   3  10    8.10    0.88
   8   3  10    6.12    0.65
  -9  -3 -10   11.48    0.90
  -9  -3 -10   11.44    0.98
   9   3  10    9.92    0.88
   9   3  10   11.99    1.30
   9  -4 -10    2.27    0.60
  -9   4  10    1.19    0.69
   8  -4 -10    2.06    0.49
  -8   4  10    1.61    0.43
  -8   4  10    1.80    0.57
   7  -4 -10    4.83    0.66
  -7   4  10    4.16    0.60
  -7   4  10    4.34    0.51
   6  -4 -10    1.40    0.36
   6  -4 -10    1.75    0.40
  -6   4  10    1.81    0.40
  -6   4  10    1.26    0.35
   5  -4 -10    0.27    0.29
   5  -4 -10    0.74    0.44
  -5   4  10    0.71    0.31
  -5   4  10    0.19    0.27
   4  -4 -10    3.27    0.43
   4  -4 -10    2.55    0.33
   4  -4 -10    3.41    0.39
  -4   4  10    2.01    0.33
  -4   4  10    2.24    0.33
   3  -4 -10    2.05    0.29
   3  -4 -10    1.95    0.29
  -3   4  10    1.83    0.29
  -3   4  10    1.55    0.32
  -3   4  10    1.94    0.29
   2  -4 -10   23.50    1.23
   2  -4 -10   22.92    1.23
  -2   4  10   23.11    1.25
  -2   4  10   22.47    1.22
  -2   4  10   22.32    1.29
  -2   4  10   20.60    1.20
   1  -4 -10   19.30    1.07
   1  -4 -10   20.58    1.04
   1  -4 -10   19.55    1.07
   1  -4 -10   19.61    1.09
  -1   4  10   18.29    1.11
  -1   4  10   19.86    1.07
  -1   4  10   20.08    1.09
  -1   4  10   17.78    1.06
   0  -4 -10    7.56    0.54
   0  -4 -10    7.48    0.52
   0  -4 -10    7.45    0.49
   0  -4 -10    7.58    0.52
   0   4  10    7.87    0.54
   0   4  10    8.16    0.57
   0   4  10    6.74    0.50
  -1  -4 -10    4.17    0.41
  -1  -4 -10    4.23    0.36
  -1  -4 -10    3.93    0.39
  -1  -4 -10    4.12    0.38
   1   4  10    4.33    0.44
   1   4  10    3.62    0.35
   1   4  10    3.76    0.39
  -2  -4 -10    0.67    0.18
  -2  -4 -10    0.70    0.20
  -2  -4 -10    0.65    0.19
  -2  -4 -10    0.55    0.19
   2   4  10    0.15    0.19
   2   4  10    0.35    0.15
   2   4  10    0.62    0.22
  -3  -4 -10    0.26    0.19
  -3  -4 -10    0.43    0.18
  -3  -4 -10    0.68    0.22
  -3  -4 -10    0.14    0.19
   3   4  10    0.38    0.22
   3   4  10    0.21    0.20
   3   4  10    0.56    0.16
   3   4  10    0.07    0.20
  -4  -4 -10    0.73    0.24
  -4  -4 -10    0.72    0.21
  -4  -4 -10    0.80    0.21
   4   4  10    0.23    0.24
   4   4  10    0.24    0.17
   4   4  10    0.70    0.28
   4   4  10    0.92    0.24
   4   4  10    0.72    0.27
  -5  -4 -10    0.64    0.27
  -5  -4 -10    0.15    0.24
  -5  -4 -10    0.01    0.21
   5   4  10    0.45    0.30
   5   4  10    0.59    0.25
   5   4  10    0.44    0.26
   5   4  10    0.08    0.26
  -6  -4 -10   10.28    0.73
  -6  -4 -10    9.77    0.71
   6   4  10    9.85    0.74
   6   4  10    9.11    0.71
   6   4  10    9.59    0.79
   6   4  10    8.47    0.76
  -7  -4 -10    0.28    0.34
  -7  -4 -10   -0.25    0.26
   7   4  10   -0.01    0.29
   7   4  10   -0.10    0.28
   7   4  10    0.44    0.40
  -8  -4 -10    9.92    0.80
  -8  -4 -10    9.43    0.86
   8   4  10   10.41    0.98
   8   4  10    8.94    0.78
  -9  -4 -10    0.28    0.37
  -9  -4 -10    0.72    0.44
   9   4  10    0.43    0.57
   9   4  10    0.88    0.38
   8  -5 -10    2.19    0.56
  -8   5  10    1.41    0.45
  -8   5  10    1.48    0.64
   7  -5 -10    0.34    0.43
  -7   5  10    0.12    0.47
  -7   5  10    0.01    0.35
   6  -5 -10    1.11    0.39
   6  -5 -10    0.14    0.40
  -6   5  10    1.19    0.42
  -6   5  10    0.48    0.34
   5  -5 -10    0.38    0.31
   5  -5 -10   -0.29    0.58
  -5   5  10   -0.45    0.26
  -5   5  10   -0.30    0.32
   4  -5 -10    5.88    0.58
   4  -5 -10    6.02    0.59
   4  -5 -10    6.13    0.51
  -4   5  10    6.47    0.64
   3  -5 -10   16.28    0.98
   3  -5 -10   16.86    0.92
   3  -5 -10   17.21    0.98
  -3   5  10   15.34    1.03
  -3   5  10   16.25    0.98
  -3   5  10   17.27    1.03
   2  -5 -10    3.87    0.43
   2  -5 -10    3.94    0.44
  -2   5  10    3.98    0.49
  -2   5  10    2.68    0.37
  -2   5  10    4.70    0.52
  -2   5  10    3.73    0.43
   1  -5 -10   11.80    0.73
   1  -5 -10   12.37    0.69
   1  -5 -10   12.15    0.74
  -1   5  10   11.98    0.74
  -1   5  10   12.64    0.79
  -1   5  10   10.54    0.71
   0  -5 -10   18.45    0.99
   0  -5 -10   18.50    1.04
   0  -5 -10   18.71    1.08
   0  -5 -10   18.88    1.05
   0   5  10   19.71    1.09
   0   5  10   18.87    1.05
   0   5  10   17.39    1.02
  -1  -5 -10    0.16    0.18
  -1  -5 -10    0.07    0.17
  -1  -5 -10   -0.07    0.19
  -1  -5 -10    0.16    0.16
   1   5  10    0.09    0.16
   1   5  10    0.17    0.21
   1   5  10    0.10    0.21
  -2  -5 -10   11.24    0.72
  -2  -5 -10   11.24    0.63
  -2  -5 -10    9.56    0.67
  -2  -5 -10   11.00    0.68
   2   5  10    9.40    0.64
   2   5  10   11.41    0.73
   2   5  10   10.00    0.67
  -3  -5 -10    4.61    0.40
  -3  -5 -10    3.95    0.45
  -3  -5 -10    4.12    0.42
  -3  -5 -10    4.30    0.44
   3   5  10    4.40    0.49
   3   5  10    3.67    0.40
   3   5  10    3.69    0.42
  -4  -5 -10   -0.27    0.22
  -4  -5 -10    0.03    0.19
  -4  -5 -10    0.29    0.23
  -4  -5 -10    0.21    0.22
   4   5  10    0.07    0.26
   4   5  10    0.41    0.29
   4   5  10    0.36    0.24
   4   5  10    0.24    0.23
  -5  -5 -10    6.99    0.55
  -5  -5 -10    6.26    0.57
   5   5  10    6.83    0.69
   5   5  10    6.54    0.62
   5   5  10    5.67    0.64
   5   5  10    6.69    0.58
  -6  -5 -10   24.06    1.35
  -6  -5 -10   24.31    1.35
   6   5  10   23.27    1.42
   6   5  10   24.46    1.37
   6   5  10   22.76    1.32
   6   5  10   22.48    1.37
  -7  -5 -10    4.12    0.56
  -7  -5 -10    4.08    0.50
   7   5  10    4.57    0.75
   7   5  10    4.27    0.54
   7   5  10    3.73    0.45
  -8  -5 -10    0.88    0.41
  -8  -5 -10    0.67    0.37
   8   5  10    0.21    0.36
   8   5  10    1.07    0.35
   8   5  10    0.69    0.50
  -9  -5 -10    2.36    0.51
  -9  -5 -10    2.30    0.46
   9   5  10    1.91    0.41
   9   5  10    2.46    0.63
   8  -6 -10    1.03    0.68
  -8   6  10    1.49    0.49
  -8   6  10    1.46    0.70
   7  -6 -10    0.53    0.55
  -7   6  10    0.30    0.41
  -7   6  10    0.65    0.54
   6  -6 -10    0.22    0.44
   6  -6 -10    0.29    0.48
  -6   6  10    0.69    0.44
  -6   6  10    0.38    0.37
   5  -6 -10    4.50    0.60
   5  -6 -10    3.95    0.46
  -5   6  10    4.26    0.48
  -5   6  10    4.79    0.72
   4  -6 -10    1.63    0.37
   4  -6 -10    2.39    0.31
   4  -6 -10    2.49    0.43
  -4   6  10    2.09    0.37
  -4   6  10    2.13    0.39
   3  -6 -10    0.15    0.29
   3  -6 -10    0.31    0.20
   3  -6 -10    0.24    0.27
  -3   6  10    0.28    0.30
  -3   6  10    0.58    0.28
   2  -6 -10    6.20    0.42
   2  -6 -10    6.30    0.55
   2  -6 -10    5.64    0.53
  -2   6  10    5.39    0.60
  -2   6  10    6.35    0.54
  -2   6  10    6.49    0.73
   1  -6 -10    3.44    0.44
   1  -6 -10    3.59    0.37
   1  -6 -10    3.67    0.32
  -1   6  10    3.73    0.51
  -1   6  10    4.01    0.45
  -1   6  10    3.37    0.37
   0  -6 -10    0.86    0.16
   0  -6 -10    0.44    0.23
   0  -6 -10    0.36    0.22
   0  -6 -10    0.69    0.24
   0   6  10    0.41    0.26
   0   6  10    0.58    0.18
   0   6  10    0.06    0.22
  -1  -6 -10   49.08    2.49
  -1  -6 -10   46.65    2.53
  -1  -6 -10   47.99    2.49
  -1  -6 -10   49.52    2.43
   1   6  10   49.26    2.53
   1   6  10   48.67    2.50
  -2  -6 -10    0.50    0.22
  -2  -6 -10    0.14    0.23
  -2  -6 -10    0.21    0.20
  -2  -6 -10    0.40    0.17
   2   6  10    0.14    0.23
   2   6  10    0.40    0.27
   2   6  10    0.02    0.15
  -3  -6 -10    0.28    0.21
  -3  -6 -10   -0.06    0.24
  -3  -6 -10    0.18    0.20
   3   6  10    0.17    0.15
   3   6  10   -0.05    0.23
   3   6  10    0.22    0.26
  -4  -6 -10    0.94    0.28
  -4  -6 -10    1.10    0.29
  -4  -6 -10    1.42    0.26
   4   6  10    1.05    0.36
   4   6  10    1.08    0.31
   4   6  10    0.91    0.27
   4   6  10    1.43    0.27
  -5  -6 -10   32.01    1.71
  -5  -6 -10   32.88    1.68
   5   6  10   30.51    1.71
   5   6  10   32.22    1.74
   5   6  10   30.53    1.79
   5   6  10   30.95    1.68
  -6  -6 -10   -0.16    0.28
  -6  -6 -10   -0.16    0.30
   6   6  10   -0.16    0.27
   6   6  10    0.13    0.36
   6   6  10   -0.27    0.30
   6   6  10    0.12    0.40
  -7  -6 -10    0.47    0.33
  -7  -6 -10    0.21    0.42
   7   6  10    0.23    0.33
   7   6  10    0.54    0.45
  -8  -6 -10    1.40    0.44
  -8  -6 -10    0.99    0.39
   8   6  10    0.57    0.33
   8   6  10    1.10    0.53
   8   6  10    0.92    0.39
  -9  -6 -10    9.75    0.96
  -9  -6 -10    8.27    0.87
   9   6  10    8.04    1.20
   9   6  10    8.16    0.76
   7  -7 -10    2.62    0.72
  -7   7  10    3.89    0.68
  -7   7  10    3.59    0.59
   6  -7 -10    1.12    0.56
  -6   7  10    2.33    0.47
  -6   7  10    2.58    0.56
  -5   7  10    4.96    0.67
  -5   7  10    5.42    0.83
   4  -7 -10    0.33    0.36
   4  -7 -10    0.06    0.39
  -4   7  10   -0.14    0.37
  -4   7  10    0.11    0.33
   3  -7 -10    8.93    0.75
   3  -7 -10    8.59    0.72
   3  -7 -10    8.56    0.57
  -3   7  10   10.22    0.72
  -3   7  10    9.29    0.84
   2  -7 -10    1.54    0.32
   2  -7 -10    1.69    0.20
   2  -7 -10    1.28    0.19
   2  -7 -10    1.62    0.33
  -2   7  10    2.09    0.33
  -2   7  10    1.25    0.35
   1  -7 -10    6.77    0.56
   1  -7 -10    7.29    0.60
   1  -7 -10    5.71    0.38
   1  -7 -10    6.38    0.36
  -1   7  10    5.38    0.53
  -1   7  10    7.08    0.65
  -1   7  10    6.99    0.57
   0  -7 -10    1.49    0.29
   0  -7 -10    1.44    0.29
   0  -7 -10    1.41    0.27
   0   7  10    1.39    0.31
   0   7  10    1.29    0.25
   0   7  10    1.49    0.33
  -1  -7 -10    1.12    0.27
  -1  -7 -10    1.20    0.28
  -1  -7 -10    1.16    0.27
   1   7  10    1.27    0.23
   1   7  10    0.89    0.31
   1   7  10    1.49    0.31
  -2  -7 -10   19.60    1.16
  -2  -7 -10   18.18    1.18
  -2  -7 -10   20.62    1.06
  -2  -7 -10   21.37    1.14
   2   7  10   20.07    1.16
   2   7  10   21.83    1.22
  -3  -7 -10   15.40    0.97
  -3  -7 -10   16.23    0.95
  -3  -7 -10   16.59    0.89
   3   7  10   14.48    1.10
   3   7  10   17.13    1.04
   3   7  10   15.65    0.97
  -4  -7 -10    8.28    0.72
  -4  -7 -10    9.01    0.60
  -4  -7 -10    8.54    0.66
   4   7  10    8.90    0.63
   4   7  10    8.67    0.73
   4   7  10    8.10    0.80
   4   7  10    7.81    0.83
  -5  -7 -10    1.61    0.33
  -5  -7 -10    0.92    0.41
  -5  -7 -10    2.15    0.32
   5   7  10    1.82    0.34
   5   7  10    1.29    0.33
   5   7  10    1.49    0.66
   5   7  10    2.12    0.39
  -6  -7 -10    3.30    0.41
  -6  -7 -10    2.45    0.39
   6   7  10    2.87    0.45
   6   7  10    3.28    0.42
   6   7  10    2.93    0.44
   6   7  10    2.30    0.53
  -7  -7 -10    1.08    0.38
   7   7  10    1.14    0.51
   7   7  10    1.63    0.38
   7   7  10    0.54    0.36
  -8  -7 -10   15.01    1.06
  -8  -7 -10   16.68    1.15
   8   7  10   13.77    1.06
   8   7  10   15.33    1.29
   8   7  10   14.21    0.99
  -9  -7 -10    1.99    0.58
  -9  -7 -10    2.27    0.53
   9   7  10    2.55    0.42
   9   7  10    1.95    0.70
   6  -8 -10    0.35    0.63
  -6   8  10    0.48    0.57
  -6   8  10   -1.09    0.43
   5  -8 -10    0.34    0.52
  -5   8  10    0.58    0.51
  -5   8  10    0.02    0.47
   4  -8 -10   18.24    1.22
   4  -8 -10   16.94    1.18
  -4   8  10   17.81    1.14
  -4   8  10   18.43    1.27
   3  -8 -10    0.45    0.38
   3  -8 -10   -0.33    0.35
  -3   8  10    0.10    0.34
  -3   8  10   -0.56    0.33
   2  -8 -10    4.06    0.55
   2  -8 -10    4.26    0.47
  -2   8  10    4.01    0.52
  -2   8  10    4.06    0.46
   1  -8 -10    0.23    0.28
   1  -8 -10    0.01    0.31
  -1   8  10    0.22    0.32
   0  -8 -10   10.89    0.75
   0  -8 -10   10.48    0.71
   0   8  10   10.02    0.75
   0   8  10   10.33    0.83
  -1  -8 -10    3.96    0.49
   1   8  10    2.06    0.40
   1   8  10    3.13    0.39
  -2  -8 -10   14.43    0.88
  -2  -8 -10   14.18    0.91
   2   8  10   14.11    0.94
   2   8  10   14.68    0.99
  -3  -8 -10    0.27    0.33
  -3  -8 -10   -0.38    0.18
  -3  -8 -10   -0.46    0.25
   3   8  10   -0.50    0.28
   3   8  10    0.22    0.31
  -4  -8 -10   11.97    0.86
  -4  -8 -10   11.64    0.71
  -4  -8 -10   11.97    0.79
   4   8  10   10.83    0.87
   4   8  10   10.24    0.79
   4   8  10   11.09    0.98
  -5  -8 -10    2.12    0.37
  -5  -8 -10    1.60    0.33
  -5  -8 -10    1.54    0.45
   5   8  10    1.53    0.40
   5   8  10    0.89    0.45
   5   8  10    2.23    0.36
   5   8  10    1.59    0.37
  -6  -8 -10    2.99    0.43
  -6  -8 -10    2.94    0.43
   6   8  10    3.19    0.49
   6   8  10    4.91    0.65
   6   8  10    2.42    0.56
   6   8  10    2.93    0.46
  -7  -8 -10    8.44    0.77
  -7  -8 -10    8.03    0.77
   7   8  10    6.84    0.97
   7   8  10    6.43    0.78
   7   8  10    7.83    0.77
  -8  -8 -10    0.28    0.49
  -8  -8 -10    0.26    0.44
   8   8  10    0.55    0.38
   8   8  10   -0.89    0.40
   8   8  10    0.51    0.59
  -5   9  10    1.15    0.55
  -5   9  10    0.37    0.49
   4  -9 -10   -0.01    0.45
  -4   9  10    0.00    0.43
  -4   9  10    0.18    0.47
   3  -9 -10    0.32    0.38
  -3   9  10   -0.24    0.39
  -3   9  10   -0.36    0.41
   2  -9 -10    0.73    0.35
   2  -9 -10    0.14    0.41
  -2   9  10    0.13    0.37
  -2   9  10    0.18    0.37
   1  -9 -10    4.85    0.52
   1  -9 -10    3.90    0.46
  -1   9  10    5.33    0.70
  -1   9  10    4.79    0.63
   0  -9 -10   -0.15    0.31
   0   9  10    0.24    0.35
   0   9  10    0.29    0.35
  -1  -9 -10    4.56    0.57
  -1  -9 -10    3.64    0.49
   1   9  10    3.97    0.47
   1   9  10    3.47    0.49
  -2  -9 -10    0.07    0.26
  -2  -9 -10    0.78    0.34
   2   9  10   -0.13    0.36
   2   9  10    0.38    0.36
  -3  -9 -10    8.97    0.75
  -3  -9 -10    8.57    0.67
   3   9  10    8.46    0.74
   3   9  10    8.52    0.82
  -4  -9 -10    0.66    0.43
  -4  -9 -10    0.63    0.31
   4   9  10    0.96    0.46
   4   9  10    0.67    0.35
   4   9  10    0.43    0.38
  -5  -9 -10    3.08    0.42
  -5  -9 -10    3.42    0.61
   5   9  10    3.32    0.62
   5   9  10    2.26    0.46
   5   9  10    3.65    0.46
  -6  -9 -10   -0.05    0.43
   6   9  10    0.27    0.53
   6   9  10    0.49    0.50
  -7  -9 -10    0.17    0.42
   7   9  10    0.13    0.41
   7   9  10   -0.30    0.57
  -8  -9 -10    6.38    0.84
   8   9  10    3.95    0.60
   8   9  10    6.95    1.11
  -4  10  10    0.08    0.51
  -4  10  10    0.27    0.51
  -3  10  10    1.38    0.49
  -3  10  10    0.86    0.49
  -2  10  10    2.52    0.53
  -2  10  10    2.92    0.51
  -1  10  10    5.18    0.79
  -1  10  10    5.97    0.75
   0 -10 -10    1.05    0.26
   0  10  10    1.25    0.44
   0  10  10    1.37    0.43
  -1 -10 -10    1.44    0.27
   1  10  10    1.39    0.42
   1  10  10    1.35    0.43
  -2 -10 -10    1.82    0.30
   2  10  10    1.35    0.44
   2  10  10    1.39    0.45
  -3 -10 -10    2.72    0.35
   3  10  10    2.12    0.48
   3  10  10    2.41    0.53
   3  10  10    2.78    0.47
  -4 -10 -10    1.01    0.33
   4  10  10    0.31    0.42
   4  10  10    1.19    0.41
   4  10  10    1.00    0.50
  -5 -10 -10    0.69    0.35
   5  10  10    0.18    0.43
   5  10  10   -0.10    0.50
   5  10  10   -0.02    0.41
  -6 -10 -10   -0.17    0.44
   6  10  10    1.04    0.47
   6  10  10    0.04    0.57
   7  10  10    2.12    0.52
   7  10  10   -0.31    0.51
   7  10  10   -0.43    0.65
  -3  11  10   -1.20    0.50
  -3  11  10   -0.35    0.56
  -2  11  10    0.61    0.46
  -2  11  10    0.91    0.56
  -1  11  10    2.65    0.55
  -1  11  10    1.37    0.50
   0  11  10    7.31    0.91
   0  11  10    8.12    0.89
   1  11  10    1.74    0.51
   1  11  10    0.58    0.45
   2  11  10    2.92    0.55
   2  11  10    2.51    0.54
   3  11  10   -0.47    0.45
   3  11  10    0.82    0.53
   3  11  10   -0.34    0.45
   4  11  10    0.04    0.48
   4  11  10    0.71    0.46
   4  11  10    1.15    0.56
   5  11  10    1.65    0.52
   5  11  10    2.91    0.71
   5  11  10    1.92    0.55
   6  11  10    7.02    1.17
   6  11  10    5.06    0.69
  -1  12  10    0.60    0.50
   0  12  10    2.26    0.64
   0  12  10    1.89    0.58
   1  12  10    2.50    0.64
   1  12  10    1.75    0.59
   2  12  10    1.03    0.60
   2  12  10   -1.15    0.55
   3  12  10    0.04    0.56
   3  12  10   -0.05    0.56
   3  12  10    0.86    0.62
   4  12  10   -0.03    0.57
   4  12  10    1.93    0.74
   3   9 -11    0.94    0.70
   2   9 -11   -0.39    0.64
   1   9 -11    0.53    0.67
   0   9 -11   -0.67    0.69
   5   8 -11    0.16    0.51
   5   8 -11   -0.01    0.63
   4   8 -11    7.27    0.79
   4   8 -11    7.26    1.06
   3   8 -11    0.10    0.57
   3   8 -11    0.35    0.52
   3   8 -11    1.19    0.58
   2   8 -11    2.55    0.63
   2   8 -11    3.40    0.74
   1   8 -11    0.64    0.53
   0   8 -11    4.88    0.70
  -1   8 -11    0.48    0.64
  -1   8 -11   -1.58    0.57
  -2   8 -11   10.74    1.19
  -3   8 -11    1.17    0.75
   6   7 -11    5.06    0.73
   6   7 -11    5.76    0.77
   5   7 -11    1.48    0.58
   4   7 -11    0.80    0.52
   4   7 -11    1.14    0.38
   3   7 -11   -0.07    0.48
   3   7 -11    0.46    0.36
   3   7 -11   -0.41    0.47
   2   7 -11    1.50    0.52
   2   7 -11    1.25    0.35
   2   7 -11    0.93    0.45
   1   7 -11   10.51    0.86
   1   7 -11   12.38    0.80
   1   7 -11   10.98    1.00
   0   7 -11   -0.16    0.46
   0   7 -11    0.14    0.33
   0   7 -11    0.84    0.37
  -1   7 -11    2.89    0.41
  -1   7 -11    1.66    0.53
  -2   7 -11    0.09    0.38
  -2   7 -11   -0.41    0.52
  -3   7 -11    8.59    1.07
  -4   7 -11    0.12    0.68
   7   6 -11   16.13    1.13
   7   6 -11   17.25    1.35
   6   6 -11   -0.18    0.50
   6   6 -11   -0.87    0.37
   5   6 -11    0.31    0.45
   5   6 -11   -0.09    0.46
   4   6 -11   -0.19    0.43
   4   6 -11    0.52    0.44
   4   6 -11   -0.25    0.30
  -4  -6  11   -0.36    0.60
   3   6 -11   10.90    0.73
   3   6 -11    9.96    0.87
   3   6 -11    8.65    0.79
   2   6 -11    3.08    0.45
   2   6 -11    4.45    0.55
   2   6 -11    3.08    0.45
   2   6 -11    3.75    0.48
   1   6 -11    0.89    0.35
   1   6 -11    0.88    0.30
   1   6 -11    0.36    0.33
   1   6 -11   -0.28    0.39
   0   6 -11    0.16    0.26
   0   6 -11   -0.46    0.27
   0   6 -11   -0.27    0.40
   0   6 -11   -0.11    0.32
   0   6 -11   -0.03    0.29
  -1   6 -11    3.32    0.44
  -1   6 -11    3.99    0.56
  -1   6 -11    3.61    0.40
  -1   6 -11    3.88    0.54
  -2   6 -11    4.83    0.59
  -2   6 -11    4.51    0.69
  -2   6 -11    4.41    0.58
  -2   6 -11    4.12    0.50
  -3   6 -11    0.42    0.37
  -3   6 -11   -0.20    0.48
  -3   6 -11   -0.26    0.79
  -4   6 -11    3.41    0.62
  -5   6 -11    0.43    0.53
  -5   6 -11   -0.25    0.67
   8   5 -11    4.98    0.60
   8   5 -11    6.09    0.98
   7   5 -11    0.35    0.50
   7   5 -11   -0.62    0.37
   6   5 -11    2.84    0.53
   6   5 -11    2.64    0.43
   5   5 -11    1.36    0.50
   5   5 -11    1.79    0.36
   4   5 -11    8.48    0.80
   4   5 -11    7.02    0.74
   4   5 -11    9.16    0.66
  -4  -5  11    8.67    1.00
   3   5 -11    0.90    0.29
   3   5 -11    0.96    0.37
   3   5 -11    0.45    0.32
  -3  -5  11    0.27    0.43
   2   5 -11    1.36    0.29
   2   5 -11    1.12    0.35
   2   5 -11    2.21    0.42
   2   5 -11    1.83    0.35
   1   5 -11    1.66    0.39
   1   5 -11    1.85    0.32
   1   5 -11    1.98    0.30
   1   5 -11    1.48    0.29
   0   5 -11   21.10    1.13
   0   5 -11   20.31    1.15
   0   5 -11   20.72    1.24
   0   5 -11   19.67    1.09
  -1   5 -11   -0.14    0.30
  -1   5 -11    0.03    0.27
  -1   5 -11   -0.13    0.33
  -1   5 -11   -0.43    0.25
  -2   5 -11    1.88    0.34
  -2   5 -11    1.67    0.36
  -2   5 -11    1.32    0.40
  -2   5 -11    1.58    0.36
  -3   5 -11   -0.32    0.39
  -3   5 -11   -0.23    0.32
  -3   5 -11   -0.39    0.38
  -3   5 -11    0.55    0.38
  -4   5 -11    0.96    0.48
  -5   5 -11    3.05    0.54
  -5   5 -11    3.92    0.61
  -6   5 -11    0.93    0.54
  -6   5 -11    0.62    0.56
   8   4 -11    4.26    0.55
   8   4 -11    5.83    0.91
   7   4 -11    2.27    0.43
   7   4 -11    1.96    0.52
   6   4 -11    2.62    0.40
   6   4 -11    2.29    0.49
   5   4 -11    4.43    0.73
   5   4 -11    6.06    0.56
   4   4 -11   -0.03    0.30
   4   4 -11    0.08    0.35
   4   4 -11    0.10    0.26
  -4  -4  11   -0.12    0.48
   3   4 -11    0.17    0.27
   3   4 -11   -0.07    0.32
   3   4 -11    0.09    0.25
  -3  -4  11   -0.17    0.37
   2   4 -11    0.22    0.27
   2   4 -11    0.09    0.23
   2   4 -11   -0.06    0.27
  -2  -4  11    0.02    0.30
   1   4 -11   19.48    1.05
   1   4 -11   16.86    1.03
   1   4 -11   19.47    1.07
   1   4 -11   20.03    1.15
   0   4 -11    0.84    0.26
   0   4 -11    0.95    0.34
   0   4 -11    0.76    0.19
   0   4 -11    1.44    0.25
  -1   4 -11   -0.04    0.26
  -1   4 -11    0.49    0.23
  -1   4 -11    0.14    0.49
  -1   4 -11    0.04    0.23
  -2   4 -11    0.53    0.32
  -2   4 -11    0.31    0.28
  -2   4 -11    0.35    0.27
  -2   4 -11    0.11    0.28
  -3   4 -11    2.87    0.37
  -3   4 -11    1.83    0.38
  -3   4 -11    2.46    0.44
  -3   4 -11    2.72    0.36
  -4   4 -11    0.68    0.42
  -4   4 -11    0.09    0.74
  -4   4 -11   -0.17    0.32
  -4   4 -11    0.86    0.40
  -5   4 -11    3.61    0.51
  -5   4 -11    3.84    0.56
  -6   4 -11    2.79    0.55
  -6   4 -11    3.08    0.51
  -7   4 -11    1.52    0.57
  -7   4 -11    0.45    0.53
   9   3 -11    1.34    0.46
   9   3 -11    2.16    0.55
   8   3 -11    0.92    0.46
   8   3 -11    0.10    0.37
  -8  -3  11    0.25    0.46
   7   3 -11    0.72    0.44
   7   3 -11    0.98    0.36
  -7  -3  11    0.77    0.38
   6   3 -11    1.00    0.42
   6   3 -11    1.12    0.32
  -6  -3  11    0.48    0.46
  -6  -3  11    0.64    0.30
   5   3 -11    1.19    0.29
   5   3 -11    0.70    0.37
  -5  -3  11    1.22    0.34
  -5  -3  11    0.50    0.67
  -5  -3  11    1.06    0.24
   4   3 -11    0.60    0.28
   4   3 -11    0.68    0.27
   4   3 -11    0.65    0.33
  -4  -3  11    0.82    0.24
  -4  -3  11    0.52    0.47
   3   3 -11   24.30    1.30
   3   3 -11   22.43    1.33
   3   3 -11   21.40    1.30
  -3  -3  11   27.49    1.47
   2   3 -11    1.80    0.29
   2   3 -11    1.41    0.29
   2   3 -11    2.09    0.27
  -2  -3  11    1.70    0.34
   1   3 -11    5.27    0.45
   1   3 -11    5.21    0.47
   1   3 -11    5.29    0.53
  -1  -3  11    4.82    0.47
   0   3 -11    1.30    0.32
   0   3 -11    0.73    0.18
   0   3 -11    0.82    0.24
   0   3 -11    0.93    0.23
  -1   3 -11    1.69    0.28
  -1   3 -11    1.41    0.35
  -1   3 -11    2.13    0.27
  -1   3 -11    2.34    0.35
  -2   3 -11    0.83    0.29
  -2   3 -11    1.13    0.27
  -2   3 -11    1.03    0.26
  -2   3 -11    0.87    0.26
  -3   3 -11    3.80    0.54
  -3   3 -11    3.62    0.46
  -3   3 -11    4.57    0.47
  -3   3 -11    3.25    0.53
  -4   3 -11    0.90    0.37
  -4   3 -11    2.04    0.37
  -4   3 -11    1.86    0.37
  -4   3 -11    1.55    0.33
  -5   3 -11    0.38    0.42
  -6   3 -11    3.57    0.51
  -6   3 -11    3.51    0.55
  -7   3 -11    4.65    0.61
  -7   3 -11    5.09    0.62
  -8   3 -11    3.98    0.63
   9   2 -11    1.60    0.40
   9   2 -11    1.78    0.49
  -9  -2  11    2.08    0.63
   8   2 -11    2.31    0.40
   8   2 -11    1.78    0.51
  -8  -2  11    2.45    0.51
   7   2 -11    0.03    0.39
   7   2 -11    0.58    0.31
  -7  -2  11    0.42    0.54
  -7  -2  11    0.01    0.38
   6   2 -11   -0.12    0.35
   6   2 -11   -0.09    0.27
  -6  -2  11    0.40    0.44
  -6  -2  11   -0.01    0.32
   5   2 -11   -0.01    0.25
   5   2 -11   -0.07    0.32
  -5  -2  11   -0.65    0.47
  -5  -2  11    0.43    0.36
  -5  -2  11   -0.04    0.26
   4   2 -11   16.62    0.95
   4   2 -11   14.53    0.95
   4   2 -11   15.36    1.02
  -4  -2  11   16.50    0.90
  -4  -2  11   18.09    1.19
  -4  -2  11   14.85    1.15
   3   2 -11    5.37    0.56
   3   2 -11    6.15    0.52
   3   2 -11    6.67    0.51
  -3  -2  11    6.74    0.45
  -3  -2  11    6.95    0.74
  -3  -2  11    5.99    0.53
   2   2 -11    1.60    0.28
   2   2 -11    3.10    0.36
   2   2 -11    2.17    0.29
  -2  -2  11    1.88    0.36
  -2  -2  11    1.88    0.26
  -2  -2  11    2.03    0.22
   1   2 -11    0.29    0.24
   1   2 -11    0.02    0.21
   1   2 -11    0.11    0.12
   1   2 -11    0.30    0.20
  -1  -2  11    0.02    0.18
  -1  -2  11    0.16    0.14
  -1  -2  11    0.08    0.24
   0   2 -11   10.92    0.65
   0   2 -11   11.29    0.69
   0   2 -11   11.71    0.69
   0   2 -11   11.26    0.75
   0  -2  11   10.36    0.65
   0  -2  11   11.39    0.61
  -1   2 -11    2.54    0.36
  -1   2 -11    3.02    0.36
  -1   2 -11    2.90    0.35
  -2   2 -11   22.83    1.25
  -2   2 -11   23.11    1.21
  -2   2 -11   22.68    1.21
  -2   2 -11   22.75    1.21
   2  -2  11   22.24    1.13
   2  -2  11   19.35    1.15
  -3   2 -11    0.44    0.25
  -3   2 -11    0.61    0.25
  -3   2 -11    0.82    0.31
  -3   2 -11    0.77    0.25
   3  -2  11    0.48    0.17
   3  -2  11    0.56    0.20
  -4   2 -11    2.84    0.36
  -4   2 -11    2.82    0.39
  -4   2 -11    4.43    0.54
   4  -2  11    3.85    0.40
   4  -2  11    2.70    0.34
  -5   2 -11    0.10    0.36
   5  -2  11    0.26    0.27
   5  -2  11    0.06    0.23
  -6   2 -11   14.75    1.09
  -6   2 -11   17.10    1.10
   6  -2  11   17.04    0.98
  -7   2 -11   -0.17    0.38
  -7   2 -11    0.06    0.41
   7  -2  11    0.57    0.40
  -8   2 -11    0.22    0.46
  -8   2 -11    0.22    0.45
   9   1 -11   -0.71    0.35
   9   1 -11    0.81    0.39
  -9  -1  11   -0.31    0.56
   8   1 -11   -0.39    0.36
   8   1 -11   -0.30    0.31
  -8  -1  11    0.27    0.46
   7   1 -11    0.65    0.38
   7   1 -11    0.25    0.30
  -7  -1  11    0.03    0.50
   6   1 -11   11.68    0.76
   6   1 -11    9.85    0.86
  -6  -1  11   10.92    0.90
  -6  -1  11   11.48    0.79
   5   1 -11    2.90    0.42
   5   1 -11    3.82    0.45
  -5  -1  11    3.57    0.45
  -5  -1  11    2.97    0.55
  -5  -1  11    4.24    0.49
   4   1 -11    1.04    0.24
   4   1 -11    1.28    0.27
   4   1 -11    0.91    0.30
  -4  -1  11    1.53    0.34
  -4  -1  11    1.45    0.27
  -4  -1  11    0.93    0.43
   3   1 -11    2.30    0.29
   3   1 -11    1.78    0.31
   3   1 -11    1.93    0.28
  -3  -1  11    2.31    0.28
  -3  -1  11    3.57    0.42
  -3  -1  11    2.26    0.42
   2   1 -11   32.07    1.63
   2   1 -11   29.27    1.63
  -2  -1  11   31.76    1.60
   1   1 -11    9.43    0.60
   1   1 -11    9.45    0.60
   1   1 -11    8.57    0.52
   1   1 -11    9.93    0.64
  -1  -1  11    8.56    0.56
  -1  -1  11    8.39    0.55
   0   1 -11   25.92    1.41
   0   1 -11   26.54    1.47
   0   1 -11   27.08    1.44
   0   1 -11   26.76    1.43
   0  -1  11   25.55    1.40
   0  -1  11   30.98    1.43
   0  -1  11   27.17    1.40
  -1   1 -11   22.11    1.24
  -1   1 -11   22.69    1.21
  -1   1 -11   22.80    1.21
   1  -1  11   22.11    1.17
   1  -1  11   21.85    1.17
  -2   1 -11    1.53    0.24
  -2   1 -11    1.26    0.23
  -2   1 -11    1.09    0.23
  -2   1 -11    1.30    0.28
   2  -1  11    1.32    0.22
   2  -1  11    1.17    0.20
  -3   1 -11   23.59    1.26
  -3   1 -11   23.53    1.30
  -3   1 -11   22.74    1.26
  -3   1 -11   23.30    1.27
   3  -1  11   22.07    1.22
  -4   1 -11    2.62    0.34
  -4   1 -11    2.26    0.35
  -4   1 -11    3.05    0.41
  -4   1 -11    3.10    0.41
   4  -1  11    3.16    0.42
   4  -1  11    2.72    0.39
  -5   1 -11   11.62    0.86
   5  -1  11   12.75    0.76
   5  -1  11    9.75    0.74
  -6   1 -11    0.64    0.34
  -6   1 -11    1.41    0.40
   6  -1  11    0.77    0.36
   6  -1  11    1.25    0.35
  -7   1 -11    1.11    0.38
  -7   1 -11    1.58    0.40
   7  -1  11    1.13    0.39
  -8   1 -11    0.56    0.46
  -8   1 -11    0.65    0.42
   8  -1  11    0.03    0.76
   9   0 -11    2.44    0.44
  -9   0  11    2.94    0.61
   8   0 -11   -0.29    0.31
   8   0 -11    0.56    0.36
  -8   0  11   -0.08    0.37
  -8   0  11    0.04    0.45
   7   0 -11   27.79    1.79
   7   0 -11   31.04    1.70
  -7   0  11   31.67    1.67
  -7   0  11   34.00    1.75
   6   0 -11    0.59    0.35
   6   0 -11    0.52    0.27
  -6   0  11    0.20    0.32
  -6   0  11   -0.13    0.22
   5   0 -11   -0.21    0.27
   5   0 -11    0.25    0.29
  -5   0  11   -0.33    0.25
  -5   0  11    0.89    0.35
  -5   0  11    0.31    0.18
   4   0 -11   -0.04    0.20
   4   0 -11   -0.12    0.25
   4   0 -11    0.07    0.20
  -4   0  11   -0.15    0.23
  -4   0  11    0.06    0.14
  -4   0  11    0.71    0.28
  -4   0  11    0.96    0.40
   3   0 -11   29.40    1.56
   3   0 -11   27.21    1.55
  -3   0  11   29.37    1.55
  -3   0  11   28.79    1.54
  -3   0  11   27.82    1.48
  -3   0  11   33.70    1.65
   2   0 -11    9.77    0.64
   2   0 -11   10.62    0.65
  -2   0  11    9.69    0.65
  -2   0  11   10.15    0.64
  -2   0  11   10.82    0.58
   1   0 -11    4.90    0.40
   1   0 -11    4.74    0.42
   1   0 -11    4.47    0.36
  -1   0  11    4.09    0.39
  -1   0  11    4.63    0.41
  -1   0  11    5.33    0.52
  -1   0  11    5.20    0.37
   0   0 -11    0.05    0.17
   0   0 -11    0.18    0.21
   0   0 -11    0.03    0.16
   0   0 -11    0.38    0.18
   0   0  11    0.24    0.18
  -1   0 -11   18.50    1.04
  -1   0 -11   18.80    1.04
  -1   0 -11   18.39    1.06
  -1   0 -11   17.95    1.03
   1   0  11   20.44    1.01
   1   0  11   17.99    1.02
   1   0  11   20.62    1.05
   1   0  11   17.78    1.02
  -2   0 -11   28.08    1.50
  -2   0 -11   28.70    1.50
  -2   0 -11   27.67    1.51
  -2   0 -11   28.27    1.49
   2   0  11   28.24    1.47
   2   0  11   28.17    1.47
  -3   0 -11    9.40    0.65
  -3   0 -11    9.37    0.64
  -3   0 -11   10.14    0.63
  -3   0 -11   10.18    0.69
   3   0  11    9.74    0.62
   3   0  11    9.04    0.63
  -4   0 -11    0.15    0.27
  -4   0 -11   -0.17    0.23
  -4   0 -11    0.10    0.22
  -4   0 -11    0.49    0.21
   4   0  11   -0.37    0.21
   4   0  11   -0.34    0.21
   4   0  11    0.38    0.24
  -5   0 -11    7.83    0.68
  -5   0 -11    9.05    0.72
   5   0  11    9.21    0.66
   5   0  11    8.83    0.65
  -6   0 -11    2.23    0.38
  -6   0 -11    2.87    0.46
   6   0  11    2.04    0.40
   6   0  11    2.12    0.36
  -7   0 -11    0.46    0.32
  -7   0 -11    0.18    0.39
   7   0  11    0.84    0.39
  -8   0 -11    3.43    0.54
  -8   0 -11    5.19    0.70
   8   0  11    2.87    0.49
  -9   0 -11    0.68    0.52
  -9   0 -11   -0.32    0.41
   9   0  11    0.43    0.50
   9  -1 -11   -0.78    0.37
  -9   1  11    0.06    0.52
   8  -1 -11    5.02    0.63
  -8   1  11    5.60    0.75
   7  -1 -11    0.33    0.29
  -7   1  11    0.44    0.33
  -7   1  11    0.16    0.36
   6  -1 -11    4.98    0.55
  -6   1  11    6.62    0.61
  -6   1  11    6.32    0.58
  -5   1  11    8.43    0.64
  -5   1  11    7.00    0.56
  -5   1  11    7.80    0.65
   4  -1 -11   13.22    0.81
  -4   1  11   12.78    0.83
  -4   1  11   13.87    0.77
  -4   1  11   13.86    0.84
  -4   1  11   12.89    0.96
   3  -1 -11    2.90    0.38
   3  -1 -11    2.46    0.32
  -3   1  11    2.97    0.41
  -3   1  11    3.88    0.35
  -3   1  11    2.85    0.40
   2  -1 -11    0.85    0.21
   2  -1 -11    0.97    0.20
  -2   1  11    0.98    0.18
  -2   1  11    1.34    0.31
  -2   1  11    1.08    0.23
  -2   1  11    0.95    0.22
   1  -1 -11    0.55    0.16
   1  -1 -11    0.10    0.15
   1  -1 -11    0.29    0.19
  -1   1  11    0.13    0.19
   0  -1 -11   50.22    2.57
   0  -1 -11   49.71    2.56
   0  -1 -11   51.48    2.55
   0  -1 -11   49.83    2.55
   0   1  11   49.85    2.53
   0   1  11   52.39    2.55
   0   1  11   48.23    2.54
   0   1  11   50.00    2.54
  -1  -1 -11    0.23    0.18
  -1  -1 -11    0.33    0.16
  -1  -1 -11    0.03    0.17
  -1  -1 -11    0.19    0.19
   1   1  11    0.88    0.20
   1   1  11    0.33    0.19
   1   1  11    0.61    0.20
   1   1  11    0.29    0.20
  -2  -1 -11   10.92    0.65
  -2  -1 -11   11.05    0.69
  -2  -1 -11   11.30    0.69
  -2  -1 -11   11.31    0.69
   2   1  11   10.13    0.63
   2   1  11   10.29    0.65
   2   1  11   10.62    0.66
  -3  -1 -11    0.15    0.22
  -3  -1 -11    0.31    0.18
  -3  -1 -11    0.48    0.24
  -3  -1 -11    0.24    0.20
   3   1  11    0.01    0.20
   3   1  11    0.88    0.26
   3   1  11    0.48    0.19
   3   1  11    0.01    0.22
  -4  -1 -11   12.91    0.81
  -4  -1 -11   11.91    0.83
  -4  -1 -11   13.38    0.85
  -4  -1 -11   12.97    0.77
   4   1  11   12.21    0.79
   4   1  11   14.64    0.75
   4   1  11   12.42    0.82
   4   1  11   12.05    0.79
  -5  -1 -11    1.31    0.31
  -5  -1 -11    2.22    0.39
   5   1  11    2.13    0.33
   5   1  11    1.97    0.32
   5   1  11    2.95    0.42
  -6  -1 -11   18.43    1.15
  -6  -1 -11   20.24    1.19
   6   1  11   18.78    1.12
   6   1  11   16.56    1.15
   6   1  11   21.37    1.13
  -7  -1 -11   -0.24    0.35
  -7  -1 -11    0.66    0.31
   7   1  11    0.24    0.36
   7   1  11    0.38    0.35
  -8  -1 -11    0.50    0.36
  -8  -1 -11    0.78    0.44
   8   1  11    0.17    0.39
   8   1  11    0.32    0.44
  -9  -1 -11    3.98    0.61
  -9  -1 -11    2.16    0.47
   9   1  11    2.76    0.53
   9  -2 -11   -0.94    0.39
  -9   2  11    0.79    0.71
  -9   2  11   -0.60    0.50
   8  -2 -11    0.58    0.35
  -8   2  11    0.81    0.45
   7  -2 -11    3.85    0.46
  -7   2  11    3.38    0.48
  -7   2  11    4.57    0.68
   6  -2 -11    6.87    0.60
  -6   2  11    7.37    0.68
  -6   2  11    6.98    0.66
   5  -2 -11    2.67    0.36
  -5   2  11    2.69    0.34
  -5   2  11    2.86    0.39
   4  -2 -11    0.47    0.23
  -4   2  11    0.33    0.35
  -4   2  11    0.20    0.22
  -4   2  11   -0.52    0.22
  -4   2  11    0.47    0.25
   3  -2 -11    8.36    0.58
  -3   2  11    8.66    0.70
  -3   2  11    8.37    0.57
  -3   2  11    7.12    0.59
  -3   2  11    9.03    0.61
   2  -2 -11    1.05    0.23
   2  -2 -11    1.18    0.23
  -2   2  11    0.97    0.21
  -2   2  11    0.37    0.21
  -2   2  11    0.95    0.24
  -2   2  11    1.18    0.31
   1  -2 -11   39.92    2.08
   1  -2 -11   41.52    2.08
   1  -2 -11   41.60    2.07
   1  -2 -11   37.19    2.10
  -1   2  11   39.94    2.06
  -1   2  11   40.84    2.06
  -1   2  11   40.28    2.10
  -1   2  11   40.54    2.08
   0  -2 -11   12.88    0.76
   0  -2 -11   12.65    0.75
   0  -2 -11   12.07    0.74
   0  -2 -11   13.29    0.77
   0   2  11   12.93    0.76
   0   2  11   13.10    0.75
   0   2  11   12.08    0.75
   0   2  11   12.35    0.80
  -1  -2 -11    6.35    0.51
  -1  -2 -11    6.30    0.48
  -1  -2 -11    6.66    0.46
  -1  -2 -11    6.52    0.49
   1   2  11    6.49    0.49
   1   2  11    7.48    0.50
   1   2  11    5.94    0.47
  -2  -2 -11    4.94    0.45
  -2  -2 -11    5.03    0.39
  -2  -2 -11    4.30    0.42
  -2  -2 -11    4.59    0.45
   2   2  11    5.36    0.45
   2   2  11    4.15    0.41
   2   2  11    4.35    0.40
  -3  -2 -11    1.16    0.24
  -3  -2 -11    1.60    0.27
  -3  -2 -11    1.74    0.23
  -3  -2 -11    1.38    0.26
   3   2  11    1.68    0.28
   3   2  11    1.81    0.26
   3   2  11    1.77    0.25
  -4  -2 -11    0.06    0.21
  -4  -2 -11    0.42    0.28
  -4  -2 -11   -0.10    0.21
   4   2  11    0.65    0.27
   4   2  11    0.12    0.23
   4   2  11    0.34    0.24
   4   2  11    0.06    0.22
   4   2  11    0.20    0.25
  -5  -2 -11    2.10    0.35
  -5  -2 -11    1.05    0.28
   5   2  11    1.36    0.31
   5   2  11    1.58    0.31
   5   2  11    1.51    0.30
   5   2  11    1.52    0.33
   5   2  11    1.46    0.31
  -6  -2 -11    0.13    0.30
  -6  -2 -11    0.04    0.27
   6   2  11    0.60    0.33
  -7  -2 -11    5.64    0.70
  -7  -2 -11    6.02    0.63
   7   2  11    6.87    0.67
  -8  -2 -11    0.36    0.46
  -8  -2 -11    0.36    0.33
   8   2  11    0.44    0.49
   8   2  11   -0.09    0.38
  -9  -2 -11    5.31    0.67
  -9  -2 -11    4.16    0.54
   9   2  11    4.15    0.57
   8  -3 -11    0.41    0.39
  -8   3  11    0.73    0.53
  -8   3  11   -0.49    0.40
   7  -3 -11    1.75    0.40
  -7   3  11    1.76    0.45
  -7   3  11    1.04    0.40
   6  -3 -11    0.13    0.30
  -6   3  11    0.09    0.34
  -6   3  11   -0.19    0.30
   5  -3 -11    0.09    0.29
   5  -3 -11    0.16    0.26
  -5   3  11    0.10    0.28
  -5   3  11   -0.26    0.27
   4  -3 -11    0.70    0.24
  -4   3  11    0.20    0.25
  -4   3  11    0.09    0.26
  -4   3  11    0.09    0.40
   3  -3 -11   10.54    0.72
   3  -3 -11   10.71    0.71
  -3   3  11   11.56    0.84
  -3   3  11   11.61    0.73
  -3   3  11   11.85    0.74
  -3   3  11    9.86    0.69
   2  -3 -11    5.48    0.44
   2  -3 -11    4.23    0.40
  -2   3  11    4.34    0.45
  -2   3  11    4.31    0.41
  -2   3  11    4.66    0.55
  -2   3  11    4.50    0.44
   1  -3 -11    2.96    0.36
   1  -3 -11    2.58    0.30
   1  -3 -11    3.09    0.37
   1  -3 -11    3.02    0.38
  -1   3  11    3.55    0.40
  -1   3  11    3.37    0.38
  -1   3  11    2.57    0.34
   0  -3 -11    3.62    0.38
   0  -3 -11    3.98    0.39
   0  -3 -11    4.13    0.39
   0  -3 -11    4.20    0.41
   0   3  11    3.67    0.44
   0   3  11    3.71    0.39
   0   3  11    4.27    0.42
   0   3  11    3.51    0.36
  -1  -3 -11   24.29    1.30
  -1  -3 -11   23.93    1.31
  -1  -3 -11   24.38    1.29
  -1  -3 -11   24.70    1.33
   1   3  11   22.68    1.28
   1   3  11   23.73    1.30
   1   3  11   25.14    1.31
  -2  -3 -11    0.06    0.19
  -2  -3 -11    0.13    0.18
  -2  -3 -11    0.05    0.21
  -2  -3 -11    0.11    0.17
   2   3  11    0.10    0.17
   2   3  11    0.25    0.21
   2   3  11   -0.15    0.19
  -3  -3 -11   10.56    0.73
  -3  -3 -11   11.07    0.71
  -3  -3 -11   12.13    0.72
   3   3  11   10.45    0.73
   3   3  11   10.64    0.68
   3   3  11   11.27    0.74
   3   3  11   10.50    0.69
  -4  -3 -11    4.89    0.53
  -4  -3 -11    6.07    0.55
  -4  -3 -11    6.21    0.51
   4   3  11    6.81    0.53
   4   3  11    5.97    0.56
   4   3  11    5.72    0.54
   4   3  11    6.30    0.57
   4   3  11    5.94    0.49
  -5  -3 -11    0.35    0.39
  -5  -3 -11    0.51    0.31
   5   3  11    0.37    0.31
   5   3  11    0.77    0.30
   5   3  11    0.76    0.29
   5   3  11    0.72    0.28
  -6  -3 -11    3.35    0.62
   6   3  11    5.97    0.67
   6   3  11    5.49    0.57
   6   3  11    7.38    0.64
  -7  -3 -11   12.50    0.90
  -7  -3 -11   13.59    0.95
   7   3  11   12.61    0.91
   7   3  11   14.85    1.01
  -8  -3 -11    1.97    0.51
  -8  -3 -11    2.02    0.39
   8   3  11    1.35    0.41
   8   3  11    2.35    0.53
  -9  -3 -11    0.02    0.36
  -9  -3 -11   -0.75    0.48
   9   3  11    0.61    0.45
   9   3  11    0.66    0.65
   8  -4 -11    0.26    0.48
  -8   4  11    1.75    0.60
  -8   4  11   -0.40    0.42
   7  -4 -11   -0.51    0.37
  -7   4  11    0.58    0.45
  -7   4  11   -0.19    0.37
   6  -4 -11    0.17    0.34
  -6   4  11    0.66    0.39
  -6   4  11    0.14    0.34
   5  -4 -11    1.27    0.35
   5  -4 -11    1.31    0.32
  -5   4  11    1.41    0.35
  -5   4  11    1.63    0.34
   4  -4 -11    6.91    0.59
   4  -4 -11    7.20    0.59
  -4   4  11    6.95    0.64
   3  -4 -11    3.63    0.44
   3  -4 -11    4.15    0.47
  -3   4  11    3.27    0.44
  -3   4  11    2.86    0.37
  -3   4  11    4.29    0.58
   2  -4 -11    0.06    0.22
   2  -4 -11    0.30    0.22
  -2   4  11    0.69    0.31
  -2   4  11   -0.03    0.22
  -2   4  11    0.03    0.23
   1  -4 -11    7.55    0.55
   1  -4 -11    8.40    0.59
   1  -4 -11    8.07    0.54
   1  -4 -11    8.25    0.57
  -1   4  11    7.94    0.57
  -1   4  11    7.37    0.64
  -1   4  11    8.45    0.60
  -1   4  11    6.77    0.52
   0  -4 -11    3.96    0.37
   0  -4 -11    3.78    0.39
   0  -4 -11    3.95    0.40
   0  -4 -11    3.78    0.42
   0   4  11    4.14    0.42
   0   4  11    3.38    0.34
   0   4  11    4.06    0.46
  -1  -4 -11    0.67    0.22
  -1  -4 -11    0.58    0.20
  -1  -4 -11    0.39    0.22
  -1  -4 -11    0.66    0.20
   1   4  11    0.59    0.23
   1   4  11    0.69    0.18
   1   4  11    0.40    0.23
  -2  -4 -11   38.95    2.06
  -2  -4 -11   39.83    2.07
  -2  -4 -11   40.25    2.11
  -2  -4 -11   42.04    2.05
   2   4  11   38.01    2.05
   2   4  11   40.57    2.09
   2   4  11   39.15    2.06
  -3  -4 -11    1.43    0.27
  -3  -4 -11    0.87    0.25
  -3  -4 -11    1.32    0.23
  -3  -4 -11    1.34    0.26
   3   4  11    0.73    0.19
   3   4  11    1.15    0.26
   3   4  11    1.16    0.28
  -4  -4 -11    0.83    0.25
  -4  -4 -11    1.12    0.29
  -4  -4 -11    0.57    0.25
   4   4  11    1.06    0.29
   4   4  11    0.77    0.30
   4   4  11    0.94    0.29
   4   4  11    0.78    0.27
  -5  -4 -11    3.74    0.42
   5   4  11    4.22    0.53
   5   4  11    3.25    0.58
  -6  -4 -11   26.08    1.54
  -6  -4 -11   27.74    1.55
   6   4  11   27.05    1.53
   6   4  11   28.61    1.59
   6   4  11   28.41    1.56
  -7  -4 -11    0.16    0.40
  -7  -4 -11   -0.16    0.29
   7   4  11   -0.44    0.32
   7   4  11    0.31    0.44
   7   4  11   -0.24    0.29
  -8  -4 -11    1.06    0.37
  -8  -4 -11    1.59    0.47
   8   4  11    1.21    0.38
   8   4  11    1.41    0.54
  -9  -4 -11    0.66    0.41
  -9  -4 -11    0.05    0.49
   9   4  11    1.26    0.64
   9   4  11    0.72    0.42
   8  -5 -11    1.15    0.55
  -8   5  11   -0.86    0.44
  -8   5  11    1.01    0.64
   7  -5 -11    0.47    0.46
  -7   5  11   -0.29    0.37
  -7   5  11    0.35    0.51
   6  -5 -11    6.44    0.73
  -6   5  11    7.48    0.87
  -6   5  11    5.79    0.69
   5  -5 -11    3.63    0.45
   5  -5 -11    3.00    0.41
  -5   5  11    2.40    0.44
  -5   5  11    3.14    0.41
   4  -5 -11    8.17    0.80
   4  -5 -11    7.87    0.63
  -4   5  11    9.01    0.76
  -4   5  11    8.64    0.67
   3  -5 -11    1.36    0.28
   3  -5 -11    1.60    0.30
   3  -5 -11    1.60    0.32
  -3   5  11    1.24    0.30
  -3   5  11    1.05    0.31
   2  -5 -11   11.95    0.83
   2  -5 -11   14.38    0.85
  -2   5  11   14.18    0.91
  -2   5  11   13.40    0.88
  -2   5  11   12.85    0.84
   1  -5 -11   10.40    0.72
   1  -5 -11   11.13    0.66
   1  -5 -11   10.59    0.71
  -1   5  11   11.15    0.76
  -1   5  11   10.96    0.71
   0  -5 -11    4.52    0.45
   0  -5 -11    4.55    0.46
   0  -5 -11    4.53    0.50
   0  -5 -11    4.48    0.40
   0   5  11    4.76    0.51
   0   5  11    4.70    0.46
  -1  -5 -11    1.83    0.24
  -1  -5 -11    1.68    0.29
  -1  -5 -11    1.59    0.28
  -1  -5 -11    1.51    0.26
   1   5  11    1.14    0.28
   1   5  11    1.44    0.27
  -2  -5 -11    5.06    0.43
  -2  -5 -11    4.37    0.47
  -2  -5 -11    4.80    0.50
  -2  -5 -11    4.07    0.45
   2   5  11    4.39    0.53
   2   5  11    3.98    0.44
  -3  -5 -11   42.64    2.28
  -3  -5 -11   44.28    2.33
  -3  -5 -11   44.89    2.26
  -3  -5 -11   43.80    2.28
   3   5  11   45.62    2.31
   3   5  11   42.37    2.27
  -4  -5 -11   20.15    1.11
  -4  -5 -11   19.41    1.18
   4   5  11   18.99    1.19
   4   5  11   18.99    1.12
   4   5  11   18.51    1.11
   4   5  11   20.74    1.16
  -5  -5 -11   21.85    1.19
  -5  -5 -11   20.07    1.26
   5   5  11   21.00    1.28
   5   5  11   19.84    1.20
   5   5  11   20.81    1.22
   5   5  11   20.17    1.19
  -6  -5 -11    2.28    0.40
  -6  -5 -11    1.74    0.34
   6   5  11    1.55    0.43
   6   5  11    1.52    0.45
   6   5  11    1.94    0.37
   6   5  11    2.17    0.36
  -7  -5 -11    0.70    0.35
  -7  -5 -11    1.20    0.41
   7   5  11    1.49    0.37
   7   5  11    1.63    0.48
   7   5  11    1.00    0.35
  -8  -5 -11    1.06    0.45
  -8  -5 -11    1.36    0.40
   8   5  11    0.91    0.37
   8   5  11    1.33    0.57
  -9  -5 -11   13.72    1.13
  -9  -5 -11   13.31    1.07
   9   5  11   12.92    0.98
   9   5  11   13.59    1.35
   7  -6 -11    5.92    0.72
  -7   6  11    4.42    0.59
  -7   6  11    5.43    0.74
   6  -6 -11    1.17    0.47
  -6   6  11    0.76    0.49
  -6   6  11    0.79    0.40
   5  -6 -11   -0.21    0.37
   5  -6 -11    0.48    0.38
  -5   6  11    0.57    0.33
  -5   6  11    0.20    0.40
   4  -6 -11    1.55    0.32
   4  -6 -11    0.68    0.62
  -4   6  11    1.71    0.37
   3  -6 -11   31.55    1.66
   3  -6 -11   28.37    1.67
   3  -6 -11   29.96    1.59
  -3   6  11   30.35    1.66
  -3   6  11   31.28    1.71
   2  -6 -11    1.79    0.34
   2  -6 -11    1.44    0.24
   2  -6 -11    1.13    0.30
   2  -6 -11    1.53    0.25
  -2   6  11    1.24    0.33
  -2   6  11    1.33    0.32
   1  -6 -11    4.81    0.53
   1  -6 -11    6.22    0.44
   1  -6 -11    5.87    0.55
  -1   6  11    5.98    0.61
  -1   6  11    6.64    0.55
   0  -6 -11   -0.25    0.23
   0  -6 -11    0.17    0.25
   0  -6 -11    0.04    0.18
   0  -6 -11    0.27    0.26
   0   6  11    0.13    0.25
   0   6  11    0.12    0.26
   0   6  11   -0.24    0.15
  -1  -6 -11   14.30    0.91
  -1  -6 -11   14.90    0.90
  -1  -6 -11   16.04    0.83
  -1  -6 -11   13.34    0.94
   1   6  11   15.76    0.97
   1   6  11   15.00    0.92
  -2  -6 -11    6.62    0.55
  -2  -6 -11    6.43    0.58
  -2  -6 -11    5.86    0.58
  -2  -6 -11    6.99    0.48
   2   6  11    6.19    0.55
   2   6  11    7.00    0.63
  -3  -6 -11   15.71    1.00
  -3  -6 -11   16.90    0.99
  -3  -6 -11   16.58    1.06
  -3  -6 -11   16.59    0.94
   3   6  11   17.00    1.04
   3   6  11   15.68    0.97
  -4  -6 -11    0.29    0.27
  -4  -6 -11    0.48    0.27
   4   6  11    0.12    0.29
   4   6  11    0.21    0.26
   4   6  11    0.22    0.31
   4   6  11    0.63    0.36
  -5  -6 -11    8.05    0.73
  -5  -6 -11   11.12    0.75
   5   6  11    9.69    0.76
   5   6  11    9.60    0.87
   5   6  11   10.44    0.79
   5   6  11   10.95    0.76
  -6  -6 -11    2.72    0.42
  -6  -6 -11    2.00    0.38
   6   6  11    2.52    0.51
   6   6  11    2.08    0.39
   6   6  11    1.86    0.36
   6   6  11    3.14    0.47
  -7  -6 -11    0.75    0.40
  -7  -6 -11    1.02    0.38
   7   6  11    0.91    0.50
   7   6  11    1.41    0.36
   7   6  11    0.70    0.34
  -8  -6 -11    7.89    0.82
  -8  -6 -11    8.59    0.86
   8   6  11    7.88    0.73
   8   6  11    7.57    0.80
   8   6  11    9.17    1.09
  -9  -6 -11    0.64    0.57
  -9  -6 -11   -0.10    0.45
   9   6  11    0.61    0.68
   9   6  11    0.73    0.38
   7  -7 -11   -1.36    0.64
  -7   7  11   -1.01    0.46
  -7   7  11    0.62    0.65
   6  -7 -11    2.89    0.64
  -6   7  11    3.36    0.53
  -6   7  11    3.71    0.65
   5  -7 -11    5.91    0.81
  -5   7  11    5.58    0.69
  -5   7  11    5.91    0.88
   4  -7 -11    1.96    0.71
   4  -7 -11    2.33    0.37
  -4   7  11    1.90    0.47
  -4   7  11    1.63    0.39
   3  -7 -11   -0.17    0.33
   3  -7 -11    0.38    0.40
   3  -7 -11    0.21    0.24
  -3   7  11    0.51    0.33
  -3   7  11    0.17    0.36
   2  -7 -11    0.05    0.32
   2  -7 -11    0.07    0.19
   2  -7 -11   -0.10    0.19
   2  -7 -11    0.13    0.36
  -2   7  11   -0.07    0.31
  -2   7  11    0.54    0.54
   1  -7 -11    0.51    0.17
   1  -7 -11    0.65    0.18
   1  -7 -11    0.35    0.30
   1  -7 -11    0.82    0.33
  -1   7  11    0.63    0.33
   0  -7 -11   11.00    0.62
   0  -7 -11   11.30    0.76
   0  -7 -11   11.23    0.78
   0   7  11   10.96    0.84
   0   7  11   10.92    0.77
  -1  -7 -11    1.55    0.31
  -1  -7 -11    1.86    0.34
  -1  -7 -11    1.56    0.21
   1   7  11    1.70    0.32
   1   7  11    1.20    0.36
  -2  -7 -11    1.91    0.36
  -2  -7 -11    2.51    0.26
  -2  -7 -11    2.64    0.34
   2   7  11    2.08    0.38
   2   7  11    1.86    0.59
  -3  -7 -11    0.24    0.31
  -3  -7 -11    0.68    0.23
   3   7  11    0.20    0.31
   3   7  11   -0.11    0.26
  -4  -7 -11   18.67    1.16
  -4  -7 -11   21.19    1.11
   4   7  11   18.92    1.29
   4   7  11   20.05    1.21
   4   7  11   19.47    1.16
  -5  -7 -11    2.57    0.37
  -5  -7 -11    2.80    0.39
   5   7  11    1.96    0.38
   5   7  11    2.49    0.41
   5   7  11    2.36    0.53
   5   7  11    1.79    0.38
  -6  -7 -11    4.85    0.65
  -6  -7 -11    5.02    0.63
   6   7  11    5.58    0.75
   6   7  11    4.62    0.83
   6   7  11    5.64    0.62
   6   7  11    3.50    0.50
  -7  -7 -11    1.06    0.42
  -7  -7 -11    0.54    0.39
   7   7  11   -0.14    0.37
   7   7  11    0.67    0.51
   7   7  11    0.75    0.35
  -8  -7 -11    0.60    0.50
  -8  -7 -11    0.43    0.42
   8   7  11   -0.11    0.33
   8   7  11   -0.13    0.58
   8   7  11   -0.70    0.38
   6  -8 -11    4.74    0.79
  -6   8  11    4.69    0.74
  -6   8  11    5.17    0.65
   5  -8 -11   -0.98    0.53
  -5   8  11   -0.37    0.43
  -5   8  11   -0.08    0.49
   4  -8 -11   -1.31    0.52
  -4   8  11    0.09    0.45
  -4   8  11    0.96    0.40
   3  -8 -11    0.20    0.44
   3  -8 -11    0.23    0.41
  -3   8  11    1.06    0.40
  -3   8  11   -0.21    0.38
   2  -8 -11    1.32    0.44
   2  -8 -11    2.37    0.41
  -2   8  11    1.83    0.40
  -2   8  11    1.67    0.40
   1  -8 -11    6.79    0.64
   1  -8 -11    6.34    0.71
  -1   8  11    6.97    0.68
  -1   8  11    6.02    0.73
   0  -8 -11   10.88    0.76
   0  -8 -11   10.50    0.80
   0   8  11    9.49    0.85
   0   8  11   10.57    0.78
  -1  -8 -11    2.99    0.38
  -1  -8 -11    3.58    0.44
   1   8  11    4.29    0.55
   1   8  11    2.95    0.47
  -2  -8 -11    0.75    0.37
   2   8  11    1.58    0.35
   2   8  11    1.06    0.37
  -3  -8 -11    6.43    0.63
  -3  -8 -11    7.26    0.49
  -3  -8 -11    6.72    0.73
   3   8  11    6.15    0.70
   3   8  11    5.81    0.63
  -4  -8 -11    2.59    0.33
  -4  -8 -11    1.86    0.45
  -4  -8 -11    2.27    0.37
   4   8  11    2.11    0.38
   4   8  11    1.79    0.41
   4   8  11    1.50    0.49
  -5  -8 -11    1.76    0.40
  -5  -8 -11    1.96    0.36
   5   8  11    0.89    0.36
   5   8  11    1.02    0.38
   5   8  11    1.28    0.51
   5   8  11    1.37    0.41
  -6  -8 -11    0.31    0.37
  -6  -8 -11    0.77    0.39
   6   8  11    0.22    0.38
   6   8  11    1.51    0.37
   6   8  11    0.29    0.52
  -7  -8 -11    1.39    0.44
  -7  -8 -11    0.87    0.56
   7   8  11    0.66    0.60
   7   8  11    1.20    0.37
  -8  -8 -11    0.28    0.55
  -8  -8 -11    1.05    0.50
   8   8  11    0.48    0.43
   8   8  11    1.49    0.42
   8   8  11    1.08    0.67
  -5   9  11    0.32    0.52
  -5   9  11    0.63    0.62
   4  -9 -11    0.11    0.54
  -4   9  11    0.77    0.52
  -4   9  11    0.81    0.47
   3  -9 -11    3.33    0.51
  -3   9  11    1.54    0.49
  -3   9  11    2.94    0.51
   2  -9 -11    0.40    0.39
  -2   9  11    0.08    0.40
  -2   9  11   -0.04    0.41
   1  -9 -11    0.60    0.35
   1  -9 -11    0.27    0.42
  -1   9  11    0.60    0.40
  -1   9  11    0.23    0.39
   0  -9 -11    5.49    0.71
   0  -9 -11    6.09    0.61
   0   9  11    5.46    0.68
   0   9  11    6.01    0.76
  -1  -9 -11   13.94    0.96
   1   9  11   13.30    1.03
   1   9  11   13.09    0.95
  -2  -9 -11   -0.24    0.31
  -2  -9 -11    0.73    0.41
   2   9  11    0.18    0.36
   2   9  11   -0.46    0.37
  -3  -9 -11    2.22    0.47
  -3  -9 -11    2.27    0.37
   3   9  11    2.25    0.46
   3   9  11    1.98    0.41
  -4  -9 -11   -0.06    0.49
  -4  -9 -11    0.10    0.33
   4   9  11   -0.37    0.47
   4   9  11   -0.15    0.34
   4   9  11   -0.75    0.35
  -5  -9 -11   -0.01    0.46
   5   9  11   -0.03    0.48
   5   9  11   -0.22    0.34
   5   9  11   -0.67    0.38
  -6  -9 -11    4.14    0.51
   6   9  11    3.22    0.54
   6   9  11    3.76    0.69
  -7  -9 -11   11.59    0.93
   7   9  11   11.04    0.91
   7   9  11    7.08    0.92
   7   9  11    8.40    1.18
  -4  10  11   -0.42    0.53
  -4  10  11   -0.07    0.58
  -3  10  11    1.40    0.53
  -3  10  11    1.12    0.53
  -2  10  11    0.63    0.47
  -2  10  11    0.38    0.48
  -1  10  11    0.41    0.43
  -1  10  11    0.71    0.46
   0 -10 -11    1.58    0.38
   0  10  11    2.60    0.48
   0  10  11    1.95    0.48
  -1 -10 -11    4.59    0.61
   1  10  11    4.70    0.56
   1  10  11    5.21    0.80
  -2 -10 -11    2.86    0.39
   2  10  11    3.71    0.52
   2  10  11    2.61    0.51
  -3 -10 -11   -0.06    0.34
   3  10  11   -0.06    0.41
   3  10  11    0.41    0.53
   3  10  11    0.24    0.40
  -4 -10 -11   -0.04    0.38
   4  10  11   -0.24    0.42
   4  10  11    1.09    0.58
   4  10  11    0.78    0.40
  -5 -10 -11    0.67    0.40
   5  10  11   -0.91    0.41
   5  10  11    0.30    0.41
   5  10  11    0.00    0.59
   6  10  11    8.30    1.15
   6  10  11    6.51    0.90
  -2  11  11    7.03    0.98
  -2  11  11    6.96    0.97
  -1  11  11    0.36    0.47
  -1  11  11    0.90    0.56
   0  11  11    2.19    0.54
   0  11  11    3.66    0.59
   1  11  11    0.23    0.46
   1  11  11   -0.11    0.49
   2  11  11    0.54    0.47
   2  11  11    1.25    0.51
   3  11  11    7.46    1.04
   3  11  11    4.44    0.64
   3  11  11    6.06    0.83
   4  11  11    0.51    0.52
   4  11  11    1.87    0.69
   4  11  11    0.17    0.49
   5  11  11    1.47    0.67
   5  11  11    0.79    0.51
   5  11  11    0.32    0.51
   1  12  11    2.24    0.66
   1  12  11    1.75    0.59
   2  12  11    2.33    0.59
   2  12  11    2.02    0.64
   4   8 -12    2.36    0.70
   3   8 -12    0.04    0.65
   2   8 -12    5.14    0.75
   1   8 -12    1.00    0.62
   0   8 -12   -0.96    0.62
  -1   8 -12   -1.73    0.64
   5   7 -12    2.65    0.52
   5   7 -12    2.45    0.66
   4   7 -12   -0.11    0.57
   4   7 -12    0.19    0.45
   3   7 -12    3.75    0.61
   3   7 -12    3.75    0.61
   3   7 -12    4.37    0.51
   2   7 -12    1.11    0.52
   2   7 -12    0.77    0.42
   2   7 -12    1.98    0.57
   1   7 -12   -0.74    0.46
   1   7 -12    0.16    0.39
   0   7 -12    1.83    0.57
   0   7 -12    2.01    0.42
  -1   7 -12    9.76    1.05
  -1   7 -12   10.94    0.87
  -2   7 -12    0.67    0.48
  -2   7 -12    0.32    0.58
  -3   7 -12    0.39    0.66
   6   6 -12    1.35    0.47
   6   6 -12    1.07    0.60
   5   6 -12    0.39    0.41
   5   6 -12    0.66    0.54
   4   6 -12    2.29    0.55
   4   6 -12    3.23    0.46
   3   6 -12    1.64    0.49
   3   6 -12    0.43    0.46
   3   6 -12    0.36    0.46
   3   6 -12    0.72    0.37
   2   6 -12    0.29    0.45
   2   6 -12    0.28    0.47
   2   6 -12    0.17    0.35
   2   6 -12   -0.26    0.39
   1   6 -12    0.56    0.42
   1   6 -12    0.15    0.35
   1   6 -12    0.07    0.48
   0   6 -12   11.43    0.92
   0   6 -12   10.20    0.75
   0   6 -12    9.37    0.74
   0   6 -12    8.80    0.86
  -1   6 -12   -0.49    0.33
  -2   6 -12    0.46    0.39
  -2   6 -12    0.25    0.53
  -3   6 -12    0.05    0.44
  -3   6 -12    0.67    0.54
  -4   6 -12    1.13    0.59
   7   5 -12   -0.46    0.56
   7   5 -12    0.32    0.46
   6   5 -12   -0.18    0.51
   6   5 -12    0.10    0.39
   5   5 -12    1.82    0.51
   5   5 -12    0.16    0.36
   4   5 -12    0.11    0.44
   4   5 -12    0.26    0.34
  -4  -5  12   -0.34    0.58
   3   5 -12    2.88    0.39
   3   5 -12    2.40    0.43
   3   5 -12    2.38    0.46
  -3  -5  12    2.52    0.53
   2   5 -12   13.50    0.97
   2   5 -12   16.54    1.06
   2   5 -12   13.85    1.02
   2   5 -12   16.36    0.93
   1   5 -12    0.25    0.35
   1   5 -12    0.17    0.29
   1   5 -12    0.13    0.40
   0   5 -12    0.74    0.36
   0   5 -12    0.51    0.35
   0   5 -12    0.21    0.29
   0   5 -12    0.30    0.24
  -1   5 -12    0.67    0.36
  -1   5 -12    0.51    0.30
  -1   5 -12    0.37    0.31
  -1   5 -12    0.98    0.42
  -2   5 -12    1.62    0.36
  -2   5 -12    1.17    0.46
  -2   5 -12    1.43    0.43
  -2   5 -12    1.33    0.41
  -3   5 -12    1.13    0.53
  -3   5 -12    1.24    0.40
  -3   5 -12    1.31    0.43
  -3   5 -12    0.69    0.50
  -4   5 -12    1.81    0.54
  -5   5 -12    0.20    0.61
  -5   5 -12   -0.32    0.52
  -6   5 -12   -1.32    0.60
   8   4 -12    0.70    0.56
   8   4 -12   -0.27    0.43
   7   4 -12    3.69    0.51
   7   4 -12    3.68    0.61
   6   4 -12   -0.21    0.35
   6   4 -12    0.02    0.45
   5   4 -12   -0.31    0.45
   5   4 -12   -0.37    0.32
   4   4 -12    0.06    0.31
   4   4 -12    0.43    0.39
  -4  -4  12    0.22    0.55
   3   4 -12   11.00    0.86
   3   4 -12   13.16    0.82
   3   4 -12   12.41    0.89
  -3  -4  12   13.11    1.02
   2   4 -12    1.75    0.35
   2   4 -12    3.53    0.45
   2   4 -12    2.22    0.39
   2   4 -12    2.60    0.38
  -2  -4  12    1.87    0.39
   1   4 -12    0.66    0.31
   1   4 -12    0.75    0.29
   1   4 -12    0.96    0.36
   0   4 -12   -0.59    0.28
   0   4 -12   -0.25    0.25
   0   4 -12   -0.23    0.32
   0   4 -12   -0.03    0.20
  -1   4 -12    2.93    0.46
  -1   4 -12    2.44    0.36
  -1   4 -12    3.04    0.36
  -1   4 -12    2.61    0.41
  -2   4 -12    2.69    0.37
  -2   4 -12    2.76    0.39
  -2   4 -12    2.45    0.43
  -2   4 -12    2.95    0.41
  -3   4 -12    8.96    0.83
  -3   4 -12    9.16    0.73
  -3   4 -12   10.06    0.82
  -3   4 -12    8.72    0.78
  -4   4 -12    1.04    0.45
  -4   4 -12    0.73    0.46
  -5   4 -12    1.58    0.48
  -5   4 -12    2.11    0.56
  -6   4 -12   -0.39    0.49
  -6   4 -12    0.50    0.55
   8   3 -12   -0.30    0.39
   8   3 -12    0.75    0.52
   7   3 -12   -0.39    0.35
   7   3 -12    0.31    0.46
  -7  -3  12   -0.03    0.41
   6   3 -12    0.20    0.42
   6   3 -12   -0.12    0.33
  -6  -3  12    0.39    0.32
   5   3 -12    7.13    0.62
   5   3 -12    5.22    0.72
  -5  -3  12    6.43    0.61
  -5  -3  12    5.56    0.48
   4   3 -12    0.63    0.42
   4   3 -12    0.47    0.30
   4   3 -12    0.44    0.36
  -4  -3  12    0.62    0.55
   3   3 -12   -0.19    0.31
   3   3 -12    0.28    0.30
   3   3 -12    0.37    0.26
  -3  -3  12    0.39    0.44
   2   3 -12   -0.25    0.26
   2   3 -12    0.50    0.26
   2   3 -12    0.52    0.29
  -2  -3  12    0.27    0.35
   1   3 -12   13.40    0.78
   1   3 -12   11.93    0.79
   1   3 -12   12.57    1.12
  -1  -3  12   11.27    0.77
   0   3 -12    3.46    0.37
   0   3 -12    3.23    0.46
   0   3 -12    2.85    0.58
   0   3 -12    3.67    0.42
  -1   3 -12    4.77    0.48
  -1   3 -12    4.34    0.50
  -1   3 -12    6.09    0.76
  -1   3 -12    5.26    0.49
  -2   3 -12    4.48    0.51
  -2   3 -12    4.04    0.57
  -2   3 -12    4.89    0.56
  -2   3 -12    5.05    0.54
  -3   3 -12   -0.12    0.33
  -3   3 -12   -0.08    0.33
  -3   3 -12    0.34    0.34
  -3   3 -12    0.02    0.28
  -4   3 -12   20.53    1.20
  -4   3 -12   21.16    1.26
  -4   3 -12   18.50    1.32
  -5   3 -12    1.24    0.46
  -6   3 -12    6.22    0.82
  -6   3 -12    4.58    0.59
  -7   3 -12    0.88    0.52
  -7   3 -12    1.53    0.58
   8   2 -12    3.09    0.57
   8   2 -12    2.18    0.46
  -8  -2  12    3.79    0.61
   7   2 -12   -0.41    0.37
   7   2 -12    0.18    0.43
  -7  -2  12    0.18    0.43
   6   2 -12   26.16    1.67
   6   2 -12   29.48    1.60
  -6  -2  12   29.11    1.58
  -6  -2  12   30.19    1.68
   5   2 -12    0.19    0.29
   5   2 -12    0.38    0.36
  -5  -2  12    0.60    0.40
  -5  -2  12    0.26    0.30
   4   2 -12    1.38    0.30
   4   2 -12    0.83    0.38
   4   2 -12    0.96    0.34
  -4  -2  12    1.05    0.42
  -4  -2  12    1.10    0.52
  -4  -2  12    1.52    0.28
   3   2 -12    0.00    0.27
   3   2 -12    0.11    0.27
   3   2 -12    0.50    0.25
  -3  -2  12    0.37    0.21
  -3  -2  12   -0.07    0.42
  -3  -2  12    0.11    0.29
   2   2 -12   28.47    1.54
   2   2 -12   26.35    1.55
  -2  -2  12   32.20    1.64
  -2  -2  12   28.38    1.47
  -2  -2  12   29.00    1.50
   1   2 -12   10.40    0.72
   1   2 -12   10.97    0.78
   1   2 -12   10.99    0.71
  -1  -2  12   10.60    0.61
  -1  -2  12   11.20    0.65
  -1  -2  12   11.55    0.75
   0   2 -12    2.70    0.31
   0   2 -12    2.46    0.31
   0   2 -12    2.12    0.33
   0   2 -12    2.57    0.38
  -1   2 -12    0.50    0.24
  -1   2 -12    0.40    0.29
  -1   2 -12   -0.10    0.21
  -1   2 -12    0.21    0.22
  -2   2 -12   13.88    0.95
  -2   2 -12   14.30    0.87
  -2   2 -12   14.72    0.88
  -2   2 -12   14.25    0.87
  -3   2 -12   17.78    1.12
  -3   2 -12   19.92    1.11
  -3   2 -12   19.79    1.11
  -3   2 -12   19.62    1.15
   3  -2  12   17.76    1.01
  -4   2 -12    6.52    0.62
  -4   2 -12    7.03    0.67
  -4   2 -12    6.11    0.69
   4  -2  12    6.02    0.46
   4  -2  12    7.27    0.50
  -5   2 -12   -0.15    0.38
   5  -2  12    0.19    0.28
   5  -2  12    0.07    0.27
  -6   2 -12    1.76    0.46
  -6   2 -12    2.94    0.49
   6  -2  12    2.16    0.36
  -7   2 -12    1.27    0.50
  -7   2 -12    1.95    0.48
  -8   2 -12   -0.96    0.48
   8   1 -12    0.20    0.38
   8   1 -12    1.11    0.44
  -8  -1  12   -0.37    0.50
   7   1 -12    8.99    0.76
   7   1 -12    9.21    0.87
  -7  -1  12    8.99    0.86
   6   1 -12    0.76    0.38
   6   1 -12    0.06    0.31
  -6  -1  12    0.73    0.51
  -6  -1  12    0.35    0.37
   5   1 -12    4.87    0.54
   5   1 -12    4.26    0.62
  -5  -1  12    4.97    0.57
  -5  -1  12    4.73    0.53
   4   1 -12    5.55    0.61
   4   1 -12    6.08    0.54
  -4  -1  12    6.55    0.64
  -4  -1  12    5.81    0.84
  -4  -1  12    6.19    0.54
   3   1 -12   13.39    0.91
   3   1 -12   15.62    0.92
  -3  -1  12   16.03    0.93
  -3  -1  12   14.37    0.87
  -3  -1  12   16.89    1.10
   2   1 -12    1.66    0.29
   2   1 -12    1.84    0.30
  -2  -1  12    1.45    0.25
  -2  -1  12    1.65    0.40
  -2  -1  12    1.92    0.29
   1   1 -12    2.15    0.30
   1   1 -12    2.27    0.30
   1   1 -12    1.97    0.28
   1   1 -12    2.56    0.34
  -1  -1  12    2.44    0.26
  -1  -1  12    2.00    0.34
  -1  -1  12    3.00    0.52
   0   1 -12    0.95    0.24
   0   1 -12    0.50    0.26
   0   1 -12    0.20    0.22
   0   1 -12    0.80    0.20
   0  -1  12    0.59    0.22
   0  -1  12    0.50    0.20
   0  -1  12    0.60    0.25
  -1   1 -12   27.08    1.44
  -1   1 -12   25.74    1.41
  -1   1 -12   26.34    1.40
  -1   1 -12   27.29    1.41
   1  -1  12   24.83    1.36
   1  -1  12   25.88    1.36
  -2   1 -12    1.13    0.31
  -2   1 -12    0.99    0.25
  -2   1 -12    1.20    0.26
  -2   1 -12    1.30    0.27
   2  -1  12    1.12    0.25
   2  -1  12    1.35    0.25
  -3   1 -12    2.81    0.36
  -3   1 -12    2.38    0.35
  -3   1 -12    3.00    0.42
  -3   1 -12    3.92    0.44
   3  -1  12    2.71    0.31
   3  -1  12    3.17    0.48
  -4   1 -12    0.33    0.32
  -4   1 -12    1.19    0.37
  -4   1 -12    0.80    0.28
   4  -1  12    0.74    0.26
   4  -1  12    0.94    0.28
  -5   1 -12    7.63    0.74
   5  -1  12    8.20    0.64
   5  -1  12    7.29    0.63
  -6   1 -12    5.01    0.68
  -6   1 -12    4.43    0.52
   6  -1  12    5.73    0.63
   6  -1  12    3.40    0.65
  -7   1 -12    5.46    0.73
  -7   1 -12    6.31    0.78
   7  -1  12    5.91    0.74
  -8   1 -12    2.05    0.51
  -8   1 -12    1.69    0.52
   8   0 -12    1.18    0.42
  -8   0  12   -0.61    0.51
   7   0 -12    5.67    0.73
   7   0 -12    3.96    0.58
  -7   0  12    5.26    0.73
   6   0 -12    4.06    0.44
   6   0 -12    4.09    0.65
  -6   0  12    2.46    0.55
  -6   0  12    4.34    0.43
   5   0 -12    7.93    0.64
  -5   0  12    8.23    0.67
  -5   0  12    7.76    0.79
  -5   0  12    7.74    0.51
   4   0 -12    3.31    0.37
  -4   0  12    3.33    0.35
  -4   0  12    4.06    0.55
  -4   0  12    3.84    0.50
  -4   0  12    2.80    0.51
   3   0 -12    0.52    0.23
   3   0 -12    1.04    0.25
  -3   0  12    0.96    0.27
  -3   0  12    0.70    0.29
  -3   0  12    0.80    0.40
   2   0 -12    7.45    0.57
   2   0 -12    7.75    0.57
  -2   0  12    8.06    0.49
  -2   0  12    7.56    0.57
  -2   0  12    9.69    0.75
  -2   0  12    7.35    0.56
   1   0 -12    0.36    0.21
   1   0 -12    0.09    0.15
   1   0 -12    0.47    0.27
   1   0 -12    0.51    0.22
  -1   0  12    0.58    0.19
  -1   0  12    0.00    0.58
  -1   0  12    0.05    0.22
  -1   0  12    0.05    0.21
   0   0 -12   31.14    1.66
   0   0 -12   31.07    1.68
   0   0 -12   30.20    1.67
   0   0 -12   31.79    1.70
   0   0  12   35.38    1.68
   0   0  12   30.24    1.64
   0   0  12   34.54    1.66
   0   0  12   30.27    1.64
  -1   0 -12    4.24    0.40
  -1   0 -12    3.77    0.42
  -1   0 -12    3.69    0.42
  -1   0 -12    3.82    0.46
   1   0  12    4.29    0.40
   1   0  12    5.53    0.49
   1   0  12    4.83    0.44
   1   0  12    3.64    0.41
  -2   0 -12    7.24    0.56
  -2   0 -12    7.15    0.58
  -2   0 -12    7.47    0.58
  -2   0 -12    7.73    0.53
   2   0  12    7.10    0.53
   2   0  12    6.81    0.53
  -3   0 -12    5.03    0.55
  -3   0 -12    4.94    0.48
  -3   0 -12    4.34    0.52
  -3   0 -12    4.81    0.46
   3   0  12    4.26    0.46
   3   0  12    4.61    0.48
  -4   0 -12    0.96    0.31
  -4   0 -12    1.05    0.29
   4   0  12    1.24    0.30
   4   0  12    1.27    0.29
  -5   0 -12    1.06    0.38
   5   0  12    0.60    0.31
   5   0  12   -0.50    0.31
  -6   0 -12    0.42    0.35
  -6   0 -12    0.81    0.43
   6   0  12    0.88    0.35
   6   0  12    0.19    0.41
  -7   0 -12    0.00    0.32
  -7   0 -12    0.06    0.38
  -8   0 -12    2.50    0.49
  -8   0 -12    3.18    0.58
   8   0  12    2.37    0.51
   8  -1 -12    6.12    0.70
   7  -1 -12    0.42    0.32
  -7   1  12    0.15    0.42
  -7   1  12    0.14    0.35
   6  -1 -12    3.87    0.52
  -6   1  12    3.74    0.53
  -6   1  12    4.74    0.51
   5  -1 -12   -0.21    0.23
  -5   1  12    0.39    0.24
  -5   1  12   -0.07    0.30
   4  -1 -12    0.60    0.26
  -4   1  12   -0.11    0.30
  -4   1  12    0.43    0.28
  -4   1  12    0.44    0.22
  -4   1  12   -0.15    0.40
   3  -1 -12    0.88    0.26
   3  -1 -12    0.83    0.22
  -3   1  12    1.29    0.39
  -3   1  12    1.07    0.28
  -3   1  12    0.62    0.27
  -3   1  12    1.16    0.21
   2  -1 -12   10.54    0.69
   2  -1 -12    9.83    0.67
  -2   1  12   12.61    0.81
  -2   1  12    9.84    0.69
  -2   1  12   10.74    0.64
  -2   1  12   11.08    0.70
   1  -1 -12    5.48    0.46
   1  -1 -12    5.67    0.50
   1  -1 -12    5.94    0.44
   1  -1 -12    5.14    0.43
  -1   1  12    5.71    0.56
  -1   1  12    4.77    0.42
  -1   1  12    5.17    0.47
  -1   1  12    4.85    0.46
   0  -1 -12    1.99    0.26
   0  -1 -12    1.85    0.29
   0  -1 -12    1.93    0.28
   0  -1 -12    2.12    0.27
   0   1  12    2.60    0.36
   0   1  12    1.94    0.27
  -1  -1 -12    6.94    0.50
  -1  -1 -12    6.29    0.53
  -1  -1 -12    6.21    0.51
  -1  -1 -12    5.81    0.47
   1   1  12    5.88    0.49
   1   1  12    6.79    0.49
   1   1  12    6.08    0.49
   1   1  12    6.33    0.52
  -2  -1 -12   16.52    0.97
  -2  -1 -12   16.37    0.98
  -2  -1 -12   15.94    0.96
  -2  -1 -12   16.85    0.94
   2   1  12   15.30    0.93
   2   1  12   18.96    0.98
   2   1  12   15.18    0.91
   2   1  12   16.82    0.94
  -3  -1 -12    0.18    0.20
  -3  -1 -12    0.34    0.27
  -3  -1 -12    0.15    0.24
  -3  -1 -12    0.48    0.22
   3   1  12    0.44    0.25
   3   1  12   -0.09    0.23
   3   1  12    0.19    0.19
  -4  -1 -12    5.56    0.53
  -4  -1 -12    5.57    0.59
  -4  -1 -12    6.84    0.61
   4   1  12    4.36    0.52
   4   1  12    5.81    0.54
   4   1  12    6.11    0.57
  -5  -1 -12    1.84    0.40
   5   1  12    1.79    0.37
   5   1  12    2.01    0.35
  -6  -1 -12    0.69    0.38
  -6  -1 -12    0.11    0.32
   6   1  12    0.48    0.40
  -7  -1 -12    4.45    0.57
  -7  -1 -12    3.44    0.45
   7   1  12    4.14    0.50
  -8  -1 -12    4.23    0.59
  -8  -1 -12    6.42    0.69
   8   1  12    4.37    0.55
   8  -2 -12    2.18    0.44
  -8   2  12    2.23    0.58
  -8   2  12    2.62    0.55
   7  -2 -12    0.82    0.33
  -7   2  12    0.51    0.42
  -7   2  12    0.28    0.40
   6  -2 -12    0.30    0.30
  -6   2  12    0.17    0.35
  -6   2  12    0.13    0.32
   5  -2 -12    2.25    0.33
  -5   2  12    1.39    0.32
  -5   2  12    1.47    0.36
  -4   2  12    0.10    0.23
  -4   2  12    0.29    0.29
   3  -2 -12   13.98    0.85
  -3   2  12   13.14    0.96
  -3   2  12   13.11    0.85
  -3   2  12   13.68    0.85
  -3   2  12   14.51    0.83
   2  -2 -12    1.22    0.26
  -2   2  12    1.35    0.28
  -2   2  12    1.03    0.26
  -2   2  12    1.50    0.24
   1  -2 -12    0.97    0.25
   1  -2 -12    0.64    0.23
   1  -2 -12    0.70    0.20
   1  -2 -12    0.63    0.22
  -1   2  12    0.91    0.22
  -1   2  12    0.45    0.22
  -1   2  12    0.48    0.25
  -1   2  12    1.40    0.32
   0  -2 -12    7.42    0.56
   0  -2 -12    8.33    0.53
   0  -2 -12    7.88    0.55
   0  -2 -12    7.64    0.57
   0   2  12    6.61    0.55
   0   2  12    7.46    0.54
   0   2  12    7.82    0.60
   0   2  12    7.44    0.55
  -1  -2 -12    4.68    0.38
  -1  -2 -12    4.11    0.46
  -1  -2 -12    3.62    0.42
  -1  -2 -12    4.06    0.44
   1   2  12    3.73    0.43
   1   2  12    3.75    0.42
   1   2  12    5.17    0.45
   1   2  12    4.61    0.54
  -2  -2 -12    1.43    0.28
  -2  -2 -12    1.33    0.27
  -2  -2 -12    1.07    0.25
  -2  -2 -12    2.14    0.28
   2   2  12    1.18    0.26
   2   2  12    1.40    0.26
   2   2  12    1.93    0.28
  -3  -2 -12   35.18    1.93
  -3  -2 -12   36.46    1.92
  -3  -2 -12   35.78    1.91
   3   2  12   36.88    1.90
   3   2  12   34.03    1.89
   3   2  12   35.65    1.89
   3   2  12   39.37    1.92
  -4  -2 -12    1.40    0.29
  -4  -2 -12    1.05    0.31
  -4  -2 -12    1.95    0.37
   4   2  12    1.21    0.34
   4   2  12    1.24    0.29
   4   2  12    1.51    0.29
   5   2  12    1.16    0.31
   5   2  12    0.76    0.31
  -6  -2 -12    4.35    0.59
  -6  -2 -12    5.06    0.68
   6   2  12    6.79    0.65
   6   2  12    5.54    0.62
  -7  -2 -12   13.29    1.05
  -7  -2 -12   14.57    0.96
   7   2  12   12.81    0.98
   7   2  12   15.78    1.04
  -8  -2 -12    0.86    0.45
  -8  -2 -12    0.18    0.34
   8   2  12   -0.19    0.42
  -9  -2 -12    0.81    0.57
   9   2  12    0.91    0.52
   8  -3 -12    0.70    0.44
  -8   3  12    0.30    0.47
  -8   3  12    0.84    0.57
   7  -3 -12    1.30    0.39
  -7   3  12    0.45    0.43
  -7   3  12    0.49    0.46
   6  -3 -12   -0.10    0.32
  -6   3  12   -0.14    0.35
  -6   3  12   -0.12    0.38
   5  -3 -12   14.37    0.92
  -5   3  12   14.39    0.93
  -5   3  12   13.05    0.93
   4  -3 -12    8.65    0.66
  -4   3  12    8.61    0.68
   3  -3 -12    9.65    0.69
  -3   3  12   10.17    0.70
  -3   3  12    9.82    0.82
  -3   3  12    9.49    0.68
   2  -3 -12    0.22    0.22
  -2   3  12    0.03    0.22
  -2   3  12    0.30    0.23
  -2   3  12    0.21    0.33
  -2   3  12    0.08    0.24
   1  -3 -12   21.30    1.18
   1  -3 -12   21.68    1.19
   1  -3 -12   21.46    1.17
  -1   3  12   19.39    1.15
  -1   3  12   21.27    1.18
  -1   3  12   21.23    1.23
  -1   3  12   21.35    1.18
   0  -3 -12    6.33    0.52
   0  -3 -12    6.36    0.53
   0  -3 -12    6.17    0.51
   0   3  12    5.34    0.50
   0   3  12    6.42    0.52
   0   3  12    6.91    0.60
   0   3  12    7.06    0.54
  -1  -3 -12    6.17    0.53
  -1  -3 -12    5.51    0.48
  -1  -3 -12    5.65    0.48
   1   3  12    5.60    0.50
   1   3  12    4.94    0.49
   1   3  12    4.61    0.46
  -2  -3 -12    0.57    0.25
  -2  -3 -12    0.91    0.26
  -2  -3 -12    0.80    0.24
   2   3  12    0.64    0.24
   2   3  12    0.69    0.22
   2   3  12    1.00    0.27
  -3  -3 -12    3.37    0.46
  -3  -3 -12    1.81    0.32
  -3  -3 -12    2.20    0.31
   3   3  12    2.18    0.32
   3   3  12    1.81    0.29
   3   3  12    1.96    0.33
  -4  -3 -12   35.32    1.85
  -4  -3 -12   32.66    1.86
  -4  -3 -12   33.99    1.85
   4   3  12   34.42    1.84
   4   3  12   31.04    1.83
   4   3  12   36.04    1.83
   4   3  12   36.66    1.84
  -5  -3 -12   12.77    0.87
   5   3  12   12.97    0.86
   5   3  12   10.01    0.97
   5   3  12   12.71    0.86
  -6  -3 -12    8.03    0.73
  -6  -3 -12    9.40    0.80
   6   3  12    9.76    0.74
   6   3  12   10.06    0.79
   6   3  12   10.10    0.82
  -7  -3 -12    1.03    0.33
  -7  -3 -12    1.01    0.45
   7   3  12    1.65    0.47
   7   3  12    1.20    0.39
  -8  -3 -12    2.16    0.56
  -8  -3 -12    2.37    0.42
   8   3  12    1.95    0.56
   8   3  12    1.44    0.45
  -9  -3 -12    0.13    0.39
  -9  -3 -12   -0.14    0.55
   9   3  12    0.35    0.49
   8  -4 -12   -0.46    0.49
  -8   4  12    0.40    0.47
  -8   4  12   -0.12    0.63
   7  -4 -12    1.93    0.46
  -7   4  12    1.61    0.56
  -7   4  12    2.55    0.46
   6  -4 -12   10.30    0.82
  -6   4  12   10.60    0.94
  -6   4  12    9.68    0.83
   5  -4 -12    3.33    0.42
   5  -4 -12    3.48    0.48
  -5   4  12    3.07    0.45
  -5   4  12    4.16    0.57
   4  -4 -12    0.72    0.30
  -4   4  12    0.75    0.33
  -4   4  12    1.27    0.32
   3  -4 -12    3.35    0.45
  -3   4  12    3.05    0.43
  -3   4  12    2.92    0.38
   2  -4 -12   46.12    2.38
   2  -4 -12   44.39    2.44
  -2   4  12   47.33    2.38
  -2   4  12   43.23    2.42
  -2   4  12   47.88    2.39
   1  -4 -12    1.01    0.25
   1  -4 -12    0.98    0.25
   1  -4 -12    1.10    0.25
   1  -4 -12    1.50    0.27
  -1   4  12    1.14    0.28
  -1   4  12    1.08    0.27
  -1   4  12    0.37    0.22
   0  -4 -12    4.73    0.44
   0  -4 -12    4.02    0.47
   0  -4 -12    4.20    0.44
   0  -4 -12    4.08    0.44
   0   4  12    5.04    0.46
   0   4  12    5.19    0.52
   0   4  12    3.53    0.40
  -1  -4 -12    1.71    0.29
  -1  -4 -12    1.87    0.28
  -1  -4 -12    1.76    0.30
   1   4  12    1.45    0.24
   1   4  12    1.69    0.30
   1   4  12    1.44    0.28
  -2  -4 -12   20.29    1.20
  -2  -4 -12   23.23    1.21
  -2  -4 -12   22.70    1.27
  -2  -4 -12   22.10    1.22
   2   4  12   21.97    1.22
   2   4  12   22.49    1.24
   2   4  12   19.32    1.18
  -3  -4 -12   13.12    0.83
  -3  -4 -12   11.99    0.87
  -3  -4 -12   14.08    0.84
   3   4  12   12.27    0.81
   3   4  12   13.57    0.85
  -4  -4 -12   16.43    0.99
  -4  -4 -12   16.01    1.10
   4   4  12   16.06    1.03
   4   4  12   15.88    1.01
   4   4  12   17.52    1.01
   4   4  12   13.89    0.97
  -5  -4 -12    0.13    0.27
  -5  -4 -12    0.22    0.33
   5   4  12    0.27    0.31
   5   4  12    0.47    0.36
   5   4  12    0.37    0.31
   5   4  12   -0.01    0.35
  -6  -4 -12    8.61    0.76
  -6  -4 -12    8.95    0.79
   6   4  12    9.87    0.81
   6   4  12   10.36    0.76
   6   4  12   10.21    0.86
  -7  -4 -12    3.91    0.54
  -7  -4 -12    2.84    0.42
   7   4  12    2.60    0.43
   7   4  12    3.60    0.55
   7   4  12    3.06    0.47
  -8  -4 -12    1.00    0.48
  -8  -4 -12    1.27    0.41
   8   4  12    1.19    0.56
   8   4  12    0.91    0.40
  -9  -4 -12    4.68    0.63
  -9  -4 -12    7.36    1.01
   9   4  12    7.23    1.10
   9   4  12    8.08    0.85
   7  -5 -12    4.22    0.57
  -7   5  12    3.30    0.66
  -7   5  12    3.16    0.51
   6  -5 -12    0.76    0.42
  -6   5  12   -0.30    0.36
  -6   5  12   -0.13    0.45
   5  -5 -12   10.62    0.89
   5  -5 -12   12.53    0.88
  -5   5  12   11.28    0.98
  -5   5  12   12.62    0.88
   4  -5 -12    7.66    0.64
   4  -5 -12    6.89    0.64
  -4   5  12    6.74    0.65
  -4   5  12    6.27    0.71
   3  -5 -12    9.38    1.06
  -3   5  12   10.98    0.76
  -3   5  12   10.35    0.81
   2  -5 -12    2.56    0.35
  -2   5  12    2.34    0.42
  -2   5  12    1.74    0.34
   1  -5 -12   -0.09    0.23
   1  -5 -12    0.02    0.25
   1  -5 -12   -0.13    0.23
  -1   5  12    0.13    0.28
  -1   5  12    0.11    0.27
   0  -5 -12    0.85    0.27
   0  -5 -12    0.87    0.30
   0  -5 -12    0.69    0.27
   0  -5 -12    1.05    0.24
   0   5  12    1.12    0.31
   0   5  12    0.82    0.27
  -1  -5 -12   21.14    1.21
  -1  -5 -12   20.94    1.25
  -1  -5 -12   20.71    1.21
  -1  -5 -12   22.17    1.17
   1   5  12   20.34    1.20
   1   5  12   22.34    1.25
  -2  -5 -12    3.37    0.42
  -2  -5 -12    2.02    0.33
  -2  -5 -12    1.85    0.34
  -2  -5 -12    1.76    0.31
   2   5  12    1.82    0.31
   2   5  12    2.12    0.34
  -3  -5 -12    7.94    0.62
  -3  -5 -12    7.55    0.68
  -3  -5 -12    7.64    0.62
   3   5  12    8.20    0.68
   3   5  12    6.91    0.59
  -4  -5 -12    0.30    0.28
   4   5  12    0.52    0.34
   4   5  12    0.10    0.39
   4   5  12    0.11    0.30
   4   5  12   -0.25    0.26
  -5  -5 -12   11.70    0.83
  -5  -5 -12   11.61    0.84
   5   5  12   12.02    0.93
   5   5  12   11.42    0.81
   5   5  12   12.22    0.85
   5   5  12   11.17    0.89
  -6  -5 -12    2.94    0.68
  -6  -5 -12    2.21    0.40
   6   5  12    2.13    0.49
   6   5  12    2.66    0.40
   6   5  12    2.41    0.40
  -7  -5 -12    1.81    0.42
  -7  -5 -12    2.14    0.49
   7   5  12    2.23    0.42
   7   5  12    2.12    0.41
   7   5  12    2.07    0.53
  -8  -5 -12   -0.49    0.48
  -8  -5 -12   -0.57    0.37
   8   5  12   -0.06    0.58
   8   5  12    0.50    0.37
  -9  -5 -12    0.07    0.54
   7  -6 -12    0.38    0.60
  -7   6  12    0.75    0.46
  -7   6  12   -0.55    0.61
   6  -6 -12    4.15    0.58
  -6   6  12    2.59    0.47
  -6   6  12    3.02    0.61
   5  -6 -12   10.55    0.92
  -5   6  12   12.04    0.90
  -5   6  12   10.67    1.03
   4  -6 -12   -0.29    0.32
   4  -6 -12   -0.02    0.35
  -4   6  12    0.12    0.39
  -4   6  12   -0.18    0.32
   3  -6 -12    0.13    0.37
   3  -6 -12   -0.14    0.28
  -3   6  12   -0.20    0.33
  -3   6  12   -0.53    0.29
   2  -6 -12    0.68    0.30
   2  -6 -12    0.70    0.26
  -2   6  12    0.52    0.33
  -2   6  12    0.45    0.31
   1  -6 -12    4.31    0.57
   1  -6 -12    4.28    0.41
   1  -6 -12    3.01    0.40
  -1   6  12    4.09    0.60
   0  -6 -12    9.14    0.75
   0  -6 -12    8.73    0.71
   0  -6 -12    8.56    0.59
   0  -6 -12    8.87    0.67
   0   6  12    8.19    0.68
   0   6  12    9.61    0.76
  -1  -6 -12    9.64    0.77
  -1  -6 -12    9.79    0.81
  -1  -6 -12   12.53    0.69
  -1  -6 -12   11.15    0.76
   1   6  12   11.54    0.83
   1   6  12   10.45    0.75
  -2  -6 -12    4.14    0.46
  -2  -6 -12    4.04    0.62
  -2  -6 -12    4.27    0.52
  -2  -6 -12    3.59    0.48
   2   6  12    4.13    0.57
  -3  -6 -12    1.70    0.30
  -3  -6 -12    1.52    0.31
   3   6  12    1.06    0.30
   3   6  12    1.06    0.44
  -4  -6 -12    6.49    0.59
   4   6  12    6.73    0.58
   4   6  12    5.84    0.73
   4   6  12    5.45    0.66
  -5  -6 -12    0.13    0.33
  -5  -6 -12    1.39    0.35
   5   6  12    0.69    0.32
   5   6  12    0.59    0.36
   5   6  12    0.56    0.43
   5   6  12    0.70    0.41
  -6  -6 -12    0.64    0.34
  -6  -6 -12    0.72    0.40
   6   6  12    0.47    0.34
   6   6  12    0.19    0.34
   6   6  12    0.69    0.83
  -7  -6 -12   -0.09    0.36
  -7  -6 -12   -0.49    0.42
   7   6  12   -0.03    0.51
   7   6  12    0.80    0.37
   7   6  12    0.04    0.36
  -8  -6 -12    1.92    0.47
  -8  -6 -12    1.90    0.53
   8   6  12    1.86    0.38
   8   6  12    2.14    0.66
   8   6  12    1.03    0.44
   6  -7 -12    2.20    0.63
  -6   7  12    1.05    0.48
  -6   7  12    1.51    0.62
   5  -7 -12    1.32    0.51
  -5   7  12    0.27    0.49
  -5   7  12    0.70    0.42
   4  -7 -12    2.97    0.49
  -4   7  12    2.27    0.44
  -4   7  12    2.01    0.50
   3  -7 -12    1.56    0.29
   3  -7 -12    0.45    0.39
  -3   7  12    1.13    0.42
  -3   7  12    0.74    0.37
   2  -7 -12   10.95    0.68
   2  -7 -12   10.54    0.67
   2  -7 -12    9.45    0.82
  -2   7  12   12.10    0.92
  -2   7  12   12.02    0.83
   1  -7 -12    0.63    0.23
   1  -7 -12    1.03    0.39
   1  -7 -12    0.49    0.33
  -1   7  12    1.37    0.36
  -1   7  12    0.86    0.38
   0  -7 -12    0.92    0.22
   0  -7 -12    0.57    0.35
   0  -7 -12    0.66    0.30
   0   7  12    0.88    0.44
   0   7  12    0.67    0.32
  -1  -7 -12    7.38    0.50
  -1  -7 -12    6.35    0.63
  -1  -7 -12    5.92    0.68
   1   7  12    7.22    0.63
   1   7  12    6.87    0.72
  -2  -7 -12   26.17    1.36
  -2  -7 -12   26.28    1.45
   2   7  12   24.41    1.44
   2   7  12   26.21    1.50
  -3  -7 -12    0.36    0.26
   3   7  12   -0.20    0.32
   3   7  12    0.13    0.29
  -4  -7 -12    5.33    0.56
  -4  -7 -12    4.37    0.49
   4   7  12    4.07    0.55
   4   7  12    4.29    0.64
  -5  -7 -12    0.14    0.34
  -5  -7 -12   -0.06    0.34
   5   7  12   -0.30    0.33
   5   7  12   -0.07    0.32
   5   7  12    0.17    0.45
   5   7  12   -0.29    0.41
  -6  -7 -12   -0.29    0.38
  -6  -7 -12   -0.22    0.35
   6   7  12   -0.70    0.33
   6   7  12   -0.17    0.49
   6   7  12    0.18    0.32
   6   7  12   -0.25    0.52
  -7  -7 -12    4.70    0.59
  -7  -7 -12    6.10    0.80
   7   7  12    6.05    0.67
   7   7  12    4.04    0.70
   7   7  12    4.94    0.71
  -8  -7 -12   12.17    1.11
  -8  -7 -12   16.68    1.21
   8   7  12   13.33    0.96
   8   7  12   14.81    1.34
   8   7  12   11.87    1.03
  -6   8  12    0.68    0.68
   5  -8 -12   -0.32    0.59
  -5   8  12    0.35    0.57
  -5   8  12    0.35    0.47
   4  -8 -12   -0.54    0.50
  -4   8  12    0.45    0.49
  -4   8  12    0.79    0.43
   3  -8 -12   -0.01    0.28
   3  -8 -12    0.33    0.67
  -3   8  12    1.11    0.47
  -3   8  12    1.16    0.41
   2  -8 -12    2.47    0.47
   2  -8 -12    2.39    0.71
  -2   8  12    3.04    0.50
  -2   8  12    3.65    0.48
   1  -8 -12    0.67    0.45
   1  -8 -12    0.41    0.36
  -1   8  12    0.80    0.38
  -1   8  12    0.65    0.38
   0  -8 -12    0.08    0.40
   0  -8 -12    0.71    0.35
   0   8  12    0.69    0.36
   0   8  12   -0.03    0.36
  -1  -8 -12    6.20    0.63
  -1  -8 -12    6.55    0.71
   1   8  12    6.20    0.66
   1   8  12    4.91    0.72
  -2  -8 -12    2.94    0.48
  -2  -8 -12    3.31    0.37
   2   8  12    4.37    0.58
   2   8  12    3.25    0.48
  -3  -8 -12    5.42    0.49
  -3  -8 -12    5.08    0.61
   3   8  12    4.37    0.60
   3   8  12    4.93    0.70
  -4  -8 -12   -0.29    0.33
  -4  -8 -12    0.15    0.30
   4   8  12   -0.16    0.44
   4   8  12   -0.08    0.34
   4   8  12   -0.21    0.31
  -5  -8 -12    1.89    0.39
  -5  -8 -12    1.18    0.40
   5   8  12    1.67    0.39
   5   8  12    0.52    0.40
   5   8  12    1.27    0.55
  -6  -8 -12    0.18    0.43
  -6  -8 -12    0.29    0.41
   6   8  12   -0.22    0.55
   6   8  12    0.99    0.38
  -7  -8 -12   14.01    1.09
  -7  -8 -12   15.94    1.12
   7   8  12   14.89    0.99
   7   8  12   10.95    1.01
   7   8  12   12.83    1.30
  -5   9  12    0.76    0.65
   4  -9 -12   -0.27    0.71
  -4   9  12   -0.72    0.53
  -4   9  12    0.37    0.49
   3  -9 -12    0.86    0.57
  -3   9  12   -0.15    0.47
  -3   9  12    0.33    0.46
   2  -9 -12    3.65    0.52
  -2   9  12    3.79    0.58
  -2   9  12    3.12    0.56
   1  -9 -12   14.84    1.05
   1  -9 -12   15.17    1.40
  -1   9  12   15.65    1.15
  -1   9  12   14.30    1.06
   0  -9 -12    0.79    0.49
   0  -9 -12    0.78    0.39
   0   9  12    1.18    0.41
   0   9  12    0.73    0.44
  -1  -9 -12    1.90    0.50
   1   9  12    1.74    0.47
   1   9  12    2.60    0.45
  -2  -9 -12    0.20    0.35
  -2  -9 -12    0.59    0.48
   2   9  12   -0.05    0.39
   2   9  12    0.25    0.36
  -3  -9 -12    1.92    0.56
  -3  -9 -12    2.59    0.45
   3   9  12    2.58    0.44
   3   9  12    2.84    0.49
  -4  -9 -12    9.26    1.10
   4   9  12    8.63    0.87
   4   9  12    8.39    0.78
   4   9  12    9.01    1.02
  -5  -9 -12    3.44    0.47
  -5  -9 -12    3.45    0.50
   5   9  12    3.26    0.46
   5   9  12    2.23    0.59
   5   9  12    2.00    0.46
  -6  -9 -12    2.67    0.68
  -6  -9 -12    1.78    0.50
   6   9  12    3.32    0.49
   6   9  12    1.87    0.67
  -7  -9 -12    1.33    0.54
   7   9  12    0.98    0.43
   7   9  12    0.44    0.69
   7   9  12   -0.82    0.43
  -3  10  12   -0.14    0.55
  -3  10  12   -0.43    0.54
   2 -10 -12   13.48    1.42
  -2  10  12   10.90    1.10
  -2  10  12   12.05    1.05
  -1  10  12    1.41    0.51
  -1  10  12    2.12    0.51
   0  10  12    0.24    0.45
   0  10  12    0.82    0.45
  -1 -10 -12   -0.03    0.40
   1  10  12    0.67    0.50
   1  10  12    1.05    0.46
  -2 -10 -12    5.61    0.73
   2  10  12    4.41    0.64
   2  10  12    6.50    0.75
  -3 -10 -12    3.94    0.50
   3  10  12    3.85    0.69
   3  10  12    4.17    0.54
   3  10  12    3.24    0.57
  -4 -10 -12    8.39    0.83
   4  10  12    8.89    0.85
   4  10  12    8.23    1.10
   4  10  12    7.64    0.90
  -5 -10 -12   -0.23    0.57
   5  10  12    0.69    0.43
   5  10  12   -0.80    0.43
   5  10  12   -0.67    0.58
  -6 -10 -12    0.89    0.53
   6  10  12   -0.41    0.66
   6  10  12    2.53    0.52
  -2  11  12   -0.17    0.56
  -1  11  12    0.61    0.59
  -1  11  12    0.59    0.56
   0  11  12   -0.32    0.49
   0  11  12    1.00    0.56
   1  11  12    8.81    1.06
   1  11  12   10.44    1.01
   2  11  12    1.69    0.53
   2  11  12    1.68    0.54
   3  11  12    1.91    0.54
   3  11  12    2.17    0.63
   4  11  12   -0.76    0.48
   4  11  12    0.08    0.50
   4  11  12    1.01    0.69
   4   7 -13    0.72    0.57
   4   7 -13    0.66    0.53
   3   7 -13    0.85    0.62
   3   7 -13    0.46    0.49
   2   7 -13    0.93    0.58
   2   7 -13    1.73    0.53
   1   7 -13    7.60    0.79
   1   7 -13    6.26    0.75
   0   7 -13   -0.06    0.58
   0   7 -13    0.14    0.57
  -1   7 -13   -0.38    0.63
  -2   7 -13   -0.35    0.65
   6   6 -13    2.12    0.59
   6   6 -13    1.93    0.71
   5   6 -13   -0.23    0.61
   5   6 -13   -0.37    0.49
   4   6 -13    0.00    0.54
   4   6 -13   -0.25    0.44
   3   6 -13    0.40    0.50
   3   6 -13    0.81    0.43
   3   6 -13    1.12    0.51
   2   6 -13    8.09    0.77
   2   6 -13    5.79    0.75
   2   6 -13    9.86    0.97
   1   6 -13    0.31    0.50
   1   6 -13    1.10    0.40
   0   6 -13    1.31    0.49
   0   6 -13    0.92    0.41
  -1   6 -13   -1.12    0.47
  -1   6 -13   -0.67    0.40
  -2   6 -13    1.69    0.55
  -2   6 -13    1.84    0.48
  -3   6 -13    0.19    0.52
  -3   6 -13    0.25    0.57
  -4   6 -13    2.87    0.71
   6   5 -13    0.73    0.58
   6   5 -13    0.46    0.48
   5   5 -13    0.51    0.53
   5   5 -13    0.14    0.42
   4   5 -13    3.38    0.49
   4   5 -13    3.26    0.56
   3   5 -13    1.78    0.48
   3   5 -13    2.93    0.43
   2   5 -13    0.01    0.41
   2   5 -13   -0.54    0.35
   2   5 -13   -0.10    0.36
   2   5 -13   -0.33    0.47
   1   5 -13   -0.43    0.45
   1   5 -13    0.79    0.36
   1   5 -13    0.92    0.45
   0   5 -13    6.83    0.68
   0   5 -13    7.50    0.84
   0   5 -13    8.58    0.81
  -1   5 -13    2.05    0.47
  -1   5 -13    2.12    0.50
  -1   5 -13    1.81    0.39
  -2   5 -13    1.77    0.43
  -2   5 -13    0.88    0.47
  -3   5 -13    2.30    0.55
  -4   5 -13    0.22    0.55
  -5   5 -13    6.02    0.78
  -5   5 -13    8.60    1.15
   7   4 -13    2.11    0.63
   7   4 -13    2.24    0.52
   6   4 -13    0.18    0.52
   6   4 -13    0.34    0.43
   5   4 -13   20.56    1.22
   5   4 -13   18.62    1.32
   4   4 -13    0.05    0.44
   4   4 -13   -0.32    0.42
  -4  -4  13   -0.25    0.63
   3   4 -13    0.04    0.38
   3   4 -13    1.22    0.35
  -3  -4  13    0.88    0.50
   2   4 -13   -0.26    0.32
   2   4 -13    0.54    0.42
   2   4 -13    0.86    0.42
  -2  -4  13   -0.01    0.38
   1   4 -13   10.64    0.86
   1   4 -13   11.41    0.89
   1   4 -13   11.04    0.80
   0   4 -13    5.67    0.60
   0   4 -13    6.51    0.70
   0   4 -13    5.49    0.50
   0   4 -13    6.31    0.67
  -1   4 -13   -0.38    0.35
  -1   4 -13    0.32    0.32
  -1   4 -13    0.29    0.37
  -1   4 -13   -0.14    0.30
  -2   4 -13    0.08    0.33
  -2   4 -13   -0.02    0.41
  -2   4 -13   -0.06    0.43
  -2   4 -13    0.05    0.37
  -3   4 -13    7.64    0.80
  -3   4 -13    7.76    0.84
  -3   4 -13    7.26    0.73
  -4   4 -13   12.18    1.03
  -4   4 -13   10.44    0.91
  -5   4 -13    1.83    0.56
  -5   4 -13    0.86    0.51
  -6   4 -13    0.42    0.59
   8   3 -13    0.77    0.57
   7   3 -13   -0.18    0.50
   7   3 -13   -0.15    0.41
   6   3 -13    3.79    0.49
   6   3 -13    2.89    0.56
   5   3 -13   -0.21    0.34
   5   3 -13   -0.15    0.70
   4   3 -13   10.09    0.83
   4   3 -13    8.76    0.80
   3   3 -13    2.55    0.37
   3   3 -13    1.62    0.38
  -3  -3  13    1.78    0.52
   2   3 -13   13.01    0.84
   2   3 -13   11.26    0.89
   2   3 -13   13.14    0.89
  -2  -3  13   11.79    0.93
   1   3 -13    5.14    0.55
   1   3 -13    5.04    0.61
   1   3 -13    5.18    0.61
  -1  -3  13    3.83    0.52
   0   3 -13   -0.11    0.33
   0   3 -13   -0.34    0.26
   0   3 -13   -0.11    0.21
   0   3 -13    0.49    0.33
  -1   3 -13   -0.10    0.34
  -1   3 -13    0.15    0.32
  -1   3 -13    0.22    0.28
  -1   3 -13   -0.25    0.26
  -2   3 -13   24.98    1.43
  -2   3 -13   25.23    1.38
  -2   3 -13   23.03    1.39
  -2   3 -13   23.94    1.38
  -3   3 -13    0.24    0.39
  -3   3 -13    0.58    0.38
  -3   3 -13    1.12    0.35
  -4   3 -13    2.58    0.48
  -4   3 -13    1.84    0.41
  -5   3 -13    0.25    0.49
  -6   3 -13    3.80    0.60
  -6   3 -13    2.07    0.57
   8   2 -13    3.31    0.61
   8   2 -13    2.77    0.51
  -8  -2  13    3.64    0.71
   7   2 -13    0.62    0.47
   7   2 -13   -0.40    0.37
  -7  -2  13    0.04    0.48
   6   2 -13    5.44    0.67
   6   2 -13    5.36    0.78
  -6  -2  13    6.11    0.68
   5   2 -13    6.11    0.66
  -5  -2  13    6.85    0.61
  -5  -2  13    7.74    0.81
   4   2 -13    7.37    0.70
   4   2 -13    6.37    0.71
  -4  -2  13    6.72    1.01
  -4  -2  13    7.30    0.99
  -4  -2  13    7.01    0.56
   3   2 -13    7.16    0.60
  -3  -2  13    7.34    0.62
  -3  -2  13    6.29    0.50
  -3  -2  13    5.78    0.90
   2   2 -13    0.35    0.32
   2   2 -13    0.58    0.28
  -2  -2  13    0.11    0.20
  -2  -2  13    0.26    0.40
  -2  -2  13    0.09    0.27
   1   2 -13    7.01    0.59
   1   2 -13    7.15    0.61
   1   2 -13    6.64    0.67
  -1  -2  13    7.30    0.64
  -1  -2  13    6.07    0.46
   0   2 -13    0.10    0.33
   0   2 -13   -0.02    0.19
   0   2 -13    0.38    0.29
   0   2 -13   -0.25    0.25
  -1   2 -13   22.47    1.28
  -1   2 -13   23.05    1.32
  -1   2 -13   24.86    1.35
  -1   2 -13   23.45    1.31
  -2   2 -13    1.77    0.34
  -2   2 -13    1.76    0.33
  -2   2 -13    1.62    0.38
  -2   2 -13    1.83    0.34
  -3   2 -13    4.12    0.50
  -3   2 -13    3.01    0.43
  -3   2 -13    4.35    0.54
  -4   2 -13    0.87    0.38
  -4   2 -13    0.51    0.33
  -5   2 -13    0.89    0.44
  -6   2 -13    0.71    0.46
  -6   2 -13    2.26    0.50
  -7   2 -13    0.45    0.49
  -7   2 -13    0.51    0.52
   8   1 -13    1.08    0.45
   8   1 -13    1.91    0.51
  -8  -1  13    1.23    0.64
   7   1 -13    8.66    0.91
   7   1 -13    7.66    0.76
  -7  -1  13   10.18    0.93
   6   1 -13    0.24    0.38
   6   1 -13   -0.18    0.33
  -6  -1  13   -0.12    0.60
  -6  -1  13   -0.69    0.41
   5   1 -13    1.85    0.36
   5   1 -13    1.34    0.72
  -5  -1  13    1.64    0.50
  -5  -1  13    1.73    0.38
   4   1 -13    0.12    0.27
  -4  -1  13   -0.18    0.39
  -4  -1  13   -0.65    0.50
  -4  -1  13   -0.18    0.29
   3   1 -13   -0.01    0.27
  -3  -1  13    0.23    0.45
  -3  -1  13    0.14    0.26
  -3  -1  13    0.41    0.35
   2   1 -13    3.96    0.53
   2   1 -13    4.46    0.49
  -2  -1  13    4.02    0.50
  -2  -1  13    3.63    0.43
  -2  -1  13    4.28    0.67
   1   1 -13    3.74    0.44
   1   1 -13    4.13    0.48
   1   1 -13    2.30    0.33
   1   1 -13    3.61    0.45
  -1  -1  13    2.75    0.44
  -1  -1  13    2.76    0.38
  -1  -1  13    2.95    0.42
   0   1 -13    1.04    0.34
   0   1 -13    1.18    0.27
   0   1 -13    1.38    0.24
   0   1 -13    1.27    0.28
   0  -1  13    1.21    0.25
   0  -1  13    0.97    0.28
   0  -1  13    0.95    0.34
  -1   1 -13    0.32    0.25
  -1   1 -13   -0.03    0.24
  -1   1 -13    0.40    0.28
  -1   1 -13    0.46    0.25
   1  -1  13   -0.22    0.30
   1  -1  13    0.18    0.23
  -2   1 -13    3.67    0.48
  -2   1 -13    4.63    0.50
  -2   1 -13    3.78    0.68
  -2   1 -13    3.34    0.51
   2  -1  13    3.78    0.44
   2  -1  13    3.94    0.49
  -3   1 -13   10.92    0.74
  -3   1 -13   10.97    0.79
  -3   1 -13    8.89    0.79
   3  -1  13   10.91    0.69
   3  -1  13    9.44    0.82
  -4   1 -13    0.52    0.32
  -4   1 -13   -0.21    0.37
  -4   1 -13    0.98    0.39
   4  -1  13    0.67    0.30
   4  -1  13    0.78    0.31
  -5   1 -13    1.18    0.44
   5  -1  13    1.02    0.39
   5  -1  13    1.16    0.36
  -6   1 -13    2.86    0.53
  -6   1 -13    2.25    0.48
   6  -1  13    2.80    0.45
  -7   1 -13    0.28    0.42
  -7   1 -13   -0.23    0.44
   7  -1  13   -0.06    0.57
   8   0 -13    0.82    0.42
  -8   0  13   -0.19    0.56
   7   0 -13    2.95    0.45
  -7   0  13    3.72    0.59
   6   0 -13    0.44    0.33
  -6   0  13    0.41    0.42
   5   0 -13   -0.28    0.26
  -5   0  13    0.46    0.37
  -5   0  13    0.09    0.46
   4   0 -13    4.05    0.50
  -4   0  13    4.10    0.53
  -4   0  13    2.75    0.55
  -4   0  13    4.59    0.64
   3   0 -13   -0.03    0.25
  -3   0  13   -0.14    0.28
  -3   0  13    0.00    0.41
  -3   0  13    0.10    0.31
  -3   0  13    0.04    0.19
   2   0 -13   11.03    0.79
   2   0 -13   11.79    0.79
  -2   0  13   13.10    0.70
  -2   0  13   10.80    0.77
  -2   0  13   12.96    0.91
  -2   0  13   12.16    0.76
   1   0 -13    0.24    0.19
   1   0 -13    0.29    0.28
   1   0 -13    0.54    0.24
  -1   0  13    0.48    0.27
  -1   0  13    0.05    0.35
  -1   0  13    0.81    0.23
  -1   0  13    0.24    0.24
   0   0 -13   -0.15    0.28
   0   0 -13    0.41    0.23
   0   0 -13   -0.03    0.23
   0   0  13    0.33    0.31
   0   0  13    0.54    0.26
   0   0  13   -0.24    0.23
   0   0  13   -0.02    0.22
  -1   0 -13    6.06    0.55
  -1   0 -13    5.32    0.48
  -1   0 -13    5.45    0.51
  -1   0 -13    4.85    0.51
   1   0  13    4.73    0.48
   1   0  13    6.43    0.49
   1   0  13    4.50    0.48
  -2   0 -13    4.26    0.49
  -2   0 -13    3.75    0.51
  -2   0 -13    3.74    0.51
  -2   0 -13    5.01    0.49
   2   0  13    4.12    0.46
   2   0  13    4.34    0.46
  -3   0 -13    1.44    0.34
  -3   0 -13    1.99    0.33
  -3   0 -13    1.92    0.54
   3   0  13    1.66    0.31
   3   0  13    2.08    0.32
  -4   0 -13   20.70    1.23
  -4   0 -13   20.77    1.29
  -4   0 -13   23.20    1.29
   4   0  13   18.77    1.20
   4   0  13   22.43    1.20
  -5   0 -13    1.01    0.45
  -5   0 -13    0.80    0.33
   5   0  13    0.94    0.38
   5   0  13    0.96    0.35
  -6   0 -13    0.30    0.46
  -6   0 -13    0.54    0.37
   6   0  13    0.64    0.39
   6   0  13    0.12    0.55
  -7   0 -13    1.95    0.46
  -7   0 -13    1.56    0.42
   7   0  13    2.19    0.49
  -8   0 -13    4.54    0.63
  -8   0 -13    7.11    0.86
   8   0  13    4.73    0.60
   8  -1 -13    0.57    0.38
  -8   1  13    0.59    0.57
   7  -1 -13    0.02    0.34
  -7   1  13    0.23    0.47
   6  -1 -13    0.12    0.28
  -6   1  13   -0.03    0.40
  -6   1  13    0.22    0.31
   5  -1 -13    0.13    0.28
  -5   1  13    0.45    0.27
  -5   1  13    0.31    0.37
   4  -1 -13    9.58    0.74
  -4   1  13   11.13    0.67
  -4   1  13   11.49    0.79
  -4   1  13    8.70    0.78
   3  -1 -13    7.88    0.62
  -3   1  13    6.09    0.81
  -3   1  13    7.43    0.52
  -3   1  13    5.76    0.62
  -3   1  13    8.28    0.62
   2  -1 -13    8.56    0.64
   2  -1 -13    7.55    0.62
  -2   1  13    9.38    0.58
  -2   1  13    8.18    0.66
  -2   1  13    8.31    0.64
  -2   1  13   10.10    0.79
   1  -1 -13    0.87    0.25
   1  -1 -13    1.19    0.25
   1  -1 -13    0.62    0.27
  -1   1  13    1.17    0.27
   0  -1 -13   12.08    0.76
   0  -1 -13   11.59    0.76
   0  -1 -13   12.56    0.81
   0  -1 -13   12.72    0.77
   0   1  13   14.94    1.07
   0   1  13   11.97    0.74
   0   1  13   10.64    0.75
   0   1  13   11.51    0.75
  -1  -1 -13    9.95    0.67
  -1  -1 -13    9.46    0.70
  -1  -1 -13    9.71    0.65
  -1  -1 -13    9.62    0.69
   1   1  13   11.76    0.69
   1   1  13    9.14    0.65
   1   1  13    8.82    0.66
   1   1  13   10.11    0.69
  -2  -1 -13    1.57    0.25
  -2  -1 -13    1.06    0.28
  -2  -1 -13    1.43    0.29
  -2  -1 -13    1.46    0.31
   2   1  13    1.52    0.28
   2   1  13    1.40    0.29
   2   1  13    1.23    0.29
   2   1  13    2.00    0.32
  -3  -1 -13    0.61    0.26
  -3  -1 -13    0.39    0.32
  -3  -1 -13   -0.27    0.27
   3   1  13   -0.21    0.27
   3   1  13    0.87    0.32
   3   1  13    0.45    0.27
  -4  -1 -13    0.93    0.30
  -4  -1 -13    1.94    0.40
   4   1  13    1.15    0.33
   4   1  13    1.07    0.33
  -5  -1 -13   29.92    1.67
   5   1  13   25.98    1.60
   5   1  13   30.40    1.58
  -6  -1 -13    4.50    0.54
  -6  -1 -13    3.64    0.48
   6   1  13    4.68    0.65
  -7  -1 -13    5.34    0.68
  -7  -1 -13    5.61    0.66
   7   1  13    5.38    0.76
  -8  -1 -13    0.40    0.51
  -8  -1 -13    0.12    0.40
   8   1  13    0.60    0.50
   8  -2 -13   -0.86    0.39
  -8   2  13    0.18    0.54
   7  -2 -13    0.66    0.39
  -7   2  13    0.05    0.45
  -7   2  13    0.00    0.47
   6  -2 -13    0.84    0.34
  -6   2  13    1.36    0.42
  -6   2  13    0.72    0.38
   5  -2 -13   10.25    0.78
  -5   2  13   11.61    0.78
  -5   2  13   10.11    0.83
   4  -2 -13    1.29    0.30
  -4   2  13    1.07    0.29
  -3   2  13    3.33    0.46
  -3   2  13    2.70    0.38
  -3   2  13    1.89    0.41
  -3   2  13    3.06    0.48
   2  -2 -13    2.16    0.32
  -2   2  13    2.21    0.34
  -2   2  13    2.95    0.36
  -2   2  13    3.79    0.61
  -2   2  13    2.87    0.42
   1  -2 -13   48.00    2.41
   1  -2 -13   48.08    2.42
   1  -2 -13   47.26    2.40
  -1   2  13   44.50    2.37
  -1   2  13   46.70    2.43
  -1   2  13   44.69    2.39
  -1   2  13   46.36    2.40
   0  -2 -13    2.21    0.31
   0  -2 -13    1.58    0.31
   0  -2 -13    1.78    0.28
   0   2  13    1.41    0.29
   0   2  13    1.82    0.29
   0   2  13    2.89    0.41
  -1  -2 -13    3.24    0.47
  -1  -2 -13    3.00    0.38
  -1  -2 -13    2.37    0.33
  -1  -2 -13    2.72    0.32
   1   2  13    2.17    0.33
   1   2  13    3.24    0.53
   1   2  13    3.44    0.45
   1   2  13    2.92    0.40
  -2  -2 -13    0.85    0.20
  -2  -2 -13    1.14    0.28
  -2  -2 -13    1.52    0.31
  -2  -2 -13    1.42    0.32
   2   2  13    2.13    0.31
   2   2  13    1.97    0.30
   2   2  13    1.46    0.30
  -3  -2 -13   14.94    1.02
  -3  -2 -13   17.17    1.02
  -3  -2 -13   15.75    1.02
   3   2  13   17.23    0.98
   3   2  13   16.11    0.97
   3   2  13   18.28    1.02
   3   2  13   14.91    0.98
  -4  -2 -13   11.06    0.80
  -4  -2 -13   11.28    0.86
  -4  -2 -13   12.66    0.90
   4   2  13   11.70    0.77
   4   2  13   13.02    0.81
   4   2  13    9.79    0.81
   4   2  13   13.05    0.84
  -5  -2 -13    7.07    0.76
   5   2  13    6.70    0.78
   5   2  13    8.68    0.67
  -6  -2 -13   -0.13    0.32
  -6  -2 -13    0.13    0.41
   6   2  13    0.85    0.38
   6   2  13    1.73    0.38
  -7  -2 -13    5.99    0.69
  -7  -2 -13    6.10    0.82
   7   2  13    7.50    0.76
  -8  -2 -13    2.12    0.45
  -8  -2 -13    3.33    0.59
   8   2  13    2.02    0.53
   8  -3 -13    1.57    0.52
  -8   3  13    2.96    0.60
   7  -3 -13    5.11    0.58
  -7   3  13    5.74    0.80
  -7   3  13    5.14    0.64
   6  -3 -13    6.73    0.70
  -6   3  13    7.37    0.75
  -6   3  13    5.77    0.78
   5  -3 -13   -0.14    0.29
  -5   3  13    0.07    0.35
  -5   3  13   -0.21    0.35
   4  -3 -13   11.07    0.81
  -4   3  13   13.15    0.86
  -4   3  13   12.40    0.86
   3  -3 -13   11.24    0.78
  -3   3  13   12.57    0.81
  -3   3  13   10.87    1.08
   2  -3 -13    6.40    0.55
  -2   3  13    6.38    0.58
  -2   3  13    5.96    0.73
  -2   3  13    6.79    0.58
   1  -3 -13    0.22    0.23
   1  -3 -13    0.38    0.27
   1  -3 -13    0.68    0.25
  -1   3  13    0.43    0.25
  -1   3  13    1.06    0.27
  -1   3  13    0.69    0.28
   0  -3 -13    0.83    0.28
   0  -3 -13    1.15    0.27
   0  -3 -13    0.98    0.27
   0   3  13    1.14    0.29
   0   3  13    0.74    0.27
   0   3  13    1.21    0.29
  -1  -3 -13    0.15    0.22
  -1  -3 -13    0.02    0.24
  -1  -3 -13    0.31    0.25
   1   3  13   -0.03    0.23
   1   3  13    0.57    0.29
   1   3  13    0.18    0.26
   1   3  13    0.22    0.25
  -2  -3 -13   20.62    1.21
  -2  -3 -13   21.74    1.26
  -2  -3 -13   21.33    1.21
   2   3  13   20.81    1.19
   2   3  13   23.54    1.22
   2   3  13   19.75    1.20
  -3  -3 -13    5.07    0.56
  -3  -3 -13    3.40    0.55
   3   3  13    5.17    0.53
   3   3  13    3.95    0.51
   3   3  13    4.58    0.55
  -4  -3 -13    2.06    0.34
  -4  -3 -13    2.41    0.41
   4   3  13    2.19    0.38
   4   3  13    2.02    0.36
   4   3  13    1.85    0.60
  -5  -3 -13    0.43    0.38
   5   3  13    0.94    0.34
   5   3  13    0.48    0.34
   5   3  13    1.44    0.36
  -6  -3 -13   15.80    1.05
  -6  -3 -13   16.00    1.12
   6   3  13   14.39    1.04
   6   3  13   17.51    1.09
  -7  -3 -13    4.14    0.60
  -7  -3 -13    3.33    0.46
   7   3  13    4.19    0.52
   7   3  13    5.83    0.81
  -8  -3 -13    2.11    0.58
  -8  -3 -13    1.19    0.40
   8   3  13    0.53    0.47
   7  -4 -13    0.32    0.42
  -7   4  13    0.41    0.58
  -7   4  13    1.45    0.48
   6  -4 -13    1.10    0.40
  -6   4  13    0.16    0.46
  -6   4  13   -0.09    0.40
   5  -4 -13    8.40    0.72
  -5   4  13    9.17    0.78
  -5   4  13    7.04    0.81
   4  -4 -13   11.45    0.86
  -4   4  13   13.42    0.91
  -4   4  13   13.11    0.89
   3  -4 -13    0.04    0.27
  -3   4  13    0.52    0.32
  -3   4  13   -0.11    0.30
  -2   4  13    0.65    0.38
  -2   4  13    0.18    0.29
   1  -4 -13    5.42    0.53
   1  -4 -13    4.77    0.55
   1  -4 -13    5.25    0.52
  -1   4  13    5.56    0.58
  -1   4  13    7.12    0.70
  -1   4  13    5.12    0.55
   0  -4 -13    3.53    0.45
   0  -4 -13    2.44    0.36
   0  -4 -13    3.75    0.45
   0   4  13    4.00    0.57
   0   4  13    3.84    0.51
   0   4  13    2.89    0.37
  -1  -4 -13   18.83    1.14
  -1  -4 -13   18.80    1.08
  -1  -4 -13   18.56    1.10
   1   4  13   18.07    1.09
   1   4  13   19.73    1.12
  -2  -4 -13   10.68    0.73
  -2  -4 -13    9.03    0.70
  -2  -4 -13   10.26    0.79
   2   4  13   11.39    0.77
   2   4  13    9.65    0.72
  -3  -4 -13    3.14    0.38
  -3  -4 -13    2.56    0.37
  -3  -4 -13    2.14    0.39
   3   4  13    2.89    0.39
  -4  -4 -13    0.54    0.28
  -4  -4 -13    0.81    0.37
   4   4  13    1.22    0.34
   4   4  13    0.32    0.33
   4   4  13    0.72    0.36
   5   4  13    7.15    0.77
   5   4  13    7.90    0.71
   5   4  13    7.54    0.69
  -6  -4 -13   -0.64    0.39
  -6  -4 -13    0.10    0.34
   6   4  13   -0.03    0.36
   6   4  13    0.44    0.41
   6   4  13    0.33    0.35
  -7  -4 -13    1.08    0.37
  -7  -4 -13    0.77    0.47
   7   4  13    1.08    0.51
   7   4  13    0.60    0.39
  -8  -4 -13    0.69    0.43
  -8  -4 -13    1.00    0.58
   8   4  13    0.75    0.63
   8   4  13    0.77    0.44
   7  -5 -13   10.52    1.04
  -7   5  13   10.60    0.97
  -7   5  13   10.30    1.26
   6  -5 -13    0.67    0.44
  -6   5  13   -0.08    0.51
  -6   5  13    0.65    0.43
   5  -5 -13    3.93    0.51
  -5   5  13    3.46    0.84
  -5   5  13    5.34    0.67
   4  -5 -13    0.08    0.34
   4  -5 -13    0.59    0.38
  -4   5  13   -0.15    0.37
  -4   5  13   -0.47    0.32
   3  -5 -13    1.42    0.36
  -3   5  13    2.72    0.41
  -3   5  13    2.24    0.40
   2  -5 -13    0.89    0.29
   2  -5 -13    0.65    0.29
  -2   5  13    0.45    0.33
  -2   5  13    0.52    0.30
   1  -5 -13   14.59    0.86
   1  -5 -13   12.13    0.95
  -1   5  13   15.33    0.97
  -1   5  13   13.87    1.02
  -1   5  13   13.27    0.94
   0  -5 -13    0.46    0.32
   0  -5 -13    0.54    0.28
   0  -5 -13    0.77    0.28
   0   5  13    0.94    0.32
  -1  -5 -13    1.79    0.31
  -1  -5 -13    1.21    0.31
  -1  -5 -13    1.61    0.33
   1   5  13    0.90    0.48
   1   5  13    1.75    0.35
  -2  -5 -13    6.92    0.71
  -2  -5 -13    8.66    0.63
   2   5  13    6.03    0.73
   2   5  13    7.21    0.66
  -3  -5 -13   16.02    0.99
  -3  -5 -13   16.67    1.00
   3   5  13   14.97    0.97
  -4  -5 -13   -0.06    0.27
  -4  -5 -13    0.18    0.33
   4   5  13   -0.16    0.29
   4   5  13   -0.11    0.33
   4   5  13    0.15    0.36
  -5  -5 -13    0.64    0.38
  -5  -5 -13    0.81    0.34
   5   5  13    0.27    0.35
   5   5  13    0.83    0.43
   5   5  13    0.36    0.52
   5   5  13    1.44    0.36
  -6  -5 -13    0.27    0.34
  -6  -5 -13    0.37    0.42
   6   5  13    0.55    0.35
   6   5  13   -0.04    0.36
   6   5  13   -0.49    0.46
  -7  -5 -13    0.45    0.50
  -7  -5 -13    0.01    0.35
   7   5  13    0.19    0.38
   7   5  13   -0.44    0.36
   7   5  13    0.24    0.53
  -8  -5 -13    7.42    0.85
  -8  -5 -13    7.63    1.03
   8   5  13    7.18    1.14
   8   5  13    7.64    0.80
   6  -6 -13    4.45    0.61
  -6   6  13    3.14    0.54
  -6   6  13    2.90    0.66
   5  -6 -13   -0.37    0.43
  -5   6  13    0.65    0.40
  -5   6  13    0.12    0.49
   4  -6 -13    0.19    0.43
   4  -6 -13    0.84    0.41
  -4   6  13    0.30    0.37
  -4   6  13    0.23    0.43
   3  -6 -13    2.74    0.39
   3  -6 -13    2.40    0.42
  -3   6  13    2.53    0.61
  -3   6  13    2.49    0.43
   2  -6 -13    1.53    0.31
   2  -6 -13    1.56    0.36
  -2   6  13    1.72    0.40
  -2   6  13    1.96    0.37
   1  -6 -13    6.23    0.52
   1  -6 -13    4.43    0.58
  -1   6  13    6.38    0.71
  -1   6  13    5.93    0.60
   0  -6 -13    1.89    0.30
   0  -6 -13    1.58    0.54
   0  -6 -13    1.59    0.45
   0   6  13    2.13    0.41
   0   6  13    2.31    0.36
  -1  -6 -13    0.32    0.26
   1   6  13    0.19    0.30
   1   6  13    0.15    0.33
  -2  -6 -13    6.50    0.74
  -2  -6 -13    7.69    0.61
   2   6  13    7.73    0.63
   2   6  13    6.60    0.79
  -3  -6 -13    3.35    0.42
  -3  -6 -13    3.19    0.40
   3   6  13    2.82    0.39
   3   6  13    2.89    0.44
  -4  -6 -13    3.18    0.42
   4   6  13    2.47    0.38
   4   6  13    2.83    0.49
   4   6  13    2.47    0.43
  -5  -6 -13   -0.16    0.36
  -5  -6 -13    0.03    0.36
   5   6  13   -0.01    0.44
   5   6  13   -0.58    0.43
   5   6  13    0.38    0.33
   5   6  13   -0.56    0.33
  -6  -6 -13    4.53    0.57
  -6  -6 -13    3.76    0.49
   6   6  13    3.49    0.70
   6   6  13    3.73    0.50
   6   6  13    4.35    0.61
  -7  -6 -13   -0.15    0.50
  -7  -6 -13    0.16    0.40
   7   6  13    0.81    0.39
   7   6  13    0.23    0.56
   7   6  13   -0.62    0.35
  -8  -6 -13   12.42    1.09
  -8  -6 -13   14.72    1.18
   8   6  13   14.91    1.36
   8   6  13   10.22    1.00
   8   6  13   13.61    0.99
   6  -7 -13    1.02    0.65
  -6   7  13    0.16    0.64
  -6   7  13    1.63    0.52
   5  -7 -13    0.11    0.51
  -5   7  13   -0.72    0.53
  -5   7  13   -0.18    0.42
   4  -7 -13    6.23    0.80
  -4   7  13    4.99    0.56
  -4   7  13    4.20    0.62
   3  -7 -13    0.40    0.32
   3  -7 -13    0.51    0.40
  -3   7  13    0.65    0.39
  -3   7  13    0.70    0.43
   2  -7 -13    1.91    0.31
   2  -7 -13    0.77    0.40
  -2   7  13    1.67    0.43
  -2   7  13    2.14    0.41
   1  -7 -13    5.13    0.49
   1  -7 -13    4.63    0.63
  -1   7  13    5.11    0.73
  -1   7  13    5.62    0.63
   0  -7 -13   21.27    1.13
   0  -7 -13   17.55    1.51
   0   7  13   20.51    1.24
   0   7  13   22.25    1.33
  -1  -7 -13    1.40    0.56
  -1  -7 -13    1.37    0.29
   1   7  13    1.67    0.36
   1   7  13    1.11    0.39
  -2  -7 -13    4.23    0.48
  -2  -7 -13    4.82    0.51
   2   7  13    4.60    0.67
   2   7  13    5.35    0.56
  -3  -7 -13   -0.12    0.31
   3   7  13   -0.11    0.29
   3   7  13    0.01    0.36
  -4  -7 -13    1.89    0.41
  -4  -7 -13    2.41    0.40
   4   7  13    1.61    0.52
   4   7  13    1.89    0.37
   4   7  13    1.61    0.41
  -5  -7 -13   12.80    0.97
  -5  -7 -13   14.57    0.98
   5   7  13   12.32    0.93
   5   7  13   12.67    1.10
   5   7  13   12.53    0.97
  -6  -7 -13    3.16    0.50
  -6  -7 -13    3.11    0.97
   6   7  13    3.02    0.63
   6   7  13    1.87    0.47
  -7  -7 -13    1.96    0.51
  -7  -7 -13    1.38    0.53
   7   7  13    1.63    0.67
   7   7  13    0.86    0.43
   5  -8 -13    0.91    0.65
  -5   8  13    2.44    0.54
  -5   8  13    0.99    0.65
   4  -8 -13   -1.32    0.54
  -4   8  13    0.12    0.43
  -4   8  13    0.59    0.54
   3  -8 -13   -0.26    0.49
  -3   8  13    0.95    0.49
  -3   8  13    0.66    0.43
   2  -8 -13   -0.40    0.42
  -2   8  13    0.27    0.43
  -2   8  13    0.00    0.41
   1  -8 -13   17.23    1.16
  -1   8  13   17.82    1.15
  -1   8  13   17.37    1.23
   0  -8 -13    1.38    0.51
   0   8  13    2.13    0.41
   0   8  13    1.29    0.46
  -1  -8 -13    0.23    0.43
  -1  -8 -13    0.31    0.22
   1   8  13    0.66    0.42
   1   8  13    0.73    0.36
  -2  -8 -13    0.95    0.39
  -2  -8 -13    1.39    0.29
   2   8  13    0.64    0.40
   2   8  13    1.82    0.38
  -3  -8 -13    7.79    0.63
   3   8  13    7.02    0.69
   3   8  13    7.11    0.79
  -4  -8 -13    5.94    0.64
  -4  -8 -13    5.17    0.71
   4   8  13    5.02    0.60
   4   8  13    5.55    0.63
   4   8  13    5.08    0.88
  -5  -8 -13   11.41    0.84
  -5  -8 -13    9.81    0.86
   5   8  13    8.47    0.87
   5   8  13    8.34    0.80
   5   8  13    9.18    1.06
  -6  -8 -13    0.67    0.46
  -6  -8 -13    0.22    0.47
   6   8  13    0.20    0.59
  -7  -8 -13    0.76    0.53
  -7  -8 -13    1.58    0.61
   7   8  13    0.02    0.68
   7   8  13    1.76    0.42
   4  -9 -13    2.61    0.74
  -4   9  13    2.67    0.59
  -4   9  13    1.74    0.64
   3  -9 -13    8.74    1.07
  -3   9  13   11.12    1.00
  -3   9  13    9.29    1.10
   2  -9 -13    7.36    0.90
  -2   9  13    7.50    0.97
  -2   9  13    7.80    0.87
   1  -9 -13   -0.36    0.76
  -1   9  13    0.10    0.46
  -1   9  13   -0.19    0.43
   0  -9 -13    1.08    0.78
   0   9  13    1.47    0.43
   0   9  13    0.84    0.47
   1   9  13    1.96    0.51
   1   9  13    2.61    0.45
   2   9  13   14.64    1.15
   2   9  13   16.47    1.06
  -3  -9 -13    0.01    0.41
   3   9  13    0.29    0.40
   3   9  13   -0.29    0.42
  -4  -9 -13    0.76    0.44
   4   9  13    0.07    0.44
   4   9  13    0.82    0.39
   4   9  13    0.87    0.60
  -5  -9 -13    0.28    0.46
   5   9  13   -0.30    0.42
   5   9  13    0.34    0.56
   5   9  13    0.65    0.41
  -6  -9 -13   13.42    1.07
   6   9  13   11.66    1.31
   6   9  13    9.24    0.97
  -3  10  13    1.24    0.59
  -3  10  13   -0.36    0.61
  -2  10  13    1.72    0.55
  -2  10  13    1.65    0.60
   1 -10 -13    1.64    0.55
  -1  10  13    1.74    0.54
  -1  10  13    1.34    0.57
   0  10  13    1.33    0.54
   0  10  13    1.77    0.51
  -1 -10 -13    5.02    0.58
   1  10  13    6.73    0.81
   1  10  13    3.91    0.63
  -2 -10 -13    1.54    0.56
   2  10  13    2.72    0.50
   2  10  13    0.93    0.53
   3  10  13    3.62    0.59
   3  10  13    3.93    0.73
   3  10  13    5.63    0.74
  -4 -10 -13    1.39    0.50
   4  10  13    1.31    0.65
   4  10  13    1.61    0.48
  -5 -10 -13    8.30    0.95
   5  10  13    6.49    1.15
   5  10  13    4.94    0.66
  -1  11  13   -0.71    0.56
   0  11  13   -0.05    0.56
   0  11  13    0.94    0.58
   1  11  13   -0.65    0.54
   1  11  13    2.25    0.57
   2  11  13    0.33    0.53
   2  11  13    3.24    0.57
   3  11  13   11.00    1.26
   3  11  13   10.40    1.03
   3  11  13    8.81    1.04
   2   7 -14   -0.38    0.64
   1   7 -14   -0.21    0.60
   0   7 -14   -0.98    0.63
   4   6 -14   12.55    1.05
   4   6 -14   10.43    1.41
   3   6 -14   -0.48    0.50
   3   6 -14    1.64    0.59
   2   6 -14   -0.15    0.54
   1   6 -14   -0.20    0.47
   1   6 -14   -0.60    0.44
   0   6 -14    4.90    0.60
   0   6 -14    4.86    0.70
  -1   6 -14    2.63    0.64
  -1   6 -14    1.95    0.60
  -2   6 -14   -0.01    0.61
  -2   6 -14    0.66    0.55
  -3   6 -14   -0.94    0.67
   6   5 -14   -0.04    0.69
   6   5 -14   -0.13    0.54
   5   5 -14    4.88    0.61
   5   5 -14    3.72    0.71
   4   5 -14   -0.75    0.51
   4   5 -14   -0.14    0.44
   3   5 -14    3.28    0.52
   3   5 -14    2.45    0.50
   2   5 -14    1.73    0.55
   2   5 -14    1.78    0.50
   1   5 -14    5.09    0.69
   1   5 -14    5.46    0.67
   0   5 -14    1.74    0.48
   0   5 -14    2.85    0.45
  -1   5 -14   -0.77    0.39
  -2   5 -14    0.34    0.53
  -2   5 -14    0.29    0.57
  -3   5 -14    7.87    0.95
  -3   5 -14    8.42    0.98
  -4   5 -14    0.07    0.61
  -4   5 -14    0.61    0.59
   6   4 -14   -0.52    0.56
   6   4 -14   -0.34    0.48
   5   4 -14    4.67    0.56
   5   4 -14    3.71    0.62
   4   4 -14    3.67    0.49
   4   4 -14    3.25    0.55
   3   4 -14    3.11    0.47
   3   4 -14    1.98    0.46
   2   4 -14    2.40    0.48
   2   4 -14    2.70    0.45
   1   4 -14    0.98    0.37
   1   4 -14    1.13    0.45
   0   4 -14    6.96    0.76
   0   4 -14    7.59    0.71
  -1   4 -14   -0.73    0.38
  -1   4 -14    0.01    0.35
  -2   4 -14   11.94    0.99
  -3   4 -14    0.26    0.44
  -3   4 -14   -0.05    0.44
  -4   4 -14    1.85    0.53
  -4   4 -14    3.65    0.59
  -5   4 -14    0.84    0.58
  -5   4 -14    0.49    0.60
   7   3 -14    1.52    0.60
   7   3 -14    1.42    0.51
   6   3 -14   11.12    0.95
   6   3 -14   11.11    1.09
   5   3 -14    0.28    0.39
   5   3 -14   -0.31    0.45
   4   3 -14    2.32    0.48
   4   3 -14    2.79    0.44
  -4  -3  14    1.78    0.75
   3   3 -14    0.66    0.38
  -3  -3  14    0.97    0.57
   2   3 -14    0.05    0.38
   2   3 -14    0.27    0.34
  -2  -3  14   -0.04    0.42
   1   3 -14    3.13    0.50
   1   3 -14    2.81    0.41
   0   3 -14    4.75    0.59
   0   3 -14    4.39    0.61
   0   3 -14    4.13    0.48
  -1   3 -14    0.91    0.41
  -1   3 -14    0.48    0.32
  -1   3 -14    0.65    0.34
  -2   3 -14   -0.07    0.36
  -2   3 -14   -0.04    0.38
  -2   3 -14   -0.07    0.42
  -3   3 -14    1.56    0.45
  -3   3 -14    0.92    0.49
  -3   3 -14    1.81    0.41
  -4   3 -14    1.77    0.48
  -4   3 -14    3.15    0.54
  -5   3 -14    0.13    0.51
  -6   3 -14    0.38    0.56
   7   2 -14    1.51    0.55
   7   2 -14    1.24    0.47
   6   2 -14    1.31    0.43
   6   2 -14    1.84    0.52
  -6  -2  14    1.91    0.46
   5   2 -14   -0.16    0.41
   5   2 -14   -0.06    0.36
  -5  -2  14   -0.11    0.35
   4   2 -14    0.56    0.35
  -4  -2  14   -0.43    0.28
  -4  -2  14   -1.03    0.65
   3   2 -14    1.02    0.36
  -3  -2  14    0.95    0.27
  -3  -2  14    0.86    0.55
  -3  -2  14    1.23    0.37
   2   2 -14    0.02    0.31
   2   2 -14   -0.06    0.34
  -2  -2  14    0.19    0.22
  -2  -2  14   -0.25    0.29
  -2  -2  14    0.33    0.43
   1   2 -14    7.54    0.66
   1   2 -14    8.08    0.76
  -1  -2  14    8.00    0.70
   0   2 -14    0.29    0.31
   0   2 -14    0.57    0.25
   0   2 -14    0.08    0.32
  -1   2 -14    0.22    0.30
  -1   2 -14    0.30    0.29
  -1   2 -14    0.16    0.36
  -2   2 -14    0.59    0.36
  -2   2 -14    1.29    0.44
  -2   2 -14    0.89    0.37
  -3   2 -14    0.24    0.41
  -3   2 -14    0.80    0.36
  -3   2 -14    0.67    0.41
  -4   2 -14    2.53    0.45
  -4   2 -14    3.47    0.49
  -5   2 -14    8.44    0.93
  -6   2 -14    0.19    0.50
  -6   2 -14    0.40    0.51
   7   1 -14   -0.19    0.39
  -7  -1  14    0.31    0.57
   6   1 -14    0.58    0.40
  -6  -1  14    0.39    0.67
   5   1 -14    0.23    0.34
  -5  -1  14    0.74    0.41
  -5  -1  14   -0.05    0.57
   4   1 -14    1.02    0.36
  -4  -1  14    0.30    0.46
  -4  -1  14    0.53    0.36
  -4  -1  14   -1.15    0.62
   3   1 -14    5.77    0.63
  -3  -1  14    6.11    0.55
  -3  -1  14    5.56    0.92
  -3  -1  14    6.67    0.71
   2   1 -14    7.73    0.69
   2   1 -14    7.88    0.71
  -2  -1  14    7.03    0.57
  -2  -1  14    7.20    0.65
  -2  -1  14    7.23    0.84
   1   1 -14    2.75    0.35
   1   1 -14    1.89    0.26
   1   1 -14    2.35    0.40
  -1  -1  14    1.90    0.30
  -1  -1  14    2.06    0.37
   0   1 -14    0.78    0.32
   0   1 -14    0.52    0.36
   0   1 -14    1.25    0.31
   0  -1  14    0.60    0.29
   0  -1  14    1.51    0.54
   0  -1  14    1.07    0.27
  -1   1 -14   10.54    0.81
  -1   1 -14   10.18    0.75
  -1   1 -14   10.93    0.75
   1  -1  14   10.58    0.69
  -2   1 -14    6.77    0.68
  -2   1 -14    6.46    0.67
  -2   1 -14    6.90    0.73
   2  -1  14    7.67    0.58
  -3   1 -14    0.47    0.31
  -3   1 -14    0.14    0.37
  -3   1 -14   -0.12    0.37
   3  -1  14   -0.01    0.42
   3  -1  14    0.10    0.30
  -4   1 -14    0.26    0.35
  -4   1 -14    1.01    0.41
   4  -1  14    0.57    0.34
  -5   1 -14    1.16    0.43
  -5   1 -14    2.15    0.51
   5  -1  14    2.23    0.41
  -6   1 -14   13.25    1.06
  -6   1 -14   12.97    1.11
   6  -1  14   15.18    1.10
  -7   1 -14    5.02    0.68
  -7   1 -14    3.15    0.58
   7   0 -14   -0.59    0.35
  -7   0  14    0.11    0.56
   6   0 -14    0.61    0.36
  -6   0  14    1.19    0.50
   5   0 -14    0.50    0.32
  -5   0  14    0.37    0.63
   4   0 -14   10.94    0.83
  -4   0  14   11.65    0.93
  -4   0  14   11.79    0.83
   3   0 -14    0.75    0.31
  -3   0  14    1.37    0.39
  -3   0  14    0.56    0.33
  -3   0  14    1.14    0.50
  -2   0  14    5.96    0.46
  -2   0  14    4.01    0.57
  -2   0  14    5.10    0.53
  -2   0  14    5.54    0.75
   1   0 -14    2.74    0.57
   1   0 -14    2.63    0.35
   1   0 -14    2.45    0.30
  -1   0  14    2.72    0.45
  -1   0  14    2.20    0.37
  -1   0  14    2.89    0.34
   0   0 -14   39.43    2.48
   0   0 -14   45.74    2.36
   0   0 -14   45.35    2.34
   0   0  14   50.80    2.35
   0   0  14   43.72    2.32
   0   0  14   45.95    2.32
  -1   0 -14    2.68    0.35
  -1   0 -14    2.93    0.37
   1   0  14    2.76    0.34
   1   0  14    2.64    0.34
  -2   0 -14    2.22    0.38
  -2   0 -14    2.68    0.42
   2   0  14    2.70    0.35
   2   0  14    2.23    0.33
  -3   0 -14    1.33    0.38
  -3   0 -14    1.41    0.40
  -3   0 -14    1.66    0.33
   3   0  14    1.53    0.33
   3   0  14    1.59    0.35
  -4   0 -14   10.73    0.86
  -4   0 -14    9.70    0.79
   4   0  14    9.45    0.79
   4   0  14   11.23    0.77
  -5   0 -14    7.46    0.73
  -5   0 -14    8.25    0.86
   5   0  14    7.46    0.71
   5   0  14    5.24    0.64
  -6   0 -14    3.13    0.51
  -6   0 -14    3.68    0.57
   6   0  14    3.66    0.51
  -7   0 -14   -0.31    0.49
  -7   0 -14   -0.58    0.42
   7   0  14    0.21    0.50
   7  -1 -14    4.00    0.51
  -7   1  14    3.78    0.65
   6  -1 -14    2.29    0.42
  -6   1  14    2.37    0.52
   5  -1 -14    6.47    0.69
  -5   1  14    7.71    0.61
  -5   1  14    8.50    0.79
   4  -1 -14    0.12    0.28
  -4   1  14    0.81    0.58
  -4   1  14    0.41    0.25
   3  -1 -14   18.18    1.08
  -3   1  14   19.95    1.27
  -3   1  14   18.12    1.07
  -3   1  14   15.84    1.08
  -3   1  14   16.98    0.98
   2  -1 -14    6.84    0.62
  -2   1  14    7.14    0.61
  -2   1  14    6.84    0.64
  -2   1  14    6.85    0.52
  -2   1  14    5.95    0.78
   1  -1 -14    8.87    0.68
   1  -1 -14    8.69    0.65
   1  -1 -14    9.83    0.73
  -1   1  14    8.88    0.61
  -1   1  14    8.84    0.79
  -1   1  14    8.99    0.65
  -1   1  14    8.73    0.69
   0  -1 -14    2.52    0.33
   0  -1 -14    2.84    0.41
   0  -1 -14    2.54    0.34
   0   1  14    2.45    0.35
   0   1  14    3.56    0.44
  -1  -1 -14    0.56    0.29
  -1  -1 -14    1.00    0.29
  -1  -1 -14    1.16    0.30
   1   1  14    0.81    0.29
   1   1  14    1.14    0.33
   1   1  14    1.22    0.31
   1   1  14    1.18    0.30
  -2  -1 -14    0.05    0.36
  -2  -1 -14   -0.05    0.29
   2   1  14    1.07    0.33
   2   1  14    0.70    0.30
   2   1  14    0.14    0.30
  -3  -1 -14   17.17    1.06
  -3  -1 -14   15.88    1.01
  -3  -1 -14   15.33    1.06
   3   1  14   17.74    1.01
   3   1  14   15.13    1.00
  -4  -1 -14    4.08    0.56
  -4  -1 -14    5.66    0.68
   4   1  14    4.87    0.57
   4   1  14    3.07    0.47
  -5  -1 -14    1.19    0.34
  -5  -1 -14    1.40    0.50
   5   1  14    0.35    0.44
  -6  -1 -14    0.30    0.37
  -6  -1 -14   -0.16    0.46
   6   1  14    0.01    0.41
  -7  -1 -14    8.48    0.92
  -7  -1 -14    7.44    0.83
   7   1  14    8.72    0.90
   7  -2 -14    0.30    0.40
  -7   2  14   -0.17    0.52
   6  -2 -14   -0.33    0.33
  -6   2  14    0.80    0.40
  -6   2  14    0.34    0.47
   5  -2 -14    2.37    0.40
  -5   2  14    3.53    0.50
  -5   2  14    2.87    0.41
   4  -2 -14    7.94    0.69
  -4   2  14    8.45    0.70
  -4   2  14    9.02    0.76
   3  -2 -14   16.09    1.00
  -3   2  14   16.09    1.25
  -3   2  14   16.18    0.97
   2  -2 -14    0.48    0.27
  -2   2  14    0.37    0.31
  -2   2  14    1.03    0.43
  -2   2  14    0.60    0.27
  -2   2  14    0.16    0.36
   1  -2 -14    0.31    0.26
   1  -2 -14    0.43    0.31
  -1   2  14    0.08    0.29
  -1   2  14    0.07    0.30
  -1   2  14    1.42    0.40
  -1   2  14    0.77    0.27
   0  -2 -14    6.59    0.63
   0  -2 -14    6.15    0.69
   0  -2 -14    7.24    0.60
   0   2  14    7.59    0.59
   0   2  14    6.87    0.61
   0   2  14    7.31    0.60
  -1  -2 -14    2.54    0.37
  -1  -2 -14    2.98    0.41
  -1  -2 -14    2.00    0.51
   1   2  14    2.48    0.34
   1   2  14    3.15    0.56
   1   2  14    2.59    0.35
   1   2  14    2.25    0.37
  -2  -2 -14   14.51    0.96
  -2  -2 -14   14.38    0.93
  -2  -2 -14   14.09    0.97
   2   2  14   13.67    0.92
   2   2  14   15.47    1.04
   2   2  14   13.83    0.90
   2   2  14   15.66    0.93
  -3  -2 -14    4.51    0.66
  -3  -2 -14    5.42    0.55
  -3  -2 -14    6.12    0.71
   3   2  14    3.85    0.48
   3   2  14    6.67    0.58
   3   2  14    6.06    0.58
   3   2  14    5.28    0.55
  -4  -2 -14    3.74    0.46
  -4  -2 -14    5.59    0.69
   4   2  14    5.14    0.75
   4   2  14    6.74    0.77
   4   2  14    4.67    0.53
  -5  -2 -14    0.37    0.46
   5   2  14    0.38    0.37
   5   2  14    1.09    0.34
  -6  -2 -14    5.60    0.65
  -6  -2 -14    4.94    0.66
   6   2  14    6.07    0.72
  -7  -2 -14   -0.59    0.35
  -7  -2 -14   -0.84    0.48
   7   2  14   -0.07    0.46
  -8  -2 -14   -0.43    0.58
   8   2  14    0.41    0.54
   7  -3 -14    1.38    0.45
  -7   3  14    0.89    0.69
  -7   3  14    1.65    0.56
   6  -3 -14   14.92    1.02
  -6   3  14   15.11    1.11
  -6   3  14   14.13    1.11
   5  -3 -14    0.16    0.31
  -5   3  14   -0.18    0.42
  -5   3  14    0.40    0.38
   4  -3 -14    2.56    0.40
  -4   3  14    2.59    0.45
  -4   3  14    2.90    0.42
   3  -3 -14    1.45    0.32
  -3   3  14    0.98    0.37
  -3   3  14    1.42    0.36
   2  -3 -14    5.24    0.56
   2  -3 -14    7.05    0.61
  -2   3  14    6.04    0.82
  -2   3  14    6.94    0.62
   1  -3 -14    7.68    0.65
   1  -3 -14    6.70    0.58
   1  -3 -14    7.59    0.66
  -1   3  14    7.05    0.62
  -1   3  14    6.56    0.61
  -1   3  14    7.18    0.78
   0  -3 -14   17.33    1.03
   0  -3 -14   16.10    1.04
   0  -3 -14   15.55    1.13
   0   3  14   17.37    1.01
   0   3  14   17.94    1.02
   0   3  14   16.42    1.09
  -1  -3 -14    2.84    0.39
  -1  -3 -14    3.57    0.48
  -1  -3 -14    2.89    0.40
   1   3  14    4.34    0.63
   1   3  14    4.01    0.51
   1   3  14    2.87    0.39
  -2  -3 -14    0.28    0.30
  -2  -3 -14    0.62    0.33
  -2  -3 -14   -0.02    0.26
   2   3  14    0.86    0.30
   2   3  14    1.62    0.33
  -3  -3 -14    8.26    0.73
  -3  -3 -14    7.09    0.76
  -3  -3 -14    7.16    0.65
   3   3  14    6.20    0.87
   3   3  14    7.84    0.69
   3   3  14    9.08    0.70
  -4  -3 -14   17.55    1.14
  -4  -3 -14   18.45    1.22
   4   3  14   19.23    1.15
   4   3  14   19.85    1.14
   4   3  14   18.88    1.15
  -5  -3 -14    1.05    0.45
   5   3  14    1.26    0.39
   5   3  14    1.07    0.40
   5   3  14    1.09    0.38
  -6  -3 -14    1.13    0.46
  -6  -3 -14    1.10    0.38
   6   3  14    1.00    0.41
   6   3  14    1.42    0.46
  -7  -3 -14   -0.61    0.50
  -7  -3 -14   -0.26    0.36
   7   3  14   -0.34    0.44
  -8  -3 -14   -0.06    0.39
  -8  -3 -14    1.03    0.59
   8   3  14    0.09    0.53
   7  -4 -14    6.47    0.84
  -7   4  14    3.94    0.73
  -7   4  14    6.88    0.89
   6  -4 -14    3.06    0.48
  -6   4  14    2.30    0.51
  -6   4  14    1.53    0.64
   5  -4 -14    3.72    0.50
  -5   4  14    3.30    0.53
  -5   4  14    4.27    0.54
   4  -4 -14    1.63    0.38
  -4   4  14    1.48    0.42
  -4   4  14    1.35    0.41
  -3   4  14    2.20    0.41
  -3   4  14    2.55    0.43
   2  -4 -14    1.19    0.35
   2  -4 -14    1.17    0.30
  -2   4  14    1.20    0.35
  -2   4  14    0.96    0.36
   1  -4 -14    5.25    0.58
   1  -4 -14    5.04    0.61
   1  -4 -14    4.98    0.54
  -1   4  14    6.64    0.75
  -1   4  14    5.96    0.60
  -1   4  14    5.57    0.63
   0  -4 -14    2.50    0.36
   0  -4 -14    3.83    0.49
   0  -4 -14    2.22    0.38
   0   4  14    1.83    0.49
   0   4  14    2.58    0.38
  -1  -4 -14    0.84    0.33
  -1  -4 -14    0.63    0.29
  -1  -4 -14    0.85    0.31
   1   4  14    0.75    0.32
   1   4  14    1.64    0.39
   1   4  14    0.27    0.50
  -2  -4 -14    0.15    0.31
  -2  -4 -14   -0.06    0.25
  -2  -4 -14    0.53    0.33
   2   4  14   -0.09    0.31
   2   4  14    0.10    0.29
  -3  -4 -14    6.58    0.61
  -3  -4 -14    6.93    0.67
   3   4  14    6.35    0.69
   3   4  14    6.01    0.60
  -4  -4 -14    1.54    0.44
  -4  -4 -14    1.79    0.35
   4   4  14    1.43    0.43
   4   4  14    1.95    0.39
   4   4  14    2.25    0.40
  -5  -4 -14    2.42    0.47
   5   4  14    2.37    0.49
   5   4  14    2.68    0.44
   5   4  14    1.99    0.42
  -6  -4 -14    0.09    0.35
  -6  -4 -14   -0.57    0.45
   6   4  14    0.46    0.40
   6   4  14    0.03    0.39
   6   4  14    0.55    0.48
  -7  -4 -14    0.91    0.38
  -7  -4 -14    2.32    0.58
   7   4  14    1.78    0.46
   7   4  14    2.31    0.62
  -8  -4 -14    0.57    0.62
   8   4  14   -0.04    0.49
   6  -5 -14    0.26    0.46
  -6   5  14   -0.72    0.56
  -6   5  14   -0.17    0.46
   5  -5 -14    1.52    0.43
  -5   5  14    0.73    0.43
  -5   5  14    1.18    0.51
   4  -5 -14    0.42    0.47
   4  -5 -14   -0.07    0.35
  -4   5  14    0.38    0.43
  -4   5  14    0.50    0.40
   3  -5 -14    5.78    0.64
  -3   5  14    6.17    0.75
  -3   5  14    5.36    0.66
   2  -5 -14    0.01    0.32
   2  -5 -14    0.36    0.30
  -2   5  14    0.01    0.34
  -2   5  14    0.22    0.37
   1  -5 -14    0.76    0.32
   1  -5 -14    1.23    0.32
  -1   5  14    1.17    0.34
  -1   5  14    1.38    0.38
   0  -5 -14    9.24    0.85
   0  -5 -14    9.20    0.73
   0  -5 -14    8.37    0.70
   0   5  14    9.55    0.81
   0   5  14   10.64    0.86
   0   5  14    9.99    0.73
  -1  -5 -14   17.17    1.07
  -1  -5 -14   17.98    1.05
  -1  -5 -14   17.10    1.16
   1   5  14   16.63    1.05
   1   5  14   18.36    1.12
  -2  -5 -14    0.75    0.31
  -2  -5 -14    1.01    0.35
   2   5  14    0.74    0.31
   2   5  14    0.98    0.58
  -3  -5 -14    0.69    0.32
  -3  -5 -14    1.02    0.39
   3   5  14    0.69    0.32
   3   5  14    0.43    0.35
  -4  -5 -14    0.53    0.38
  -4  -5 -14    0.29    0.33
   4   5  14    0.72    0.42
   4   5  14    0.01    0.33
   4   5  14    0.16    0.35
  -5  -5 -14    2.71    0.44
  -5  -5 -14    3.41    0.52
   5   5  14    3.21    0.55
   5   5  14    2.49    0.45
   5   5  14    4.35    0.59
  -6  -5 -14   16.85    1.21
  -6  -5 -14   19.46    1.27
   6   5  14   18.93    1.21
   6   5  14   17.64    1.31
   6   5  14   19.68    1.19
  -7  -5 -14    1.11    0.43
  -7  -5 -14    2.32    0.61
   7   5  14    1.37    0.43
   7   5  14    1.94    0.72
   7   5  14    0.53    0.44
  -8  -5 -14    1.73    0.67
   6  -6 -14    0.87    0.57
  -6   6  14    1.74    0.51
  -6   6  14   -0.12    0.64
   5  -6 -14    0.60    0.48
  -5   6  14    0.35    0.42
  -5   6  14    0.76    0.57
   4  -6 -14    3.70    0.53
  -4   6  14    3.37    0.57
  -4   6  14    3.52    0.51
   3  -6 -14    2.07    0.39
   3  -6 -14    1.55    0.46
   3  -6 -14    2.23    0.43
  -3   6  14    2.09    0.42
  -3   6  14    1.88    0.48
   2  -6 -14    1.61    0.38
   2  -6 -14    1.71    0.36
  -2   6  14    1.28    0.39
  -2   6  14    1.48    0.47
   1  -6 -14    0.19    0.34
   1  -6 -14    0.24    0.30
  -1   6  14    0.34    0.33
  -1   6  14    0.38    0.76
   0  -6 -14   23.32    1.32
   0  -6 -14   23.44    1.39
   0   6  14   25.11    1.62
   0   6  14   23.82    1.37
  -1  -6 -14    1.72    0.35
  -1  -6 -14    1.45    0.35
   1   6  14    1.42    0.35
   1   6  14    1.63    0.41
  -2  -6 -14   -0.65    0.30
  -2  -6 -14    0.51    0.34
   2   6  14    0.03    0.30
   2   6  14    0.02    0.37
  -3  -6 -14    0.61    0.36
  -3  -6 -14   -0.22    0.31
   3   6  14    0.02    0.31
   3   6  14    0.10    0.36
  -4  -6 -14   12.50    0.89
   4   6  14   11.55    1.00
   4   6  14   11.10    0.82
   4   6  14   10.83    0.91
  -5  -6 -14    9.59    1.12
  -5  -6 -14    8.06    0.83
   5   6  14   11.40    0.82
   5   6  14    8.60    0.83
   5   6  14    9.13    1.20
  -6  -6 -14   10.58    0.96
  -6  -6 -14   14.01    1.05
   6   6  14   12.64    0.93
   6   6  14   11.56    1.15
   6   6  14   11.17    0.95
  -7  -6 -14    0.18    0.56
  -7  -6 -14   -0.06    0.43
   7   6  14    1.22    0.43
   7   6  14    0.46    0.63
   5  -7 -14    1.56    0.58
  -5   7  14    0.54    0.62
  -5   7  14    0.80    0.48
   4  -7 -14    0.95    0.51
  -4   7  14    0.16    0.53
  -4   7  14   -0.03    0.43
   3  -7 -14    4.65    0.58
   3  -7 -14    4.65    0.62
  -3   7  14    3.88    0.60
  -3   7  14    5.23    0.72
   2  -7 -14    8.66    0.67
   2  -7 -14    7.10    0.81
  -2   7  14    8.73    0.93
  -2   7  14    8.52    0.82
   1  -7 -14    6.16    0.74
   1  -7 -14    6.52    0.61
  -1   7  14    8.59    0.85
  -1   7  14    7.82    0.74
   0  -7 -14   -0.21    0.34
   0  -7 -14    0.05    0.29
   0   7  14   -0.33    0.33
   0   7  14    0.39    0.41
  -1  -7 -14    2.24    0.44
  -1  -7 -14    2.82    0.38
   1   7  14    2.11    0.46
   1   7  14    1.82    0.40
  -2  -7 -14    1.07    0.35
  -2  -7 -14    1.27    0.40
   2   7  14    1.13    0.43
   2   7  14    0.85    0.34
  -3  -7 -14   19.10    1.20
  -3  -7 -14   19.71    1.16
   3   7  14   18.56    1.23
   3   7  14   18.51    1.16
  -4  -7 -14    1.11    0.40
  -4  -7 -14    0.78    0.41
   4   7  14    1.11    0.35
   4   7  14    0.39    0.48
   4   7  14   -0.02    0.40
  -5  -7 -14   -0.13    0.43
  -5  -7 -14    0.78    0.46
   5   7  14    1.04    0.40
   5   7  14   -0.51    0.39
   5   7  14    0.34    0.54
  -6  -7 -14    1.94    0.48
  -6  -7 -14    1.85    0.56
   6   7  14    2.44    0.41
   6   7  14    0.55    0.62
  -7  -7 -14   13.59    1.17
  -7  -7 -14   11.50    1.11
   7   7  14   10.94    1.00
   7   7  14   14.35    0.97
   7   7  14   11.09    1.31
  -4   8  14    3.45    0.69
  -4   8  14    3.18    0.56
   3  -8 -14    9.71    1.03
  -3   8  14    9.99    0.93
  -3   8  14   10.14    1.08
   2  -8 -14    0.28    0.48
  -2   8  14    0.65    0.45
  -2   8  14    0.66    0.50
   1  -8 -14    2.59    0.50
  -1   8  14    3.09    0.49
  -1   8  14    2.91    0.55
   0  -8 -14    2.47    0.49
   0   8  14    2.05    0.53
   0   8  14    3.01    0.46
  -1  -8 -14    1.30    0.30
  -1  -8 -14    2.18    0.47
   1   8  14    2.02    0.44
   1   8  14    1.55    0.48
  -2  -8 -14    7.30    0.63
  -2  -8 -14    7.37    0.77
   2   8  14    7.29    0.71
   2   8  14    5.90    0.83
  -3  -8 -14    2.53    0.42
   3   8  14    2.78    0.43
   3   8  14    2.04    0.49
  -4  -8 -14    9.82    0.81
  -4  -8 -14    7.38    0.86
   4   8  14    7.96    0.75
   4   8  14    7.36    1.03
   4   8  14    7.30    0.85
  -5  -8 -14    1.85    0.51
  -5  -8 -14    1.14    0.47
   5   8  14    1.50    0.61
   5   8  14    0.68    0.43
   5   8  14    1.17    0.40
  -6  -8 -14    8.31    0.98
  -6  -8 -14   10.13    1.00
   6   8  14    7.03    0.88
   6   8  14    8.82    1.18
   3  -9 -14    1.39    0.67
  -3   9  14    2.72    0.56
  -3   9  14    1.45    0.65
   2  -9 -14    7.51    0.99
  -2   9  14    6.46    0.91
  -2   9  14    6.82    1.03
   1  -9 -14    0.28    0.53
  -1   9  14    1.07    0.47
  -1   9  14   -0.11    0.50
   0  -9 -14    0.40    0.50
   0   9  14    0.52    0.51
  -1  -9 -14    0.53    0.48
   1   9  14    0.92    0.44
   1   9  14    0.68    0.50
   2   9  14    0.58    0.38
   2   9  14   -0.41    0.46
  -3  -9 -14    6.41    0.87
   3   9  14    6.32    0.73
   3   9  14    7.05    0.87
  -4  -9 -14    9.99    0.99
   4   9  14    9.35    0.95
   4   9  14   10.88    1.21
   4   9  14   10.93    0.86
  -5  -9 -14   -0.11    0.51
   5   9  14   -1.02    0.39
   5   9  14   -0.81    0.63
   2 -10 -14   -0.36    1.16
  -2  10  14    0.55    0.65
  -2  10  14   -0.49    0.54
   1 -10 -14    1.29    0.63
  -1  10  14    1.67    0.55
  -1  10  14    0.26    0.58
   0  10  14    1.10    0.63
   0  10  14    1.54    0.53
   1  10  14    1.72    0.53
   1  10  14    0.12    0.55
  -2 -10 -14    1.32    0.56
   2  10  14    0.54    0.54
   2  10  14    2.93    0.52
  -3 -10 -14    1.09    0.56
   3  10  14    2.32    0.50
   3  10  14   -0.24    0.51
   3  10  14    1.30    0.68
  -4 -10 -14    3.92    0.65
   4  10  14    5.88    0.79
   4  10  14    3.93    0.63
   4  10  14    3.82    0.80
   3   6 -15    3.95    0.69
   3   6 -15    3.12    0.73
   2   6 -15    1.03    0.58
   2   6 -15    0.19    0.60
   1   6 -15    1.55    0.59
   1   6 -15    0.44    0.55
   0   6 -15   -0.76    0.60
   0   6 -15    0.53    0.57
  -1   6 -15    2.86    0.65
  -1   6 -15    2.58    0.65
   4   5 -15   -0.19    0.54
   4   5 -15   -0.35    0.86
   3   5 -15    0.40    0.53
   3   5 -15    0.72    0.53
   2   5 -15    0.24    0.50
   2   5 -15   -1.26    0.54
   1   5 -15   -0.76    0.48
   1   5 -15   -0.86    0.45
   0   5 -15    2.68    0.61
   0   5 -15    3.49    0.55
  -1   5 -15    0.42    0.48
  -1   5 -15   -0.27    0.50
  -2   5 -15    1.38    0.61
  -2   5 -15   -0.30    0.51
  -3   5 -15   -0.62    0.60
  -3   5 -15    0.46    0.60
   5   4 -15    0.53    0.59
   5   4 -15    0.59    0.50
   4   4 -15    0.19    0.48
   3   4 -15    0.20    0.46
   3   4 -15    0.07    0.48
   2   4 -15    3.74    0.59
   2   4 -15    2.78    0.52
   1   4 -15   -0.01    0.40
   1   4 -15   -0.17    0.47
   0   4 -15    5.80    0.72
   0   4 -15    5.96    0.67
  -1   4 -15   -0.72    0.41
  -1   4 -15   -0.08    0.46
  -2   4 -15   -1.10    0.46
  -2   4 -15   -0.75    0.43
  -3   4 -15    0.63    0.50
  -3   4 -15    0.38    0.51
  -4   4 -15    1.55    0.62
  -4   4 -15    0.04    0.56
   6   3 -15    0.56    0.49
   6   3 -15    0.84    0.60
   5   3 -15    2.57    0.52
   4   3 -15   -0.25    0.43
   3   3 -15    0.16    0.41
   3   3 -15    0.53    0.46
   2   3 -15    5.79    0.78
   2   3 -15    4.70    0.55
   1   3 -15    5.51    0.62
   1   3 -15    3.69    0.49
   0   3 -15    3.81    0.52
   0   3 -15    5.18    0.63
  -1   3 -15    0.07    0.36
  -1   3 -15    0.16    0.40
  -2   3 -15    1.14    0.44
  -2   3 -15    1.13    0.42
  -3   3 -15    2.05    0.49
  -3   3 -15    2.57    0.52
  -4   3 -15    0.67    0.53
  -4   3 -15   -0.26    0.46
  -5   3 -15    0.68    0.57
   6   2 -15    0.02    0.44
   5   2 -15    0.46    0.43
  -5  -2  15   -0.33    0.56
   4   2 -15    0.00    0.39
  -4  -2  15   -0.18    0.32
   3   2 -15    6.43    0.68
  -3  -2  15    4.00    0.46
  -3  -2  15    4.41    0.76
   2   2 -15    0.53    0.44
   2   2 -15    0.62    0.38
  -2  -2  15    0.76    0.54
   1   2 -15    3.61    0.53
   1   2 -15    3.85    0.47
  -1  -2  15    4.68    0.68
   0   2 -15    2.21    0.43
   0   2 -15    3.36    0.50
   0   2 -15    2.71    0.41
  -1   2 -15   21.68    1.23
  -1   2 -15   18.77    1.21
  -1   2 -15   20.96    1.29
  -2   2 -15    2.05    0.45
  -2   2 -15    2.55    0.43
  -2   2 -15    1.89    0.43
  -3   2 -15   -0.53    0.50
  -3   2 -15    0.06    0.38
  -3   2 -15    0.02    0.44
  -4   2 -15    1.68    0.49
  -4   2 -15    0.76    0.44
  -5   2 -15    8.07    1.00
  -6   2 -15    3.68    0.66
   7   1 -15    2.35    0.50
  -7  -1  15    3.74    0.70
   6   1 -15    6.21    0.81
  -6  -1  15    6.24    0.91
   5   1 -15    1.94    0.45
  -5  -1  15    1.73    0.47
   4   1 -15    6.64    0.74
  -4  -1  15    7.20    0.69
   3   1 -15    0.72    0.37
  -3  -1  15    0.65    0.47
  -3  -1  15    0.45    0.34
   2   1 -15   17.50    1.13
   2   1 -15   17.24    1.07
  -2  -1  15   15.55    0.98
  -2  -1  15   17.51    1.07
  -2  -1  15   16.65    1.21
   1   1 -15    6.66    0.71
   1   1 -15    5.41    0.60
  -1  -1  15    5.17    0.75
  -1  -1  15    5.53    0.55
  -1  -1  15    5.73    0.62
   0   1 -15    6.80    0.74
   0   1 -15    5.61    0.67
   0   1 -15    6.89    0.63
   0  -1  15    6.22    0.82
   0  -1  15    7.10    0.58
  -1   1 -15    1.20    0.36
  -1   1 -15    1.60    0.43
  -1   1 -15    1.15    0.35
   1  -1  15    1.38    0.32
  -2   1 -15    0.63    0.34
  -2   1 -15    0.26    0.38
  -2   1 -15    0.96    0.39
   2  -1  15    1.15    0.32
  -3   1 -15    0.16    0.46
  -3   1 -15    0.49    0.35
  -3   1 -15    0.50    0.41
   3  -1  15    0.43    0.34
  -4   1 -15   10.91    0.90
  -4   1 -15    7.22    0.82
   4  -1  15    9.51    0.77
  -5   1 -15    1.14    0.46
  -5   1 -15    1.16    0.52
  -6   1 -15    0.54    0.52
  -6   1 -15    0.16    0.53
   7   0 -15    0.97    0.46
  -7   0  15   -0.27    0.65
   6   0 -15    0.76    0.41
  -6   0  15    1.20    0.55
   5   0 -15   -0.27    0.37
  -5   0  15    0.68    0.47
   4   0 -15    3.06    0.44
  -4   0  15    2.17    0.57
  -4   0  15    2.87    0.46
   3   0 -15    9.96    0.77
  -3   0  15    8.70    1.07
  -3   0  15   10.19    0.77
  -3   0  15    9.07    0.85
   2   0 -15   11.35    0.82
   2   0 -15   12.29    0.90
  -2   0  15   11.21    0.79
  -2   0  15   10.31    0.83
  -2   0  15   11.98    1.01
   1   0 -15    0.09    0.26
   1   0 -15   -0.31    0.37
   1   0 -15   -0.19    0.28
  -1   0  15   -0.13    0.35
  -1   0  15   -0.27    0.43
  -1   0  15   -0.42    0.29
   0   0 -15   -0.28    0.32
   0   0 -15   -0.14    0.27
   0   0 -15    0.13    0.28
   0   0  15   -0.33    0.29
   0   0  15   -0.23    0.38
   0   0  15   -0.41    0.32
  -1   0 -15    5.40    0.59
  -1   0 -15    6.03    0.66
  -1   0 -15    6.75    0.67
   1   0  15    6.10    0.57
   1   0  15    4.36    0.60
  -2   0 -15   -0.20    0.36
  -2   0 -15    0.37    0.36
  -2   0 -15    0.68    0.33
   2   0  15    0.20    0.33
   2   0  15    0.12    0.34
  -3   0 -15    8.31    0.90
  -3   0 -15   10.01    0.83
  -3   0 -15    8.88    0.75
   3   0  15    9.99    0.74
   3   0  15    8.23    0.75
  -4   0 -15    1.86    0.43
  -4   0 -15    3.02    0.50
   4   0  15    2.39    0.42
  -5   0 -15    2.70    0.48
  -5   0 -15    3.85    0.60
   5   0  15    3.53    0.49
  -6   0 -15    0.04    0.45
  -6   0 -15    0.28    0.54
   6   0  15    0.25    0.66
   7  -1 -15    0.38    0.43
  -7   1  15    0.44    0.64
   6  -1 -15   -0.27    0.37
  -6   1  15    0.72    0.56
   5  -1 -15   22.96    1.41
  -5   1  15   24.08    1.47
   4  -1 -15    0.38    0.33
  -4   1  15    0.06    0.26
  -4   1  15    0.59    0.41
   3  -1 -15    4.20    0.58
  -3   1  15    4.25    0.48
  -3   1  15    3.68    0.49
   2  -1 -15    0.82    0.37
   2  -1 -15    0.53    0.30
  -2   1  15    0.23    0.51
  -2   1  15    0.45    0.27
  -2   1  15   -0.22    0.39
  -2   1  15    0.39    0.34
   1  -1 -15    4.44    0.54
   1  -1 -15    3.81    0.53
   1  -1 -15    5.04    0.65
  -1   1  15    4.14    0.73
  -1   1  15    3.84    0.55
  -1   1  15    3.57    0.46
   0  -1 -15    3.15    0.41
   0  -1 -15    3.91    0.53
   0  -1 -15    4.65    0.51
   0   1  15    2.67    0.41
   0   1  15    3.71    0.67
   0   1  15    2.89    0.40
   0   1  15    4.38    0.53
  -1  -1 -15   11.26    0.83
  -1  -1 -15   11.86    0.88
  -1  -1 -15   13.43    0.88
   1   1  15   11.96    0.81
   1   1  15   10.30    0.82
   1   1  15   10.86    0.84
   1   1  15   13.55    0.84
  -2  -1 -15    1.50    0.39
  -2  -1 -15    1.57    0.38
  -2  -1 -15    1.58    0.35
   2   1  15    2.10    0.37
   2   1  15    1.56    0.39
  -3  -1 -15    0.28    0.40
  -3  -1 -15    0.43    0.38
  -3  -1 -15    0.37    0.32
   3   1  15    0.09    0.40
   3   1  15    0.03    0.35
  -4  -1 -15    6.38    0.78
  -4  -1 -15    3.94    0.50
   4   1  15    5.50    0.64
   4   1  15    3.27    0.64
  -5  -1 -15    9.20    0.98
  -5  -1 -15    9.01    0.80
   5   1  15    8.60    0.81
  -6  -1 -15    0.34    0.41
  -6  -1 -15    0.49    0.52
   6   1  15    0.01    0.47
  -7  -1 -15   -0.19    0.44
  -7  -1 -15    0.36    0.52
   7   1  15    0.14    0.53
   7  -2 -15   -0.77    0.42
  -7   2  15    1.19    0.65
   6  -2 -15    7.20    0.76
  -6   2  15    8.62    0.97
   5  -2 -15    5.33    0.64
  -5   2  15    5.85    0.83
  -5   2  15    5.67    0.70
   4  -2 -15    5.42    0.62
  -4   2  15    5.67    0.63
  -4   2  15    6.10    0.76
   3  -2 -15    0.46    0.32
  -3   2  15    0.83    0.39
  -3   2  15    0.65    0.31
   2  -2 -15    2.41    0.37
  -2   2  15    2.51    0.67
  -2   2  15    2.77    0.36
  -2   2  15    1.60    0.53
   1  -2 -15    0.87    0.32
   1  -2 -15    0.84    0.37
   1  -2 -15    0.48    0.28
  -1   2  15    0.29    0.33
  -1   2  15    1.33    0.46
  -1   2  15    1.03    0.31
   0  -2 -15    5.45    0.59
   0  -2 -15    4.03    0.56
   0  -2 -15    3.94    0.52
   0   2  15    2.86    0.48
   0   2  15    5.17    0.55
   0   2  15    4.41    0.55
   0   2  15    5.58    0.73
  -1  -2 -15    3.24    0.43
  -1  -2 -15    3.04    0.50
  -1  -2 -15    3.02    0.39
   1   2  15    3.22    0.39
   1   2  15    1.71    0.44
  -2  -2 -15    1.67    0.34
  -2  -2 -15    2.48    0.44
  -2  -2 -15    1.85    0.42
   2   2  15    2.11    0.38
  -3  -2 -15   -0.25    0.27
  -3  -2 -15    0.74    0.42
   3   2  15    0.64    0.35
   3   2  15    0.23    0.37
   3   2  15    0.21    0.31
  -4  -2 -15    7.39    0.79
  -4  -2 -15    5.24    0.63
   4   2  15    5.93    0.68
  -5  -2 -15   -0.01    0.50
  -5  -2 -15    0.18    0.34
   5   2  15   -0.20    0.40
  -6  -2 -15    1.02    0.43
  -6  -2 -15    1.26    0.56
   6   2  15    1.75    0.48
  -7  -2 -15   -0.22    0.55
  -7  -2 -15   -0.72    0.40
   7   2  15    0.21    0.51
   7  -3 -15    0.63    0.47
   6  -3 -15    1.70    0.42
  -6   3  15    1.63    0.65
  -6   3  15    1.32    0.55
   5  -3 -15   -0.13    0.36
  -5   3  15    0.56    0.47
  -5   3  15    0.12    0.45
   4  -3 -15    1.89    0.39
  -4   3  15    2.18    0.48
  -4   3  15    2.01    0.44
   3  -3 -15    1.02    0.32
  -3   3  15    0.87    0.37
  -3   3  15    1.11    0.41
   2  -3 -15    6.10    0.67
   2  -3 -15    4.87    0.57
  -2   3  15    6.26    0.65
  -2   3  15    6.47    0.67
   1  -3 -15    2.90    0.40
   1  -3 -15    3.07    0.39
   1  -3 -15    3.49    0.45
  -1   3  15    1.92    0.41
  -1   3  15    3.00    0.54
  -1   3  15    2.69    0.38
   0  -3 -15    0.18    0.28
   0  -3 -15    0.62    0.35
   0  -3 -15   -0.07    0.32
   0   3  15    1.15    0.46
   0   3  15    0.17    0.33
   0   3  15    0.74    0.33
  -1  -3 -15    5.76    0.68
  -1  -3 -15    7.68    0.65
  -1  -3 -15    6.67    0.74
   1   3  15    8.93    0.83
   1   3  15    8.48    0.68
   1   3  15    6.99    0.66
  -2  -3 -15   18.34    1.21
  -2  -3 -15   17.19    1.08
  -2  -3 -15   18.35    1.13
   2   3  15   18.40    1.09
   2   3  15   17.47    1.16
   2   3  15   17.41    1.09
  -3  -3 -15    2.03    0.38
  -3  -3 -15    2.08    0.44
   3   3  15    2.18    0.57
   3   3  15    2.32    0.42
   3   3  15    1.84    0.40
  -4  -3 -15    0.84    0.35
  -4  -3 -15    1.18    0.48
   4   3  15    1.21    0.40
   4   3  15    1.33    0.41
   4   3  15    1.03    0.39
  -5  -3 -15    0.38    0.48
   5   3  15    0.54    0.43
   5   3  15    0.23    0.41
   5   3  15    0.67    0.41
  -6  -3 -15    1.38    0.52
  -6  -3 -15    1.04    0.40
   6   3  15    0.97    0.45
  -7  -3 -15    8.10    0.87
  -7  -3 -15    9.50    1.10
   7   3  15   10.08    0.97
   6  -4 -15    1.07    0.45
  -6   4  15    1.08    0.96
  -6   4  15   -0.04    0.51
   5  -4 -15    2.53    0.48
  -5   4  15    3.58    0.56
  -5   4  15    3.52    0.58
   4  -4 -15    1.38    0.37
  -4   4  15    1.65    0.47
  -4   4  15    1.29    0.48
   3  -4 -15    5.39    0.65
  -3   4  15    7.30    0.76
  -3   4  15    7.37    0.80
   2  -4 -15    0.94    0.31
   2  -4 -15    1.21    0.40
  -2   4  15    0.81    0.39
  -2   4  15    0.83    0.38
   1  -4 -15    1.04    0.38
   1  -4 -15    1.25    0.33
  -1   4  15    2.03    0.74
  -1   4  15    1.76    0.39
  -1   4  15    1.60    0.39
   0  -4 -15   -0.03    0.36
   0  -4 -15    0.14    0.29
   0  -4 -15    0.21    0.34
   0   4  15   -0.28    0.32
   0   4  15   -0.12    0.34
   0   4  15    1.42    0.49
  -1  -4 -15   20.31    1.20
  -1  -4 -15   19.92    1.19
  -1  -4 -15   19.15    1.27
   1   4  15   19.73    1.32
   1   4  15   19.05    1.17
   1   4  15   20.98    1.22
  -2  -4 -15    2.58    0.43
  -2  -4 -15    2.20    0.37
   2   4  15    2.18    0.39
   2   4  15    2.54    0.49
  -3  -4 -15   -0.20    0.31
  -3  -4 -15    0.05    0.39
   3   4  15   -0.02    0.37
   3   4  15    0.39    0.38
   3   4  15    0.02    0.33
  -4  -4 -15    0.03    0.45
  -4  -4 -15    0.01    0.34
   4   4  15    0.67    0.40
   4   4  15    0.20    0.41
   4   4  15    0.54    0.37
  -5  -4 -15    7.59    0.90
   5   4  15    6.98    0.82
   5   4  15    8.26    0.79
   5   4  15    7.02    0.86
  -6  -4 -15    6.06    0.76
  -6  -4 -15    7.08    0.94
   6   4  15    7.83    0.81
   6   4  15    8.46    0.94
   6   4  15    6.17    0.85
  -7  -4 -15    4.84    0.73
  -7  -4 -15    2.97    0.50
   6  -5 -15    0.49    0.49
  -6   5  15    0.62    0.54
  -6   5  15    0.18    0.63
   5  -5 -15    1.07    0.47
  -5   5  15    1.74    0.59
  -5   5  15    2.01    0.53
   4  -5 -15    0.62    0.40
  -4   5  15    1.01    0.44
  -4   5  15    1.31    0.62
   3  -5 -15    1.21    0.41
   3  -5 -15    0.87    0.37
  -3   5  15    1.13    0.42
  -3   5  15    0.74    0.46
   2  -5 -15   11.94    0.87
   2  -5 -15   11.06    0.88
  -2   5  15   11.55    0.97
  -2   5  15   12.32    0.89
   1  -5 -15    8.99    0.75
   1  -5 -15    9.14    0.75
  -1   5  15    9.92    0.77
  -1   5  15    9.36    0.86
   0  -5 -15    8.21    0.73
   0  -5 -15    8.03    0.71
   0   5  15    9.38    0.81
   0   5  15    8.18    0.73
  -1  -5 -15    0.59    0.35
  -1  -5 -15   -0.08    0.31
   1   5  15    1.22    0.48
   1   5  15   -0.10    0.32
  -2  -5 -15    5.57    0.63
  -2  -5 -15    6.87    0.71
   2   5  15    5.86    0.61
   2   5  15    5.54    0.69
  -3  -5 -15    2.04    0.44
  -3  -5 -15    1.29    0.38
   3   5  15    1.02    0.41
   3   5  15    1.45    0.37
  -4  -5 -15   27.44    1.59
  -4  -5 -15   28.27    1.81
   4   5  15   26.44    1.65
   4   5  15   27.70    1.60
   4   5  15   28.24    1.59
  -5  -5 -15    0.64    0.48
   5   5  15    0.24    0.42
   5   5  15    0.62    0.39
   5   5  15    0.53    0.52
  -6  -5 -15   -0.26    0.54
  -6  -5 -15   -0.37    0.42
   6   5  15    0.09    0.43
   6   5  15    0.04    0.55
   6   5  15    1.11    0.45
  -7  -5 -15    1.54    0.44
  -7  -5 -15    0.79    0.61
   7   5  15    0.13    0.48
   7   5  15    0.70    0.48
   5  -6 -15   -0.70    0.50
  -5   6  15    0.89    0.49
  -5   6  15   -0.04    0.60
   4  -6 -15    2.51    0.51
  -4   6  15    3.22    0.52
  -4   6  15    3.12    0.60
   3  -6 -15    7.72    0.79
   3  -6 -15    7.55    0.80
  -3   6  15    8.64    0.82
  -3   6  15    8.53    0.97
   2  -6 -15   12.92    0.97
   2  -6 -15   14.36    1.02
  -2   6  15   15.85    1.16
  -2   6  15   15.53    1.04
   1  -6 -15    0.01    0.35
   1  -6 -15   -0.02    0.35
  -1   6  15    0.32    0.44
  -1   6  15    1.21    0.39
   0  -6 -15    3.87    0.51
   0  -6 -15    5.12    0.64
   0   6  15    5.48    0.76
   0   6  15    6.09    0.63
  -1  -6 -15    4.79    0.64
  -1  -6 -15    4.12    0.50
   1   6  15    4.11    0.58
   1   6  15    4.73    0.74
  -2  -6 -15    3.51    0.50
  -2  -6 -15    4.33    0.50
   2   6  15    3.38    0.45
   2   6  15    3.95    0.52
  -3  -6 -15   10.20    0.85
  -3  -6 -15   11.88    0.91
   3   6  15   10.61    0.81
   3   6  15   10.28    0.92
  -4  -6 -15    3.16    0.52
   4   6  15    2.82    0.44
   4   6  15    2.69    0.50
   4   6  15    3.87    1.02
  -5  -6 -15    6.77    0.78
  -5  -6 -15    6.32    0.70
   5   6  15    9.12    0.76
   5   6  15    6.94    1.01
   5   6  15    5.26    0.77
  -6  -6 -15   -0.58    0.43
  -6  -6 -15    1.04    0.57
   6   6  15    1.04    0.42
   6   6  15   -0.16    0.61
   6   6  15    0.45    0.45
  -7  -6 -15    9.12    1.17
   7   6  15   10.02    1.26
   7   6  15    6.76    0.89
   7   6  15   10.41    0.94
  -5   7  15    6.47    0.86
   4  -7 -15    0.81    0.56
  -4   7  15    0.80    0.61
  -4   7  15    1.12    0.49
   3  -7 -15    0.08    0.44
   3  -7 -15    0.48    0.48
  -3   7  15    1.06    0.57
  -3   7  15    1.75    0.48
   2  -7 -15    1.57    0.50
   2  -7 -15    1.30    0.41
  -2   7  15    1.43    0.54
  -2   7  15    2.41    0.47
   1  -7 -15   12.68    1.02
   1  -7 -15   12.95    0.91
  -1   7  15   13.65    1.15
  -1   7  15   14.51    0.98
   0  -7 -15    0.70    0.35
   0  -7 -15   -0.04    0.37
   0   7  15    0.17    0.46
   0   7  15    0.05    0.36
  -1  -7 -15    1.04    0.44
  -1  -7 -15    2.22    0.42
   1   7  15    2.23    0.40
   1   7  15    1.80    0.49
  -2  -7 -15    0.11    0.39
  -2  -7 -15   -0.05    0.39
   2   7  15   -0.51    0.42
   2   7  15    0.45    0.34
  -3  -7 -15    0.82    0.42
  -3  -7 -15    0.68    0.43
   3   7  15    0.15    0.43
   3   7  15    0.77    0.36
  -4  -7 -15    7.41    0.84
   4   7  15    7.24    0.97
   4   7  15    5.89    0.78
   4   7  15    6.00    0.68
  -5  -7 -15   10.58    1.05
  -5  -7 -15   13.62    1.26
   5   7  15   10.98    1.01
   5   7  15   12.24    1.21
   5   7  15   15.15    0.98
  -6  -7 -15    0.21    0.60
  -6  -7 -15    0.28    0.48
   6   7  15   -0.89    0.66
   6   7  15    0.60    0.41
   4  -8 -15    0.97    0.70
  -4   8  15    2.65    0.74
  -4   8  15    4.42    0.61
   3  -8 -15    0.48    0.61
  -3   8  15    2.42    0.54
  -3   8  15    2.31    0.65
   2  -8 -15    0.86    0.55
  -2   8  15    2.43    0.50
  -2   8  15    1.33    0.60
   1  -8 -15    0.00    0.46
  -1   8  15    0.52    0.55
  -1   8  15    0.17    0.42
   0  -8 -15    1.25    0.50
   0   8  15    1.28    0.55
   0   8  15    1.56    0.44
  -1  -8 -15    1.74    0.51
   1   8  15    2.87    0.46
   1   8  15    1.92    0.53
  -2  -8 -15    0.82    0.44
  -2  -8 -15    1.94    0.49
   2   8  15    2.08    0.54
   2   8  15    1.98    0.42
  -3  -8 -15    2.48    0.49
   3   8  15    2.24    0.41
   3   8  15    1.35    0.50
  -4  -8 -15    1.90    0.55
  -4  -8 -15    3.25    0.58
   4   8  15    1.03    0.48
   4   8  15    2.57    0.66
   4   8  15    2.42    0.42
  -5  -8 -15    3.60    0.63
  -5  -8 -15    4.93    0.75
   5   8  15    3.31    0.77
   5   8  15    4.25    0.53
   6   8  15   -0.80    0.46
   6   8  15    0.91    0.74
   2  -9 -15    1.35    0.64
  -2   9  15   -0.24    0.63
  -2   9  15    0.85    0.53
   1  -9 -15    0.26    0.61
  -1   9  15    0.31    0.61
  -1   9  15    1.19    0.51
   0  -9 -15   -0.64    0.55
   0   9  15    0.24    0.56
  -1  -9 -15    1.59    0.54
   1   9  15    1.91    0.47
   1   9  15    0.91    0.56
   2   9  15    5.93    0.92
   2   9  15    8.04    0.78
  -3  -9 -15   -0.08    0.53
   3   9  15   -0.04    0.41
   3   9  15   -0.89    0.48
  -4  -9 -15   -0.65    0.54
   4   9  15    0.28    0.68
   4   9  15    0.98    0.43
   5   9  15    0.03    0.72
   0 -10 -15    0.01    0.64
   0  10  15    1.89    0.56
   0  10  15   -0.18    0.64
   1  10  15    9.66    1.20
   1  10  15   13.28    1.05
  -2 -10 -15   -0.81    0.61
   2  10  15   -0.60    0.54
   2  10  15    0.76    0.47
   3  10  15   -0.59    0.54
   3  10  15   -0.47    0.68
   3   5 -16    1.12    0.69
   2   5 -16    1.06    0.57
   2   5 -16   -0.03    0.60
   1   5 -16    1.22    0.58
   1   5 -16    1.35    0.58
   0   5 -16    2.60    0.61
   0   5 -16    2.52    0.62
  -1   5 -16    1.00    0.60
  -1   5 -16    0.10    0.58
   4   4 -16    1.19    0.60
   4   4 -16    1.22    0.59
   3   4 -16   -0.01    0.51
   3   4 -16    0.81    0.56
   2   4 -16    4.36    0.61
   2   4 -16    5.47    0.74
   1   4 -16   -1.04    0.45
   1   4 -16   -1.16    0.46
   0   4 -16    2.25    0.54
   0   4 -16    1.90    0.54
  -1   4 -16    0.24    0.54
  -1   4 -16    1.27    0.51
  -2   4 -16   11.86    1.10
  -2   4 -16   10.13    1.05
  -3   4 -16    1.63    0.64
  -3   4 -16    1.79    0.65
   5   3 -16    2.23    0.60
   4   3 -16    1.05    0.54
   3   3 -16    6.23    0.84
   3   3 -16    4.47    0.60
   2   3 -16    0.00    0.45
   2   3 -16   -0.09    0.49
   1   3 -16    7.52    0.82
   1   3 -16    8.67    0.91
   0   3 -16    1.86    0.46
   0   3 -16    0.56    0.47
  -1   3 -16    0.23    0.43
  -1   3 -16    0.82    0.47
  -2   3 -16    2.05    0.52
  -2   3 -16    1.64    0.51
  -3   3 -16    1.92    0.57
  -3   3 -16    0.89    0.53
  -4   3 -16    0.50    0.56
  -4   3 -16    0.78    0.54
   5   2 -16   -1.08    0.47
   4   2 -16    0.29    0.46
   3   2 -16    2.74    0.50
   3   2 -16    2.67    0.53
   2   2 -16   11.38    0.98
   2   2 -16    9.86    0.87
   1   2 -16    5.21    0.65
   1   2 -16    4.58    0.54
   0   2 -16    0.46    0.40
   0   2 -16    0.16    0.42
  -1   2 -16    1.81    0.48
  -1   2 -16    0.33    0.40
  -2   2 -16    4.55    0.56
  -2   2 -16    4.51    0.59
  -3   2 -16    0.29    0.43
  -3   2 -16    0.59    0.46
  -4   2 -16    7.77    0.89
  -4   2 -16    5.11    0.65
  -5   2 -16    1.49    0.59
   6   1 -16    0.36    0.50
   5   1 -16   -0.12    0.45
  -5  -1  16    1.04    0.50
   4   1 -16   20.73    1.29
  -4  -1  16   19.05    1.21
   3   1 -16    0.51    0.41
   3   1 -16    0.54    0.47
  -3  -1  16   -0.33    0.37
   2   1 -16    2.72    0.44
   2   1 -16    3.18    0.57
  -2  -1  16    2.00    0.38
   1   1 -16    0.20    0.36
   1   1 -16    0.02    0.48
  -1  -1  16    0.83    0.33
   0   1 -16    3.04    0.43
   0   1 -16    2.46    0.48
   0  -1  16    2.62    0.37
  -1   1 -16    3.94    0.53
  -1   1 -16    3.09    0.47
   1  -1  16    4.26    0.55
  -2   1 -16    5.77    0.70
  -2   1 -16    4.02    0.56
   2  -1  16    6.23    0.60
  -3   1 -16    0.84    0.41
  -3   1 -16    0.80    0.45
   3  -1  16    0.79    0.49
  -4   1 -16    0.33    0.51
  -4   1 -16   -0.10    0.42
  -5   1 -16    4.05    0.61
  -5   1 -16    5.81    0.73
  -6   0  16    0.67    0.64
   5   0 -16    7.18    0.81
  -5   0  16    8.65    0.93
   4   0 -16    3.26    0.49
   3   0 -16    4.71    0.53
  -3   0  16    4.06    0.50
  -3   0  16    3.45    0.78
   2   0 -16    1.28    0.46
   2   0 -16    0.99    0.36
  -2   0  16    0.02    0.36
  -2   0  16    0.52    0.46
  -2   0  16   -0.03    0.61
   1   0 -16    1.75    0.48
   1   0 -16    1.72    0.38
  -1   0  16    1.75    0.38
  -1   0  16    1.68    0.56
  -1   0  16    1.05    0.42
   0   0 -16    0.42    0.34
   0   0 -16    0.46    0.38
   0   0 -16    0.44    0.35
   0   0  16    0.19    0.34
   0   0  16   -0.31    0.40
   0   0  16    0.22    0.60
  -1   0 -16    2.29    0.46
  -1   0 -16    2.79    0.44
  -1   0 -16    1.92    0.40
   1   0  16    2.15    0.40
   1   0  16    2.35    0.45
  -2   0 -16    0.72    0.41
  -2   0 -16    0.79    0.44
  -2   0 -16    1.21    0.38
   2   0  16    1.35    0.40
  -3   0 -16    1.75    0.42
  -3   0 -16    2.21    0.51
   3   0  16    2.36    0.43
  -4   0 -16   -0.07    0.39
  -4   0 -16    0.91    0.50
   4   0  16   -0.17    0.42
  -5   0 -16    3.10    0.63
  -5   0 -16    2.37    0.52
   5   0  16    3.15    0.53
  -6   0 -16    0.65    0.60
   6  -1 -16    1.06    0.46
  -6   1  16    1.95    0.65
   5  -1 -16    2.07    0.45
  -5   1  16    2.73    0.59
   4  -1 -16   -0.08    0.36
  -4   1  16    0.29    0.48
   3  -1 -16    1.51    0.40
  -3   1  16    1.39    0.45
  -3   1  16    0.55    0.28
   2  -1 -16    0.37    0.44
   2  -1 -16   -0.17    0.32
  -2   1  16    0.01    0.60
  -2   1  16   -0.31    0.42
  -2   1  16    1.21    0.31
   1  -1 -16    2.93    0.43
   1  -1 -16    3.97    0.60
   1  -1 -16    4.75    0.55
  -1   1  16    3.85    0.45
  -1   1  16    3.27    0.60
  -1   1  16    2.58    0.50
   0  -1 -16    1.22    0.42
   0  -1 -16    0.48    0.34
   0  -1 -16    0.47    0.35
   0   1  16    0.65    0.35
   0   1  16    0.20    0.40
   0   1  16    0.55    0.48
   0   1  16    0.67    0.35
  -1  -1 -16    0.65    0.40
  -1  -1 -16    0.10    0.39
  -1  -1 -16    0.42    0.35
   1   1  16    0.81    0.42
   1   1  16    0.54    0.47
   1   1  16    0.42    0.39
   1   1  16   -0.19    0.37
  -2  -1 -16    8.02    0.81
  -2  -1 -16    8.24    0.74
  -2  -1 -16    6.86    0.89
   2   1  16    8.26    0.79
   2   1  16    8.86    0.73
  -3  -1 -16    9.18    0.89
  -3  -1 -16    8.24    0.76
   3   1  16    9.22    0.80
  -4  -1 -16    1.63    0.49
  -4  -1 -16    0.57    0.38
   4   1  16    0.81    0.54
  -5  -1 -16   -0.48    0.39
  -5  -1 -16    0.14    0.55
   5   1  16   -0.13    0.46
  -6  -1 -16    0.33    0.46
  -6  -1 -16   -0.34    0.59
   6   1  16    0.76    0.54
   6  -2 -16    1.35    0.44
  -6   2  16    0.18    0.63
   5  -2 -16   -0.26    0.36
  -5   2  16   -0.31    0.53
   4  -2 -16    2.50    0.45
  -4   2  16    4.05    0.56
  -4   2  16    2.64    0.43
   3  -2 -16    0.31    0.32
  -3   2  16   -0.25    0.43
  -3   2  16   -0.21    0.33
   2  -2 -16    4.18    0.59
   2  -2 -16    5.71    0.76
  -2   2  16    5.22    0.58
  -2   2  16    5.07    0.66
   1  -2 -16    1.34    0.34
   1  -2 -16    1.09    0.43
   1  -2 -16    0.88    0.37
  -1   2  16    1.26    0.35
  -1   2  16    1.00    0.39
  -1   2  16    1.13    0.53
   0  -2 -16    1.39    0.39
   0  -2 -16    1.86    0.37
   0  -2 -16    3.06    0.48
   0   2  16    1.78    0.49
   0   2  16    2.90    0.52
   0   2  16    2.76    0.40
  -1  -2 -16    0.33    0.32
  -1  -2 -16    0.28    0.36
  -1  -2 -16    0.22    0.40
   1   2  16    0.56    0.44
   1   2  16    1.57    0.40
  -2  -2 -16   14.99    1.05
  -2  -2 -16   17.03    1.12
  -2  -2 -16   16.70    1.20
   2   2  16   17.40    1.44
   2   2  16   15.80    1.06
   2   2  16   17.45    1.11
  -3  -2 -16    0.76    0.36
  -3  -2 -16    0.71    0.45
   3   2  16    1.01    0.42
   3   2  16    1.13    0.43
  -4  -2 -16   -0.21    0.33
  -4  -2 -16    0.84    0.46
   4   2  16   -0.05    0.43
  -5  -2 -16   -0.21    0.56
  -5  -2 -16    0.18    0.37
   5   2  16    0.55    0.45
  -6  -2 -16    3.35    0.66
  -6  -2 -16    4.05    0.55
   6   2  16    3.81    0.59
   6  -3 -16    7.96    0.86
  -6   3  16    9.51    1.11
   5  -3 -16    1.09    0.40
  -5   3  16    1.41    0.66
  -5   3  16    1.26    0.58
   4  -3 -16    1.20    0.38
  -4   3  16    1.26    0.47
  -4   3  16    1.78    0.52
   3  -3 -16    3.53    0.53
   3  -3 -16    2.95    0.44
  -3   3  16    3.67    0.49
  -3   3  16    6.05    0.74
   2  -3 -16    2.01    0.38
   2  -3 -16    2.23    0.50
  -2   3  16    1.84    0.41
  -2   3  16    1.91    0.44
   1  -3 -16    6.17    0.88
   1  -3 -16    7.97    0.69
  -1   3  16    7.63    0.73
  -1   3  16    7.07    1.00
  -1   3  16    8.08    0.73
   0  -3 -16    7.55    0.86
   0  -3 -16    9.32    0.74
   0  -3 -16    9.49    1.14
   0   3  16    9.72    0.78
   0   3  16   10.14    0.80
   0   3  16   10.29    1.04
  -1  -3 -16    6.56    0.72
  -1  -3 -16    7.05    0.82
  -1  -3 -16    6.91    0.67
   1   3  16    7.42    0.91
   1   3  16    6.62    0.69
   1   3  16    7.35    0.66
  -2  -3 -16    0.51    0.31
  -2  -3 -16    0.21    0.40
   2   3  16   -0.38    0.36
   2   3  16    1.81    0.49
  -3  -3 -16    2.73    0.42
  -3  -3 -16    2.70    0.52
   3   3  16    3.88    0.49
   3   3  16    2.76    0.47
   3   3  16    3.19    0.50
  -4  -3 -16   -0.09    0.34
  -4  -3 -16    0.89    0.51
   4   3  16    0.22    0.42
   4   3  16    1.77    0.46
   4   3  16    0.46    0.42
  -5  -3 -16   12.92    1.15
   5   3  16   13.57    1.03
  -6  -3 -16    1.34    0.47
  -6  -3 -16    0.60    0.61
   6   3  16    0.74    0.50
   6  -4 -16   -0.44    0.47
   5  -4 -16    0.67    0.41
  -5   4  16    0.69    0.59
  -5   4  16    0.34    0.56
   4  -4 -16   -0.73    0.36
  -4   4  16    0.05    0.48
  -4   4  16   -0.39    0.51
   3  -4 -16    4.28    0.55
   3  -4 -16    3.61    0.48
  -3   4  16    4.68    0.58
  -3   4  16    5.05    0.79
   2  -4 -16    5.84    0.69
   2  -4 -16    5.38    0.63
  -2   4  16    6.96    0.71
  -2   4  16    5.98    0.79
   1  -4 -16   12.47    0.90
   1  -4 -16   12.31    0.94
  -1   4  16   13.89    0.99
  -1   4  16   13.22    0.96
   0  -4 -16    1.69    0.38
   0  -4 -16    1.56    0.43
   0  -4 -16    1.29    0.47
   0   4  16    1.73    0.43
   0   4  16    1.69    0.40
   0   4  16    2.02    0.58
  -1  -4 -16    6.03    0.65
  -1  -4 -16    5.25    0.73
   1   4  16    5.66    0.85
   1   4  16    6.17    0.68
   1   4  16    8.17    1.02
  -2  -4 -16    7.15    1.00
  -2  -4 -16    7.75    0.71
   2   4  16    8.36    0.79
   2   4  16    9.22    1.02
   2   4  16    6.95    0.69
  -3  -4 -16    2.13    0.41
  -3  -4 -16    3.03    0.53
   3   4  16    1.82    0.45
   3   4  16    2.16    0.50
   3   4  16    1.43    0.42
  -4  -4 -16    9.01    1.00
  -4  -4 -16    9.07    0.82
   4   4  16   10.57    0.86
   4   4  16    9.56    0.91
   4   4  16    9.56    0.94
  -5  -4 -16    0.88    0.57
   5   4  16    2.19    0.49
   5   4  16    1.40    0.56
   5   4  16    1.97    0.50
  -6  -4 -16    8.71    0.87
  -6  -4 -16    8.36    1.08
   6   4  16   10.04    0.96
   5  -5 -16   -0.02    0.47
  -5   5  16    0.82    0.64
  -5   5  16    0.68    0.53
   4  -5 -16   13.80    1.10
  -4   5  16   17.45    1.31
  -4   5  16   17.28    1.22
   3  -5 -16    0.30    0.37
   3  -5 -16    0.99    0.56
  -3   5  16    0.80    0.45
  -3   5  16    0.03    0.57
   2  -5 -16    1.44    0.41
   2  -5 -16    1.07    0.47
  -2   5  16    1.37    0.45
  -2   5  16    1.63    0.86
   1  -5 -16    1.53    0.43
   1  -5 -16    0.92    0.38
  -1   5  16    1.67    0.42
  -1   5  16    1.42    0.64
   0  -5 -16   17.31    1.13
   0  -5 -16   17.83    1.15
   0   5  16   18.21    1.13
   0   5  16   17.85    1.20
  -1  -5 -16    0.15    0.34
  -1  -5 -16    0.51    0.41
   1   5  16    0.33    0.36
   1   5  16   -0.15    0.41
  -2  -5 -16    4.38    0.60
  -2  -5 -16    4.72    0.56
   2   5  16    4.40    0.61
   2   5  16    4.64    0.69
  -3  -5 -16    0.68    0.56
  -3  -5 -16   -0.27    0.37
   3   5  16   -0.30    0.38
   3   5  16   -0.40    0.43
   3   5  16    0.20    0.48
  -4  -5 -16   -0.06    0.36
  -4  -5 -16    0.27    0.51
   4   5  16   -0.23    0.43
   4   5  16    0.36    0.42
   4   5  16    0.24    0.50
  -5  -5 -16    7.12    0.77
   5   5  16    5.73    0.87
   5   5  16    7.95    0.82
   5   5  16    6.98    1.01
  -6  -5 -16    7.30    0.86
  -6  -5 -16    6.35    0.87
   6   5  16    8.42    0.93
   5  -6 -16    1.87    0.60
  -5   6  16    2.27    0.76
   4  -6 -16    4.09    0.96
   4  -6 -16    3.04    0.56
  -4   6  16    3.18    0.59
  -4   6  16    2.06    0.68
   3  -6 -16    3.06    0.55
   3  -6 -16    3.57    0.56
  -3   6  16    3.93    0.67
  -3   6  16    4.27    0.57
   2  -6 -16    2.62    0.49
   2  -6 -16    1.94    0.46
  -2   6  16    2.26    0.58
   1  -6 -16    1.74    0.44
   1  -6 -16    1.93    0.45
  -1   6  16    1.77    0.44
  -1   6  16    2.07    0.54
   0  -6 -16   -0.14    0.38
   0  -6 -16    0.16    0.41
   0   6  16    0.41    0.47
   0   6  16    0.38    0.39
  -1  -6 -16    1.55    0.45
  -1  -6 -16    1.74    0.42
   1   6  16    1.43    0.50
   1   6  16    2.01    0.42
  -2  -6 -16    3.57    0.53
  -2  -6 -16    2.54    0.48
   2   6  16    2.65    0.45
   2   6  16    2.76    0.53
  -3  -6 -16    1.40    0.51
  -3  -6 -16    1.08    0.42
   3   6  16    1.58    0.41
   3   6  16    1.19    0.47
  -4  -6 -16    0.51    0.53
   4   6  16    0.64    0.41
   4   6  16    0.83    0.57
   4   6  16   -0.09    0.45
  -5  -6 -16    0.15    0.59
  -5  -6 -16    0.74    0.48
   5   6  16    2.24    0.46
   5   6  16    1.21    0.64
  -6  -6 -16    1.77    0.57
  -6  -6 -16    3.32    0.67
   6   6  16    1.30    0.76
   6   6  16    1.36    0.53
   6   6  16    3.38    0.54
   4  -7 -16    0.62    0.57
  -4   7  16    1.22    0.71
  -4   7  16    1.62    0.55
   3  -7 -16    3.51    0.62
  -3   7  16    3.46    0.70
  -3   7  16    3.89    0.60
   2  -7 -16    0.80    0.49
   2  -7 -16    1.05    0.55
  -2   7  16    0.73    0.61
  -2   7  16    1.86    0.47
   1  -7 -16    1.26    0.44
   1  -7 -16    1.02    0.47
  -1   7  16    1.67    0.60
  -1   7  16    2.31    0.46
   0  -7 -16    0.56    0.43
   0  -7 -16   -0.13    0.40
   0   7  16    0.55    0.42
   0   7  16    0.05    0.51
  -1  -7 -16    0.77    0.45
  -1  -7 -16   -0.29    0.42
   1   7  16    0.11    0.36
   1   7  16   -0.20    0.50
  -2  -7 -16    1.74    0.50
  -2  -7 -16    1.05    0.47
   2   7  16    1.00    0.50
   2   7  16    1.00    0.40
  -3  -7 -16    9.54    0.90
  -3  -7 -16    9.43    0.94
   3   7  16    7.31    0.94
   3   7  16    7.76    0.77
  -4  -7 -16   -0.77    0.65
   4   7  16    0.43    0.38
   4   7  16   -0.65    0.48
   4   7  16    0.41    0.60
  -5  -7 -16   -0.23    0.58
  -5  -7 -16   -0.79    0.51
   5   7  16    1.03    0.44
   5   7  16   -0.06    0.67
   3  -8 -16    0.56    0.66
  -3   8  16    1.52    0.56
  -3   8  16    1.29    0.74
   2  -8 -16    0.84    0.61
  -2   8  16    1.16    0.69
  -2   8  16    2.60    0.52
   1  -8 -16   -0.04    0.51
  -1   8  16    1.39    0.47
  -1   8  16    0.43    0.61
   0  -8 -16    4.28    0.63
   0   8  16    3.40    0.66
   0   8  16    3.88    0.54
  -1  -8 -16    0.25    0.52
   1   8  16    0.34    0.54
   1   8  16    1.36    0.41
  -2  -8 -16   15.07    1.18
   2   8  16   17.08    1.08
   2   8  16   13.80    1.21
   3   8  16    0.51    0.41
   3   8  16   -1.00    0.49
  -4  -8 -16   -0.43    0.54
   4   8  16    0.80    0.41
   4   8  16    0.53    0.66
   5   8  16   -1.16    0.49
   5   8  16    0.37    0.72
   1  -9 -16    1.28    0.69
  -1   9  16    0.50    0.72
   0  -9 -16    0.85    0.64
   0   9  16    1.36    0.65
  -1  -9 -16    1.51    0.61
   1   9  16    1.59    0.48
   1   9  16    0.43    0.61
   2   9  16    1.52    0.46
   2   9  16   -0.45    0.57
  -3  -9 -16    7.25    1.01
   3   9  16    5.48    0.73
   3   9  16    6.04    0.92
   2   4 -17    0.76    0.56
   2   4 -17   -0.10    0.57
   1   4 -17    4.74    0.66
   1   4 -17    3.70    0.64
   0   4 -17    1.21    0.60
   0   4 -17    1.82    0.55
  -1   4 -17   -1.27    0.53
   4   3 -17    0.96    0.62
   3   3 -17   13.41    1.22
   3   3 -17   16.47    1.27
   2   3 -17   -0.30    0.55
   2   3 -17   -0.23    0.48
   1   3 -17   -0.33    0.46
   1   3 -17    0.01    0.49
   0   3 -17   -0.51    0.51
   0   3 -17    0.41    0.53
  -1   3 -17    2.63    0.57
  -1   3 -17    2.24    0.59
  -2   3 -17    2.60    0.56
  -2   3 -17    2.26    0.58
   4   2 -17    8.64    0.96
   3   2 -17    2.14    0.61
   3   2 -17    1.51    0.52
   2   2 -17    2.62    0.52
   2   2 -17    2.64    0.58
   1   2 -17    1.20    0.47
   1   2 -17    0.90    0.55
   0   2 -17    1.67    0.49
   0   2 -17    2.07    0.57
  -1   2 -17   -0.38    0.45
  -1   2 -17   -0.87    0.46
  -2   2 -17    1.83    0.53
  -2   2 -17    2.92    0.59
  -3   2 -17    1.34    0.55
  -3   2 -17    1.45    0.56
   5   1 -17    0.71    0.52
   4   1 -17    0.25    0.48
   3   1 -17    0.24    0.45
   3   1 -17    1.13    0.57
  -3  -1  17   -0.69    0.64
   2   1 -17    0.02    0.41
   2   1 -17   -0.08    0.50
  -2  -1  17    0.47    0.47
   1   1 -17    1.16    0.43
   1   1 -17   -0.01    0.47
  -1  -1  17    0.66    0.48
   0   1 -17    1.42    0.47
   0   1 -17    1.43    0.44
  -1   1 -17   -0.12    0.50
  -1   1 -17    0.48    0.41
  -2   1 -17   -0.13    0.45
  -2   1 -17    0.16    0.43
  -3   1 -17    6.09    0.82
  -3   1 -17    6.35    0.87
  -4   1 -17    1.84    0.56
  -4   1 -17    3.01    0.60
   5   0 -17    1.04    0.47
  -5   0  17    0.36    0.62
   4   0 -17   -0.30    0.44
  -4   0  17   -0.14    0.54
   3   0 -17    2.91    0.50
   3   0 -17    3.62    0.58
  -3   0  17    3.05    0.54
   2   0 -17    0.52    0.53
   2   0 -17   -0.89    0.36
  -2   0  17   -0.40    0.41
   1   0 -17    3.34    0.46
   1   0 -17    3.43    0.59
  -1   0  17    1.99    0.44
   0   0 -17    1.19    0.47
   0   0 -17    0.56    0.40
   0   0  17    1.45    0.40
  -1   0 -17    2.63    0.55
  -1   0 -17    2.38    0.45
   1   0  17    2.86    0.46
  -2   0 -17    0.02    0.49
  -2   0 -17   -0.04    0.39
   2   0  17    0.32    0.41
  -3   0 -17    9.18    0.97
  -3   0 -17    8.97    0.87
   3   0  17    9.92    0.85
  -4   0 -17   -0.69    0.44
  -4   0 -17    1.11    0.60
  -5   0 -17   -0.33    0.61
  -5   0 -17    0.38    0.51
   5  -1 -17    4.63    0.60
  -5   1  17    7.25    0.99
   4  -1 -17    0.83    0.44
  -4   1  17    0.84    0.56
   3  -1 -17    1.69    0.40
   3  -1 -17    1.07    0.52
  -3   1  17    1.17    0.49
   2  -1 -17    0.89    0.40
   2  -1 -17    1.90    0.55
  -2   1  17    1.41    0.46
  -2   1  17    1.14    0.37
   1  -1 -17    0.51    0.47
   1  -1 -17    0.71    0.35
  -1   1  17   -0.43    0.71
   0  -1 -17   10.11    0.82
   0  -1 -17   11.55    0.93
   0   1  17    9.19    0.90
  -1  -1 -17    3.13    0.45
  -1  -1 -17    2.46    0.51
   1   1  17    3.56    0.53
  -2  -1 -17    5.51    0.70
  -2  -1 -17    4.73    0.60
   2   1  17    6.21    0.77
  -3  -1 -17    0.08    0.39
  -3  -1 -17    0.60    0.49
   3   1  17    0.87    0.57
  -4  -1 -17    3.51    0.67
   4   1  17    2.89    0.53
  -5  -1 -17   -0.49    0.62
  -5  -1 -17    0.03    0.43
   5   1  17    0.13    0.53
   5  -2 -17    0.44    0.44
  -5   2  17    1.59    0.64
   4  -2 -17   -0.01    0.38
  -4   2  17   -0.13    0.54
   3  -2 -17    0.15    0.50
   3  -2 -17   -0.02    0.36
  -3   2  17    0.31    0.42
  -3   2  17    0.06    0.50
   2  -2 -17    4.88    0.65
   2  -2 -17    4.08    0.59
  -2   2  17    6.23    0.76
  -2   2  17    4.83    0.65
   1  -2 -17    8.55    0.75
   1  -2 -17    7.18    0.84
  -1   2  17    8.43    0.77
  -1   2  17    7.69    0.79
   0  -2 -17    6.56    0.96
   0  -2 -17    9.20    0.79
   0  -2 -17   10.79    0.91
   0   2  17   11.63    0.86
   0   2  17    8.72    0.82
  -1  -2 -17    0.70    0.37
  -1  -2 -17   -0.23    0.44
  -1  -2 -17    0.44    0.47
   1   2  17    0.68    0.41
  -2  -2 -17    5.69    0.68
  -2  -2 -17    6.18    0.81
   2   2  17    7.11    0.73
  -3  -2 -17    5.49    0.67
  -3  -2 -17    5.12    0.68
   3   2  17    5.02    0.59
  -4  -2 -17    0.85    0.41
  -4  -2 -17    1.36    0.56
   4   2  17    1.00    0.52
  -5  -2 -17    6.19    0.81
  -5  -2 -17    5.19    0.63
   5   2  17    7.51    0.90
   5  -3 -17    0.27    0.42
  -5   3  17    0.48    0.61
   4  -3 -17   -0.16    0.37
  -4   3  17    0.76    0.55
   3  -3 -17   14.49    1.13
   3  -3 -17   11.80    0.95
  -3   3  17   14.37    1.05
  -3   3  17   14.29    1.08
   2  -3 -17    1.16    0.37
   2  -3 -17    1.24    0.50
  -2   3  17   -0.13    0.46
  -2   3  17    1.01    0.44
   1  -3 -17   -0.21    0.32
   1  -3 -17   -0.30    0.42
  -1   3  17    0.32    0.42
  -1   3  17    0.36    0.42
   0  -3 -17    2.56    0.51
   0  -3 -17    1.63    0.40
   0  -3 -17    2.51    0.55
   0   3  17    2.97    0.97
   0   3  17    3.21    0.48
   0   3  17    2.96    0.48
  -1  -3 -17   17.54    1.16
  -1  -3 -17   16.73    1.10
   1   3  17   17.38    1.10
   1   3  17   15.62    1.10
  -2  -3 -17    0.82    0.51
  -2  -3 -17    0.99    0.35
   2   3  17    2.06    0.48
   2   3  17   -0.13    0.42
  -3  -3 -17    2.20    0.56
  -3  -3 -17    1.35    0.41
   3   3  17    2.31    0.48
   3   3  17    1.37    0.49
   3   3  17    0.77    0.47
  -4  -3 -17   -0.28    0.57
  -4  -3 -17   -0.30    0.38
   4   3  17    0.31    0.48
   4   3  17    0.06    0.51
  -5  -3 -17    1.45    0.65
   5   3  17    2.75    0.59
   5  -4 -17    1.50    0.50
  -5   4  17    1.99    0.69
  -4   4  17    1.28    0.62
  -4   4  17    1.33    0.56
   3  -4 -17    2.24    0.43
   3  -4 -17    2.84    0.59
  -3   4  17    3.32    0.57
  -3   4  17    2.36    0.57
   2  -4 -17    8.74    0.96
   2  -4 -17    8.94    0.81
  -2   4  17    9.88    0.89
  -2   4  17    9.37    0.95
   1  -4 -17    1.86    0.39
   1  -4 -17    1.26    0.48
  -1   4  17    1.61    0.48
  -1   4  17    2.32    0.48
   0  -4 -17    5.16    0.60
   0  -4 -17    5.27    0.67
   0   4  17    6.07    0.71
   0   4  17    5.87    1.02
  -1  -4 -17   -0.25    0.46
  -1  -4 -17   -0.06    0.33
   1   4  17   -0.04    0.40
   1   4  17    0.57    0.45
  -2  -4 -17    3.08    0.56
  -2  -4 -17    1.61    0.41
   2   4  17    1.60    0.50
   2   4  17    1.96    0.45
  -3  -4 -17    2.01    0.44
  -3  -4 -17    2.54    0.56
   3   4  17    1.68    0.51
   3   4  17    2.20    0.55
   3   4  17    1.61    0.49
  -4  -4 -17    3.07    0.68
  -4  -4 -17    2.73    0.47
   4   4  17    2.79    0.58
   4   4  17    2.88    0.74
  -5  -4 -17   -0.35    0.61
   5   4  17    0.41    0.55
   5   4  17    0.77    0.54
   4  -5 -17    0.16    0.45
   4  -5 -17    0.43    0.59
  -4   5  17    1.25    0.57
  -4   5  17   -0.25    0.66
   3  -5 -17    1.08    0.55
   3  -5 -17    1.36    0.44
  -3   5  17    1.01    0.61
  -3   5  17    1.37    0.53
   2  -5 -17    3.03    0.49
   2  -5 -17    2.43    0.57
  -2   5  17    5.42    0.74
  -2   5  17    4.09    0.62
   1  -5 -17    0.47    0.39
  -1   5  17    0.52    0.50
  -1   5  17    0.82    0.46
   0  -5 -17    1.50    0.41
   0  -5 -17    1.30    0.79
   0   5  17    1.28    0.50
   0   5  17    1.46    0.44
  -1  -5 -17    0.49    0.56
  -1  -5 -17   -0.29    0.33
   1   5  17    0.10    0.40
   1   5  17   -0.26    0.48
  -2  -5 -17    1.16    0.51
  -2  -5 -17    0.27    0.36
   2   5  17    0.04    0.41
   2   5  17    0.19    0.46
  -3  -5 -17    1.97    0.57
  -3  -5 -17    0.68    0.42
   3   5  17    1.58    0.57
   3   5  17    1.06    0.51
   3   5  17    0.84    0.44
  -4  -5 -17    3.32    0.52
  -4  -5 -17    4.98    0.71
   4   5  17    3.54    0.66
   4   5  17    3.30    0.59
   4   5  17    4.59    0.58
  -5  -5 -17    0.31    0.63
   5   5  17   -0.29    0.50
   4  -6 -17    1.09    0.55
  -4   6  17    0.07    0.72
   3  -6 -17    1.26    0.71
   3  -6 -17    1.61    0.52
  -3   6  17    3.18    0.56
  -3   6  17    1.85    0.70
   2  -6 -17    2.20    0.52
   2  -6 -17    0.93    0.48
  -2   6  17    2.91    0.53
  -2   6  17    2.51    0.66
   1  -6 -17    0.45    0.48
   1  -6 -17    1.38    0.46
  -1   6  17    0.71    0.57
  -1   6  17    1.59    0.48
   0  -6 -17    0.52    0.49
   0  -6 -17    0.33    0.42
   0   6  17   -0.22    0.53
   0   6  17    0.62    0.43
  -1  -6 -17    5.51    0.74
  -1  -6 -17    6.62    0.84
   1   6  17    3.99    0.63
   1   6  17    5.79    0.70
  -2  -6 -17    0.08    0.44
  -2  -6 -17    0.75    0.98
   2   6  17   -0.89    0.49
   2   6  17    0.84    0.42
  -3  -6 -17   11.27    1.10
  -3  -6 -17   10.85    0.96
   3   6  17   13.09    0.92
   3   6  17   10.05    1.14
   3   6  17   10.23    1.01
  -4  -6 -17   -0.40    0.44
  -4  -6 -17    0.21    0.60
   4   6  17   -0.04    0.47
   4   6  17   -0.76    0.51
   4   6  17    0.03    0.60
  -5  -6 -17    1.07    0.52
  -5  -6 -17    0.08    0.66
   5   6  17   -0.22    0.55
   5   6  17    0.92    0.75
   3  -7 -17   -0.61    0.56
  -3   7  17    1.43    0.54
  -3   7  17    0.36    0.75
   2  -7 -17    0.34    0.55
  -2   7  17    1.25    0.70
  -2   7  17    3.00    0.54
   1  -7 -17    0.20    0.50
  -1   7  17    2.18    0.48
  -1   7  17    0.90    0.64
   0  -7 -17    1.94    0.52
   0  -7 -17    2.24    0.66
   0   7  17    2.22    0.62
   0   7  17    3.23    0.49
  -1  -7 -17    2.96    0.59
  -1  -7 -17    2.22    0.54
   1   7  17    2.08    0.43
   1   7  17    1.07    0.59
  -2  -7 -17   -0.32    0.48
  -2  -7 -17    1.05    0.59
   2   7  17    0.00    0.55
   2   7  17    1.59    0.43
  -3  -7 -17    0.00    0.48
  -3  -7 -17    0.27    0.73
   3   7  17   -0.13    0.62
   3   7  17    1.00    0.43
  -4  -7 -17    8.76    1.13
   4   7  17   10.33    1.23
   4   7  17    6.81    0.83
   4   7  17    7.66    1.01
   1  -8 -17    0.88    0.60
  -1   8  17    1.90    0.50
  -1   8  17    1.05    0.69
   0  -8 -17    4.17    0.69
   0   8  17    3.91    0.74
  -1  -8 -17    0.02    0.58
   1   8  17    0.13    0.61
  -2  -8 -17    3.46    0.63
   2   8  17    1.56    0.63
   3   8  17    1.48    0.72
   3   8  17    2.27    0.47
   3   8  17    1.18    0.61
   3   2 -18    0.09    0.67
   3   2 -18   -0.79    0.53
   2   2 -18    0.76    0.54
   2   2 -18    0.37    0.64
   1   2 -18   -0.51    0.50
   1   2 -18   -0.12    0.50
   0   2 -18    2.79    0.63
   0   2 -18    3.15    0.60
  -1   2 -18   -0.64    0.56
  -1   2 -18    0.42    0.54
  -2   2 -18    1.92    0.65
  -2   2 -18    0.57    0.55
   3   1 -18    1.10    0.68
   3   1 -18    0.94    0.50
   2   1 -18   -0.74    0.46
   2   1 -18   -1.20    0.59
   1   1 -18    1.30    0.48
   1   1 -18    0.84    0.51
   0   1 -18    0.19    0.46
   0   1 -18   -0.68    0.51
  -1   1 -18    3.68    0.61
  -1   1 -18    5.34    0.62
  -2   1 -18    1.87    0.61
  -2   1 -18    1.57    0.52
  -3   1 -18    3.20    0.69
  -3   1 -18    2.21    0.57
   4   0 -18    0.08    0.49
   4   0 -18    1.62    0.62
  -4   0  18    0.74    0.85
   3   0 -18    0.43    0.59
   3   0 -18    0.22    0.44
  -3   0  18    0.03    1.05
   2   0 -18   -0.23    0.43
   2   0 -18   -0.24    0.53
  -2   0  18   -0.50    0.48
   1   0 -18    3.10    0.61
   1   0 -18    4.48    0.55
  -1   0  18    3.95    0.54
   0   0 -18    6.84    0.91
   0   0 -18    4.75    0.60
   0   0  18    6.53    0.76
  -1   0 -18    4.21    0.63
  -1   0 -18    4.38    0.59
   1   0  18    6.80    0.83
  -2   0 -18    0.32    0.45
  -2   0 -18    0.91    0.58
  -3   0 -18    3.00    0.65
  -3   0 -18    3.23    0.57
   4  -1 -18    1.30    0.61
   4  -1 -18    0.52    0.46
  -4   1  18    0.23    0.62
   3  -1 -18    0.33    0.44
   3  -1 -18    2.23    0.63
  -3   1  18    1.04    0.57
   2  -1 -18   15.50    1.28
   2  -1 -18   16.01    1.13
  -2   1  18   16.58    1.15
   1  -1 -18    0.54    0.40
   1  -1 -18   -0.74    0.45
  -1   1  18   -0.58    0.46
   0  -1 -18    0.94    0.52
   0  -1 -18    0.21    0.39
   0   1  18   -0.97    0.47
  -1  -1 -18   -0.16    0.52
  -1  -1 -18    0.00    0.40
   1   1  18    1.60    0.56
  -2  -1 -18   11.48    0.98
  -2  -1 -18   12.38    1.12
   2   1  18   13.07    1.01
  -3  -1 -18    1.13    0.60
  -3  -1 -18    0.83    0.48
   3   1  18    0.53    0.52
  -4  -1 -18    2.37    0.65
   4   1  18    1.79    0.61
   4  -2 -18    3.55    0.68
   4  -2 -18    3.01    0.51
  -4   2  18    3.21    0.71
   3  -2 -18    2.73    0.65
  -3   2  18    2.13    0.62
   2  -2 -18    1.44    0.59
   2  -2 -18    1.84    0.42
  -2   2  18    1.74    0.55
   1  -2 -18    4.92    0.66
   1  -2 -18    5.89    0.73
  -1   2  18    7.28    0.83
  -1   2  18    5.43    0.77
   0  -2 -18    1.57    0.44
   0  -2 -18    2.24    0.56
   0   2  18    1.82    0.49
   0   2  18    2.34    0.51
  -1  -2 -18    1.96    0.46
  -1  -2 -18    1.59    0.53
   1   2  18    2.79    0.54
   1   2  18    1.98    0.51
  -2  -2 -18    0.17    0.36
  -2  -2 -18   -0.21    0.55
   2   2  18    0.70    0.50
  -3  -2 -18    0.48    0.58
  -3  -2 -18    0.63    0.43
   3   2  18    0.74    0.53
  -4  -2 -18    0.92    0.47
  -4  -2 -18    2.99    0.71
   4   2  18    2.36    0.60
   4  -3 -18    0.98    0.62
  -4   3  18    0.06    0.65
   3  -3 -18    0.86    0.62
   3  -3 -18   -0.06    0.41
  -3   3  18   -0.46    0.58
   2  -3 -18    1.88    0.59
   2  -3 -18    2.75    0.46
  -2   3  18    2.61    0.58
  -2   3  18    2.30    0.54
   1  -3 -18    3.83    0.60
   1  -3 -18    3.51    0.48
  -1   3  18    2.93    0.54
  -1   3  18    3.57    0.58
   0  -3 -18    0.35    0.39
   0  -3 -18   -0.21    0.50
   0   3  18   -0.08    0.47
   0   3  18   -0.39    0.47
  -1  -3 -18    0.28    0.38
  -1  -3 -18   -0.04    0.52
   1   3  18   -0.34    0.46
   1   3  18    0.30    0.53
  -2  -3 -18    0.90    0.57
  -2  -3 -18    0.44    0.38
   2   3  18    0.53    0.52
   2   3  18    0.03    0.50
  -3  -3 -18    0.32    0.40
  -3  -3 -18    0.69    0.59
   3   3  18    0.70    0.51
   3   3  18    0.13    0.55
  -4  -3 -18    2.64    0.52
  -4  -3 -18    3.18    0.73
   4   3  18    4.70    0.64
   4  -4 -18    0.95    0.67
   4  -4 -18   -0.58    0.46
   3  -4 -18    0.73    0.61
   3  -4 -18    0.80    0.42
  -3   4  18    0.65    0.75
  -3   4  18    0.83    0.57
   2  -4 -18    3.52    0.52
   2  -4 -18    3.64    0.65
  -2   4  18    4.24    0.64
  -2   4  18    4.27    0.89
   1  -4 -18    0.24    0.52
   1  -4 -18   -0.35    0.37
  -1   4  18   -0.33    0.58
  -1   4  18    0.75    0.49
   0  -4 -18    1.05    0.54
   0  -4 -18    2.17    0.43
   0   4  18    2.62    0.52
   0   4  18    2.04    0.55
  -1  -4 -18    0.14    0.53
  -1  -4 -18    0.16    0.36
   1   4  18    0.36    0.46
   1   4  18   -0.33    0.49
  -2  -4 -18    6.20    0.69
  -2  -4 -18    5.32    0.69
   2   4  18    3.96    0.62
   2   4  18    4.61    0.59
  -3  -4 -18    1.26    0.60
  -3  -4 -18    0.18    0.41
   3   4  18   -0.32    0.56
   3   4  18    1.27    0.53
  -4  -4 -18   12.16    1.30
  -4  -4 -18   12.10    1.00
   4   4  18   12.35    1.08
   4   4  18   11.78    1.10
   3  -5 -18    0.04    0.46
   3  -5 -18   -0.14    0.62
  -3   5  18    0.72    0.58
  -3   5  18    0.45    0.68
   2  -5 -18   -0.37    0.54
   2  -5 -18    0.45    0.43
  -2   5  18    0.14    0.61
  -2   5  18    1.51    0.56
   1  -5 -18    0.68    0.56
   1  -5 -18    0.38    0.43
  -1   5  18    0.51    0.57
  -1   5  18    1.37    0.51
   0  -5 -18    0.96    0.43
   0  -5 -18    0.45    0.54
   0   5  18    0.40    0.55
   0   5  18    0.65    0.49
  -1  -5 -18    2.17    0.60
  -1  -5 -18    2.21    0.42
   1   5  18    2.42    0.51
   1   5  18    1.41    0.55
  -2  -5 -18    0.70    0.41
  -2  -5 -18    0.89    0.60
   2   5  18   -0.06    0.53
   2   5  18    0.69    0.46
  -3  -5 -18    0.78    0.65
   3   5  18   -1.03    0.48
   3   5  18    0.37    0.69
   3   5  18   -0.65    0.53
  -4  -5 -18    0.59    0.68
  -4  -5 -18   -0.75    0.43
   4   5  18    2.21    0.55
   4   5  18    0.07    0.58
   2  -6 -18    0.61    0.61
  -2   6  18    0.28    0.68
  -2   6  18   -0.09    0.52
   1  -6 -18    7.27    0.90
   1  -6 -18    5.63    0.71
  -1   6  18    7.83    1.11
  -1   6  18    8.19    0.86
   0  -6 -18    2.65    0.63
   0  -6 -18    1.79    0.51
   0   6  18    2.59    0.52
   0   6  18    1.35    0.63
  -1  -6 -18    3.57    0.65
  -1  -6 -18    3.16    0.54
   1   6  18    3.15    0.67
   1   6  18    3.55    0.56
  -2  -6 -18    1.62    0.63
  -2  -6 -18   -0.24    0.46
   2   6  18    0.53    0.47
   2   6  18    0.40    0.59
  -3  -6 -18    6.76    0.83
  -3  -6 -18    4.76    0.65
   3   6  18    5.68    0.64
   3   6  18    5.33    0.74
   3   6  18    6.92    1.13
   1  -7 -18   -0.14    0.56
  -1   7  18    0.67    0.68
  -1   7  18   -0.35    0.53
   0  -7 -18   -0.58    0.50
   0   7  18   -0.52    0.64
  -1  -7 -18    1.16    0.56
   1   7  18    0.01    0.64
   1   7  18    1.42    0.48
  -2  -7 -18    5.81    0.75
   2   7  18    6.19    0.81
   2   7  18    9.03    0.86
   2   0 -19    1.33    0.71
   2   0 -19    1.73    0.52
   1   0 -19    0.84    0.54
   1   0 -19    0.75    0.58
   0   0 -19    5.12    0.71
   0   0 -19    2.99    0.59
  -1   0 -19    0.99    0.60
  -1   0 -19   -0.29    0.51
   2  -1 -19    0.62    0.46
   2  -1 -19   -0.60    0.63
  -2   1  19   -0.24    0.58
   1  -1 -19    0.62    0.61
   1  -1 -19    0.59    0.47
  -1   1  19   -0.81    0.53
   0  -1 -19    1.12    0.50
   0  -1 -19    3.16    0.67
   0   1  19    2.42    0.58
  -1  -1 -19    0.06    0.49
  -1  -1 -19    0.18    0.58
   1   1  19    0.13    0.55
  -2  -1 -19    0.54    0.66
  -2  -1 -19    0.20    0.44
   2   1  19    0.36    0.73
   2  -2 -19    0.33    0.45
   2  -2 -19   -0.82    0.65
  -2   2  19   -0.21    0.61
   1  -2 -19    2.62    0.51
   1  -2 -19    3.11    0.63
  -1   2  19    1.70    0.60
   0  -2 -19    0.12    0.43
   0  -2 -19    0.28    0.58
   0   2  19    1.97    0.80
   0   2  19   -0.26    0.54
  -1  -2 -19    1.23    0.46
  -1  -2 -19    0.83    0.61
   1   2  19    1.49    0.59
  -2  -2 -19    0.45    0.62
  -2  -2 -19    0.98    0.46
   2   2  19    0.82    0.59
  -3  -2 -19    3.88    0.59
  -3  -2 -19    3.60    0.74
   2  -3 -19    1.53    0.45
   2  -3 -19    1.12    0.63
  -2   3  19    2.13    0.64
   1  -3 -19    0.55    0.61
   1  -3 -19   -0.55    0.40
  -1   3  19   -0.62    0.56
  -1   3  19   -0.03    0.85
   0  -3 -19   -0.13    0.57
   0  -3 -19    0.91    0.45
   0   3  19    1.03    0.56
   0   3  19    2.21    0.62
  -1  -3 -19    0.31    0.44
  -1  -3 -19    0.21    0.63
   1   3  19   -0.36    0.54
   1   3  19    0.88    0.60
  -2  -3 -19    4.52    0.74
  -2  -3 -19    3.78    0.57
   2   3  19    4.27    0.69
   2   3  19    5.40    0.68
  -3  -3 -19    0.49    0.48
  -3  -3 -19    2.03    0.71
   3   3  19   -0.28    0.60
   3   3  19   -0.15    0.63
   2  -4 -19   -0.06    0.59
   2  -4 -19   -0.68    0.43
  -2   4  19    0.67    0.62
   1  -4 -19    1.02    0.64
   1  -4 -19   -0.80    0.41
  -1   4  19    0.74    0.61
  -1   4  19   -0.07    0.57
   0  -4 -19    5.09    0.60
   0  -4 -19    5.08    0.70
   0   4  19    3.90    0.67
   0   4  19    4.65    0.65
  -1  -4 -19    1.19    0.60
  -1  -4 -19    1.16    0.42
   1   4  19    0.57    0.60
   1   4  19    0.78    0.54
  -2  -4 -19    3.15    0.49
  -2  -4 -19    3.23    0.69
   2   4  19    3.25    0.69
   2   4  19    1.87    0.60
  -3  -4 -19    1.83    0.71
  -3  -4 -19    0.30    0.47
   3   4  19    0.75    0.65
   1  -5 -19    4.05    0.60
   1  -5 -19    4.56    0.73
  -1   5  19    7.30    0.94
  -1   5  19    5.18    0.76
   0  -5 -19    0.09    0.61
   0  -5 -19    1.02    0.45
   0   5  19    0.36    0.63
   0   5  19    1.31    0.58
  -1  -5 -19    0.84    0.64
  -1  -5 -19    0.33    0.42
   1   5  19   -0.43    0.62
   1   5  19    0.77    0.55
  -2  -5 -19    1.08    0.50
  -2  -5 -19    2.36    0.72
   2   5  19    0.74    0.56
   2   5  19    0.47    0.64
   0   0   0    0.00    0.00
;
_shelx_hkl_checksum              30421
#END Tags that were not found in dictionaries
loop_
_space_group_symop_operation_xyz
'x, y, z'
'-x, -y, -z'
loop_
_atom_site_label
_atom_site_type_symbol
_atom_site_fract_x
_atom_site_fract_y
_atom_site_fract_z
_atom_site_U_iso_or_equiv
_atom_site_adp_type
_atom_site_occupancy
_atom_site_site_symmetry_order
_atom_site_calc_flag
_atom_site_refinement_flags_posn
_atom_site_refinement_flags_adp
Br1 Br -0.13514(3) 0.33062(3) 0.32682(2) 0.02259(9) Uani 1 1 d . .
Br2 Br 0.66059(3) 0.98885(3) 0.82358(2) 0.02248(9) Uani 1 1 d . .
S1 S 0.11648(8) 0.50629(8) 0.39495(5) 0.01737(15) Uani 1 1 d . .
S2 S 0.53097(8) 0.84917(7) 0.66063(5) 0.01581(15) Uani 1 1 d . .
O1 O 0.5943(2) 0.6362(2) 0.17168(13) 0.0194(4) Uani 1 1 d . .
O2 O 0.8790(2) 0.8710(2) 0.35442(14) 0.0210(4) Uani 1 1 d . .
N1 N 0.3499(3) 0.6481(2) 0.46265(16) 0.0158(5) Uani 1 1 d . .
N2 N 0.4306(3) 0.7171(2) 0.51482(16) 0.0163(5) Uani 1 1 d . .
N3 N 0.7632(3) 0.7570(2) 0.24687(16) 0.0149(5) Uani 1 1 d . .
C1 C 0.0562(3) 0.4205(3) 0.3066(2) 0.0179(6) Uani 1 1 d . .
C2 C 0.1574(3) 0.4284(3) 0.2296(2) 0.0185(6) Uani 1 1 d . .
H2 H 0.1423 0.3877 0.1757 0.022 Uiso 1 1 calc R U
C3 C 0.2896(3) 0.5066(3) 0.2414(2) 0.0184(6) Uani 1 1 d . .
H3 H 0.3710 0.5232 0.1955 0.022 Uiso 1 1 calc R U
C4 C 0.2853(3) 0.5548(3) 0.32685(19) 0.0155(5) Uani 1 1 d . .
C5 C 0.3968(3) 0.6315(3) 0.37164(19) 0.0146(5) Uani 1 1 d . .
C6 C 0.5398(3) 0.6870(3) 0.33477(19) 0.0143(5) Uani 1 1 d . .
C7 C 0.6273(3) 0.6858(3) 0.24101(19) 0.0153(5) Uani 1 1 d . .
C8 C 0.7718(3) 0.8056(3) 0.33343(19) 0.0164(5) Uani 1 1 d . .
C9 C 0.6253(3) 0.7592(3) 0.39051(19) 0.0149(5) Uani 1 1 d . .
C10 C 0.5676(3) 0.7772(3) 0.4818(2) 0.0155(5) Uani 1 1 d . .
C11 C 0.6345(3) 0.8506(3) 0.55135(19) 0.0144(5) Uani 1 1 d . .
C12 C 0.7672(3) 0.9257(3) 0.5479(2) 0.0188(6) Uani 1 1 d . .
H12 H 0.8356 0.9400 0.4947 0.023 Uiso 1 1 calc R U
C13 C 0.7896(3) 0.9792(3) 0.6336(2) 0.0197(6) Uani 1 1 d . .
H13 H 0.8743 1.0313 0.6434 0.024 Uiso 1 1 calc R U
C14 C 0.6724(3) 0.9450(3) 0.69922(19) 0.0169(6) Uani 1 1 d . .
C15 C 0.8838(3) 0.7772(3) 0.1696(2) 0.0191(6) Uani 1 1 d . .
H15A H 0.9136 0.6850 0.1472 0.023 Uiso 1 1 calc R U
H15B H 0.9836 0.8015 0.1954 0.023 Uiso 1 1 calc R U
C16 C 0.8174(3) 0.8989(3) 0.0841(2) 0.0186(6) Uani 1 1 d . .
H16A H 0.7132 0.8779 0.0619 0.022 Uiso 1 1 calc R U
H16B H 0.8950 0.8972 0.0315 0.022 Uiso 1 1 calc R U
C17 C 0.7896(3) 1.0533(3) 0.1069(2) 0.0191(6) Uani 1 1 d . .
H17A H 0.7252 1.0522 0.1654 0.023 Uiso 1 1 calc R U
H17B H 0.8959 1.0813 0.1192 0.023 Uiso 1 1 calc R U
C18 C 0.6994(3) 1.1673(3) 0.0246(2) 0.0202(6) Uani 1 1 d . .
H18A H 0.5944 1.1371 0.0121 0.024 Uiso 1 1 calc R U
H18B H 0.7647 1.1673 -0.0334 0.024 Uiso 1 1 calc R U
C19 C 0.6658(4) 1.3248(3) 0.0429(2) 0.0250(6) Uani 1 1 d . .
H19A H 0.5876 1.3847 -0.0060 0.030 Uiso 1 1 calc R U
H19B H 0.6148 1.3232 0.1056 0.030 Uiso 1 1 calc R U
C20 C 0.8209(4) 1.3962(4) 0.0409(2) 0.0306(7) Uani 1 1 d . .
H20A H 0.8961 1.3411 0.0918 0.046 Uiso 1 1 calc R U
H20B H 0.7918 1.4961 0.0502 0.046 Uiso 1 1 calc R U
H20C H 0.8732 1.3967 -0.0206 0.046 Uiso 1 1 calc R U
loop_
_atom_site_aniso_label
_atom_site_aniso_U_11
_atom_site_aniso_U_22
_atom_site_aniso_U_33
_atom_site_aniso_U_23
_atom_site_aniso_U_13
_atom_site_aniso_U_12
Br1 0.01549(15) 0.02602(17) 0.02770(17) -0.00292(12) -0.00255(11) -0.01069(11)
Br2 0.01979(15) 0.03140(18) 0.01951(16) -0.01107(12) -0.00113(11) -0.00619(12)
S1 0.0144(3) 0.0209(4) 0.0184(3) -0.0040(3) -0.0001(3) -0.0076(3)
S2 0.0132(3) 0.0190(3) 0.0171(3) -0.0053(3) -0.0004(2) -0.0060(2)
O1 0.0187(10) 0.0228(10) 0.0196(10) -0.0088(8) 0.0015(8) -0.0063(8)
O2 0.0124(9) 0.0279(11) 0.0267(11) -0.0099(9) 0.0026(8) -0.0097(8)
N1 0.0156(11) 0.0166(12) 0.0169(11) -0.0036(9) 0.0001(9) -0.0073(9)
N2 0.0132(11) 0.0186(12) 0.0182(11) -0.0037(9) -0.0009(9) -0.0060(9)
N3 0.0095(10) 0.0191(12) 0.0175(11) -0.0053(9) 0.0027(8) -0.0046(9)
C1 0.0149(13) 0.0186(14) 0.0201(14) -0.0014(11) -0.0026(11) -0.0052(11)
C2 0.0181(13) 0.0205(14) 0.0178(14) -0.0041(11) -0.0029(11) -0.0051(11)
C3 0.0154(13) 0.0210(14) 0.0193(14) -0.0034(11) -0.0004(11) -0.0049(11)
C4 0.0128(12) 0.0135(13) 0.0190(14) -0.0005(11) -0.0017(10) -0.0020(10)
C5 0.0132(12) 0.0122(13) 0.0185(13) -0.0025(10) -0.0021(10) -0.0026(10)
C6 0.0127(12) 0.0100(12) 0.0194(14) -0.0021(10) 0.0001(10) 0.0000(10)
C7 0.0131(12) 0.0139(13) 0.0189(14) -0.0039(11) 0.0004(10) -0.0012(10)
C8 0.0131(12) 0.0152(13) 0.0200(14) -0.0034(11) 0.0003(11) 0.0005(10)
C9 0.0110(12) 0.0123(13) 0.0207(14) -0.0021(11) -0.0002(10) -0.0017(10)
C10 0.0122(12) 0.0135(13) 0.0205(14) -0.0018(11) -0.0031(10) -0.0024(10)
C11 0.0135(12) 0.0145(13) 0.0154(13) -0.0031(10) -0.0002(10) -0.0026(10)
C12 0.0141(13) 0.0240(15) 0.0204(14) -0.0077(12) 0.0038(11) -0.0060(11)
C13 0.0125(12) 0.0234(15) 0.0259(15) -0.0087(12) -0.0012(11) -0.0060(11)
C14 0.0144(13) 0.0220(14) 0.0155(13) -0.0058(11) -0.0029(10) -0.0038(11)
C15 0.0106(12) 0.0263(15) 0.0221(14) -0.0084(12) 0.0064(10) -0.0039(11)
C16 0.0136(12) 0.0247(15) 0.0195(14) -0.0073(11) 0.0045(10) -0.0053(11)
C17 0.0152(13) 0.0257(15) 0.0179(14) -0.0053(12) 0.0007(11) -0.0070(11)
C18 0.0163(13) 0.0249(15) 0.0207(14) -0.0057(12) -0.0001(11) -0.0059(11)
C19 0.0266(16) 0.0227(16) 0.0257(16) -0.0058(12) 0.0019(12) -0.0025(12)
C20 0.0365(18) 0.0287(17) 0.0309(17) -0.0112(14) 0.0069(14) -0.0116(14)
loop_
_atom_type_symbol
_atom_type_description
_atom_type_scat_dispersion_real
_atom_type_scat_dispersion_imag
_atom_type_scat_source
C C 0.0033 0.0016 'International Tables Vol C Tables 4.2.6.8 and 6.1.1.4'
H H 0.0000 0.0000 'International Tables Vol C Tables 4.2.6.8 and 6.1.1.4'
Br Br -0.2901 2.4595 'International Tables Vol C Tables 4.2.6.8 and 6.1.1.4'
N N 0.0061 0.0033 'International Tables Vol C Tables 4.2.6.8 and 6.1.1.4'
O O 0.0106 0.0060 'International Tables Vol C Tables 4.2.6.8 and 6.1.1.4'
S S 0.1246 0.1234 'International Tables Vol C Tables 4.2.6.8 and 6.1.1.4'
loop_
_geom_angle_atom_site_label_1
_geom_angle_atom_site_label_2
_geom_angle_atom_site_label_3
_geom_angle
C1 S1 C4 90.44(13)
C14 S2 C11 90.32(12)
N2 N1 C5 122.5(2)
N1 N2 C10 122.2(2)
C7 N3 C8 112.8(2)
C7 N3 C15 123.0(2)
C8 N3 C15 124.2(2)
C2 C1 S1 113.4(2)
C2 C1 Br1 128.5(2)
S1 C1 Br1 118.12(16)
C1 C2 C3 111.5(2)
C1 C2 H2 124.3
C3 C2 H2 124.3
C4 C3 C2 113.2(3)
C4 C3 H3 123.4
C2 C3 H3 123.4
C3 C4 C5 132.6(3)
C3 C4 S1 111.44(19)
C5 C4 S1 115.9(2)
N1 C5 C6 118.1(2)
N1 C5 C4 112.5(2)
C6 C5 C4 129.4(2)
C9 C6 C5 119.2(2)
C9 C6 C7 108.4(2)
C5 C6 C7 132.4(2)
O1 C7 N3 124.1(2)
O1 C7 C6 130.3(2)
N3 C7 C6 105.6(2)
O2 C8 N3 124.5(2)
O2 C8 C9 129.8(2)
N3 C8 C9 105.7(2)
C6 C9 C10 120.0(2)
C6 C9 C8 107.5(2)
C10 C9 C8 132.5(2)
N2 C10 C9 118.1(2)
N2 C10 C11 112.5(2)
C9 C10 C11 129.5(2)
C12 C11 C10 132.0(3)
C12 C11 S2 111.0(2)
C10 C11 S2 117.00(19)
C11 C12 C13 113.3(2)
C11 C12 H12 123.4
C13 C12 H12 123.4
C14 C13 C12 111.5(2)
C14 C13 H13 124.2
C12 C13 H13 124.2
C13 C14 S2 113.8(2)
C13 C14 Br2 125.5(2)
S2 C14 Br2 120.68(15)
N3 C15 C16 112.3(2)
N3 C15 H15A 109.1
C16 C15 H15A 109.1
N3 C15 H15B 109.1
C16 C15 H15B 109.1
H15A C15 H15B 107.9
C15 C16 C17 114.1(2)
C15 C16 H16A 108.7
C17 C16 H16A 108.7
C15 C16 H16B 108.7
C17 C16 H16B 108.7
H16A C16 H16B 107.6
C18 C17 C16 112.0(2)
C18 C17 H17A 109.2
C16 C17 H17A 109.2
C18 C17 H17B 109.2
C16 C17 H17B 109.2
H17A C17 H17B 107.9
C17 C18 C19 114.9(2)
C17 C18 H18A 108.5
C19 C18 H18A 108.5
C17 C18 H18B 108.5
C19 C18 H18B 108.5
H18A C18 H18B 107.5
C20 C19 C18 113.2(2)
C20 C19 H19A 108.9
C18 C19 H19A 108.9
C20 C19 H19B 108.9
C18 C19 H19B 108.9
H19A C19 H19B 107.8
C19 C20 H20A 109.5
C19 C20 H20B 109.5
H20A C20 H20B 109.5
C19 C20 H20C 109.5
H20A C20 H20C 109.5
H20B C20 H20C 109.5
loop_
_geom_bond_atom_site_label_1
_geom_bond_atom_site_label_2
_geom_bond_distance
Br1 C1 1.874(3)
Br2 C14 1.873(3)
S1 C1 1.720(3)
S1 C4 1.735(3)
S2 C14 1.716(3)
S2 C11 1.745(3)
O1 C7 1.209(3)
O2 C8 1.210(3)
N1 N2 1.309(3)
N1 C5 1.364(3)
N2 C10 1.363(3)
N3 C7 1.387(3)
N3 C8 1.388(3)
N3 C15 1.463(3)
C1 C2 1.353(4)
C2 C3 1.419(4)
C2 H2 0.9300
C3 C4 1.364(4)
C3 H3 0.9300
C4 C5 1.459(3)
C5 C6 1.401(4)
C6 C9 1.386(3)
C6 C7 1.495(4)
C8 C9 1.503(4)
C9 C10 1.396(4)
C10 C11 1.455(3)
C11 C12 1.371(4)
C12 C13 1.417(4)
C12 H12 0.9300
C13 C14 1.351(4)
C13 H13 0.9300
C15 C16 1.520(4)
C15 H15A 0.9700
C15 H15B 0.9700
C16 C17 1.520(4)
C16 H16A 0.9700
C16 H16B 0.9700
C17 C18 1.518(4)
C17 H17A 0.9700
C17 H17B 0.9700
C18 C19 1.526(4)
C18 H18A 0.9700
C18 H18B 0.9700
C19 C20 1.515(4)
C19 H19A 0.9700
C19 H19B 0.9700
C20 H20A 0.9600
C20 H20B 0.9600
C20 H20C 0.9600
loop_
_geom_hbond_atom_site_label_D
_geom_hbond_atom_site_label_H
_geom_hbond_atom_site_label_A
_geom_hbond_distance_DH
_geom_hbond_distance_HA
_geom_hbond_distance_DA
_geom_hbond_angle_DHA
_geom_hbond_site_symmetry_A
C3 H3 O1 0.93 2.23 2.999(3) 139.6 .
C12 H12 O2 0.93 2.20 2.977(3) 140.1 .
C13 H13 O2 0.93 2.34 3.248(3) 166.9 2_776
C3 H3 O1 0.93 2.23 2.999(3) 139.6 .
C12 H12 O2 0.93 2.20 2.977(3) 140.1 .
C13 H13 O2 0.93 2.34 3.248(3) 166.9 2_776
loop_
_geom_torsion_atom_site_label_1
_geom_torsion_atom_site_label_2
_geom_torsion_atom_site_label_3
_geom_torsion_atom_site_label_4
_geom_torsion
C5 N1 N2 C10 -0.1(4)
C4 S1 C1 C2 -0.3(2)
C4 S1 C1 Br1 179.94(17)
S1 C1 C2 C3 0.0(3)
Br1 C1 C2 C3 179.8(2)
C1 C2 C3 C4 0.3(4)
C2 C3 C4 C5 176.5(3)
C2 C3 C4 S1 -0.5(3)
C1 S1 C4 C3 0.4(2)
C1 S1 C4 C5 -177.1(2)
N2 N1 C5 C6 2.0(4)
N2 N1 C5 C4 -178.3(2)
C3 C4 C5 N1 -175.1(3)
S1 C4 C5 N1 1.8(3)
C3 C4 C5 C6 4.6(5)
S1 C4 C5 C6 -178.5(2)
N1 C5 C6 C9 -1.5(4)
C4 C5 C6 C9 178.8(3)
N1 C5 C6 C7 178.6(3)
C4 C5 C6 C7 -1.0(5)
C8 N3 C7 O1 179.1(2)
C15 N3 C7 O1 -1.2(4)
C8 N3 C7 C6 -0.8(3)
C15 N3 C7 C6 179.0(2)
C9 C6 C7 O1 -179.1(3)
C5 C6 C7 O1 0.7(5)
C9 C6 C7 N3 0.7(3)
C5 C6 C7 N3 -179.5(3)
C7 N3 C8 O2 -179.7(3)
C15 N3 C8 O2 0.6(4)
C7 N3 C8 C9 0.6(3)
C15 N3 C8 C9 -179.2(2)
C5 C6 C9 C10 -0.7(4)
C7 C6 C9 C10 179.2(2)
C5 C6 C9 C8 179.8(2)
C7 C6 C9 C8 -0.3(3)
O2 C8 C9 C6 -179.9(3)
N3 C8 C9 C6 -0.1(3)
O2 C8 C9 C10 0.7(5)
N3 C8 C9 C10 -179.6(3)
N1 N2 C10 C9 -2.2(4)
N1 N2 C10 C11 178.9(2)
C6 C9 C10 N2 2.5(4)
C8 C9 C10 N2 -178.1(3)
C6 C9 C10 C11 -178.8(3)
C8 C9 C10 C11 0.6(5)
N2 C10 C11 C12 -179.2(3)
C9 C10 C11 C12 2.0(5)
N2 C10 C11 S2 -0.1(3)
C9 C10 C11 S2 -178.9(2)
C14 S2 C11 C12 -1.5(2)
C14 S2 C11 C10 179.3(2)
C10 C11 C12 C13 -179.4(3)
S2 C11 C12 C13 1.5(3)
C11 C12 C13 C14 -0.7(4)
C12 C13 C14 S2 -0.5(3)
C12 C13 C14 Br2 177.7(2)
C11 S2 C14 C13 1.1(2)
C11 S2 C14 Br2 -177.16(17)
C7 N3 C15 C16 75.8(3)
C8 N3 C15 C16 -104.5(3)
N3 C15 C16 C17 67.1(3)
C15 C16 C17 C18 -171.4(2)
C16 C17 C18 C19 179.5(2)
C17 C18 C19 C20 71.3(3)
