#------------------------------------------------------------------------------
#$Date: 2016-02-18 17:37:37 +0200 (Thu, 18 Feb 2016) $
#$Revision: 176729 $
#$URL: svn://www.crystallography.net/cod/cif/1/51/83/1518300.cif $
#------------------------------------------------------------------------------
#
# This file is available in the Crystallography Open Database (COD),
# http://www.crystallography.net/
#
# All data on this site have been placed in the public domain by the
# contributors.
#
data_1518300
loop_
_publ_author_name
'Chang, Meng-Yang'
'Cheng, Yu-Chieh'
'Lu, Yi-Ju'
_publ_section_title
;
 One-Pot Access to Sulfonylmethyl Arylpyrroles via the Domino Aerobic
 Wacker-Type Aminocyclization/1,4-Sulfonyl Migration.
;
_journal_issue                   23
_journal_name_full               'Organic letters'
_journal_page_first              6252
_journal_paper_doi               10.1021/ol5032238
_journal_volume                  16
_journal_year                    2014
_chemical_formula_sum            'C18 H17 N O2 S'
_chemical_formula_weight         311.38
_chemical_name_systematic
;
 ?
;
_space_group_crystal_system      monoclinic
_space_group_IT_number           14
_space_group_name_Hall           '-P 2ybc'
_space_group_name_H-M_alt        'P 1 21/c 1'
_symmetry_space_group_name_Hall  '-P 2ybc'
_symmetry_space_group_name_H-M   'P 1 21/c 1'
_atom_sites_solution_hydrogens   geom
_audit_creation_method           SHELXL-2014
_cell_angle_alpha                90
_cell_angle_beta                 109.1820(10)
_cell_angle_gamma                90
_cell_formula_units_Z            4
_cell_length_a                   12.8499(7)
_cell_length_b                   10.5117(6)
_cell_length_c                   12.0432(6)
_cell_measurement_reflns_used    5003
_cell_measurement_temperature    100(2)
_cell_measurement_theta_max      26.3825
_cell_measurement_theta_min      2.6384
_cell_volume                     1536.41(14)
_computing_cell_refinement       'SAINT V8.34A (Bruker AXS Inc., 2013)'
_computing_data_collection       'APEX2 (Bruker AXS, 2010)'
_computing_data_reduction        'SAINT V8.34A (Bruker AXS Inc., 2013)'
_computing_molecular_graphics    'SHELXTL (Sheldrick, 2008)'
_computing_publication_material  SHELXTL
_computing_structure_refinement  'SHELXL-2014 (Sheldrick, 2014)'
_diffrn_ambient_temperature      100(2)
_diffrn_detector_area_resol_mean 8.3333
_diffrn_measured_fraction_theta_full 0.999
_diffrn_measured_fraction_theta_max 0.997
_diffrn_measurement_device_type  'Bruker APEX-II CCD'
_diffrn_measurement_method       '\f and \w scans'
_diffrn_radiation_type           MoK\a
_diffrn_radiation_wavelength     0.71073
_diffrn_reflns_av_R_equivalents  0.0257
_diffrn_reflns_av_unetI/netI     0.0222
_diffrn_reflns_Laue_measured_fraction_full 0.999
_diffrn_reflns_Laue_measured_fraction_max 0.997
_diffrn_reflns_limit_h_max       16
_diffrn_reflns_limit_h_min       -16
_diffrn_reflns_limit_k_max       13
_diffrn_reflns_limit_k_min       -13
_diffrn_reflns_limit_l_max       7
_diffrn_reflns_limit_l_min       -15
_diffrn_reflns_number            12318
_diffrn_reflns_point_group_measured_fraction_full 0.999
_diffrn_reflns_point_group_measured_fraction_max 0.997
_diffrn_reflns_theta_full        25.242
_diffrn_reflns_theta_max         26.427
_diffrn_reflns_theta_min         1.678
_exptl_absorpt_coefficient_mu    0.217
_exptl_absorpt_correction_T_max  0.9485
_exptl_absorpt_correction_T_min  0.8815
_exptl_absorpt_correction_type   multi-scan
_exptl_absorpt_process_details   'SADABS V2014/2 (Bruker AXS Inc.)'
_exptl_crystal_colour            Colorless
_exptl_crystal_density_diffrn    1.346
_exptl_crystal_density_meas      ?
_exptl_crystal_density_method    'not measured'
_exptl_crystal_description       Lamellar
_exptl_crystal_F_000             656
_exptl_crystal_size_max          0.30
_exptl_crystal_size_mid          0.20
_exptl_crystal_size_min          0.20
_refine_diff_density_max         0.367
_refine_diff_density_min         -0.348
_refine_diff_density_rms         0.045
_refine_ls_extinction_method     none
_refine_ls_goodness_of_fit_ref   1.023
_refine_ls_hydrogen_treatment    constr
_refine_ls_matrix_type           full
_refine_ls_number_parameters     200
_refine_ls_number_reflns         3143
_refine_ls_number_restraints     0
_refine_ls_restrained_S_all      1.023
_refine_ls_R_factor_all          0.0372
_refine_ls_R_factor_gt           0.0320
_refine_ls_shift/su_max          0.001
_refine_ls_shift/su_mean         0.000
_refine_ls_structure_factor_coef Fsqd
_refine_ls_weighting_details
'w=1/[\s^2^(Fo^2^)+(0.0367P)^2^+0.9568P] where P=(Fo^2^+2Fc^2^)/3'
_refine_ls_weighting_scheme      calc
_refine_ls_wR_factor_gt          0.0786
_refine_ls_wR_factor_ref         0.0820
_reflns_Friedel_coverage         0.000
_reflns_number_gt                2778
_reflns_number_total             3143
_reflns_threshold_expression     'I > 2\s(I)'
_cod_data_source_file            ol5032238_si_001.cif
_cod_data_source_block           140820LT
_cod_depositor_comments
;
The following automatic conversions were performed:

'_exptl_crystal_density_meas' value 'not measured' was changed to '?'
- the value is perceived as not measured.

Automatic conversion script
Id: cif_fix_values 3008 2015-01-20 13:52:24Z robertas 

 Adding full bibliography for 1518300--1518302.cif.
;
_cod_database_code               1518300
#BEGIN Tags that were not found in dictionaries:
_shelx_space_group_comment
;
The symmetry employed for this shelxl refinement is uniquely defined
by the following loop, which should always be used as a source of
symmetry information in preference to the above space-group names.
They are only intended as comments.
;
_shelxl_version_number           2014-3
_shelx_res_file
;
TITL 140820LT in P2(1)/c
CELL 0.71073 12.8499 10.5117 12.0432 90.000 109.182 90.000
ZERR 4.00 0.0007 0.0006 0.0006 0.000 0.001 0.000
LATT 1
SYMM -x, y+1/2, -z+1/2
SFAC C  H  N  O  S
UNIT 72  68  4  8  4
L.S. 4
ACTA
BOND $H
FMAP 2
PLAN 5
TEMP -173.000
WGHT    0.036700    0.956800
FVAR       0.24490
S1    5    0.295438    1.035922    0.008741    11.00000    0.01379    0.01620 =
         0.01201   -0.00087    0.00427   -0.00060
O1    4    0.203587    1.081856   -0.088516    11.00000    0.01669    0.02470 =
         0.01354    0.00067    0.00274    0.00067
O2    4    0.376831    0.956916   -0.017445    11.00000    0.01752    0.02305 =
         0.01970   -0.00167    0.00983    0.00130
N1    3    0.535760    1.078340    0.230599    11.00000    0.01536    0.01439 =
         0.01268   -0.00109    0.00614   -0.00139
AFIX  43
H14   2    0.561470    1.047954    0.176647    11.00000   -1.20000
AFIX   0
C1    1    0.106148    0.741183    0.329304    11.00000    0.02649    0.02713 =
         0.03272    0.00977    0.01610    0.00424
AFIX 137
H1    2    0.131824    0.777589    0.408608    11.00000   -1.50000
H3    2    0.130183    0.652384    0.332453    11.00000   -1.50000
H17   2    0.025520    0.744951    0.298059    11.00000   -1.50000
AFIX   0
C2    1    0.153617    0.815834    0.250684    11.00000    0.01938    0.01612 =
         0.01879   -0.00193    0.00829   -0.00068
C3    1    0.091167    0.907605    0.173558    11.00000    0.01400    0.02343 =
         0.01904   -0.00045    0.00661    0.00159
AFIX  43
H4    2    0.017237    0.922775    0.169925    11.00000   -1.20000
AFIX   0
C4    1    0.135804    0.976910    0.102155    11.00000    0.01451    0.01963 =
         0.01523    0.00128    0.00300    0.00212
AFIX  43
H5    2    0.093380    1.040598    0.051163    11.00000   -1.20000
AFIX   0
C5    1    0.243161    0.952334    0.105886    11.00000    0.01461    0.01398 =
         0.01332   -0.00309    0.00526   -0.00174
C6    1    0.364607    1.173108    0.087826    11.00000    0.01857    0.01386 =
         0.01645    0.00054    0.00319   -0.00287
AFIX  23
H6    2    0.407707    1.213292    0.042596    11.00000   -1.20000
H7    2    0.308507    1.235332    0.092889    11.00000   -1.20000
AFIX   0
C7    1    0.439762    1.145751    0.208574    11.00000    0.01501    0.01252 =
         0.01636    0.00059    0.00423   -0.00254
C8    1    0.585908    1.065459    0.350493    11.00000    0.01677    0.01407 =
         0.01334   -0.00106    0.00500   -0.00406
C9    1    0.692390    1.001162    0.401730    11.00000    0.01607    0.01209 =
         0.01655   -0.00166    0.00475   -0.00253
C10   1    0.731344    0.970272    0.521568    11.00000    0.02104    0.01748 =
         0.01642   -0.00377    0.00575   -0.00224
AFIX  43
H8    2    0.688864    0.991993    0.570161    11.00000   -1.20000
AFIX   0
C11   1    0.831229    0.908356    0.569779    11.00000    0.02422    0.02122 =
         0.01659   -0.00092   -0.00079   -0.00118
AFIX  43
H9    2    0.856333    0.887503    0.651045    11.00000   -1.20000
AFIX   0
C12   1    0.894894    0.876520    0.500833    11.00000    0.01831    0.02422 =
         0.03074    0.00356    0.00311    0.00342
AFIX  43
H2    2    0.963229    0.833804    0.534284    11.00000   -1.20000
AFIX   0
C13   1    0.757472    0.969040    0.333203    11.00000    0.02241    0.02457 =
         0.01937    0.00471    0.00949    0.00372
AFIX  43
H11   2    0.732810    0.989420    0.251836    11.00000   -1.20000
AFIX   0
C14   1    0.857757    0.907704    0.382440    11.00000    0.02469    0.03090 =
         0.03222    0.00516    0.01580    0.00802
AFIX  43
H10   2    0.901258    0.886943    0.334664    11.00000   -1.20000
AFIX   0
C15   1    0.519687    1.125958    0.403551    11.00000    0.02051    0.02039 =
         0.01358   -0.00120    0.00646    0.00080
AFIX  43
H13   2    0.533389    1.132553    0.485806    11.00000   -1.20000
AFIX   0
C16   1    0.427758    1.176572    0.314417    11.00000    0.01806    0.01801 =
         0.01798   -0.00114    0.00726    0.00105
AFIX  43
H12   2    0.368693    1.223216    0.325679    11.00000   -1.20000
AFIX   0
C17   1    0.307766    0.861857    0.182292    11.00000    0.01543    0.01592 =
         0.02029   -0.00237    0.00663    0.00137
AFIX  43
H16   2    0.381228    0.845919    0.184626    11.00000   -1.20000
AFIX   0
C18   1    0.262522    0.795494    0.254932    11.00000    0.02007    0.01452 =
         0.02195    0.00140    0.00794    0.00349
AFIX  43
H15   2    0.306385    0.734942    0.308719    11.00000   -1.20000
AFIX   0
HKLF 4 1 1 0 0 0 1 0 0 0 1

REM  140820LT in P2(1)/c
REM R1 =  0.0320 for    2778 Fo > 4sig(Fo)  and  0.0372 for all    3143 data
REM    200 parameters refined using      0 restraints

END

WGHT      0.0367      0.9568

REM Highest difference peak  0.367,  deepest hole -0.348,  1-sigma level  0.045
Q1    1   0.2635  0.9860  0.0589  11.00000  0.05    0.37
Q2    1   0.3313  1.1061  0.0572  11.00000  0.05    0.32
Q3    1   0.4053  1.1522  0.1523  11.00000  0.05    0.28
Q4    1   0.6418  1.0327  0.3778  11.00000  0.05    0.28
Q5    1   0.4170  1.1358  0.2575  11.00000  0.05    0.26
;
_shelx_res_checksum              91951
_shelx_hkl_file
;
   0   0  -1    0.03    0.05
   0   0  -1   -0.01    0.05
   0   0  -2   67.62    1.10
   0   0  -3   -0.04    0.14
   0   0  -3   -0.09    0.13
   0   0  -4   27.49    0.79
   0   0  -4   28.00    0.83
   0   0  -5   -0.46    0.13
   0   0  -5   -0.37    0.13
   0   0  -6   27.40    0.97
   0   0  -6   28.18    1.02
   0   0  -7   -0.12    0.18
   0   0  -7    0.03    0.21
   0   0  -8   74.93    2.01
   0   0  -8   75.41    1.92
   0   0  -9    0.39    0.34
   0   0  -9    0.17    0.26
   0   0 -10  157.53    3.32
   0   0 -11   -0.18    0.27
   0   0 -12  179.40    3.95
   0   0 -13    0.21    0.40
   0   0 -14    3.42    0.72
   0   1  -1  133.79    1.73
   0  -1   1  129.76    1.72
   0  -1  -1  134.76    1.68
   0  -1  -1  131.49    1.84
   0   1  -2   18.25    0.38
   0   1  -2   17.31    0.49
   0  -1  -2   17.88    0.52
   0   1  -3   75.77    1.33
   0   1  -3   74.69    1.36
   0   1  -3   74.34    1.05
   0   1  -3   73.82    1.05
   0  -1  -3   75.92    1.39
   0   1  -4    3.40    0.37
   0   1  -4    2.98    0.15
   0   1  -4    2.49    0.31
   0   1  -4    2.69    0.15
   0  -1  -4    2.48    0.32
   0   1  -5  126.03    2.30
   0   1  -5  127.06    2.22
   0   1  -5  127.48    1.66
   0   1  -5  126.98    1.66
   0  -1  -5  127.14    2.30
   0   1  -6    6.81    0.24
   0   1  -6    7.29    0.51
   0   1  -6    6.43    0.23
   0   1  -6    6.19    0.58
   0  -1  -6    6.65    0.52
   0   1  -7    0.02    0.07
   0   1  -7    0.18    0.24
   0   1  -7    0.21    0.09
   0   1  -7   -0.19    0.16
   0  -1  -7    0.09    0.23
   0   1  -8    0.48    0.31
   0   1  -8    0.90    0.14
   0   1  -8    0.66    0.29
   0   1  -8    0.72    0.13
   0  -1  -8    0.77    0.33
   0   1  -9   97.40    1.47
   0   1  -9   95.07    2.44
   0   1  -9   91.53    2.28
   0   1  -9   93.01    1.44
   0  -1  -9   97.08    2.40
   0   1 -10   24.74    0.63
   0   1 -10   24.93    1.20
   0   1 -10   24.52    1.29
   0   1 -10   23.48    0.61
   0  -1 -10   25.65    1.25
   0   1 -11   39.17    1.60
   0   1 -11   42.31    0.91
   0   1 -11   41.71    1.76
   0  -1 -11   41.31    1.66
   0   1 -12    4.61    0.36
   0  -1 -12    4.27    0.73
   0   1 -13    6.76    0.42
   0  -1 -13    7.20    0.96
   0   1 -14    1.82    0.28
   0  -1 -14    1.52    0.58
   0   2   1    0.11    0.11
   0   2  -1    0.16    0.12
   0  -2  -1    0.03    0.15
   0  -2   1    0.04    0.11
   0  -2  -1   -0.15    0.10
   0  -2   2 1000.00   11.83
   0   2  -3    9.34    0.36
   0   2  -3    8.34    0.42
   0  -2  -3    9.09    0.28
   0  -2  -3    8.26    0.48
   0  -2  -3    9.29    0.28
   0   2  -4    0.24    0.12
   0   2  -4    0.18    0.17
   0  -2  -4    0.41    0.09
   0  -2  -4    0.16    0.07
   0  -2  -4    0.25    0.19
   0   2  -5   62.08    1.47
   0   2  -5   64.42    1.13
   0   2  -5   63.73    1.13
   0  -2  -5   65.99    1.55
   0   2  -6   51.40    1.00
   0   2  -6   50.14    1.40
   0   2  -6   51.65    1.00
   0  -2  -6   51.21    1.44
   0   2  -7   28.76    1.11
   0   2  -7   26.71    0.69
   0   2  -7   27.14    0.70
   0  -2  -7   28.36    1.12
   0   2  -8   97.09    2.34
   0   2  -8   99.23    1.65
   0   2  -8   96.35    1.62
   0  -2  -8   96.91    2.35
   0   2  -9    1.49    0.23
   0   2  -9    1.72    0.25
   0   2  -9    1.34    0.42
   0  -2  -9    2.61    0.53
   0   2 -10   71.97    2.21
   0   2 -10   73.12    1.42
   0  -2 -10   70.13    2.16
   0   2 -11   10.57    0.54
   0   2 -11   10.54    1.06
   0  -2 -11   13.03    1.01
   0   2 -12   15.10    0.65
   0   2 -12   14.12    1.15
   0  -2 -12   14.71    1.14
   0   2 -13    2.45    0.34
   0  -2 -13    3.13    0.70
   0   2 -14    5.35    0.49
   0  -2 -14    5.38    0.90
   0   3   0    0.51    0.16
   0  -3   0    0.01    0.14
   0   3  -1  129.22    2.01
   0   3   1  127.99    1.93
   0  -3   1  127.35    2.00
   0  -3  -1  129.13    2.14
   0  -3  -1  132.69    1.99
   0   3  -2  383.94    5.07
   0   3   2  395.49    4.90
   0  -3  -2  393.14    5.30
   0  -3  -2  387.20    4.97
   0  -3   2  393.00    5.05
   0   3  -3  275.88    3.87
   0   3  -3  277.68    3.81
   0  -3  -3  273.21    3.64
   0  -3   3  282.28    3.73
   0  -3  -3  283.19    4.12
   0   3  -4   19.81    0.64
   0   3  -4   19.16    0.71
   0  -3  -4   17.75    0.78
   0  -3  -4   19.51    0.52
   0  -3  -4   19.92    0.53
   0   3  -5   23.37    0.71
   0   3  -5   24.18    0.88
   0  -3  -5   23.32    0.56
   0  -3  -5   22.61    0.94
   0  -3  -5   23.44    0.57
   0   3  -6   28.15    0.81
   0   3  -6   29.26    1.05
   0  -3  -6   29.56    0.63
   0  -3  -6   26.08    1.08
   0  -3  -6   28.06    0.62
   0   3  -7   62.65    1.34
   0   3  -7   64.64    1.74
   0  -3  -7   62.66    1.04
   0  -3  -7   63.18    1.80
   0  -3  -7   62.67    1.05
   0   3  -8    9.62    0.50
   0   3  -8   10.88    0.55
   0   3  -8   10.25    0.77
   0  -3  -8   10.21    0.35
   0  -3  -8    9.80    0.82
   0  -3  -8    9.90    0.35
   0   3  -9   70.02    1.51
   0   3  -9   71.93    2.10
   0  -3  -9   68.47    2.09
   0   3 -10   77.24    1.65
   0   3 -10   73.90    2.27
   0  -3 -10   77.28    2.33
   0   3 -11   14.14    0.69
   0   3 -11   13.74    1.08
   0  -3 -11   15.14    1.11
   0   3 -12    0.22    0.38
   0   3 -12    0.13    0.22
   0  -3 -12   -0.11    0.36
   0   3 -13    3.76    0.47
   0   3 -13    3.26    0.75
   0  -3 -13    3.24    0.72
   0   4   0    0.24    0.16
   0  -4   0    0.47    0.18
   0   4  -1    4.77    0.38
   0   4   1    5.26    0.35
   0  -4  -1    5.74    0.46
   0  -4   1    6.18    0.41
   0  -4  -1    5.25    0.37
   0   4   2   95.34    1.60
   0   4  -2   89.59    1.71
   0  -4  -2   90.78    1.88
   0  -4   2   93.07    1.71
   0  -4  -2   94.52    1.68
   0   4  -3  164.29    2.67
   0  -4   3  169.56    2.62
   0  -4  -3  167.50    2.55
   0  -4  -3  168.87    2.94
   0   4  -4   23.85    0.81
   0   4  -4   24.16    0.83
   0  -4  -4   25.18    0.72
   0  -4  -4   25.32    0.99
   0  -4   4   25.44    0.75
   0   4  -5  154.97    2.77
   0   4  -5  157.83    2.63
   0  -4  -5  157.36    2.40
   0  -4  -5  162.57    3.05
   0   4  -6   28.88    1.07
   0   4  -6   28.86    0.93
   0  -4  -6   28.67    0.76
   0  -4  -6   28.27    1.18
   0  -4  -6   29.24    0.77
   0   4  -7    7.73    0.71
   0   4  -7    8.88    0.56
   0  -4  -7    8.76    0.42
   0  -4  -7    9.30    0.44
   0  -4  -7    8.04    0.77
   0   4  -8   46.27    1.57
   0   4  -8   45.80    1.27
   0  -4  -8   45.27    1.00
   0  -4  -8   46.00    1.68
   0  -4  -8   46.02    1.00
   0   4  -9  181.04    3.70
   0   4  -9  185.37    3.13
   0  -4  -9  184.38    3.87
   0  -4  -9  183.29    3.22
   0  -4  -9  183.40    2.69
   0   4 -10    1.22    0.47
   0   4 -10    1.44    0.33
   0  -4 -10    0.36    0.39
   0  -4 -10    0.92    0.21
   0   4 -11    0.72    0.29
   0   4 -11    0.34    0.40
   0  -4 -11    1.25    0.23
   0  -4 -11    1.65    0.53
   0   4 -12    5.25    0.57
   0   4 -12    5.05    0.83
   0  -4 -12    4.87    0.39
   0  -4 -12    4.94    0.82
   0   4 -13    0.43    0.29
   0   4 -13   -0.20    0.37
   0  -4 -13    0.28    0.41
   0  -4 -13    0.34    0.19
   0   5   0    0.12    0.17
   0  -5   0   -0.20    0.16
   0   5   1   45.07    1.13
   0   5  -1   45.81    1.19
   0  -5  -1   46.76    1.19
   0  -5   1   45.71    1.19
   0  -5  -1   47.81    1.34
   0   5   2    0.81    0.22
   0   5  -2    0.80    0.25
   0  -5  -2    1.00    0.24
   0  -5  -2    0.76    0.29
   0  -5   2    1.10    0.26
   0   5   3   93.77    1.65
   0   5  -3   88.40    1.87
   0  -5   3   90.97    1.81
   0  -5  -3   91.86    1.79
   0  -5  -3   90.97    2.09
   0   5  -4   33.48    1.06
   0   5  -4   35.16    1.06
   0  -5   4   35.49    1.02
   0  -5  -4   36.26    1.00
   0  -5  -4   34.70    1.27
   0   5  -5    8.93    0.58
   0   5  -5    9.34    0.61
   0  -5   5    8.23    0.50
   0  -5  -5   10.05    0.77
   0  -5  -5    8.67    0.50
   0   5  -6   45.65    1.30
   0   5  -6   43.57    1.37
   0  -5  -6   42.82    1.55
   0  -5  -6   44.25    1.12
   0   5  -7   30.37    1.21
   0   5  -7   29.98    1.07
   0  -5  -7   30.68    1.37
   0  -5  -7   30.62    0.91
   0  -5  -7   28.74    0.88
   0   5  -8   52.70    1.70
   0   5  -8   51.34    1.47
   0  -5  -8   51.26    1.23
   0  -5  -8   51.06    1.85
   0   5  -9   11.23    0.90
   0   5  -9   10.28    0.71
   0  -5  -9   12.08    1.14
   0  -5  -9   12.99    0.61
   0   5 -10    0.80    0.42
   0   5 -10    1.10    0.35
   0  -5 -10    0.57    0.45
   0  -5 -10    1.07    0.26
   0   5 -11    2.42    0.45
   0   5 -11    2.64    0.64
   0  -5 -11    1.67    0.57
   0  -5 -11    1.66    0.30
   0   5 -12    9.59    0.76
   0   5 -12    9.88    1.07
   0  -5 -12   11.30    0.59
   0  -5 -12   10.17    1.18
   0   5 -13    1.29    0.57
   0   5 -13    1.58    0.42
   0  -5 -13    1.86    0.65
   0  -5 -13    2.44    0.34
   0   6   0    0.43    0.22
   0  -6   0    0.34    0.22
   0  -6   0    0.65    0.31
   0   6   1    9.96    0.58
   0   6  -1    8.72    0.59
   0  -6  -1    9.62    0.70
   0  -6  -1   10.21    0.61
   0  -6   1   10.06    0.61
   0   6  -2    1.51    0.32
   0   6   2    1.83    0.31
   0  -6  -2    2.10    0.35
   0  -6  -2    1.48    0.40
   0  -6   2    1.23    0.30
   0   6  -3    2.05    0.38
   0   6   3    2.84    0.36
   0  -6  -3    1.25    0.37
   0  -6  -3    1.49    0.30
   0  -6   3    1.89    0.34
   0   6   4   27.26    1.14
   0   6  -4   27.14    1.05
   0  -6   4   27.24    0.98
   0  -6  -4   28.57    0.97
   0  -6  -4   29.82    1.26
   0   6  -5    0.43    0.27
   0   6  -5    0.59    0.27
   0  -6  -5    0.26    0.34
   0  -6  -5    0.21    0.22
   0  -6   5    0.58    0.25
   0   6  -6    0.24    0.27
   0   6  -6   -0.16    0.21
   0  -6  -6   -0.02    0.33
   0  -6  -6    0.39    0.24
   0   6  -7  141.00    2.86
   0   6  -7  142.81    2.98
   0  -6  -7  142.69    3.32
   0  -6  -7  145.69    2.60
   0   6  -8    1.58    0.44
   0   6  -8    1.66    0.41
   0  -6  -8    1.50    0.32
   0  -6  -8    1.96    0.54
   0   6  -9   22.70    1.08
   0   6  -9   22.48    1.21
   0  -6  -9   23.01    0.90
   0  -6  -9   20.81    1.31
   0   6 -10   15.77    1.12
   0   6 -10   19.03    1.02
   0  -6 -10   20.62    1.36
   0  -6 -10   18.15    0.81
   0   6 -11   16.58    1.20
   0   6 -11   16.47    0.98
   0  -6 -11   16.47    1.30
   0  -6 -11   15.41    0.76
   0   6 -12    0.18    0.41
   0   6 -12    0.02    0.32
   0  -6 -12   -0.17    0.39
   0  -6 -12   -0.08    0.22
   0   7   0    0.15    0.22
   0  -7   0   -0.35    0.26
   0  -7   0   -0.14    0.22
   0   7   1   23.49    0.93
   0   7  -1   24.60    1.00
   0  -7   1   24.59    1.01
   0  -7  -1   24.25    1.01
   0  -7  -1   24.21    1.14
   0   7   2    0.94    0.29
   0   7  -2    0.87    0.31
   0  -7  -2    0.83    0.30
   0  -7   2    0.67    0.30
   0  -7  -2    1.34    0.44
   0   7  -3   14.50    0.84
   0   7   3   15.69    0.73
   0  -7   3   15.28    0.81
   0  -7  -3   16.63    1.02
   0  -7  -3   14.88    0.81
   0   7   4   18.36    0.75
   0   7  -4   16.83    0.92
   0  -7  -4   18.04    1.09
   0  -7   4   18.42    0.88
   0  -7  -4   18.18    0.88
   0   7  -5    3.87    0.51
   0   7  -5    3.54    0.54
   0  -7   5    4.18    0.51
   0  -7  -5    3.26    0.63
   0  -7  -5    3.55    0.49
   0   7  -6   15.53    0.93
   0   7  -6   15.98    0.91
   0  -7  -6   14.66    1.08
   0  -7  -6   14.52    0.82
   0   7  -7   -0.11    0.26
   0   7  -7    0.57    0.32
   0  -7  -7   -0.34    0.31
   0  -7  -7    0.33    0.25
   0   7  -8    6.17    0.72
   0   7  -8    5.65    0.74
   0  -7  -8    5.46    0.57
   0  -7  -8    3.85    0.69
   0   7  -9   12.41    0.98
   0   7  -9    9.64    0.89
   0  -7  -9   10.86    0.73
   0  -7  -9   12.06    1.20
   0   7 -10    0.88    0.40
   0   7 -10    1.04    0.45
   0  -7 -10    1.13    0.53
   0  -7 -10    0.45    0.31
   0   7 -11    9.14    1.05
   0   7 -11   10.16    0.95
   0  -7 -11    9.61    1.17
   0  -7 -11   10.90    0.74
   0   7 -12    0.98    0.54
   0   7 -12    0.88    0.41
   0  -7 -12    2.58    0.71
   0  -7 -12    1.72    0.41
   0   8   0   19.67    0.97
   0  -8   0   22.25    1.18
   0  -8   0   21.33    1.04
   0   8   1    1.34    0.36
   0   8  -1    1.93    0.41
   0  -8   1    0.64    0.38
   0  -8   1    1.83    0.42
   0  -8  -1    1.67    0.41
   0  -8  -1    2.30    0.54
   0   8   2    3.23    0.47
   0   8  -2    3.12    0.51
   0  -8  -2    2.91    0.58
   0  -8   2    2.75    0.51
   0  -8  -2    3.59    0.52
   0   8   3    3.56    0.48
   0   8  -3    3.14    0.52
   0  -8   3    3.66    0.54
   0  -8  -3    3.68    0.53
   0  -8  -3    4.07    0.71
   0   8  -4   14.57    0.91
   0  -8  -4   13.81    0.86
   0  -8  -4   13.78    1.06
   0  -8   4   15.03    0.88
   0   8  -5   12.44    0.87
   0   8  -5   13.02    0.82
   0  -8   5   10.13    0.76
   0  -8  -5    9.65    1.00
   0  -8  -5   13.04    0.84
   0   8  -6    3.83    0.56
   0   8  -6    4.66    0.66
   0  -8  -6    4.89    0.78
   0  -8  -6    4.25    0.58
   0   8  -7    9.55    0.89
   0   8  -7    8.98    0.87
   0  -8  -7    8.59    0.76
   0  -8  -7   10.01    1.14
   0   8  -8   11.72    1.02
   0   8  -8    9.66    0.95
   0  -8  -8   10.88    0.79
   0  -8  -8   11.83    1.24
   0   8  -9   13.45    1.00
   0   8  -9   11.23    1.07
   0  -8  -9   10.15    1.16
   0  -8  -9   10.78    0.81
   0   8 -10    9.16    1.01
   0   8 -10    7.24    0.84
   0  -8 -10    7.34    1.02
   0  -8 -10    8.56    0.80
   0   8 -11   24.05    1.33
   0   8 -11   25.01    1.46
   0  -8 -11   23.21    1.65
   0  -8 -11   23.42    1.13
   0   9   0   -0.06    0.28
   0  -9   0    0.42    0.40
   0  -9   0   -0.13    0.27
   0   9   1   69.68    1.91
   0   9  -1   73.08    2.04
   0  -9  -1   67.47    2.00
   0  -9   1   69.74    2.04
   0  -9  -1   73.43    2.28
   0  -9   1   72.08    2.22
   0   9  -2    5.10    0.69
   0   9   2    6.04    0.67
   0  -9  -2    3.74    0.69
   0  -9   2    5.02    0.66
   0  -9  -2    4.78    0.66
   0   9  -3   34.16    1.44
   0  -9  -3   38.24    1.69
   0  -9  -3   32.39    1.37
   0  -9   3   35.67    1.41
   0   9  -4    2.80    0.57
   0  -9  -4    3.48    0.58
   0  -9  -4    2.98    0.66
   0  -9   4    3.09    0.57
   0   9  -5    4.04    0.59
   0   9  -5    2.59    0.56
   0  -9  -5    3.11    0.55
   0  -9  -5    2.96    0.68
   0   9  -6   11.27    1.01
   0   9  -6   12.24    0.88
   0  -9  -6   15.12    0.96
   0  -9  -6   12.37    1.22
   0   9  -7   -0.26    0.29
   0   9  -7    0.34    0.38
   0  -9  -7   -0.07    0.28
   0  -9  -7    0.25    0.47
   0   9  -8   28.01    1.44
   0   9  -8   31.83    1.45
   0  -9  -8   29.81    1.34
   0  -9  -8   30.47    1.74
   0   9  -9   52.77    1.94
   0   9  -9   52.08    1.97
   0  -9  -9   52.25    2.31
   0  -9  -9   50.35    1.74
   0   9 -10    6.38    0.87
   0   9 -10    5.92    0.87
   0  -9 -10    5.55    0.98
   0  -9 -10    7.55    0.83
   0  10   0   12.02    0.90
   0 -10   0   13.70    1.11
   0 -10   0   13.09    0.98
   0  10  -1    6.58    0.77
   0  10   1    6.62    0.75
   0 -10   1    7.70    0.88
   0 -10  -1    5.95    0.87
   0 -10   1    5.39    0.85
   0 -10  -1    5.69    0.76
   0  10  -2   15.32    1.05
   0 -10  -2   17.34    1.25
   0 -10   2   16.54    1.21
   0 -10   2   17.12    1.07
   0 -10  -2   16.79    1.07
   0  10  -3    3.90    0.67
   0 -10  -3    3.32    0.71
   0 -10   3    3.22    0.62
   0 -10  -3    3.33    0.61
   0  10  -4    9.66    0.96
   0 -10  -4   10.78    1.20
   0 -10  -4   11.91    1.05
   0 -10   4   12.48    1.14
   0  10  -5   10.02    0.80
   0  10  -5   10.68    1.07
   0 -10  -5    8.72    1.08
   0 -10  -5   10.56    0.98
   0  10  -6   78.46    2.45
   0  10  -6   76.30    2.16
   0 -10  -6   76.33    2.72
   0 -10  -6   76.69    2.29
   0  10  -7    1.34    0.49
   0  10  -7    1.42    0.47
   0 -10  -7    1.63    0.50
   0 -10  -7    1.18    0.62
   0  10  -8    0.94    0.45
   0  10  -8    1.09    0.49
   0 -10  -8    1.01    0.45
   0 -10  -8    2.29    0.73
   0  10  -9    7.36    0.92
   0  10  -9    6.96    0.97
   0 -10  -9    7.64    1.15
   0 -10  -9    8.34    0.90
   0  11   0   -0.18    0.35
   0 -11   0   -0.03    0.47
   0 -11   0    0.00    0.35
   0  11  -1   33.51    1.51
   0 -11   1   30.50    1.50
   0 -11  -1   32.18    1.53
   0 -11   1   28.68    1.63
   0 -11  -1   32.52    1.72
   0  11  -2    0.29    0.38
   0 -11  -2    0.37    0.52
   0 -11   2   -0.12    0.44
   0 -11  -2    0.63    0.44
   0 -11   2   -0.11    0.37
   0  11  -3    4.55    0.73
   0 -11  -3    3.07    0.77
   0 -11  -3    3.25    0.65
   0 -11   3    3.95    0.70
   0 -11   3    3.83    0.77
   0  11  -4    0.76    0.45
   0 -11  -4    0.42    0.53
   0 -11  -4    1.32    0.48
   0  11  -5   18.33    1.27
   0  11  -5   18.82    1.08
   0 -11  -5   20.65    1.52
   0 -11  -5   20.55    1.28
   0  11  -6    0.38    0.46
   0  11  -6    0.03    0.34
   0 -11  -6   -0.06    0.49
   0 -11  -6    0.33    0.38
   0  11  -7    4.62    0.81
   0  11  -7    3.80    0.65
   0 -11  -7    4.68    0.75
   0 -11  -7    4.88    0.97
   0 -12   0    4.80    0.80
   0 -12   0    6.32    1.01
   0  12  -1    9.98    1.07
   0 -12   1   14.42    1.28
   0 -12  -1   11.21    1.17
   0 -12  -1   10.80    1.29
   0 -12   1   11.93    1.27
   0  12  -2   40.04    1.76
   0 -12  -2   35.06    1.73
   0 -12   2   33.62    1.83
   0 -12   2   39.82    1.82
   0 -12  -2   35.43    1.95
   0  12  -3    8.35    1.02
   0 -12  -3    7.28    1.07
   0 -12  -3    8.40    1.03
   0 -12   3    9.43    1.22
   0  12  -4   49.10    2.02
   0 -12  -4   51.87    2.06
   0 -12  -4   47.25    2.26
   0 -12   4   44.45    2.12
   0  12  -5    1.67    0.61
   0 -12  -5    1.03    0.51
   0 -12  -5    0.79    0.58
   0 -13   0    0.37    0.50
   0 -13   0    0.35    0.60
   0 -13   1   10.50    1.16
   0 -13  -1   12.25    1.28
   0 -13  -1   11.50    1.40
   0 -13   1   11.40    1.37
   0  13  -2    2.98    0.74
   0 -13  -2    2.24    0.67
   0 -13   2    1.84    0.71
   0 -13  -2    2.20    0.78
   0 -13   2    2.90    0.87
   1   0 -14    0.32    0.43
   1   0 -13   -0.26    0.29
   1   0 -12   37.18    1.68
   1   0 -11   -0.24    0.26
   1   0 -10    7.15    0.80
   1   0  -9    0.22    0.29
   1   0  -8    5.49    0.62
   1   0  -7   -0.06    0.20
   1   0  -6  105.08    2.13
   1   0  -5    0.13    0.17
   1   0  -5    0.06    0.15
   1   0  -4  226.72    3.33
   1   0  -3    0.25    0.16
   1   0  -2  382.15    4.48
   1   0  -2  384.95    4.80
   1   0  -1    0.60    0.06
  -1   0   1    0.57    0.06
   1   0  -1    0.72    0.09
   1   0   0  223.74    2.73
  -1   0   0  225.29    2.72
  -1   0  -1   -0.11    0.04
  -1   0  -1   -0.12    0.06
  -1   0  -1   -0.04    0.05
  -1   0  -2  207.89    2.85
  -1   0  -2  210.56    2.49
  -1   0  -2  204.61    2.49
  -1   0  -2  210.09    2.71
  -1   0  -3    0.03    0.13
  -1   0  -3   -0.12    0.11
  -1   0  -4   10.62    0.54
  -1   0  -4   11.68    0.50
  -1   0  -5   -0.15    0.13
  -1   0  -5    0.00    0.16
  -1   0  -6   38.11    1.13
  -1   0  -6   39.64    1.24
  -1   0  -7    0.00    0.19
  -1   0  -7    0.04    0.24
  -1   0  -8    2.45    0.42
  -1   0  -8    2.15    0.45
  -1   0  -9   -0.41    0.22
  -1   0  -9    0.32    0.33
  -1   0 -10   25.80    1.35
  -1   0 -10   25.96    1.21
  -1   0 -11   -0.08    0.29
  -1   0 -12   23.58    1.32
  -1   0 -13    0.06    0.36
   1   1 -14   24.45    0.76
   1  -1 -14   26.73    1.58
   1   1 -13    0.81    0.21
   1  -1 -13    0.41    0.39
   1   1 -12    4.29    0.33
   1  -1 -12    3.98    0.70
   1   1 -11   30.94    0.74
   1   1 -11   31.89    1.45
   1  -1 -11   29.03    1.43
   1   1 -10   48.70    0.93
   1   1 -10   49.73    0.95
   1   1 -10   52.39    1.77
   1  -1 -10   51.46    1.79
   1   1  -9    9.83    0.35
   1   1  -9    9.34    0.76
   1   1  -9    9.38    0.36
   1   1  -9   10.65    0.82
   1  -1  -9    8.92    0.86
   1   1  -8   19.64    0.48
   1   1  -8   19.11    0.47
   1   1  -8   19.48    0.97
   1   1  -8   18.76    0.96
   1  -1  -8   20.26    0.99
   1   1  -7   12.14    0.34
   1   1  -7   11.60    0.70
   1   1  -7   11.03    0.33
   1   1  -7   11.25    0.69
   1  -1  -7   11.14    0.73
   1   1  -6   18.23    0.41
   1   1  -6   17.45    0.78
   1   1  -6   16.72    0.77
   1   1  -6   18.69    0.42
   1  -1  -6   17.10    0.79
   1   1  -5   27.30    0.52
   1   1  -5   27.44    0.88
   1   1  -5   27.70    0.53
   1   1  -5   27.75    0.90
   1  -1  -5   27.85    0.93
   1   1  -4    2.62    0.16
   1   1  -4    2.35    0.29
   1   1  -4    2.88    0.33
   1   1  -4    2.52    0.16
   1  -1  -4    2.58    0.32
   1   1  -3  203.98    2.56
   1   1  -3  196.43    2.54
   1   1  -3  200.76    2.80
   1  -1  -3  203.17    2.92
   1   1  -2  249.24    3.10
   1   1  -2  247.42    3.15
   1  -1  -2  251.17    3.01
   1  -1  -2  243.67    3.01
   1  -1  -2  249.79    3.31
  -1   1   1    2.91    0.15
   1   1  -1    3.04    0.12
  -1   1   1    2.98    0.15
   1   1  -1    3.41    0.17
   1  -1  -1    3.14    0.16
   1  -1  -1    3.06    0.19
  -1  -1   1    3.05    0.16
   1   1   0   -0.43    0.07
  -1   1   0   -0.48    0.07
  -1  -1   0   -0.31    0.08
   1  -1   0   -0.25    0.08
   1  -1   0   -0.22    0.08
  -1   1  -1   39.74    0.69
  -1  -1  -1   40.01    0.76
  -1  -1  -1   40.33    0.71
   1  -1   1   40.37    0.69
  -1  -1  -1   40.90    0.66
  -1   1  -2  572.14    7.07
  -1  -1  -2  576.12    7.01
  -1  -1  -2  564.04    6.68
  -1  -1  -2  569.49    7.01
  -1   1  -3  136.02    2.20
  -1   1  -3  138.43    1.84
  -1   1  -3  137.31    2.02
  -1   1  -3  137.62    1.84
  -1  -1  -3  136.73    2.18
  -1  -1  -3  137.29    2.14
  -1   1  -4   82.87    1.24
  -1   1  -4   87.63    1.26
  -1   1  -4   87.01    1.55
  -1   1  -4   86.41    1.71
  -1  -1  -4   86.31    1.70
  -1  -1  -4   87.73    1.64
  -1   1  -5  338.51    4.20
  -1   1  -5  341.57    4.72
  -1   1  -5  336.37    4.93
  -1   1  -5  343.11    4.21
  -1  -1  -5  345.48    4.96
  -1  -1  -5  339.66    4.83
  -1   1  -6   13.36    0.65
  -1   1  -6   12.24    0.36
  -1   1  -6   13.06    0.38
  -1   1  -6   14.09    0.75
  -1  -1  -6   12.90    0.69
  -1  -1  -6   13.27    0.73
  -1   1  -7   23.54    1.04
  -1   1  -7   23.37    0.55
  -1   1  -7   24.83    0.95
  -1   1  -7   24.19    0.57
  -1  -1  -7   23.90    0.99
  -1  -1  -7   24.02    1.05
  -1   1  -8    1.31    0.18
  -1   1  -8    0.66    0.28
  -1   1  -8    1.39    0.18
  -1   1  -8    1.65    0.43
  -1  -1  -8    1.42    0.42
  -1  -1  -8    1.37    0.36
  -1   1  -9   44.96    1.50
  -1   1  -9   42.67    0.88
  -1   1  -9   45.74    1.67
  -1   1  -9   45.83    0.92
  -1  -1  -9   44.82    1.56
  -1   1 -10    7.63    0.39
  -1   1 -10    6.73    0.85
  -1   1 -10    7.10    0.75
  -1  -1 -10    7.19    0.79
  -1   1 -11    5.43    0.72
  -1   1 -11    4.49    0.76
  -1   1 -11    5.52    0.38
  -1  -1 -11    5.06    0.73
  -1   1 -12    1.81    0.27
  -1   1 -12    1.62    0.61
  -1  -1 -12    2.12    0.56
  -1   1 -13   27.85    0.82
  -1  -1 -13   27.86    1.50
   1   2 -14    0.71    0.25
   1  -2 -14    0.35    0.46
   1   2 -13   43.18    1.14
   1  -2 -13   43.69    1.94
   1   2 -12    2.91    0.35
   1  -2 -12    2.98    0.65
   1   2 -11    4.56    0.73
   1   2 -11    5.41    0.43
   1  -2 -11    4.53    0.73
   1   2 -10    6.52    0.42
   1   2 -10    8.20    0.88
   1  -2 -10    6.44    0.79
   1   2  -9    9.56    0.44
   1   2  -9   10.15    0.81
   1   2  -9   10.15    0.46
   1  -2  -9   10.38    0.84
   1   2  -8   21.19    0.63
   1   2  -8   19.77    0.60
   1   2  -8   21.48    1.02
   1  -2  -8   19.86    1.04
   1   2  -7   20.17    0.58
   1   2  -7   21.72    0.61
   1   2  -7   18.99    0.89
   1  -2  -7   21.62    0.99
   1   2  -6  111.16    1.70
   1   2  -6  109.01    2.15
   1   2  -6  100.86    1.65
   1  -2  -6  109.00    2.27
   1   2  -5   22.94    0.60
   1   2  -5   22.29    0.59
   1   2  -5   22.56    0.79
   1  -2  -5   21.88    0.86
   1  -2  -5   23.18    0.42
   1  -2  -5   21.53    0.41
   1   2  -4  315.19    4.32
   1   2  -4  317.57    4.09
   1  -2  -4  310.16    3.86
   1  -2  -4  322.01    3.88
   1   2  -3  101.62    1.57
   1   2  -3  100.87    1.63
   1  -2  -3  100.87    1.44
   1  -2  -3  102.65    1.46
   1  -2  -3  101.00    1.82
  -1  -2   3  105.38    1.54
   1   2  -2  153.73    2.19
  -1   2   2  157.94    2.09
   1   2  -2  150.63    2.10
  -1  -2   2  157.29    2.17
   1  -2  -2  157.69    2.38
   1  -2  -2  156.71    2.12
  -1   2   1  344.20    4.27
   1   2  -1  336.62    4.31
   1  -2  -1  344.45    4.40
  -1  -2   1  345.00    4.32
   1  -2  -1  337.18    4.29
  -1   2   0   44.37    0.85
   1   2   0   43.72    0.83
   1  -2   0   43.11    0.84
  -1   2  -1  909.68   10.85
  -1   2  -2  217.31    2.92
   1  -2   2  214.27    2.87
  -1  -2  -2  214.69    2.80
  -1  -2  -2  219.09    3.12
  -1   2  -3   45.83    1.09
  -1   2  -3   44.93    0.90
  -1  -2  -3   45.72    0.78
  -1  -2  -3   44.39    1.09
  -1  -2  -3   45.48    0.78
  -1   2  -4    2.75    0.35
  -1   2  -4    2.93    0.25
  -1  -2  -4    2.34    0.33
  -1  -2  -4    2.79    0.17
  -1  -2  -4    2.50    0.17
  -1   2  -5   31.04    1.03
  -1   2  -5   28.09    0.71
  -1   2  -5   31.09    0.74
  -1  -2  -5   30.32    0.53
  -1  -2  -5   31.41    0.54
  -1  -2  -5   30.28    1.01
  -1   2  -6    0.07    0.12
  -1   2  -6    0.32    0.23
  -1   2  -6   -0.04    0.10
  -1  -2  -6   -0.13    0.18
  -1   2  -7    1.46    0.22
  -1   2  -7    2.85    0.49
  -1   2  -7    1.86    0.23
  -1  -2  -7    2.10    0.40
  -1   2  -8   38.70    0.92
  -1   2  -8   35.38    0.87
  -1   2  -8   36.05    1.41
  -1  -2  -8   35.95    1.36
  -1   2  -9   15.92    1.03
  -1   2  -9   16.13    0.78
  -1   2  -9   16.88    0.63
  -1  -2  -9   14.77    0.96
  -1   2 -10    0.01    0.33
  -1   2 -10    0.18    0.18
  -1  -2 -10    0.04    0.32
  -1   2 -11    2.35    0.33
  -1   2 -11    2.12    0.58
  -1  -2 -11    1.84    0.51
  -1   2 -12   22.96    1.44
  -1   2 -12   25.17    0.86
  -1  -2 -12   25.17    1.41
  -1   2 -13    0.49    0.23
  -1   2 -13    1.00    0.53
  -1  -2 -13    0.44    0.39
   1   3 -14   24.26    0.98
   1  -3 -14   26.59    1.63
   1   3 -13   -0.02    0.22
   1  -3 -13    0.28    0.42
   1   3 -12   27.15    0.97
   1   3 -12   29.44    1.55
   1  -3 -12   28.80    1.55
   1   3 -11   20.34    1.24
   1   3 -11   21.38    0.83
   1  -3 -11   20.56    1.30
   1   3 -10    2.42    0.55
   1   3 -10    3.03    0.38
   1  -3 -10    2.88    0.61
   1   3  -9   14.98    0.65
   1   3  -9   13.91    0.92
   1  -3  -9   15.26    1.03
   1  -3  -9   13.61    0.42
   1  -3  -9   14.25    0.42
   1   3  -8    6.56    0.70
   1   3  -8    6.86    0.43
   1   3  -8    7.47    0.46
   1  -3  -8    7.66    0.31
   1  -3  -8    5.63    0.67
   1  -3  -8    6.70    0.30
   1   3  -7    2.48    0.31
   1   3  -7    2.63    0.43
   1  -3  -7    3.04    0.23
   1  -3  -7    3.61    0.54
   1  -3  -7    3.39    0.23
   1   3  -6   59.75    1.24
   1   3  -6   59.06    1.48
   1  -3  -6   55.46    0.99
   1  -3  -6   56.22    1.01
   1  -3  -6   58.13    1.62
   1   3  -5   24.34    0.83
   1   3  -5   24.97    0.73
   1  -3  -5   24.03    0.96
   1  -3  -5   23.73    0.59
   1  -3  -5   22.73    0.58
   1   3  -4    4.67    0.36
   1   3  -4    4.10    0.32
   1  -3  -4    5.22    0.52
  -1  -3   4    5.15    0.31
   1  -3  -4    4.98    0.29
   1   3  -3   25.07    0.71
   1   3  -3   24.97    0.68
  -1  -3   3   25.26    0.68
   1  -3  -3   25.30    0.86
   1  -3  -3   23.73    0.63
   1   3  -2  159.46    2.42
  -1   3   2  161.14    2.29
  -1  -3   2  162.34    2.40
   1  -3  -2  162.73    2.59
   1  -3  -2  162.28    2.36
  -1   3   1  208.17    2.88
   1   3  -1  206.23    2.93
   1  -3  -1  204.70    2.90
  -1  -3   1  207.93    2.93
   1  -3  -1  206.07    3.02
   1   3   0  291.70    3.88
  -1   3   0  282.05    3.87
   1  -3   0  289.39    3.91
   1  -3   0  297.19    3.95
  -1  -3   0  292.24    3.88
   1   3   1  330.58    4.27
  -1   3  -1  328.42    4.36
  -1  -3  -1  330.94    4.30
  -1  -3  -1  328.23    4.53
   1  -3   1  324.36    4.35
  -1   3  -2   14.93    0.55
   1   3   2   15.65    0.46
  -1  -3  -2   15.26    0.50
  -1  -3  -2   16.07    0.66
   1  -3   2   15.65    0.54
  -1   3  -3  117.28    1.93
   1  -3   3  116.58    1.85
  -1  -3  -3  116.90    1.78
  -1  -3  -3  115.22    2.15
  -1   3  -4  110.89    1.89
  -1   3  -4  111.06    2.11
  -1  -3  -4  110.77    1.71
  -1  -3  -4  111.05    2.19
  -1  -3  -4  110.46    1.70
  -1   3  -5   23.39    0.91
  -1   3  -5   22.00    0.71
  -1  -3  -5   21.56    0.56
  -1  -3  -5   21.97    0.93
  -1  -3  -5   22.55    0.57
  -1   3  -6   59.82    1.30
  -1   3  -6   59.93    1.63
  -1  -3  -6   62.10    1.08
  -1  -3  -6   60.73    1.07
  -1  -3  -6   60.61    1.66
  -1   3  -7   23.16    0.78
  -1   3  -7   22.20    1.04
  -1  -3  -7   22.69    0.57
  -1  -3  -7   21.02    1.05
  -1  -3  -7   22.88    0.57
  -1   3  -8   13.06    0.90
  -1   3  -8   11.46    0.60
  -1   3  -8   11.84    0.67
  -1  -3  -8   13.40    0.92
  -1  -3  -8   12.38    0.41
  -1  -3  -8   12.52    0.42
  -1   3  -9    4.96    0.47
  -1   3  -9    5.33    0.73
  -1  -3  -9    5.54    0.72
  -1  -3  -9    4.35    0.28
  -1  -3  -9    5.20    0.30
  -1   3 -10    3.39    0.42
  -1   3 -10    3.47    0.67
  -1  -3 -10    3.81    0.66
  -1  -3 -10    3.92    0.28
  -1   3 -11   48.76    1.32
  -1   3 -11   47.84    1.94
  -1  -3 -11   48.55    1.92
  -1  -3 -11   48.89    0.94
  -1   3 -12   13.28    1.29
  -1   3 -12   14.36    0.74
  -1  -3 -12   13.66    1.12
  -1   3 -13   -0.40    0.38
  -1   3 -13   -0.10    0.23
  -1  -3 -13   -0.35    0.34
   1   4 -13   18.58    0.91
   1   4 -13   17.03    1.29
   1  -4 -13   18.73    1.40
   1  -4 -13   18.71    0.63
   1   4 -12   -0.03    0.22
   1   4 -12    0.42    0.41
   1  -4 -12   -0.37    0.34
   1  -4 -12    0.08    0.16
   1   4 -11   18.70    1.21
   1   4 -11   18.53    0.86
   1  -4 -11   19.81    1.31
   1  -4 -11   18.93    0.63
   1   4 -10    1.04    0.30
   1   4 -10    0.80    0.41
   1  -4 -10    1.06    0.21
   1  -4 -10    1.45    0.52
   1   4  -9   28.70    1.29
   1   4  -9   25.88    0.97
   1  -4  -9   28.98    1.40
   1  -4  -9   29.01    0.77
   1  -4  -9   26.95    0.75
   1   4  -8   41.20    1.19
   1   4  -8   42.94    1.45
   1  -4  -8   41.08    0.96
   1  -4  -8   42.79    1.61
   1  -4  -8   43.18    0.96
   1   4  -7   23.95    1.01
   1   4  -7   23.82    0.86
   1  -4  -7   23.61    0.70
   1  -4  -7   25.64    1.18
   1  -4  -7   23.89    0.69
   1   4  -6   67.35    1.62
   1   4  -6   64.06    1.46
   1  -4  -6   64.92    1.26
   1  -4  -6   65.25    1.28
   1  -4  -6   65.10    1.83
   1   4  -5   15.87    0.66
   1   4  -5   15.10    0.68
   1  -4  -5   14.48    0.55
  -1  -4   5   15.00    0.57
   1  -4  -5   15.34    0.84
   1   4  -4   20.80    0.72
   1   4  -4   19.18    0.72
   1  -4  -4   20.04    0.89
  -1  -4   4   20.46    0.68
   1  -4  -4   20.14    0.66
   1   4  -3   34.95    0.86
  -1   4   3   34.81    0.80
   1   4  -3   34.04    0.96
   1  -4  -3   36.30    0.91
  -1  -4   3   34.25    0.92
   1  -4  -3   33.49    1.09
   1   4  -2   54.89    1.25
  -1   4   2   57.46    1.16
   1  -4  -2   57.18    1.39
   1  -4  -2   58.33    1.23
  -1  -4   2   55.85    1.23
   1   4  -1    3.73    0.35
  -1   4   1    3.99    0.35
   1  -4  -1    4.45    0.35
   1  -4  -1    3.52    0.39
  -1  -4   1    4.53    0.36
   1   4   0    1.77    0.25
  -1   4   0    1.77    0.25
   1  -4   0    2.06    0.31
  -1  -4   0    1.92    0.27
   1  -4   0    2.07    0.28
   1   4   1   66.42    1.30
  -1   4  -1   65.17    1.37
  -1  -4  -1   64.89    1.33
  -1  -4  -1   67.04    1.52
   1  -4   1   64.54    1.36
  -1   4  -2  163.05    2.61
   1   4   2  164.83    2.43
   1  -4   2  161.02    2.57
  -1  -4  -2  160.02    2.51
  -1  -4  -2  163.79    2.82
  -1   4  -3    5.76    0.43
  -1  -4  -3    6.69    0.54
  -1  -4  -3    5.48    0.37
   1  -4   3    5.72    0.40
  -1   4  -4  145.54    2.49
  -1   4  -4  148.55    2.64
  -1  -4  -4  150.12    2.34
   1  -4   4  149.61    2.37
  -1  -4  -4  150.85    2.83
  -1   4  -5   61.60    1.42
  -1   4  -5   61.84    1.58
  -1  -4  -5   59.28    1.68
  -1  -4  -5   57.91    1.65
  -1  -4  -5   61.10    1.23
  -1   4  -6    0.62    0.30
  -1   4  -6    1.76    0.32
  -1  -4  -6    1.65    0.41
  -1  -4  -6    1.37    0.23
  -1  -4  -6    1.41    0.22
  -1   4  -7   10.85    0.78
  -1   4  -7   10.21    0.61
  -1  -4  -7    9.77    0.81
  -1  -4  -7   10.13    0.47
  -1  -4  -7   10.59    0.47
  -1   4  -8   -0.50    0.28
  -1   4  -8   -0.02    0.21
  -1  -4  -8    0.04    0.15
  -1  -4  -8   -0.10    0.30
  -1  -4  -8    0.08    0.15
  -1   4  -9    8.86    0.62
  -1   4  -9    7.82    0.86
  -1  -4  -9    8.75    0.46
  -1  -4  -9    8.84    0.92
  -1   4 -10   -0.15    0.20
  -1   4 -10    0.31    0.35
  -1  -4 -10    0.19    0.37
  -1  -4 -10    0.31    0.17
  -1   4 -11    3.33    0.68
  -1   4 -11    4.55    0.54
  -1  -4 -11    5.20    0.81
  -1  -4 -11    4.38    0.37
  -1   4 -12    5.49    0.59
  -1   4 -12    4.97    0.84
  -1  -4 -12    4.90    0.80
  -1  -4 -12    6.15    0.41
  -1   4 -13    0.92    0.34
  -1   4 -13    0.48    0.51
  -1  -4 -13    0.98    0.23
  -1  -4 -13    0.87    0.49
   1   5 -13    3.64    0.75
   1   5 -13    4.01    0.58
   1  -5 -13    4.86    0.45
   1  -5 -13    3.76    0.81
   1   5 -12   49.23    1.99
   1   5 -12   51.06    1.59
   1  -5 -12   47.65    2.13
   1  -5 -12   50.36    1.23
   1   5 -11    0.20    0.35
   1   5 -11   -0.03    0.24
   1  -5 -11    0.23    0.40
   1  -5 -11   -0.01    0.19
   1   5 -10    7.80    0.71
   1   5 -10    7.66    0.86
   1  -5 -10    8.46    1.00
   1  -5 -10    8.24    0.51
   1   5  -9   30.67    1.14
   1   5  -9   28.81    1.29
   1  -5  -9   31.24    0.93
   1  -5  -9   29.94    1.49
   1   5  -8    2.53    0.43
   1   5  -8    2.50    0.49
   1  -5  -8    2.51    0.34
   1  -5  -8    1.92    0.51
   1   5  -7   62.89    1.71
   1   5  -7   62.11    1.58
   1  -5  -7   59.34    1.35
   1  -5  -7   61.85    1.55
   1  -5  -7   61.94    1.96
   1   5  -6   58.98    1.50
   1   5  -6   57.33    1.52
   1  -5  -6   55.94    1.78
   1  -5  -6   57.38    1.32
   1   5  -5   59.62    1.44
   1   5  -5   57.89    1.46
   1  -5  -5   57.35    1.73
   1  -5  -5   57.27    1.33
  -1  -5   5   58.13    1.33
   1   5  -4  116.02    2.09
   1   5  -4  117.36    2.25
   1  -5  -4  117.19    2.12
   1  -5  -4  118.01    2.52
  -1  -5   4  117.50    2.15
   1   5  -3    1.04    0.26
  -1   5   3    1.68    0.26
   1  -5  -3    1.21    0.25
  -1  -5   3    1.15    0.27
   1  -5  -3    1.02    0.33
   1   5  -2   49.20    1.25
  -1   5   2   48.40    1.15
  -1  -5   2   45.52    1.20
   1  -5  -2   47.63    1.21
   1  -5  -2   46.31    1.36
  -1   5   1   33.67    0.97
   1   5  -1   35.53    1.02
   1  -5  -1   34.85    1.11
  -1  -5   1   32.60    0.99
   1  -5  -1   35.15    1.02
   1   5   0   16.63    0.67
  -1   5   0   16.65    0.68
   1  -5   0   15.78    0.69
  -1  -5   0   15.03    0.66
   1  -5   0   15.51    0.73
   1   5   1   31.07    0.90
  -1   5  -1   30.23    0.96
  -1  -5  -1   31.67    0.96
   1  -5   1   32.73    0.99
  -1  -5  -1   29.87    1.08
  -1   5  -2   19.63    0.79
   1   5   2   20.52    0.69
   1  -5   2   20.25    0.78
  -1  -5  -2   19.78    0.75
  -1  -5  -2   18.54    0.88
  -1   5  -3    4.54    0.45
   1   5   3    5.16    0.36
  -1  -5  -3    4.29    0.41
  -1  -5  -3    5.49    0.57
   1  -5   3    5.57    0.48
  -1   5  -4   24.12    0.91
  -1  -5  -4   24.90    1.08
   1  -5   4   23.86    0.83
  -1  -5  -4   23.37    0.80
  -1   5  -5   16.99    0.84
  -1   5  -5   16.55    0.78
  -1  -5  -5   16.99    0.68
  -1  -5  -5   16.21    0.95
   1  -5   5   14.74    0.64
  -1   5  -6   14.08    0.83
  -1   5  -6   14.91    0.77
  -1  -5  -6   14.03    0.94
  -1  -5  -6   15.38    0.65
  -1   5  -7   10.35    0.68
  -1   5  -7    8.64    0.83
  -1  -5  -7    9.07    0.53
  -1  -5  -7    8.62    0.87
  -1   5  -8    7.49    0.67
  -1   5  -8    9.10    0.90
  -1  -5  -8    7.39    0.49
  -1  -5  -8    6.56    0.80
  -1   5  -9    2.17    0.43
  -1   5  -9    2.56    0.56
  -1  -5  -9    3.11    0.65
  -1  -5  -9    2.87    0.36
  -1   5 -10    0.56    0.42
  -1   5 -10    0.34    0.29
  -1  -5 -10    0.13    0.21
  -1  -5 -10    0.23    0.42
  -1   5 -11    8.49    0.99
  -1   5 -11   10.23    0.76
  -1  -5 -11    9.01    0.55
  -1  -5 -11    9.28    1.05
  -1   5 -12    0.59    0.50
  -1   5 -12    0.44    0.30
  -1  -5 -12    0.61    0.25
  -1  -5 -12    0.31    0.46
   1   6 -12   -0.59    0.34
   1   6 -12    0.39    0.33
   1  -6 -12    0.05    0.23
   1  -6 -12    0.14    0.45
   1   6 -11    8.01    0.95
   1   6 -11    7.71    0.78
   1  -6 -11    9.63    1.10
   1  -6 -11    8.87    0.60
   1   6 -10   48.01    1.58
   1   6 -10   47.29    1.78
   1  -6 -10   47.40    1.31
   1  -6 -10   47.98    2.02
   1   6  -9   38.19    1.51
   1   6  -9   39.24    1.39
   1  -6  -9   37.58    1.16
   1  -6  -9   35.01    1.69
   1   6  -8   -0.37    0.24
   1   6  -8    0.05    0.26
   1  -6  -8    0.00    0.36
   1  -6  -8    0.07    0.21
   1   6  -7   41.72    1.39
   1   6  -7   40.98    1.38
   1  -6  -7   44.17    1.25
   1  -6  -7   40.36    1.67
   1   6  -6    2.78    0.46
   1   6  -6    2.48    0.43
  -1  -6   6    2.26    0.36
   1  -6  -6    2.30    0.52
   1  -6  -6    2.26    0.37
   1   6  -5   51.34    1.37
   1   6  -5   48.13    1.44
   1  -6  -5   51.40    1.73
  -1  -6   5   50.53    1.36
   1  -6  -5   52.03    1.37
   1   6  -4   86.90    1.77
   1   6  -4   82.58    1.94
  -1   6   4   85.01    1.63
   1  -6  -4   88.44    2.23
  -1  -6   4   88.36    1.90
   1  -6  -4   84.85    1.86
   1   6  -3   38.39    1.22
  -1   6   3   40.46    1.08
   1  -6  -3   39.57    1.39
  -1  -6   3   39.03    1.18
   1  -6  -3   39.55    1.19
  -1   6   2   32.31    1.01
   1   6  -2   32.81    1.09
   1  -6  -2   34.59    1.25
  -1  -6   2   33.25    1.09
   1  -6  -2   31.34    1.06
   1   6  -1   24.41    0.92
  -1   6   1   24.76    0.89
  -1  -6   1   26.34    0.96
   1  -6  -1   24.47    1.03
   1  -6  -1   26.17    0.95
   1   6   0   58.71    1.45
  -1   6   0   59.79    1.47
   1  -6   0   57.77    1.49
  -1  -6   0   58.93    1.49
   1  -6   0   56.42    1.57
   1   6   1    3.37    0.40
  -1   6  -1    2.36    0.37
   1  -6   1    2.60    0.40
  -1  -6  -1    2.11    0.35
  -1  -6  -1    2.16    0.44
   1   6   2   78.87    1.66
  -1   6  -2   79.49    1.84
  -1  -6  -2   77.62    1.76
   1  -6   2   81.23    1.82
  -1  -6  -2   78.30    2.00
  -1   6  -3   20.48    0.90
   1   6   3   21.36    0.75
   1  -6   3   20.84    0.87
  -1  -6  -3   20.97    1.07
  -1  -6  -3   21.48    0.86
  -1   6  -4    0.07    0.22
  -1  -6  -4    0.09    0.33
  -1  -6  -4    0.20    0.22
   1  -6   4    0.18    0.22
  -1   6  -5   25.87    1.06
  -1   6  -5   24.60    1.03
  -1  -6  -5   25.21    1.25
  -1  -6  -5   24.22    0.92
   1  -6   5   25.97    0.93
  -1   6  -6   12.90    0.85
  -1   6  -6   13.16    0.80
  -1  -6  -6   12.41    0.68
  -1  -6  -6   11.68    0.93
  -1   6  -7    5.64    0.69
  -1   6  -7    5.14    0.59
  -1  -6  -7    5.60    0.53
  -1  -6  -7    5.69    0.79
  -1   6  -8   82.99    2.34
  -1   6  -8   88.70    2.16
  -1  -6  -8   84.04    2.52
  -1  -6  -8   84.42    1.84
  -1   6  -9    0.07    0.34
  -1   6  -9    0.29    0.30
  -1  -6  -9   -0.06    0.39
  -1  -6  -9    0.16    0.23
  -1   6 -10    1.08    0.48
  -1   6 -10    1.12    0.38
  -1  -6 -10    1.29    0.54
  -1  -6 -10    0.89    0.29
  -1   6 -11    5.71    0.87
  -1   6 -11    4.99    0.67
  -1  -6 -11    5.92    0.94
  -1  -6 -11    5.83    0.56
  -1   6 -12    5.92    0.92
  -1   6 -12    5.23    0.68
  -1  -6 -12    6.61    1.01
  -1  -6 -12    5.11    0.53
   1   7 -12   35.96    1.75
   1   7 -12   34.00    1.49
   1  -7 -12   37.77    2.00
   1  -7 -12   33.71    1.23
   1   7 -11    0.76    0.46
   1   7 -11    0.75    0.40
   1  -7 -11    0.56    0.50
   1  -7 -11    0.93    0.34
   1   7 -10   30.89    1.36
   1   7 -10   27.01    1.38
   1  -7 -10   25.15    1.55
   1  -7 -10   27.19    1.09
   1   7  -9    1.77    0.48
   1   7  -9    3.00    0.57
   1  -7  -9    1.43    0.54
   1  -7  -9    1.69    0.37
   1   7  -8    0.51    0.37
   1   7  -8    1.06    0.37
   1  -7  -8    0.77    0.31
   1  -7  -8   -0.05    0.36
   1   7  -7    1.32    0.40
   1   7  -7    1.18    0.37
   1  -7  -7    1.71    0.55
   1  -7  -7    1.60    0.37
   1   7  -6  110.39    2.37
   1   7  -6  108.89    2.51
   1  -7  -6  110.28    2.89
   1  -7  -6  115.18    2.38
   1   7  -5   38.50    1.21
   1   7  -5   39.48    1.38
   1  -7  -5   37.26    1.26
   1  -7  -5   41.16    1.63
  -1  -7   5   38.90    1.28
   1   7  -4  100.00    2.28
  -1   7   4   99.34    1.92
   1   7  -4   95.00    1.96
  -1  -7   4   96.67    2.16
   1  -7  -4   98.45    2.52
   1  -7  -4   96.05    2.16
   1   7  -3   18.76    0.93
  -1   7   3   19.45    0.82
   1  -7  -3   20.93    1.12
   1  -7  -3   18.93    0.91
  -1  -7   3   20.01    0.93
   1   7  -2   42.30    1.35
  -1   7   2   40.09    1.23
   1  -7  -2   40.35    1.47
   1  -7  -2   42.31    1.34
  -1  -7   2   42.99    1.35
   1   7  -1    1.80    0.37
  -1   7   1    2.13    0.40
   1  -7  -1    2.61    0.43
   1  -7  -1    2.13    0.46
  -1  -7   1    1.93    0.38
  -1   7   0   11.50    0.71
   1   7   0   10.54    0.68
   1  -7   0   12.03    0.81
  -1  -7   0   10.74    0.82
   1  -7   0   10.77    0.71
  -1  -7   0    9.81    0.67
   1   7   1    0.83    0.28
  -1   7  -1    0.50    0.29
  -1  -7  -1    0.87    0.40
  -1  -7  -1    0.47    0.29
   1  -7   1    0.89    0.31
  -1   7  -2    2.84    0.45
   1   7   2    3.56    0.44
  -1  -7  -2    3.73    0.58
   1  -7   2    3.43    0.49
  -1  -7  -2    3.63    0.48
   1   7   3    2.95    0.40
  -1   7  -3    2.81    0.46
   1  -7   3    3.56    0.50
  -1  -7  -3    3.03    0.45
  -1  -7  -3    2.78    0.56
  -1   7  -4    3.23    0.52
  -1  -7  -4    3.70    0.50
   1  -7   4    3.16    0.48
  -1  -7  -4    4.33    0.69
  -1   7  -5    4.18    0.58
  -1   7  -5    5.30    0.64
  -1  -7  -5    4.07    0.53
  -1  -7  -5    4.29    0.70
   1  -7   5    5.30    0.57
  -1   7  -6  167.41    3.33
  -1   7  -6  167.90    3.34
  -1  -7  -6  169.49    3.10
  -1  -7  -6  166.04    3.71
  -1   7  -7   19.71    1.09
  -1   7  -7   19.13    1.05
  -1  -7  -7   20.33    0.94
  -1  -7  -7   19.98    1.27
  -1   7  -8    0.57    0.38
  -1   7  -8    0.86    0.38
  -1  -7  -8    0.73    0.30
  -1  -7  -8    0.18    0.38
  -1   7  -9   17.34    1.16
  -1   7  -9   16.91    1.04
  -1  -7  -9   17.53    1.29
  -1  -7  -9   15.52    0.85
  -1   7 -10    1.28    0.52
  -1   7 -10    1.15    0.42
  -1  -7 -10    1.18    0.35
  -1  -7 -10    1.28    0.57
  -1   7 -11    6.15    0.78
  -1   7 -11    5.20    0.85
  -1  -7 -11    4.78    0.89
  -1  -7 -11    4.76    0.57
   1   8 -11    9.66    0.98
   1   8 -11   10.98    1.11
   1  -8 -11   11.86    0.84
   1  -8 -11   10.81    1.33
   1   8 -10    2.23    0.56
   1   8 -10    1.37    0.49
   1  -8 -10    2.68    0.49
   1  -8 -10    1.33    0.61
   1   8  -9    5.31    0.74
   1   8  -9    5.12    0.72
   1  -8  -9    4.45    0.79
   1  -8  -9    5.10    0.62
   1   8  -8    1.71    0.47
   1   8  -8    2.52    0.53
   1  -8  -8    1.49    0.40
   1  -8  -8    1.93    0.61
   1   8  -7   16.83    0.96
   1   8  -7   18.12    1.07
   1  -8  -7   16.18    0.93
   1  -8  -7   15.83    1.19
   1   8  -6   43.90    1.42
   1   8  -6   41.82    1.57
   1  -8  -6   44.11    1.49
   1  -8  -6   43.11    1.83
   1   8  -5   40.99    1.29
   1   8  -5   37.55    1.46
   1  -8  -5   40.25    1.42
  -1  -8   5   34.66    1.31
   1  -8  -5   39.88    1.71
   1   8  -4    2.60    0.48
   1  -8  -4    3.56    0.55
  -1  -8   4    3.77    0.55
   1  -8  -4    3.47    0.66
  -1   8   3   44.97    1.35
   1   8  -3   48.05    1.58
   1  -8  -3   47.22    1.53
   1  -8  -3   45.36    1.73
  -1  -8   3   46.42    1.52
  -1   8   2    2.99    0.47
   1   8  -2    2.10    0.44
  -1  -8   2    2.81    0.49
   1  -8  -2    2.64    0.50
   1  -8  -2    2.50    0.57
   1   8  -1    3.12    0.50
  -1   8   1    3.24    0.48
   1  -8  -1    3.99    0.63
  -1  -8   1    4.69    0.61
   1  -8  -1    3.62    0.52
   1   8   0   14.19    0.84
  -1   8   0   14.07    0.85
  -1  -8   0   14.97    0.89
  -1  -8   0   14.80    1.01
   1  -8   0   14.35    0.96
   1  -8   0   14.63    0.89
  -1   8  -1    2.60    0.46
   1   8   1    2.40    0.43
   1  -8   1    3.31    0.52
  -1  -8  -1    2.95    0.61
   1  -8   1    2.59    0.53
  -1  -8  -1    2.60    0.47
   1   8   2    0.83    0.32
  -1   8  -2    1.31    0.38
  -1  -8  -2    0.14    0.40
   1  -8   2    1.36    0.38
  -1  -8  -2    0.98    0.35
   1   8   3   10.26    0.68
  -1   8  -3   11.24    0.83
  -1  -8  -3   10.58    0.78
   1  -8   3    9.86    0.77
  -1  -8  -3    9.96    0.97
  -1   8  -4    1.87    0.46
  -1  -8  -4    1.87    0.59
  -1  -8  -4    2.37    0.44
   1  -8   4    2.82    0.49
  -1   8  -5    5.76    0.66
  -1   8  -5    5.21    0.67
  -1  -8  -5    5.06    0.59
  -1  -8  -5    4.04    0.71
  -1   8  -6   10.05    0.80
  -1   8  -6    8.98    0.86
  -1  -8  -6    9.49    1.04
  -1  -8  -6   10.78    0.76
  -1   8  -7    2.39    0.53
  -1   8  -7    3.07    0.59
  -1  -8  -7    2.26    0.63
  -1  -8  -7    2.95    0.52
  -1   8  -8    8.76    0.92
  -1   8  -8    7.91    0.85
  -1  -8  -8   10.27    0.77
  -1  -8  -8    9.33    1.14
  -1   8  -9   14.19    1.08
  -1   8  -9   10.93    1.02
  -1  -8  -9   11.90    0.83
  -1  -8  -9   12.16    1.29
  -1   8 -10    0.39    0.41
  -1   8 -10   -0.13    0.33
  -1  -8 -10    0.62    0.33
  -1  -8 -10   -0.78    0.35
   1   9 -10    2.01    0.55
   1   9 -10    2.45    0.59
   1  -9 -10    2.08    0.51
   1  -9 -10    1.71    0.67
   1   9  -9   13.55    1.00
   1   9  -9   14.49    1.10
   1  -9  -9   14.19    0.96
   1  -9  -9   13.69    1.40
   1   9  -8   56.51    1.86
   1   9  -8   58.20    2.04
   1  -9  -8   55.41    2.30
   1  -9  -8   58.86    1.87
   1   9  -7    0.28    0.32
   1   9  -7    0.90    0.41
   1  -9  -7    0.13    0.40
   1  -9  -7    0.53    0.32
   1   9  -6   42.06    1.65
   1   9  -6   42.70    1.45
   1  -9  -6   44.84    1.95
   1  -9  -6   42.27    1.56
   1   9  -5    0.84    0.33
   1   9  -5    0.52    0.38
   1  -9  -5    0.05    0.41
   1  -9  -5    0.56    0.34
   1   9  -4  124.18    2.91
   1  -9  -4  120.48    3.15
  -1  -9   4  123.70    2.79
   1  -9  -4  122.35    2.82
   1   9  -3    1.61    0.43
   1  -9  -3    2.02    0.57
   1  -9  -3    1.54    0.43
  -1  -9   3    2.07    0.48
  -1   9   2    0.37    0.28
   1   9  -2    0.32    0.33
   1  -9  -2    0.33    0.43
  -1  -9   2   -0.21    0.25
   1  -9  -2    0.29    0.31
   1   9  -1    0.07    0.30
  -1   9   1    0.28    0.31
   1  -9  -1    0.63    0.34
   1  -9  -1    0.68    0.43
  -1  -9   1   -0.12    0.40
  -1  -9   1   -0.08    0.29
  -1   9   0   11.32    0.82
   1   9   0   12.32    0.84
   1  -9   0   11.85    1.10
  -1  -9   0    9.86    1.00
  -1  -9   0   12.45    0.90
   1  -9   0    9.64    0.90
  -1   9  -1   14.33    0.93
   1   9   1   14.62    0.88
  -1  -9  -1   13.20    1.08
  -1  -9  -1   13.66    0.91
   1  -9   1   14.27    0.95
   1  -9   1   13.27    1.01
   1   9   2    4.61    0.58
  -1   9  -2    4.71    0.65
   1  -9   2    5.67    0.77
   1  -9   2    5.75    0.71
  -1  -9  -2    5.19    0.68
  -1  -9  -2    7.92    0.97
  -1   9  -3   14.31    0.96
  -1  -9  -3   13.06    0.91
   1  -9   3   14.38    0.95
  -1  -9  -3   13.96    1.12
  -1   9  -4  125.75    2.95
  -1  -9  -4  119.94    2.79
   1  -9   4  118.71    2.74
  -1  -9  -4  124.69    3.24
  -1   9  -5    0.45    0.37
  -1   9  -5    0.31    0.31
  -1  -9  -5    0.24    0.44
  -1  -9  -5    0.32    0.31
  -1   9  -6   46.45    1.68
  -1   9  -6   47.93    1.79
  -1  -9  -6   50.70    2.09
  -1  -9  -6   46.56    1.65
  -1   9  -7   13.11    1.01
  -1   9  -7   11.87    0.95
  -1  -9  -7   12.62    0.92
  -1  -9  -7   12.67    1.31
  -1   9  -8   25.31    1.38
  -1   9  -8   24.09    1.34
  -1  -9  -8   25.14    1.60
  -1  -9  -8   27.05    1.27
  -1   9  -9    0.44    0.44
  -1   9  -9   -0.09    0.35
  -1  -9  -9    0.05    0.31
  -1  -9  -9    0.47    0.52
  -1   9 -10    9.78    1.05
  -1   9 -10   12.09    1.19
  -1  -9 -10    9.85    1.21
  -1  -9 -10    9.46    0.92
   1  10  -9    6.26    0.84
   1  10  -9    5.75    0.85
   1 -10  -9    5.37    0.73
   1 -10  -9    5.79    1.05
   1  10  -8    2.41    0.52
   1  10  -8    2.88    0.65
   1 -10  -8    2.31    0.56
   1 -10  -8    1.63    0.66
   1  10  -7    2.17    0.56
   1  10  -7    1.75    0.48
   1 -10  -7    0.99    0.55
   1 -10  -7    1.80    0.50
   1  10  -6    0.10    0.32
   1  10  -6    0.62    0.42
   1 -10  -6    0.56    0.47
   1 -10  -6    0.19    0.34
   1  10  -5   21.68    1.02
   1  10  -5   19.20    1.21
   1 -10  -5   19.87    1.39
   1 -10  -5   18.41    1.13
   1  10  -4    1.94    0.50
  -1 -10   4    2.28    0.55
   1 -10  -4    2.18    0.52
   1 -10  -4    1.74    0.60
   1  10  -3   49.86    1.82
   1 -10  -3   53.23    2.09
   1 -10  -3   47.02    1.77
  -1 -10   3   53.00    1.84
   1  10  -2    0.36    0.36
  -1 -10   2    0.56    0.37
   1 -10  -2    0.36    0.37
   1 -10  -2    1.23    0.53
  -1  10   1   23.55    1.19
   1  10  -1   25.52    1.26
   1 -10  -1   25.00    1.29
  -1 -10   1   24.49    1.27
  -1 -10   1   24.68    1.43
   1 -10  -1   26.04    1.44
  -1  10   0   27.59    1.29
   1  10   0   27.36    1.26
  -1 -10   0   27.29    1.33
   1 -10   0   25.65    1.43
   1 -10   0   27.83    1.36
  -1 -10   0   27.27    1.51
  -1  10  -1    6.86    0.79
   1  10   1    9.33    0.86
   1 -10   1    8.58    0.89
  -1 -10  -1    6.34    0.91
  -1 -10  -1    6.56    0.79
   1 -10   1    7.74    0.94
  -1  10  -2    5.47    0.74
   1 -10   2    6.26    0.87
  -1 -10  -2    2.81    0.66
  -1 -10  -2    5.27    0.72
   1 -10   2    4.75    0.71
  -1  10  -3    0.47    0.42
  -1 -10  -3    1.27    0.52
  -1 -10  -3    0.09    0.35
   1 -10   3    1.01    0.44
  -1  10  -4    1.64    0.50
  -1 -10  -4    2.22    0.52
  -1 -10  -4    2.69    0.68
  -1  10  -5    6.11    0.74
  -1  10  -5    6.30    0.86
  -1 -10  -5    5.31    0.74
  -1 -10  -5    6.27    0.98
  -1  10  -6   11.22    1.12
  -1  10  -6   13.69    0.99
  -1 -10  -6   13.14    1.00
  -1 -10  -6    8.71    1.10
  -1  10  -7    6.55    0.90
  -1  10  -7    5.42    0.79
  -1 -10  -7    5.45    0.75
  -1 -10  -7    6.96    1.10
  -1  10  -8    0.33    0.42
  -1  10  -8   -0.31    0.32
  -1 -10  -8    0.01    0.36
  -1 -10  -8    0.36    0.51
   1  11  -8   24.47    1.52
   1 -11  -8   21.86    1.67
   1 -11  -8   23.29    1.38
   1  11  -7   10.20    1.09
   1 -11  -7    9.82    1.05
   1 -11  -7   11.45    1.41
   1  11  -6   41.05    1.83
   1 -11  -6   39.23    1.73
   1 -11  -6   38.83    2.04
   1  11  -5   23.65    1.40
   1 -11  -5   27.83    1.72
   1 -11  -5   24.90    1.40
   1  11  -4    3.37    0.65
   1 -11  -4    3.67    0.80
   1 -11  -4    3.14    0.66
   1  11  -3    4.35    0.74
   1 -11  -3    3.31    0.66
  -1 -11   3    4.69    0.77
   1 -11  -3    4.33    0.82
   1  11  -2   21.92    1.28
  -1 -11   2   19.54    1.24
  -1 -11   2   20.21    1.40
   1 -11  -2   19.36    1.38
   1 -11  -2   20.96    1.28
   1  11  -1    0.77    0.41
   1 -11  -1    1.35    0.59
  -1 -11   1    1.36    0.50
  -1 -11   1    1.53    0.62
   1 -11  -1    1.62    0.51
   1  11   0   10.45    0.99
  -1  11   0    8.10    0.90
  -1 -11   0    7.49    1.02
   1 -11   0    8.76    0.98
  -1 -11   0   10.22    1.03
   1 -11   0    8.60    1.07
  -1  11  -1    4.98    0.73
  -1 -11  -1    5.27    0.88
   1 -11   1    6.18    0.86
   1 -11   1    5.13    0.86
  -1 -11  -1    5.10    0.78
  -1  11  -2   10.92    1.08
  -1 -11  -2    9.18    1.14
   1 -11   2    9.44    1.09
   1 -11   2    8.82    0.98
  -1 -11  -2    9.04    0.98
  -1  11  -3   10.46    1.05
   1 -11   3   11.82    1.12
  -1 -11  -3   10.71    1.21
  -1 -11  -3   13.77    1.21
   1 -11   3   12.64    1.23
  -1  11  -4   12.05    1.14
  -1 -11  -4   11.85    1.12
   1 -11   4   10.95    1.18
  -1 -11  -4   12.62    1.31
  -1  11  -5   21.97    1.21
  -1  11  -5   22.64    1.39
  -1 -11  -5   22.85    1.35
  -1 -11  -5   24.09    1.63
  -1  11  -6   68.30    2.17
  -1  11  -6   69.20    2.39
  -1 -11  -6   68.06    2.28
  -1 -11  -6   65.45    2.64
  -1  11  -7   -0.05    0.40
  -1  11  -7    0.17    0.39
  -1 -11  -7    0.50    0.56
  -1 -11  -7    0.01    0.37
   1  12  -6   -0.09    0.42
   1 -12  -6    0.19    0.45
   1 -12  -6    0.33    0.62
   1  12  -5    1.42    0.57
   1 -12  -5    1.06    0.52
   1 -12  -5    0.84    0.63
   1  12  -4    0.22    0.41
   1 -12  -4    0.01    0.40
   1 -12  -4   -0.36    0.46
   1  12  -3    7.31    0.95
   1 -12  -3    7.90    0.98
  -1 -12   3    6.74    1.04
  -1 -12   3    4.92    0.96
   1 -12  -3    6.56    1.07
   1  12  -2    0.64    0.48
  -1 -12   2    0.00    0.45
   1 -12  -2    0.56    0.44
   1 -12  -2    0.18    0.47
  -1 -12   2    0.06    0.49
   1  12  -1    0.31    0.40
  -1 -12   1    0.67    0.46
   1 -12  -1    0.68    0.45
  -1 -12   1    0.16    0.48
   1 -12  -1   -0.18    0.45
   1 -12   0    3.87    0.77
  -1 -12   0    3.43    0.79
   1 -12   0    3.14    0.77
  -1 -12   0    2.97    0.66
  -1  12  -1    0.33    0.45
  -1 -12  -1    0.07    0.56
   1 -12   1    0.33    0.44
  -1 -12  -1   -0.04    0.38
   1 -12   1   -0.03    0.47
  -1  12  -2   15.25    1.32
   1 -12   2   11.79    1.27
   1 -12   2   14.67    1.31
  -1 -12  -2   15.89    1.53
  -1 -12  -2   14.34    1.31
  -1  12  -3    1.47    0.57
  -1 -12  -3    0.79    0.63
   1 -12   3    1.20    0.61
  -1 -12  -3    2.10    0.60
  -1  12  -4   -0.04    0.41
   1 -12   4    0.21    0.49
  -1 -12  -4    0.77    0.48
  -1 -12  -4   -0.21    0.49
  -1  12  -5    2.77    0.67
  -1  12  -5    3.31    0.63
  -1 -12  -5    3.00    0.71
   1 -12   5    3.54    0.86
  -1 -12  -5    3.34    0.89
   1  13  -2   11.30    1.67
  -1 -13   2    8.89    1.25
   1 -13  -2    9.89    1.15
   1 -13  -2    8.89    1.25
  -1 -13   2    7.70    1.06
   1 -13  -1    1.13    0.56
   1 -13  -1    0.54    0.58
  -1 -13   1    0.91    0.60
  -1 -13   1    0.92    0.65
   1 -13   0   23.57    1.51
  -1 -13   0   24.44    1.74
  -1 -13   0   23.70    1.54
   1 -13   0   27.57    1.81
  -1 -13  -1   18.62    1.40
   1 -13   1   18.85    1.54
  -1 -13  -1   17.37    1.66
   1 -13   1   19.55    1.41
   2   0 -14    2.42    0.66
   2   0 -13   -0.20    0.30
   2   0 -12   31.84    1.56
   2   0 -11    0.22    0.32
   2   0 -10    0.83    0.39
   2   0  -9    0.36    0.30
   2   0  -8   23.57    1.06
   2   0  -7   -0.48    0.16
   2   0  -6    1.17    0.12
   2   0  -6    0.66    0.25
   2   0  -5   -0.01    0.07
   2   0  -5    0.00    0.06
   2   0  -5    0.11    0.17
   2   0  -4   60.46    0.91
   2   0  -4   61.10    1.33
   2   0  -4   62.46    0.93
   2   0  -3    0.13    0.10
   2   0  -3   -0.03    0.08
   2   0  -3   -0.06    0.14
   2   0  -1    0.01    0.08
   2   0  -1   -0.07    0.06
  -2   0   1    0.01    0.07
  -2   0  -1   -0.04    0.09
   2   0   1   -0.07    0.09
  -2   0  -1   -0.13    0.08
  -2   0  -2   92.42    1.34
  -2   0  -2   91.71    1.57
  -2   0  -2   92.48    1.34
  -2   0  -3    0.03    0.16
  -2   0  -3   -0.05    0.07
  -2   0  -3    0.10    0.11
  -2   0  -3   -0.06    0.08
  -2   0  -4    3.19    0.20
  -2   0  -4    3.69    0.42
  -2   0  -4    3.31    0.19
  -2   0  -4    3.83    0.31
  -2   0  -5   -0.06    0.07
  -2   0  -5   -0.11    0.08
  -2   0  -5    0.05    0.18
  -2   0  -5   -0.13    0.14
  -2   0  -6    0.54    0.12
  -2   0  -6    0.38    0.10
  -2   0  -6    0.68    0.28
  -2   0  -6    0.50    0.22
  -2   0  -7    0.07    0.09
  -2   0  -7    0.12    0.11
  -2   0  -7   -0.03    0.19
  -2   0  -7   -0.09    0.24
  -2   0  -8   72.74    1.85
  -2   0  -8   73.29    1.22
  -2   0  -8   78.81    2.15
  -2   0  -8   76.99    1.24
  -2   0  -9   -0.14    0.26
  -2   0  -9    0.05    0.11
  -2   0  -9   -0.11    0.33
  -2   0  -9    0.04    0.13
  -2   0 -10   61.44    1.86
  -2   0 -10   60.14    2.09
  -2   0 -10   62.54    1.16
  -2   0 -11   -0.12    0.38
  -2   0 -11    0.02    0.15
  -2   0 -11    0.81    0.38
  -2   0 -12   56.90    1.18
  -2   0 -12   59.09    2.02
  -2   0 -13    0.34    0.38
  -2   0 -13   -0.02    0.17
   2   1 -14    7.38    0.45
   2  -1 -14    6.13    0.95
   2   1 -13    1.47    0.25
   2  -1 -13    0.83    0.45
   2   1 -12    0.29    0.17
   2  -1 -12    0.37    0.39
   2   1 -11   97.22    2.68
   2   1 -11   99.90    1.65
   2  -1 -11  103.12    2.75
   2   1 -10   -0.11    0.26
   2   1 -10    0.25    0.14
   2   1 -10   -0.03    0.12
   2  -1 -10   -0.01    0.34
   2   1  -9   15.15    0.48
   2   1  -9   14.54    0.91
   2   1  -9   14.70    0.46
   2  -1  -9   14.61    0.94
   2   1  -8   28.99    0.65
   2   1  -8   30.85    1.21
   2   1  -8   30.20    0.67
   2  -1  -8   29.00    1.21
   2   1  -7   63.37    1.07
   2   1  -7   61.24    1.04
   2   1  -7   60.92    1.65
   2  -1  -7   61.69    1.68
   2   1  -6    6.19    0.28
   2   1  -6    6.58    0.52
   2   1  -6    5.52    0.26
   2  -1  -6    5.45    0.54
   2   1  -5   29.38    0.95
   2   1  -5   28.71    0.61
   2   1  -5   28.83    0.60
   2  -1  -5   29.32    0.96
   2  -1  -5   27.22    0.49
   2  -1  -5   28.17    0.50
   2   1  -4    0.30    0.12
   2   1  -4    0.01    0.15
   2   1  -4    0.22    0.11
   2  -1  -4    0.05    0.16
   2  -1  -4    0.37    0.09
   2  -1  -4    0.35    0.09
   2   1  -3   37.81    0.74
   2  -1  -3   38.18    0.69
   2  -1  -3   37.51    0.93
  -2   1   2  129.27    1.76
   2   1  -2  127.91    1.83
   2  -1  -2  126.40    1.93
  -2  -1   2  129.20    1.80
   2  -1  -2  131.68    1.81
  -2   1   1   27.78    0.58
   2  -1  -1   28.03    0.60
   2  -1  -1   28.01    0.58
   2   1   0   35.04    0.69
  -2   1   0   36.77    0.71
   2  -1   0   36.03    0.56
   2  -1   0   35.97    0.72
  -2  -1   0   37.18    0.71
  -2   1  -1  255.68    3.34
   2   1   1  257.61    3.27
  -2  -1  -1  256.24    3.30
  -2  -1  -1  261.21    3.33
  -2  -1  -1  266.27    3.36
   2  -1   1  258.63    3.33
  -2   1  -2  114.95    1.69
  -2  -1  -2  115.58    1.76
  -2  -1  -2  116.26    1.63
  -2  -1  -2  115.02    1.82
  -2   1  -3  126.66    1.85
  -2   1  -3  127.08    2.17
  -2   1  -3  124.26    1.83
  -2  -1  -3  127.54    1.74
  -2  -1  -3  129.26    1.75
  -2  -1  -3  124.82    2.11
  -2  -1  -3  129.29    2.03
  -2   1  -4    0.87    0.25
  -2   1  -4    1.26    0.17
  -2   1  -4    1.01    0.15
  -2   1  -4    1.48    0.22
  -2  -1  -4    0.87    0.12
  -2  -1  -4    1.11    0.13
  -2  -1  -4    1.09    0.23
  -2  -1  -4    1.11    0.25
  -2   1  -5    1.96    0.20
  -2   1  -5    2.00    0.21
  -2   1  -5    1.90    0.37
  -2   1  -5    1.77    0.27
  -2  -1  -5    1.77    0.15
  -2  -1  -5    1.70    0.15
  -2  -1  -5    1.65    0.29
  -2  -1  -5    0.94    0.29
  -2   1  -6    6.41    0.45
  -2   1  -6    6.01    0.63
  -2   1  -6    5.49    0.31
  -2   1  -6    6.09    0.31
  -2  -1  -6    5.59    0.61
  -2  -1  -6    5.33    0.23
  -2  -1  -6    5.93    0.49
  -2  -1  -6    5.75    0.24
  -2   1  -7   15.62    0.50
  -2   1  -7   16.44    0.92
  -2   1  -7   14.04    0.71
  -2   1  -7   14.40    0.50
  -2  -1  -7   14.75    0.88
  -2  -1  -7   15.83    0.81
  -2  -1  -7   14.98    0.40
  -2  -1  -7   15.23    0.39
  -2   1  -8   -0.06    0.11
  -2   1  -8    0.03    0.14
  -2   1  -8    0.20    0.30
  -2   1  -8   -0.23    0.19
  -2  -1  -8   -0.05    0.25
  -2  -1  -8    0.27    0.32
  -2  -1  -8    0.01    0.11
  -2  -1  -8   -0.08    0.09
  -2   1  -9   52.67    1.60
  -2   1  -9   52.70    1.16
  -2   1  -9   54.84    1.89
  -2   1  -9   51.12    1.09
  -2  -1  -9   51.05    0.91
  -2  -1  -9   52.75    0.93
  -2  -1  -9   54.48    1.88
  -2  -1  -9   52.78    1.68
  -2   1 -10    0.17    0.17
  -2   1 -10    0.07    0.27
  -2   1 -10    0.33    0.35
  -2  -1 -10    0.27    0.31
  -2  -1 -10    0.01    0.32
  -2  -1 -10    0.30    0.13
  -2   1 -11   17.39    0.66
  -2   1 -11   19.78    1.29
  -2  -1 -11   16.87    1.08
  -2   1 -12    6.61    1.00
  -2   1 -12    5.35    0.45
  -2  -1 -12    3.64    0.64
  -2   1 -13    3.50    0.81
  -2   1 -13    3.81    0.40
  -2  -1 -13    3.65    0.70
   2   2 -14    0.08    0.21
   2  -2 -14    0.07    0.40
   2   2 -13   16.77    0.70
   2  -2 -13   17.07    1.29
   2   2 -12    5.60    0.46
   2  -2 -12    5.11    0.82
   2   2 -11    1.41    0.26
   2  -2 -11    1.70    0.51
   2   2 -10   71.77    1.42
   2  -2 -10   72.65    2.22
   2   2  -9    2.44    0.49
   2   2  -9    1.37    0.24
   2   2  -9    2.38    0.28
   2  -2  -9    1.68    0.49
   2   2  -8    8.60    0.42
   2   2  -8    8.57    0.41
   2   2  -8   10.14    0.71
   2  -2  -8    7.06    0.73
   2   2  -7   11.07    0.45
   2   2  -7   11.06    0.68
   2   2  -7   11.08    0.44
   2  -2  -7   10.69    0.73
   2  -2  -7   11.25    0.32
   2  -2  -7   10.38    0.31
   2   2  -6   43.17    1.19
   2   2  -6   41.11    0.91
   2   2  -6   42.35    0.92
   2  -2  -6   43.75    1.33
   2  -2  -6   41.14    0.74
   2  -2  -6   44.08    0.76
   2   2  -5    1.93    0.22
   2   2  -5    2.35    0.32
   2  -2  -5    2.27    0.19
   2  -2  -5    1.83    0.33
   2  -2  -5    2.14    0.19
   2   2  -4    2.34    0.24
   2   2  -4    2.25    0.26
   2  -2  -4    1.82    0.18
   2  -2  -4    1.79    0.18
   2  -2  -4    1.58    0.28
   2   2  -3   13.32    0.43
   2   2  -3   13.69    0.47
   2  -2  -3   14.22    0.43
   2  -2  -3   14.33    0.59
  -2  -2   3   13.63    0.45
  -2   2   2  173.58    2.37
   2   2  -2  172.08    2.47
   2   2  -2  175.67    2.23
   2  -2  -2  174.66    2.59
  -2  -2   2  172.01    2.44
   2  -2  -2  176.03    2.44
   2   2   0  504.96    6.25
  -2   2   0  512.60    6.30
   2  -2   0  498.17    6.15
  -2  -2   0  504.92    6.27
   2  -2   0  510.40    6.30
   2   2   1   50.19    0.91
  -2   2  -1   50.95    1.00
   2  -2   1   48.99    0.98
  -2  -2  -1   49.23    0.94
  -2  -2  -1   49.69    0.88
  -2  -2  -1   50.37    1.05
  -2   2  -2  630.16    7.90
  -2  -2  -2  653.24    7.81
  -2  -2  -2  642.90    7.93
  -2  -2  -2  645.16    8.07
   2  -2   2  645.88    7.86
  -2   2  -3    0.06    0.12
  -2   2  -3    0.25    0.17
  -2  -2  -3    0.05    0.11
  -2  -2  -3    0.29    0.15
  -2  -2  -3    0.11    0.18
  -2  -2  -3    0.16    0.10
  -2   2  -4    0.38    0.22
  -2   2  -4    0.76    0.18
  -2  -2  -4    0.61    0.13
  -2  -2  -4    0.40    0.21
  -2  -2  -4    0.80    0.14
  -2  -2  -4    0.73    0.23
  -2   2  -5    9.73    0.45
  -2   2  -5   10.10    0.64
  -2  -2  -5    9.63    0.35
  -2  -2  -5    9.54    0.58
  -2  -2  -5   10.10    0.62
  -2  -2  -5    9.79    0.34
  -2   2  -6   59.68    1.66
  -2   2  -6   59.83    1.22
  -2   2  -6   58.29    1.19
  -2  -2  -6   57.81    1.00
  -2  -2  -6   60.95    1.01
  -2  -2  -6   62.48    1.59
  -2  -2  -6   57.56    1.61
  -2   2  -7   72.65    1.43
  -2   2  -7   71.67    1.40
  -2   2  -7   74.42    1.99
  -2  -2  -7   73.50    1.97
  -2  -2  -7   74.70    1.19
  -2  -2  -7   70.96    1.85
  -2  -2  -7   73.99    1.18
  -2   2  -8    4.31    0.61
  -2   2  -8    4.41    0.39
  -2   2  -8    4.57    0.38
  -2  -2  -8    4.26    0.58
  -2  -2  -8    4.75    0.26
  -2  -2  -8    4.31    0.27
  -2   2  -9   21.92    1.22
  -2   2  -9   26.77    0.84
  -2  -2  -9   26.30    0.62
  -2  -2  -9   25.88    1.22
  -2  -2  -9   25.85    0.61
  -2   2 -10   65.09    2.22
  -2   2 -10   67.79    1.46
  -2  -2 -10   70.49    2.12
  -2  -2 -10   69.40    1.19
  -2   2 -11    1.52    0.53
  -2   2 -11    2.96    0.39
  -2  -2 -11    2.29    0.25
  -2  -2 -11    2.01    0.52
  -2   2 -12   13.95    1.34
  -2   2 -12   17.07    0.75
  -2  -2 -12   16.40    1.16
  -2  -2 -12   17.01    0.53
  -2   2 -13    1.36    0.31
  -2   2 -13    0.80    0.52
  -2  -2 -13    0.96    0.49
   2   3 -14    0.54    0.28
   2  -3 -14    0.96    0.54
   2   3 -13    4.11    0.47
   2  -3 -13    3.68    0.77
   2   3 -12    8.21    0.56
   2  -3 -12    6.30    0.89
   2  -3 -12    7.77    0.37
   2   3 -11   10.27    0.59
   2  -3 -11    9.09    1.02
   2  -3 -11   10.19    0.41
   2   3 -10    3.72    0.41
   2   3 -10    5.01    0.71
   2  -3 -10    5.75    0.78
   2  -3 -10    4.31    0.28
   2  -3 -10    5.27    0.31
   2   3  -9  128.25    2.25
   2   3  -9  128.47    2.80
   2  -3  -9  126.49    1.88
   2  -3  -9  129.26    1.91
   2  -3  -9  130.42    3.04
   2  -3  -9  125.15    1.87
   2   3  -8   65.55    1.40
   2   3  -8   62.84    1.74
   2  -3  -8   66.96    1.14
   2  -3  -8   64.08    1.93
   2  -3  -8   64.32    1.13
   2  -3  -8   65.66    1.16
   2   3  -7    4.80    0.51
   2   3  -7    4.83    0.38
   2  -3  -7    4.23    0.29
   2  -3  -7    4.12    0.53
   2  -3  -7    4.76    0.28
   2   3  -6   19.99    0.68
   2   3  -6   19.05    0.78
   2  -3  -6   20.17    0.57
   2  -3  -6   21.84    0.98
   2  -3  -6   19.69    0.55
   2   3  -5   49.69    1.17
   2   3  -5   48.77    1.11
   2  -3  -5   49.70    1.41
   2  -3  -5   47.15    0.96
   2  -3  -5   50.02    0.99
   2   3  -4   74.58    1.40
   2   3  -4   75.32    1.45
   2  -3  -4   77.27    1.71
   2  -3  -4   76.59    1.34
  -2  -3   4   75.50    1.37
   2   3  -3    0.08    0.13
  -2   3   3   -0.07    0.10
   2   3  -3   -0.02    0.10
  -2  -3   3    0.15    0.13
   2  -3  -3   -0.07    0.16
   2  -3  -3   -0.09    0.11
  -2   3   2    2.15    0.24
   2   3  -2    1.99    0.25
   2   3  -2    2.23    0.17
   2  -3  -2    1.95    0.29
  -2  -3   2    1.78    0.24
   2  -3  -2    2.22    0.25
   2   3  -1  224.39    3.16
  -2   3   1  220.47    3.12
   2  -3  -1  219.70    3.15
   2  -3  -1  224.91    3.20
  -2  -3   1  222.53    3.15
   2   3   0  512.73    6.49
  -2   3   0  520.15    6.53
   2  -3   0  508.78    6.45
  -2  -3   0  513.67    6.51
   2  -3   0  513.25    6.53
   2   3   1   83.62    1.43
  -2   3  -1   82.64    1.52
  -2  -3  -1   83.32    1.63
   2  -3   1   82.00    1.51
  -2  -3  -1   84.93    1.48
  -2   3  -2   36.79    0.90
   2   3   2   34.53    0.76
  -2  -3  -2   34.78    0.83
  -2  -3  -2   33.67    0.98
   2  -3   2   36.89    0.88
  -2   3  -3  169.76    2.62
  -2  -3  -3  171.17    2.84
  -2  -3  -3  167.74    2.47
   2  -3   3  170.24    2.53
  -2   3  -4    0.36    0.22
  -2   3  -4    0.19    0.16
  -2  -3  -4    0.18    0.14
  -2  -3  -4    0.35    0.23
  -2  -3  -4    0.20    0.14
  -2   3  -5   -0.09    0.14
  -2   3  -5   -0.12    0.19
  -2  -3  -5    0.10    0.22
  -2  -3  -5    0.02    0.11
  -2  -3  -5   -0.05    0.11
  -2   3  -6    0.40    0.29
  -2   3  -6    0.34    0.20
  -2  -3  -6    0.17    0.25
  -2  -3  -6    0.07    0.13
  -2  -3  -6    0.26    0.14
  -2   3  -7    9.25    0.86
  -2   3  -7    9.55    0.56
  -2  -3  -7    9.66    0.42
  -2  -3  -7    9.58    0.41
  -2  -3  -7    9.32    0.75
  -2   3  -8   50.33    1.73
  -2   3  -8   49.47    1.27
  -2  -3  -8   51.35    1.69
  -2  -3  -8   48.53    1.01
  -2  -3  -8   50.27    1.02
  -2   3  -9    0.03    0.32
  -2   3  -9   -0.09    0.19
  -2  -3  -9    0.37    0.34
  -2  -3  -9    0.08    0.15
  -2   3 -10    1.72    0.34
  -2   3 -10    2.28    0.56
  -2  -3 -10    1.76    0.25
  -2  -3 -10    2.70    0.58
  -2   3 -11    1.19    0.55
  -2   3 -11    1.14    0.29
  -2  -3 -11    1.77    0.25
  -2  -3 -11    1.74    0.52
  -2   3 -12    0.31    0.23
  -2   3 -12    0.45    0.47
  -2  -3 -12   -0.30    0.14
  -2  -3 -12    0.32    0.39
  -2   3 -13    9.50    1.21
  -2   3 -13    9.61    0.69
  -2  -3 -13    8.77    1.06
   2   4 -14    0.47    0.29
   2  -4 -14    0.42    0.54
   2  -4 -14    0.17    0.18
   2   4 -13    5.12    0.58
   2  -4 -13    3.84    0.79
   2  -4 -13    4.13    0.38
   2   4 -12    8.10    0.69
   2   4 -12   10.61    1.08
   2  -4 -12    8.70    0.48
   2  -4 -12    8.30    1.08
   2   4 -11    0.06    0.34
   2   4 -11    0.18    0.24
   2  -4 -11    0.01    0.17
   2  -4 -11   -0.24    0.36
   2   4 -10   30.16    1.35
   2   4 -10   29.35    1.03
   2  -4 -10   26.64    1.43
   2  -4 -10   28.34    0.80
   2   4  -9   24.76    0.93
   2   4  -9   24.93    1.17
   2  -4  -9   24.18    0.80
   2  -4  -9   24.85    0.75
   2  -4  -9   23.44    1.28
   2   4  -8   86.25    2.10
   2   4  -8   89.43    1.85
   2  -4  -8   87.26    2.38
   2  -4  -8   85.42    1.56
   2  -4  -8   86.27    1.58
   2   4  -7    2.20    0.33
   2   4  -7    2.80    0.42
   2  -4  -7    1.71    0.43
   2  -4  -7    2.88    0.30
   2  -4  -7    2.51    0.29
   2   4  -6   -0.04    0.17
   2   4  -6    0.21    0.18
   2  -4  -6    0.10    0.23
   2  -4  -6    0.14    0.15
   2   4  -5   10.61    0.56
   2   4  -5   10.89    0.54
  -2  -4   5   10.79    0.50
   2  -4  -5   10.29    0.69
   2  -4  -5   11.68    0.52
   2   4  -4    3.37    0.38
   2   4  -4    3.79    0.34
   2  -4  -4    2.18    0.37
   2  -4  -4    3.07    0.32
  -2  -4   4    3.44    0.35
   2   4  -3    1.25    0.19
  -2   4   3    1.47    0.23
   2   4  -3    1.06    0.25
   2  -4  -3    1.28    0.24
   2  -4  -3    1.08    0.29
  -2  -4   3    1.03    0.22
  -2   4   2    5.73    0.38
   2   4  -2    5.87    0.41
   2  -4  -2    5.08    0.47
   2  -4  -2    5.41    0.39
  -2  -4   2    5.65    0.41
  -2   4   1   12.56    0.54
   2   4  -1   12.57    0.55
   2  -4  -1   12.27    0.58
  -2  -4   1   12.16    0.55
   2  -4  -1   12.86    0.57
   2   4   0  365.81    4.90
  -2   4   0  362.18    4.95
  -2  -4   0  362.82    4.93
   2  -4   0  357.83    4.93
   2  -4   0  362.87    4.96
  -2   4  -1    1.35    0.25
   2   4   1    1.20    0.21
  -2  -4  -1    1.22    0.23
   2  -4   1    1.82    0.28
  -2  -4  -1    0.92    0.28
   2   4   2   42.72    0.95
  -2   4  -2   41.19    1.08
  -2  -4  -2   41.32    1.21
  -2  -4  -2   39.84    1.01
   2  -4   2   40.93    1.05
  -2   4  -3  152.31    2.59
  -2  -4  -3  157.90    2.48
   2  -4   3  156.75    2.52
  -2  -4  -3  158.74    2.85
  -2   4  -4   81.78    1.70
  -2  -4  -4   78.72    1.90
  -2  -4  -4   83.67    1.56
   2  -4   4   83.19    1.57
  -2   4  -5   36.00    1.08
  -2   4  -5   36.72    1.26
  -2  -4  -5   38.84    1.32
  -2  -4  -5   37.87    0.96
  -2   4  -6   20.05    0.99
  -2   4  -6   18.94    0.80
  -2  -4  -6   18.53    1.00
  -2  -4  -6   19.16    0.65
  -2  -4  -6   19.38    0.67
  -2   4  -7  110.88    2.63
  -2   4  -7  116.69    2.25
  -2  -4  -7  110.72    1.92
  -2  -4  -7  109.28    2.62
  -2  -4  -7  112.97    1.94
  -2   4  -8    9.16    0.63
  -2   4  -8    8.87    0.87
  -2  -4  -8    8.25    0.47
  -2  -4  -8    8.34    0.85
  -2   4  -9    3.28    0.62
  -2   4  -9    3.56    0.47
  -2  -4  -9    3.93    0.66
  -2  -4  -9    4.25    0.39
  -2   4 -10   13.51    0.78
  -2   4 -10   11.78    1.14
  -2  -4 -10   13.32    0.59
  -2  -4 -10   11.49    1.08
  -2   4 -11   10.49    1.12
  -2   4 -11    8.83    0.66
  -2  -4 -11   10.21    0.53
  -2  -4 -11   11.18    1.12
  -2   4 -12    5.93    0.97
  -2   4 -12    6.86    0.67
  -2  -4 -12    5.30    0.45
  -2  -4 -12    4.96    0.81
   2   5 -13    0.03    0.27
   2  -5 -13    0.33    0.23
   2  -5 -13    0.33    0.46
   2   5 -12    4.66    0.60
   2   5 -12    5.12    0.79
   2  -5 -12    5.93    0.93
   2  -5 -12    5.39    0.50
   2   5 -11   11.72    0.78
   2   5 -11   11.68    0.95
   2  -5 -11   12.27    0.63
   2  -5 -11   10.64    1.15
   2   5 -10    9.12    0.89
   2   5 -10    8.81    0.67
   2  -5 -10    8.31    0.53
   2  -5 -10    6.96    0.89
   2   5  -9    0.08    0.23
   2   5  -9    0.09    0.28
   2  -5  -9   -0.23    0.31
   2  -5  -9   -0.16    0.17
   2   5  -8   19.25    0.89
   2   5  -8   20.02    0.99
   2  -5  -8   18.57    1.16
   2  -5  -8   20.36    0.77
   2   5  -7   66.57    1.66
   2   5  -7   67.10    1.70
   2  -5  -7   64.49    2.00
   2  -5  -7   67.41    1.48
   2   5  -6   10.66    0.65
   2   5  -6   10.07    0.62
   2  -5  -6    9.39    0.78
   2  -5  -6   11.18    0.58
  -2  -5   6   10.82    0.56
   2   5  -5   28.76    1.00
   2   5  -5   28.42    0.89
   2  -5  -5   28.23    0.91
  -2  -5   5   29.35    0.93
  -2   5   4   63.87    1.28
   2   5  -4   61.79    1.52
   2   5  -4   64.93    1.32
  -2   5   4   64.87    1.28
   2  -5  -4   63.10    1.44
  -2  -5   4   61.04    1.44
   2  -5  -4   65.96    1.75
   2   5  -3    0.31    0.19
   2   5  -3    0.31    0.15
  -2   5   3    0.44    0.19
   2  -5  -3    0.04    0.16
   2  -5  -3    0.29    0.26
  -2  -5   3    0.66    0.22
  -2   5   2   46.94    1.17
   2   5  -2   46.05    1.23
   2  -5  -2   47.84    1.35
   2  -5  -2   47.31    1.23
  -2  -5   2   46.71    1.22
  -2   5   1    2.33    0.34
   2   5  -1    3.07    0.39
  -2  -5   1    3.05    0.37
   2  -5  -1    2.47    0.34
   2  -5  -1    1.98    0.36
  -2   5   0    4.45    0.43
   2   5   0    5.04    0.46
   2  -5   0    4.46    0.46
   2  -5   0    4.50    0.44
  -2  -5   0    3.83    0.40
  -2   5  -1   12.99    0.65
   2   5   1   12.06    0.58
  -2  -5  -1   13.71    0.64
  -2  -5  -1   13.16    0.75
   2  -5   1   12.62    0.65
  -2   5  -2    0.98    0.27
   2   5   2    1.89    0.28
   2  -5   2    1.75    0.32
  -2  -5  -2    1.30    0.36
  -2  -5  -2    1.28    0.26
  -2   5  -3   10.33    0.61
   2   5   3   10.87    0.49
   2  -5   3   11.18    0.59
  -2  -5  -3   10.70    0.74
  -2  -5  -3   11.77    0.59
  -2   5  -4   28.37    1.00
   2  -5   4   27.64    0.91
  -2  -5  -4   27.93    0.90
  -2  -5  -4   29.18    1.19
  -2   5  -5   39.96    1.24
  -2   5  -5   39.70    1.36
  -2  -5  -5   38.98    1.44
  -2  -5  -5   40.96    1.11
   2  -5   5   41.03    1.09
  -2   5  -6   65.00    1.67
  -2   5  -6   67.48    1.90
  -2  -5  -6   61.27    1.44
  -2  -5  -6   69.50    2.02
  -2   5  -7   29.88    1.32
  -2   5  -7   30.34    1.13
  -2  -5  -7   30.53    0.95
  -2  -5  -7   30.43    1.38
  -2   5  -8   46.57    1.44
  -2   5  -8   47.37    1.76
  -2  -5  -8   47.06    1.22
  -2  -5  -8   48.98    1.79
  -2   5  -9    1.99    0.42
  -2   5  -9    1.88    0.55
  -2  -5  -9    2.21    0.56
  -2  -5  -9    1.86    0.32
  -2   5 -10    9.97    0.75
  -2   5 -10   11.36    1.16
  -2  -5 -10    9.07    1.01
  -2  -5 -10    9.80    0.59
  -2   5 -11    0.69    0.46
  -2   5 -11    0.97    0.35
  -2  -5 -11    0.68    0.46
  -2  -5 -11    0.78    0.27
  -2   5 -12    3.10    0.52
  -2   5 -12    3.23    0.74
  -2  -5 -12    3.13    0.70
  -2  -5 -12    2.98    0.39
   2   6 -13    0.67    0.49
   2   6 -13   -0.03    0.28
   2  -6 -13   -0.31    0.42
   2  -6 -13   -0.05    0.23
   2   6 -12    9.71    1.07
   2   6 -12   11.21    0.85
   2  -6 -12   11.96    1.28
   2  -6 -12   11.69    0.70
   2   6 -11   15.09    1.09
   2   6 -11   14.90    0.93
   2  -6 -11   16.50    1.29
   2  -6 -11   15.51    0.78
   2   6 -10    0.46    0.37
   2   6 -10    0.52    0.33
   2  -6 -10    0.82    0.28
   2  -6 -10    0.40    0.47
   2   6  -9   -0.02    0.26
   2   6  -9    0.16    0.26
   2  -6  -9   -0.18    0.19
   2  -6  -9   -0.11    0.35
   2   6  -8    2.28    0.46
   2   6  -8    2.04    0.42
   2  -6  -8    1.07    0.46
   2  -6  -8    1.61    0.34
   2   6  -7    7.67    0.69
   2   6  -7    7.87    0.71
   2  -6  -7    7.96    0.59
   2  -6  -7    7.53    0.88
   2   6  -6    9.29    0.61
   2   6  -6   10.11    0.71
   2  -6  -6   10.07    0.63
  -2  -6   6    9.65    0.60
   2  -6  -6    9.65    0.94
   2   6  -5   18.61    0.89
   2   6  -5   19.47    0.78
   2  -6  -5   21.73    1.12
  -2  -6   5   18.77    0.82
   2  -6  -5   18.98    0.84
   2   6  -4    8.03    0.46
  -2   6   4    8.31    0.50
   2   6  -4    7.03    0.62
   2  -6  -4    7.52    0.74
   2  -6  -4    7.77    0.57
  -2  -6   4    8.29    0.58
  -2   6   3   31.62    0.97
   2   6  -3   30.72    1.09
  -2  -6   3   30.11    1.06
   2  -6  -3   30.56    1.21
   2  -6  -3   31.55    1.07
   2   6  -2   10.43    0.65
  -2   6   2   10.86    0.61
   2  -6  -2    9.61    0.69
   2  -6  -2   11.22    0.65
  -2  -6   2   10.63    0.64
   2   6  -1    6.87    0.52
  -2   6   1    5.98    0.54
   2  -6  -1    6.60    0.62
  -2  -6   1    6.96    0.53
   2  -6  -1    5.71    0.54
  -2   6   0   24.09    0.92
   2   6   0   24.24    0.91
   2  -6   0   23.61    0.98
   2  -6   0   23.08    0.93
  -2  -6   0   25.57    0.96
   2   6   1   23.45    0.85
  -2   6  -1   22.35    0.90
  -2  -6  -1   21.22    1.02
   2  -6   1   22.76    0.91
  -2  -6  -1   20.57    0.86
   2  -6   1   21.85    0.92
   2   6   2    6.31    0.48
  -2   6  -2    6.36    0.57
   2  -6   2    7.80    0.58
  -2  -6  -2    7.40    0.75
  -2  -6  -2    7.23    0.54
   2   6   3    1.83    0.30
  -2   6  -3    1.70    0.37
  -2  -6  -3    1.61    0.32
   2  -6   3    1.71    0.34
  -2  -6  -3    1.47    0.44
  -2   6  -4   22.34    0.98
  -2  -6  -4   22.12    0.89
  -2  -6  -4   21.85    1.13
   2  -6   4   20.91    0.88
  -2   6  -5   -0.08    0.23
  -2   6  -5    0.24    0.27
  -2  -6  -5    0.01    0.34
  -2  -6  -5   -0.15    0.19
   2  -6   5    0.05    0.21
  -2   6  -6    5.84    0.64
  -2   6  -6    5.39    0.65
  -2  -6  -6    5.94    0.74
  -2  -6  -6    5.74    0.56
  -2   6  -7   32.50    1.25
  -2   6  -7   32.27    1.40
  -2  -6  -7   30.24    1.44
  -2  -6  -7   30.07    1.06
  -2   6  -8   29.81    1.24
  -2   6  -8   28.03    1.39
  -2  -6  -8   29.21    1.47
  -2  -6  -8   29.86    1.06
  -2   6  -9    0.87    0.37
  -2   6  -9    1.01    0.44
  -2  -6  -9    0.68    0.45
  -2  -6  -9    0.63    0.27
  -2   6 -10   12.66    0.88
  -2   6 -10   13.48    1.25
  -2  -6 -10   12.90    0.73
  -2  -6 -10   11.70    1.20
  -2   6 -11   48.03    1.67
  -2   6 -11   46.05    2.02
  -2  -6 -11   47.13    1.37
  -2  -6 -11   49.27    2.14
   2   7 -12    9.12    1.04
   2   7 -12   10.50    0.98
   2  -7 -12   11.27    0.77
   2  -7 -12    9.98    1.22
   2   7 -11    8.32    0.84
   2   7 -11    6.88    0.86
   2  -7 -11    6.86    1.05
   2  -7 -11    6.98    0.66
   2   7 -10   32.37    1.39
   2   7 -10   31.09    1.42
   2  -7 -10   34.53    1.23
   2  -7 -10   31.67    1.73
   2   7  -9    0.35    0.28
   2   7  -9    0.67    0.35
   2  -7  -9    0.20    0.43
   2  -7  -9    0.25    0.25
   2   7  -8    1.45    0.40
   2   7  -8    0.93    0.37
   2  -7  -8    2.26    0.62
   2  -7  -8    1.32    0.37
   2   7  -7   16.85    0.97
   2   7  -7   16.17    0.86
   2  -7  -7   16.50    1.16
   2  -7  -7   16.88    0.87
   2   7  -6   55.67    1.71
   2   7  -6   56.52    1.50
  -2  -7   6   55.81    2.14
   2  -7  -6   54.77    1.95
   2  -7  -6   55.23    1.57
   2   7  -5   10.39    0.77
   2   7  -5   10.56    0.62
   2  -7  -5   11.02    0.92
  -2  -7   5   11.32    0.72
   2  -7  -5   10.37    0.71
   2   7  -4   19.18    0.95
  -2   7   4   19.00    0.79
   2   7  -4   18.74    0.73
  -2  -7   4   18.34    0.90
   2  -7  -4   16.68    0.88
   2  -7  -4   16.49    1.05
  -2   7   3   22.95    0.91
   2   7  -3   23.67    1.03
  -2  -7   3   22.97    1.00
   2  -7  -3   21.70    0.99
   2  -7  -3   22.08    1.13
   2   7  -2    7.62    0.68
  -2   7   2    7.73    0.64
   2  -7  -2    7.07    0.66
   2  -7  -2    8.12    0.78
  -2  -7   2    8.26    0.71
  -2   7   1    3.58    0.48
   2   7  -1    3.99    0.51
  -2  -7   1    3.46    0.48
   2  -7  -1    3.46    0.54
   2  -7  -1    3.52    0.51
   2   7   0   99.87    2.16
  -2   7   0   97.22    2.17
  -2  -7   0  100.61    2.20
   2  -7   0   99.76    2.24
   2  -7   0  103.11    2.33
   2   7   1   30.35    1.06
  -2   7  -1   29.54    1.14
   2  -7   1   27.70    1.10
  -2  -7  -1   28.11    1.10
  -2  -7  -1   30.28    1.32
   2  -7   1   28.64    1.16
   2   7   2   20.25    0.86
  -2   7  -2   21.55    0.98
  -2  -7  -2   21.80    1.16
  -2  -7  -2   19.65    0.93
   2  -7   2   20.05    0.94
  -2   7  -3   18.77    0.95
   2   7   3   19.02    0.78
  -2  -7  -3   19.19    1.11
   2  -7   3   18.07    0.91
  -2  -7  -3   18.59    0.89
  -2   7  -4    0.11    0.28
   2  -7   4    0.27    0.29
  -2  -7  -4    0.74    0.43
  -2  -7  -4    0.29    0.27
  -2   7  -5   10.55    0.81
  -2  -7  -5   11.55    0.74
  -2  -7  -5   10.22    1.01
  -2   7  -6    0.05    0.27
  -2   7  -6   -0.26    0.28
  -2  -7  -6   -0.19    0.34
  -2  -7  -6    0.03    0.24
  -2   7  -7   23.33    1.23
  -2   7  -7   23.45    1.16
  -2  -7  -7   24.31    1.40
  -2  -7  -7   24.72    1.04
  -2   7  -8   32.59    1.39
  -2   7  -8   33.90    1.56
  -2  -7  -8   34.84    1.23
  -2  -7  -8   37.49    1.73
  -2   7  -9    3.27    0.57
  -2   7  -9    3.80    0.69
  -2  -7  -9    3.09    0.69
  -2  -7  -9    4.52    0.55
  -2   7 -10   12.66    1.23
  -2   7 -10   13.03    0.96
  -2  -7 -10   15.80    0.87
  -2  -7 -10   13.93    1.36
  -2   7 -11    0.67    0.52
  -2   7 -11    0.94    0.42
  -2  -7 -11    0.74    0.32
  -2  -7 -11    0.70    0.51
   2   8 -11    0.12    0.34
   2   8 -11    0.52    0.43
   2  -8 -11    1.38    0.64
   2  -8 -11    0.35    0.32
   2   8 -10    3.42    0.63
   2   8 -10    5.08    0.74
   2  -8 -10    4.39    0.61
   2  -8 -10    3.72    0.80
   2   8  -9   -0.37    0.26
   2   8  -9    0.49    0.35
   2  -8  -9    0.20    0.29
   2  -8  -9   -0.33    0.36
   2   8  -8    7.66    0.78
   2   8  -8    6.30    0.74
   2  -8  -8    5.89    0.90
   2  -8  -8    6.48    0.71
   2   8  -7    0.75    0.38
   2   8  -7    0.66    0.32
   2  -8  -7    1.14    0.37
   2  -8  -7    0.44    0.45
   2   8  -6   30.21    1.32
   2   8  -6   29.31    1.09
   2  -8  -6   28.15    1.50
   2  -8  -6   29.29    1.22
   2   8  -5   44.95    1.59
   2   8  -5   47.95    1.32
   2  -8  -5   44.64    1.52
   2  -8  -5   45.36    1.83
  -2  -8   5   46.60    1.52
   2   8  -4   19.27    0.80
   2   8  -4   19.79    1.05
   2  -8  -4   17.57    1.16
   2  -8  -4   21.74    1.07
  -2  -8   4   20.55    1.03
   2   8  -3    7.16    0.74
  -2   8   3    7.77    0.69
   2  -8  -3    5.27    0.73
  -2  -8   3    8.10    0.75
   2  -8  -3    6.87    0.73
   2   8  -2    3.36    0.52
  -2   8   2    4.11    0.54
  -2  -8   2    3.08    0.49
   2  -8  -2    3.21    0.51
   2  -8  -2    4.32    0.66
  -2   8   1    2.59    0.46
   2   8  -1    3.67    0.54
  -2  -8   1    3.11    0.51
   2  -8  -1    3.58    0.59
   2  -8  -1    2.66    0.51
  -2   8   0    5.30    0.62
   2   8   0    5.51    0.62
   2  -8   0    4.90    0.64
  -2  -8   0    5.84    0.78
  -2  -8   0    5.02    0.61
   2  -8   0    5.34    0.68
   2   8   1    0.61    0.31
  -2   8  -1    0.28    0.31
  -2  -8  -1    0.11    0.27
   2  -8   1    0.57    0.38
  -2  -8  -1   -0.28    0.35
   2  -8   1    0.11    0.29
  -2   8  -2   13.69    0.89
   2   8   2   13.31    0.77
  -2  -8  -2   13.92    0.87
   2  -8   2   13.42    0.92
   2  -8   2   13.71    0.87
  -2  -8  -2   13.43    1.04
  -2   8  -3    7.72    0.79
  -2  -8  -3    8.33    0.77
  -2  -8  -3   10.52    1.05
   2  -8   3    9.19    0.82
  -2   8  -4    3.00    0.54
  -2  -8  -4    3.48    0.67
  -2  -8  -4    3.35    0.52
   2  -8   4    3.05    0.51
  -2   8  -5   19.59    1.09
  -2  -8  -5   15.91    1.17
  -2  -8  -5   18.35    0.98
  -2   8  -6   -0.34    0.27
  -2   8  -6   -0.02    0.33
  -2  -8  -6    0.34    0.39
  -2  -8  -6    0.18    0.28
  -2   8  -7    1.63    0.50
  -2   8  -7    1.46    0.46
  -2  -8  -7    2.36    0.65
  -2  -8  -7    1.79    0.43
  -2   8  -8    4.67    0.70
  -2   8  -8    5.09    0.76
  -2  -8  -8    4.07    0.79
  -2  -8  -8    4.74    0.62
  -2   8  -9   90.57    2.75
  -2   8  -9   92.25    2.56
  -2  -8  -9   88.42    2.92
  -2  -8  -9   90.96    2.28
  -2   8 -10    2.44    0.57
  -2   8 -10    4.19    0.80
  -2  -8 -10    3.20    0.75
  -2  -8 -10    3.46    0.56
   2   9 -10    1.68    0.55
   2   9 -10    3.09    0.61
   2  -9 -10    1.85    0.48
   2  -9 -10    1.12    0.58
   2   9  -9    7.97    0.86
   2   9  -9    7.64    0.92
   2  -9  -9    7.09    0.80
   2  -9  -9    6.34    1.00
   2   9  -8    8.83    0.85
   2   9  -8    7.44    0.89
   2  -9  -8    9.17    0.90
   2  -9  -8    6.85    0.99
   2   9  -7    2.37    0.48
   2   9  -7    1.86    0.52
   2  -9  -7    1.34    0.42
   2  -9  -7    2.09    0.63
   2   9  -6    1.25    0.36
   2   9  -6    1.01    0.44
   2  -9  -6    0.69    0.48
   2  -9  -6    1.03    0.40
   2   9  -5    0.71    0.39
   2   9  -5    0.30    0.25
  -2  -9   5    0.18    0.36
   2  -9  -5    0.64    0.35
   2  -9  -5    0.19    0.41
   2   9  -4   25.61    1.26
   2   9  -4   24.59    0.93
  -2  -9   4   24.69    1.20
   2  -9  -4   25.30    1.22
   2  -9  -4   25.15    1.41
   2   9  -3    8.13    0.81
  -2   9   3    8.47    0.83
  -2  -9   3    8.31    0.82
   2  -9  -3    7.12    0.87
   2  -9  -3    6.49    0.75
  -2   9   2    5.60    0.67
   2   9  -2    4.05    0.59
  -2  -9   2    3.06    0.55
   2  -9  -2    4.06    0.63
   2  -9  -2    6.10    0.80
  -2   9   1   22.09    1.10
   2   9  -1   22.56    1.11
   2  -9  -1   22.55    1.24
  -2  -9   1   22.67    1.16
   2  -9  -1   22.87    1.18
   2   9   0   20.01    1.03
  -2   9   0   20.53    1.07
  -2  -9   0   20.06    1.27
  -2  -9   0   19.77    1.08
   2  -9   0   17.23    1.06
   2  -9   0   17.45    1.12
   2   9   1   12.00    0.81
  -2   9  -1   13.05    0.89
  -2  -9  -1   11.33    0.86
  -2  -9  -1   10.46    1.04
   2  -9   1   12.14    0.93
   2  -9   1   11.18    0.88
  -2   9  -2    9.87    0.91
  -2  -9  -2   10.67    0.93
  -2  -9  -2    9.40    1.01
   2  -9   2   10.24    0.96
   2  -9   2    9.41    0.86
  -2   9  -3    4.72    0.65
   2  -9   3    4.46    0.64
  -2  -9  -3    5.30    0.82
  -2  -9  -3    5.32    0.67
  -2   9  -4    5.67    0.71
  -2  -9  -4    5.54    0.68
  -2  -9  -4    6.24    0.91
  -2   9  -5    0.55    0.37
  -2  -9  -5    0.46    0.31
  -2  -9  -5    0.34    0.45
  -2   9  -6    1.77    0.51
  -2   9  -6    1.61    0.49
  -2  -9  -6    2.54    0.64
  -2  -9  -6    1.61    0.44
  -2   9  -7    6.28    0.83
  -2   9  -7    5.52    0.76
  -2  -9  -7    5.46    0.71
  -2  -9  -7    5.52    0.89
  -2   9  -8    1.10    0.49
  -2   9  -8    1.79    0.57
  -2  -9  -8    1.49    0.57
  -2  -9  -8    2.57    0.53
  -2   9  -9   27.72    1.49
  -2   9  -9   26.50    1.52
  -2  -9  -9   25.38    1.66
  -2  -9  -9   27.16    1.28
   2  10  -9    0.13    0.40
   2 -10  -9    0.26    0.49
   2 -10  -9    0.29    0.39
   2  10  -8    7.87    0.93
   2 -10  -8    5.72    0.77
   2 -10  -8    8.05    1.13
   2  10  -7    0.12    0.37
   2  10  -7    0.01    0.49
   2 -10  -7    0.08    0.36
   2 -10  -7   -0.04    0.38
   2  10  -6   31.10    1.52
   2  10  -6   33.02    1.43
   2 -10  -6   31.25    1.73
   2 -10  -6   31.18    1.46
   2  10  -5   -0.55    0.27
   2  10  -5   -0.12    0.26
   2 -10  -5    0.19    0.32
   2 -10  -5    0.04    0.41
   2  10  -4   10.51    0.99
   2  10  -4   11.15    0.70
   2 -10  -4   12.99    1.24
  -2 -10   4   12.87    0.97
   2 -10  -4   11.54    1.04
   2  10  -3    6.49    0.83
   2 -10  -3    5.68    0.76
  -2 -10   3    5.71    0.76
   2 -10  -3    6.40    0.89
   2  10  -2   36.49    1.52
  -2  10   2   34.64    1.41
  -2 -10   2   33.56    1.48
   2 -10  -2   33.55    1.63
   2 -10  -2   33.68    1.49
  -2  10   1    3.51    0.59
   2  10  -1    3.03    0.59
   2 -10  -1    2.96    0.65
   2 -10  -1    2.26    0.55
  -2 -10   1    2.29    0.55
  -2 -10   1    3.45    0.74
   2  10   0    1.68    0.45
  -2  10   0    0.93    0.42
  -2 -10   0    0.75    0.50
   2 -10   0    0.23    0.34
  -2 -10   0    0.52    0.38
   2 -10   0    0.74    0.45
  -2  10  -1    7.29    0.84
   2  10   1    6.63    0.92
  -2 -10  -1    5.31    0.87
   2 -10   1    6.60    0.81
   2 -10   1    6.24    0.85
  -2 -10  -1    5.91    0.76
  -2  10  -2    1.41    0.49
   2 -10   2    2.63    0.63
  -2 -10  -2    2.23    0.54
   2 -10   2    2.11    0.52
  -2 -10  -2    3.20    0.71
  -2  10  -3    1.71    0.53
   2 -10   3    2.28    0.56
  -2 -10  -3    2.03    0.51
   2 -10   3    2.22    0.56
  -2 -10  -3    2.71    0.72
  -2  10  -4   41.35    1.73
  -2 -10  -4   40.47    1.64
  -2 -10  -4   38.48    1.90
  -2  10  -5   31.58    1.52
  -2 -10  -5   31.40    1.74
  -2 -10  -5   28.71    1.41
  -2  10  -6   26.06    1.42
  -2  10  -6   23.84    1.32
  -2 -10  -6   23.02    1.29
  -2 -10  -6   24.04    1.58
  -2  10  -7    2.60    0.63
  -2  10  -7    3.35    0.65
  -2 -10  -7    2.31    0.73
  -2 -10  -7    3.14    0.61
  -2  10  -8    0.26    0.39
  -2  10  -8    0.01    0.40
  -2 -10  -8   -0.29    0.40
  -2 -10  -8    0.40    0.39
   2  11  -8   12.74    1.24
   2 -11  -8   13.33    1.50
   2 -11  -8   13.04    1.19
   2  11  -7   11.00    1.17
   2 -11  -7   10.42    1.07
   2 -11  -7   12.83    1.44
   2  11  -6    0.71    0.48
   2 -11  -6    1.48    0.62
   2 -11  -6    0.47    0.42
   2  11  -5    1.97    0.56
   2 -11  -5    1.17    0.57
   2 -11  -5    2.15    0.57
   2  11  -4    0.69    0.43
   2 -11  -4    0.74    0.47
   2 -11  -4    0.63    0.52
   2  11  -3    0.42    0.42
  -2 -11   3    1.32    0.48
   2 -11  -3    0.53    0.40
   2 -11  -3    1.00    0.52
   2  11  -2    0.61    0.41
   2 -11  -2    0.55    0.43
   2 -11  -2    0.54    0.52
  -2 -11   2    0.75    0.43
  -2 -11   2    0.19    0.48
   2  11  -1   52.58    1.89
  -2  11   1   54.50    1.92
   2 -11  -1   48.48    2.05
  -2 -11   1   46.20    2.13
   2 -11  -1   52.35    1.98
  -2 -11   1   51.98    1.94
  -2  11   0    2.01    0.53
   2  11   0    1.57    0.54
   2 -11   0    1.43    0.53
  -2 -11   0    2.28    0.61
  -2 -11   0    2.18    0.67
   2 -11   0    1.70    0.60
  -2  11  -1    5.49    0.78
   2 -11   1    7.59    0.92
   2 -11   1    5.69    0.86
  -2 -11  -1    4.71    0.76
  -2 -11  -1    7.44    1.06
  -2  11  -2    8.69    0.99
  -2 -11  -2    7.83    1.06
   2 -11   2   11.75    1.08
   2 -11   2    9.42    1.07
  -2 -11  -2    9.55    1.01
  -2  11  -3   24.50    1.41
  -2 -11  -3   22.41    1.34
  -2 -11  -3   25.54    1.66
   2 -11   3   25.02    1.46
  -2  11  -4   -0.15    0.36
   2 -11   4   -0.01    0.41
  -2 -11  -4    0.03    0.48
  -2 -11  -4    0.90    0.45
  -2  11  -5    0.63    0.48
  -2 -11  -5    0.09    0.38
  -2 -11  -5    1.00    0.61
  -2  11  -6    1.81    0.57
  -2  11  -6    0.96    0.52
  -2 -11  -6    1.84    0.56
  -2 -11  -6    2.06    0.73
  -2 -11  -7    0.08    0.53
   2  12  -6   34.66    1.80
   2 -12  -6   33.54    1.71
   2 -12  -6   31.03    1.92
   2  12  -5    5.32    0.86
   2 -12  -5    5.34    1.00
   2 -12  -5    2.83    0.71
   2  12  -4    6.53    0.92
   2 -12  -4    6.18    1.01
   2 -12  -4    5.44    0.86
   2  12  -3    0.30    0.42
   2 -12  -3   -0.15    0.46
   2 -12  -3   -0.12    0.37
  -2 -12   3    0.35    0.51
  -2 -12   3    0.14    0.40
   2  12  -2    4.66    0.79
  -2 -12   2    2.61    0.65
   2 -12  -2    4.20    0.84
  -2 -12   2    3.13    0.83
   2 -12  -2    4.05    0.75
   2 -12  -1    0.95    0.49
  -2 -12   1    0.15    0.52
  -2 -12   1    0.76    0.49
   2 -12  -1    0.67    0.55
  -2  12   0   28.52    1.93
   2 -12   0   25.84    1.59
   2 -12   0   25.98    1.51
  -2 -12   0   26.49    1.51
  -2 -12   0   28.89    1.77
  -2  12  -1   14.12    1.25
   2 -12   1   15.04    1.38
   2 -12   1   14.80    1.16
  -2 -12  -1   15.35    1.19
  -2 -12  -1   12.63    1.39
  -2  12  -2    1.94    0.62
  -2 -12  -2    2.12    0.72
   2 -12   2    1.20    0.59
   2 -12   2    1.55    0.60
  -2 -12  -2    0.98    0.52
  -2  12  -3    6.82    0.95
  -2 -12  -3    5.78    1.06
  -2 -12  -3    6.27    0.91
   2 -12   3    5.06    0.89
  -2  12  -4   75.07    2.59
   2 -12   4   66.33    2.46
  -2 -12  -4   70.00    2.46
  -2 -12  -4   72.83    2.84
   2 -13  -2    0.72    0.65
  -2 -13   2    0.89    0.71
  -2 -13   1   12.07    1.27
  -2 -13   1   10.99    1.42
   2 -13  -1    8.35    1.17
   2 -13  -1    9.08    1.13
   2 -13   0   24.08    1.66
   2 -13   0   26.66    1.60
  -2 -13   0   24.91    1.81
  -2 -13   0   24.47    1.56
   3   0 -14    0.87    0.21
   3   0 -14    1.20    0.55
   3   0 -13    0.62    0.39
   3   0 -13    0.04    0.15
   3   0 -12    4.97    0.34
   3   0 -12    9.55    1.08
   3   0 -11   -0.37    0.27
   3   0 -11   -0.10    0.13
   3   0 -10    7.01    0.79
   3   0 -10    9.74    0.39
   3   0 -10    9.83    0.41
   3   0  -9   -0.05    0.11
   3   0  -9    0.05    0.27
   3   0  -9    0.06    0.11
   3   0  -8    8.37    0.79
   3   0  -8    7.97    0.33
   3   0  -8    8.00    0.34
   3   0  -7   -0.04    0.09
   3   0  -7    0.06    0.21
   3   0  -7    0.09    0.10
   3   0  -6  189.17    2.65
   3   0  -6  206.51    2.71
   3   0  -6  202.83    3.41
   3   0  -5   -0.09    0.08
   3   0  -5    0.19    0.17
   3   0  -5    0.10    0.10
   3   0  -4  401.68    5.54
   3   0  -4  418.90    5.16
   3   0  -3   -0.40    0.13
   3   0  -3   -0.24    0.11
  -3   0   3   -0.16    0.11
  -3   0   2  335.68    4.26
   3   0  -2  336.94    4.36
   3   0  -2  330.53    4.30
  -3   0   1    0.04    0.13
   3   0  -1   -0.14    0.11
   3   0   0   59.29    1.08
  -3   0   0   59.89    1.08
  -3   0  -1   -0.13    0.13
  -3   0  -1   -0.24    0.09
   3   0   1   -0.12    0.12
  -3   0  -2  148.36    2.15
  -3   0  -2  154.04    2.39
  -3   0  -2  148.13    2.00
  -3   0  -3   -0.05    0.11
  -3   0  -3   -0.23    0.10
  -3   0  -3    0.02    0.17
  -3   0  -3   -0.11    0.10
  -3   0  -4   30.94    1.01
  -3   0  -4   29.23    0.69
  -3   0  -4   28.98    0.77
  -3   0  -4   29.55    0.70
  -3   0  -5    0.15    0.21
  -3   0  -5   -0.06    0.11
  -3   0  -5   -0.02    0.10
  -3   0  -5   -0.10    0.13
  -3   0  -6  308.49    4.48
  -3   0  -6  308.91    4.06
  -3   0  -6  306.44    4.07
  -3   0  -6  312.46    4.94
  -3   0  -7    0.12    0.14
  -3   0  -7    0.22    0.28
  -3   0  -7   -0.12    0.18
  -3   0  -7   -0.02    0.11
  -3   0  -8   42.75    0.95
  -3   0  -8   42.41    1.33
  -3   0  -8   41.54    0.95
  -3   0  -8   43.06    1.61
  -3   0  -9    0.26    0.16
  -3   0  -9   -0.06    0.24
  -3   0  -9   -0.29    0.30
  -3   0 -10   22.54    1.10
  -3   0 -10   22.85    1.34
  -3   0 -10   21.61    0.71
  -3   0 -11   -0.14    0.36
  -3   0 -11   -0.21    0.17
  -3   0 -11   -0.08    0.26
  -3   0 -12   25.02    1.57
  -3   0 -12   25.69    1.32
  -3   0 -12   26.58    0.83
  -3   0 -13    0.19    0.20
   3   1 -14    8.09    0.49
   3  -1 -14    7.15    1.03
   3   1 -13    0.59    0.21
   3  -1 -13    0.63    0.19
   3  -1 -13    0.17    0.40
   3   1 -12   12.67    0.56
   3  -1 -12   13.84    0.48
   3  -1 -12   16.03    1.14
   3   1 -11    0.54    0.37
   3   1 -11    0.39    0.18
   3  -1 -11    0.27    0.13
   3  -1 -11    0.73    0.17
   3  -1 -11    0.18    0.36
   3   1 -10    9.58    0.44
   3   1 -10    7.55    0.82
   3   1 -10    9.02    0.45
   3  -1 -10    9.82    0.38
   3  -1 -10    9.09    0.90
   3  -1 -10    9.46    0.35
   3   1  -9   78.91    1.38
   3   1  -9   76.26    2.15
   3   1  -9   78.55    1.42
   3  -1  -9   80.90    2.22
   3  -1  -9   77.45    1.23
   3  -1  -9   80.22    1.28
   3   1  -8    7.46    0.75
   3   1  -8    5.70    0.34
   3   1  -8    6.12    0.34
   3  -1  -8    5.71    0.66
   3  -1  -8    6.29    0.28
   3  -1  -8    6.56    0.30
   3   1  -7   87.40    2.08
   3   1  -7   90.24    1.50
   3   1  -7   88.32    1.46
   3  -1  -7   90.76    1.38
   3  -1  -7   83.67    2.07
   3  -1  -7   87.76    1.35
   3   1  -6    4.97    0.53
   3   1  -6    4.54    0.28
   3   1  -6    5.20    0.31
   3  -1  -6    5.04    0.27
   3  -1  -6    4.69    0.52
   3  -1  -6    4.65    0.25
   3   1  -5   41.58    0.88
   3   1  -5   39.50    1.16
   3  -1  -5   41.10    1.18
   3  -1  -5   41.90    0.80
   3  -1  -5   42.16    0.82
   3   1  -4   64.60    1.17
   3  -1  -4   64.08    1.43
   3  -1  -4   65.36    1.14
   3   1  -3  101.93    1.63
  -3   1   3   99.84    1.51
  -3  -1   3   99.87    1.56
   3  -1  -3  102.41    1.78
   3  -1  -3  103.42    1.60
  -3   1   2   62.86    1.11
   3   1  -2   64.38    1.17
   3  -1  -2   63.53    1.18
  -3  -1   2   64.28    1.14
   3  -1  -2   63.22    1.15
  -3   1   1  239.49    3.18
   3  -1  -1  235.63    3.06
  -3  -1   1  238.40    3.20
   3  -1  -1  232.39    3.20
   3   1   0    1.59    0.21
  -3   1   0    0.82    0.18
  -3  -1   0    1.36    0.20
   3  -1   0    1.28    0.20
   3  -1   0    1.20    0.11
  -3   1  -1   95.52    1.55
   3   1   1   96.45    1.50
  -3  -1  -1   95.95    1.49
  -3  -1  -1   93.65    1.53
   3  -1   1   98.06    1.55
  -3  -1  -1   95.18    1.52
  -3   1  -2    0.11    0.12
  -3  -1  -2   -0.08    0.13
  -3  -1  -2    0.12    0.14
   3  -1   2    0.10    0.11
  -3  -1  -2   -0.01    0.11
  -3   1  -3  135.99    1.88
  -3   1  -3  129.66    2.36
  -3   1  -3  136.15    2.06
  -3  -1  -3  135.47    1.99
  -3  -1  -3  137.51    2.30
  -3  -1  -3  136.17    2.13
  -3   1  -4  183.44    2.63
  -3   1  -4  183.24    3.09
  -3   1  -4  179.49    2.58
  -3  -1  -4  181.36    2.53
  -3  -1  -4  175.58    2.53
  -3  -1  -4  181.42    2.78
  -3  -1  -4  185.68    3.03
  -3   1  -5  196.40    3.41
  -3   1  -5  194.41    2.80
  -3   1  -5  191.79    2.79
  -3   1  -5  194.23    2.89
  -3  -1  -5  195.23    2.69
  -3  -1  -5  194.50    3.08
  -3  -1  -5  194.86    2.69
  -3  -1  -5  193.92    3.34
  -3   1  -6   14.57    0.53
  -3   1  -6   13.56    0.53
  -3   1  -6   14.48    0.63
  -3   1  -6   15.16    0.85
  -3  -1  -6   14.69    0.49
  -3  -1  -6   13.09    0.46
  -3  -1  -6   14.93    0.71
  -3  -1  -6   13.11    0.79
  -3   1  -7   84.32    1.82
  -3   1  -7   82.33    2.18
  -3   1  -7   85.50    1.55
  -3   1  -7   85.69    1.54
  -3  -1  -7   83.72    1.42
  -3  -1  -7   83.37    1.41
  -3  -1  -7   80.72    2.15
  -3  -1  -7   85.11    1.95
  -3   1  -8    7.42    0.85
  -3   1  -8    5.95    0.60
  -3   1  -8    6.01    0.42
  -3   1  -8    6.82    0.43
  -3  -1  -8    6.79    0.38
  -3  -1  -8    5.90    0.73
  -3  -1  -8    7.48    0.70
  -3  -1  -8    6.43    0.36
  -3   1  -9   85.65    2.46
  -3   1  -9   86.76    1.64
  -3   1  -9   82.96    2.04
  -3  -1  -9   85.00    2.17
  -3  -1  -9   83.91    1.48
  -3  -1  -9   82.86    2.43
  -3   1 -10    0.09    0.18
  -3   1 -10    0.51    0.42
  -3  -1 -10   -0.07    0.15
  -3  -1 -10   -0.01    0.33
  -3  -1 -10   -0.24    0.26
  -3   1 -11   55.31    1.32
  -3   1 -11   53.98    2.17
  -3  -1 -11   58.10    1.20
  -3  -1 -11   53.65    2.15
  -3  -1 -11   60.33    1.94
  -3   1 -12    0.37    0.44
  -3   1 -12    0.11    0.22
  -3  -1 -12    0.18    0.18
  -3  -1 -12    0.26    0.35
  -3   1 -13   13.15    1.43
  -3   1 -13   13.82    0.68
  -3  -1 -13   12.09    0.56
  -3  -1 -13   12.69    1.06
   3   2 -14    0.78    0.27
   3  -2 -14    1.01    0.52
   3   2 -13   23.12    0.84
   3  -2 -13   21.53    1.44
   3   2 -12    2.38    0.34
   3  -2 -12    2.12    0.25
   3  -2 -12    1.10    0.50
   3   2 -11   27.41    0.87
   3  -2 -11   28.83    0.70
   3  -2 -11   28.46    1.49
   3   2 -10    5.00    0.42
   3  -2 -10    5.16    0.73
   3  -2 -10    4.28    0.30
   3  -2 -10    4.00    0.28
   3   2  -9   36.61    0.96
   3   2  -9   34.68    0.91
   3  -2  -9   36.82    0.78
   3  -2  -9   35.86    0.76
   3  -2  -9   34.76    1.45
   3   2  -8   63.43    1.28
   3   2  -8   65.29    1.33
   3  -2  -8   65.67    1.91
   3  -2  -8   64.73    1.14
   3  -2  -8   64.11    1.12
   3   2  -7    0.23    0.15
   3  -2  -7    0.28    0.12
   3  -2  -7    0.29    0.25
   3  -2  -7    0.20    0.12
   3   2  -6   88.59    1.56
   3  -2  -6   85.19    1.98
   3  -2  -6   79.51    1.36
   3  -2  -6   85.28    1.40
   3   2  -5   93.88    1.65
   3  -2  -5   96.03    1.94
   3  -2  -5   95.72    1.55
   3  -2  -5   97.61    2.02
   3   2  -4   89.81    1.58
   3  -2  -4   90.60    1.51
  -3  -2   4   89.12    1.48
   3  -2  -4   89.09    1.81
   3   2  -3  173.63    2.57
  -3   2   3  172.02    2.41
   3  -2  -3  173.11    2.71
  -3  -2   3  171.30    2.50
   3  -2  -3  172.52    2.51
   3   2  -2  171.73    2.53
  -3   2   2  170.91    2.46
   3  -2  -2  170.85    2.52
   3  -2  -2  173.54    2.55
  -3  -2   2  169.10    2.49
  -3   2   1   16.16    0.54
   3   2  -1   16.89    0.55
   3  -2  -1   16.56    0.51
  -3  -2   1   16.23    0.55
   3  -2  -1   16.64    0.56
   3   2   0   26.29    0.69
  -3   2   0   27.36    0.73
  -3  -2   0   26.99    0.72
  -3  -2   0   27.21    0.51
   3  -2   0   27.15    0.73
   3  -2   0   27.41    0.57
   3   2   1  101.79    1.62
  -3   2  -1  101.58    1.71
   3  -2   1  100.57    1.70
  -3  -2  -1  103.64    1.68
   3  -2   1  100.62    1.39
  -3  -2  -1  102.61    1.56
  -3   2  -2   37.12    0.90
   3  -2   2   36.58    0.85
  -3  -2  -2   38.49    0.86
  -3  -2  -2   37.30    0.88
  -3  -2  -2   37.03    0.94
  -3   2  -3    2.81    0.30
  -3  -2  -3    3.26    0.29
  -3  -2  -3    3.12    0.35
  -3  -2  -3    3.59    0.37
  -3   2  -4  223.16    3.21
  -3  -2  -4  216.94    3.04
  -3  -2  -4  221.73    3.05
  -3  -2  -4  217.44    3.48
  -3  -2  -4  222.88    3.43
  -3   2  -5   24.77    0.77
  -3   2  -5   24.92    1.02
  -3  -2  -5   23.57    0.95
  -3  -2  -5   24.90    0.66
  -3  -2  -5   24.71    0.91
  -3  -2  -5   25.51    0.67
  -3   2  -6  120.45    2.61
  -3   2  -6  117.57    2.04
  -3  -2  -6  117.12    2.37
  -3  -2  -6  116.97    1.85
  -3  -2  -6  115.94    1.85
  -3  -2  -6  118.69    2.52
  -3   2  -7   26.73    1.22
  -3   2  -7   26.44    0.85
  -3   2  -7   26.08    0.82
  -3  -2  -7   29.10    1.13
  -3  -2  -7   26.74    1.18
  -3  -2  -7   26.99    0.72
  -3  -2  -7   27.54    0.71
  -3   2  -8   20.91    0.77
  -3   2  -8   20.49    1.16
  -3  -2  -8   18.58    0.60
  -3  -2  -8   18.30    0.99
  -3  -2  -8   20.32    1.13
  -3  -2  -8   20.37    0.63
  -3   2  -9    0.46    0.23
  -3   2  -9    0.77    0.41
  -3  -2  -9    0.26    0.38
  -3  -2  -9    0.56    0.36
  -3  -2  -9    0.65    0.20
  -3   2 -10   33.92    1.04
  -3   2 -10   30.54    1.57
  -3  -2 -10   33.90    0.87
  -3  -2 -10   34.48    1.45
  -3   2 -11    1.83    0.34
  -3   2 -11    1.82    0.62
  -3  -2 -11    1.43    0.47
  -3  -2 -11    2.31    0.30
  -3   2 -12   10.64    0.66
  -3   2 -12   10.99    1.25
  -3  -2 -12   11.68    0.53
  -3  -2 -12   11.96    1.14
   3   3 -14   17.41    0.84
   3  -3 -14   20.28    1.47
   3  -3 -14   19.70    0.65
   3   3 -13    3.62    0.45
   3  -3 -13    1.80    0.62
   3  -3 -13    2.84    0.31
   3   3 -12   66.02    1.60
   3  -3 -12   67.56    2.42
   3  -3 -12   67.87    1.32
   3   3 -11   53.50    1.37
   3  -3 -11   51.59    2.02
   3  -3 -11   53.40    1.11
   3   3 -10    7.48    0.53
   3  -3 -10    8.15    0.42
   3  -3 -10    8.29    0.92
   3  -3 -10    7.36    0.52
   3   3  -9    0.23    0.20
   3  -3  -9    0.26    0.15
   3  -3  -9    0.19    0.34
   3  -3  -9    0.25    0.17
   3   3  -8   11.78    0.75
   3   3  -8   11.20    0.58
   3  -3  -8   12.16    0.49
   3  -3  -8   12.94    0.48
   3   3  -7    2.15    0.36
   3   3  -7    2.16    0.30
   3  -3  -7    1.59    0.23
   3  -3  -7    1.82    0.42
   3  -3  -7    1.54    0.22
   3   3  -6   14.17    0.64
   3   3  -6   13.01    0.58
   3  -3  -6   12.76    0.52
   3  -3  -6   12.46    0.50
   3  -3  -6   12.62    0.51
   3  -3  -6   11.78    0.75
   3   3  -5  103.91    1.83
   3   3  -5  102.53    1.86
   3  -3  -5  104.01    1.76
   3  -3  -5   99.52    2.16
  -3  -3   5  104.15    1.73
   3   3  -4  326.44    4.57
   3   3  -4  336.04    4.36
  -3  -3   4  334.80    4.48
   3  -3  -4  336.52    4.88
   3  -3  -4  332.25    4.48
   3   3  -3   78.83    1.51
  -3   3   3   77.77    1.38
   3  -3  -3   76.50    1.45
  -3  -3   3   77.89    1.47
   3  -3  -3   75.52    1.61
  -3   3   2   55.49    1.14
  -3   3   2   55.06    1.13
   3  -3  -2   54.50    1.23
  -3  -3   2   53.10    1.16
   3  -3  -2   54.62    1.18
  -3   3   1   63.49    1.28
   3   3  -1   62.41    1.29
   3  -3  -1   64.11    1.26
  -3  -3   1   64.43    1.30
   3  -3  -1   63.02    1.31
   3   3   0  289.32    3.99
  -3   3   0  294.71    4.04
   3  -3   0  293.85    3.86
  -3  -3   0  289.65    4.01
   3  -3   0  284.61    4.04
  -3   3  -1    6.64    0.41
   3   3   1    6.25    0.36
   3  -3   1    6.54    0.33
  -3  -3  -1    6.60    0.40
   3  -3   1    6.77    0.42
   3   3   2   10.44    0.42
  -3   3  -2   11.33    0.53
   3  -3   2   10.46    0.49
  -3  -3  -2   10.12    0.56
  -3  -3  -2   10.68    0.49
  -3   3  -3  125.37    2.19
  -3  -3  -3  129.47    2.36
  -3  -3  -3  129.28    2.09
   3  -3   3  130.21    2.10
  -3   3  -4   17.12    0.82
  -3   3  -4   16.89    0.67
  -3  -3  -4   17.63    0.75
  -3  -3  -4   17.06    0.60
  -3  -3  -4   16.62    0.79
  -3   3  -5  186.65    3.43
  -3   3  -5  192.68    3.04
  -3  -3  -5  196.45    2.84
  -3  -3  -5  189.58    2.83
  -3  -3  -5  193.02    3.34
  -3   3  -6    5.79    0.65
  -3   3  -6    5.79    0.50
  -3  -3  -6    5.37    0.36
  -3  -3  -6    5.27    0.38
  -3  -3  -6    4.71    0.56
  -3   3  -7  115.36    2.75
  -3   3  -7  116.30    2.20
  -3  -3  -7  117.96    1.96
  -3  -3  -7  117.73    1.95
  -3  -3  -7  118.92    2.60
  -3   3  -8    4.00    0.64
  -3   3  -8    3.96    0.46
  -3  -3  -8    3.39    0.57
  -3  -3  -8    4.05    0.37
  -3   3  -9    5.98    0.80
  -3   3  -9    6.22    0.56
  -3  -3  -9    6.82    0.43
  -3  -3  -9    6.85    0.79
  -3   3 -10    1.33    0.51
  -3   3 -10    2.35    0.40
  -3  -3 -10    2.71    0.58
  -3  -3 -10    2.36    0.31
  -3   3 -11    7.10    0.96
  -3   3 -11    7.81    0.62
  -3  -3 -11    7.66    0.91
  -3  -3 -11    8.72    0.50
  -3   3 -12    2.66    0.44
  -3   3 -12    3.68    0.79
  -3  -3 -12    2.84    0.34
  -3  -3 -12    3.86    0.74
   3   4 -14   -0.06    0.23
   3  -4 -14    0.12    0.52
   3  -4 -14    0.13    0.20
   3   4 -13   38.67    1.31
   3  -4 -13   41.69    2.01
   3  -4 -13   37.12    1.02
   3   4 -12    0.09    0.24
   3  -4 -12    0.17    0.18
   3  -4 -12   -0.40    0.33
   3   4 -11   86.79    1.98
   3  -4 -11   88.31    1.69
   3  -4 -11   91.56    2.77
   3   4 -10   34.23    1.15
   3   4 -10   35.88    1.45
   3  -4 -10   36.77    0.98
   3   4  -9   50.78    1.39
   3   4  -9   52.22    1.63
   3  -4  -9   50.30    1.86
   3  -4  -9   51.94    1.19
   3   4  -8   31.97    1.16
   3   4  -8   29.18    1.01
   3  -4  -8   28.83    0.84
   3  -4  -8   29.87    0.88
   3  -4  -8   31.61    1.39
   3   4  -7   12.70    0.70
   3   4  -7   14.15    0.69
   3  -4  -7   13.10    0.88
   3  -4  -7   14.52    0.61
   3   4  -6    1.58    0.30
   3   4  -6    1.97    0.31
   3  -4  -6    1.74    0.27
   3  -4  -6    1.77    0.40
  -3  -4   6    1.84    0.29
   3   4  -5    0.88    0.22
   3   4  -5    0.92    0.25
   3  -4  -5    0.64    0.20
  -3  -4   5    1.12    0.23
   3  -4  -5    0.64    0.29
   3   4  -4   51.92    1.27
  -3   4   4   51.59    1.08
   3   4  -4   52.08    1.03
  -3  -4   4   49.92    1.20
   3  -4  -4   49.41    1.42
   3  -4  -4   50.60    1.20
  -3   4   3  285.24    3.97
   3   4  -3  289.81    3.64
  -3   4   3  286.62    3.98
   3   4  -3  284.25    4.17
  -3  -4   3  286.99    4.11
   3  -4  -3  287.57    4.34
   3  -4  -3  284.34    4.10
   3   4  -2    0.78    0.22
  -3   4   2    1.21    0.24
   3  -4  -2    0.27    0.18
  -3  -4   2    0.84    0.22
   3  -4  -2    0.80    0.26
  -3   4   1   36.02    0.99
   3   4  -1   35.78    0.99
  -3  -4   1   36.79    1.01
   3  -4  -1   37.77    1.02
   3  -4  -1   37.83    1.01
   3   4   0  277.68    3.98
   3  -4   0  274.96    3.91
  -3  -4   0  283.49    4.04
   3  -4   0  279.35    4.06
   3   4   1   48.38    1.13
  -3  -4  -1   51.57    1.35
   3  -4   1   50.56    1.23
   3  -4   1   48.26    1.09
  -3  -4  -1   48.65    1.18
   3   4   2  342.27    4.60
  -3   4  -2  342.37    4.86
  -3  -4  -2  340.29    4.74
   3  -4   2  347.62    4.80
  -3  -4  -2  339.33    5.03
  -3   4  -3    3.29    0.39
  -3  -4  -3    2.35    0.42
  -3  -4  -3    3.76    0.38
   3  -4   3    2.61    0.33
  -3   4  -4    9.18    0.57
  -3  -4  -4   10.09    0.52
   3  -4   4    8.11    0.48
  -3  -4  -4    9.75    0.70
  -3   4  -5   33.87    1.07
  -3   4  -5   33.30    1.27
  -3  -4  -5   31.71    0.92
  -3  -4  -5   33.88    1.25
  -3   4  -6    1.07    0.40
  -3   4  -6    1.22    0.30
  -3  -4  -6    0.43    0.31
  -3  -4  -6    0.51    0.21
  -3  -4  -6    0.70    0.24
  -3   4  -7   12.95    0.72
  -3   4  -7   12.82    0.96
  -3  -4  -7   12.88    0.61
  -3  -4  -7   13.29    0.92
  -3   4  -8   23.30    0.96
  -3   4  -8   22.81    1.25
  -3  -4  -8   22.72    0.79
  -3  -4  -8   22.21    1.18
  -3   4  -9   17.40    1.17
  -3   4  -9   19.25    0.91
  -3  -4  -9   18.33    0.72
  -3  -4  -9   18.16    1.13
  -3   4 -10    8.08    0.72
  -3   4 -10    8.63    1.02
  -3  -4 -10    8.37    0.96
  -3  -4 -10    8.81    0.54
  -3   4 -11    4.86    0.59
  -3   4 -11    8.23    1.07
  -3  -4 -11    6.69    0.50
  -3  -4 -11    6.11    0.85
  -3   4 -12   12.35    1.32
  -3   4 -12   14.57    0.89
  -3  -4 -12   15.15    1.20
  -3  -4 -12   14.60    0.69
   3   5 -13    0.95    0.36
   3  -5 -13    1.31    0.31
   3  -5 -13    1.78    0.65
   3   5 -12   69.11    1.89
   3  -5 -12   71.11    2.60
   3  -5 -12   69.87    1.59
   3   5 -11    0.47    0.29
   3   5 -11    0.41    0.38
   3  -5 -11    0.59    0.25
   3  -5 -11    1.05    0.51
   3   5 -10   28.83    1.29
   3   5 -10   27.77    1.11
   3  -5 -10   31.67    1.00
   3  -5 -10   29.11    1.53
   3   5  -9    0.96    0.31
   3   5  -9    0.82    0.35
   3  -5  -9    1.18    0.46
   3  -5  -9    1.36    0.31
   3   5  -8   14.92    0.83
   3   5  -8   14.41    0.79
   3  -5  -8   16.11    1.09
   3  -5  -8   14.15    0.69
   3   5  -7    2.79    0.42
   3   5  -7    2.41    0.39
   3  -5  -7    3.36    0.57
   3  -5  -7    2.92    0.38
   3   5  -6  282.28    4.35
   3   5  -6  272.44    4.10
   3  -5  -6  287.33    4.85
  -3  -5   6  278.65    4.10
   3  -5  -6  277.10    4.16
   3   5  -5    9.64    0.61
   3   5  -5    9.89    0.50
   3  -5  -5    9.32    0.73
  -3  -5   5    8.61    0.54
   3  -5  -5    9.31    0.56
  -3   5   4   83.32    1.58
  -3   5   4   83.03    1.59
   3   5  -4   81.88    1.81
   3   5  -4   84.38    1.46
   3  -5  -4   85.87    1.78
  -3  -5   4   82.63    1.75
   3  -5  -4   77.06    1.97
   3   5  -3   24.20    0.90
  -3   5   3   24.86    0.82
   3   5  -3   23.71    0.58
  -3  -5   3   24.02    0.88
   3  -5  -3   24.25    0.89
   3  -5  -3   25.83    1.02
   3   5  -2   29.05    0.57
  -3   5   2   29.58    0.93
   3  -5  -2   27.75    1.00
  -3  -5   2   29.98    0.98
   3  -5  -2   28.63    0.97
  -3   5   1    0.07    0.18
   3   5  -1    0.12    0.17
   3  -5  -1    0.29    0.21
  -3  -5   1   -0.02    0.17
   3  -5  -1    0.12    0.21
  -3   5   0  550.68    7.36
   3   5   0  549.98    7.29
   3  -5   0  557.42    7.39
  -3  -5   0  553.29    7.34
   3  -5   0  545.87    7.29
   3   5   1   31.21    0.94
  -3   5  -1   31.52    1.03
  -3  -5  -1   28.18    0.96
   3  -5   1   29.03    0.98
  -3  -5  -1   30.66    1.13
   3  -5   1   30.01    0.95
   3   5   2    4.07    0.39
  -3   5  -2    2.87    0.40
  -3  -5  -2    3.30    0.49
   3  -5   2    3.45    0.42
  -3  -5  -2    3.19    0.39
  -3   5  -3    3.17    0.42
   3   5   3    3.49    0.35
  -3  -5  -3    3.14    0.39
   3  -5   3    4.27    0.45
  -3  -5  -3    2.93    0.50
  -3   5  -4   33.66    1.14
  -3  -5  -4   38.90    1.37
   3  -5   4   35.14    1.05
  -3  -5  -4   35.70    1.07
  -3   5  -5   77.63    1.84
  -3   5  -5   74.91    2.02
  -3  -5  -5   78.97    1.69
  -3  -5  -5   80.47    2.13
   3  -5   5   77.04    1.63
  -3   5  -6   55.63    1.56
  -3   5  -6   62.52    1.88
  -3  -5  -6   59.68    1.87
  -3  -5  -6   56.71    1.40
  -3   5  -7    7.03    0.80
  -3   5  -7    9.04    0.68
  -3  -5  -7    7.92    0.55
  -3  -5  -7    8.58    0.88
  -3   5  -8    0.77    0.32
  -3   5  -8    0.62    0.44
  -3  -5  -8    1.33    0.29
  -3  -5  -8    0.95    0.43
  -3   5  -9    7.13    0.69
  -3   5  -9    7.35    0.90
  -3  -5  -9    7.44    0.54
  -3  -5  -9    6.80    0.86
  -3   5 -10    2.45    0.63
  -3   5 -10    2.81    0.48
  -3  -5 -10    3.44    0.68
  -3  -5 -10    3.62    0.45
  -3   5 -11    0.42    0.30
  -3   5 -11    0.26    0.44
  -3  -5 -11    0.10    0.21
  -3  -5 -11    0.58    0.44
   3   6 -13   38.65    1.52
   3  -6 -13   38.85    1.27
   3  -6 -13   41.08    2.11
   3   6 -12    1.42    0.42
   3  -6 -12    1.27    0.34
   3  -6 -12    0.83    0.53
   3   6 -11   38.79    1.61
   3   6 -11   39.73    1.47
   3  -6 -11   41.50    1.28
   3  -6 -11   41.95    1.97
   3   6 -10   34.30    1.42
   3   6 -10   37.37    1.38
   3  -6 -10   36.75    1.77
   3  -6 -10   34.99    1.18
   3   6  -9   26.18    1.17
   3   6  -9   27.68    1.17
   3  -6  -9   27.26    1.03
   3  -6  -9   27.41    1.48
   3   6  -8   11.46    0.75
   3   6  -8   11.50    0.78
   3  -6  -8   11.21    1.07
   3  -6  -8   11.04    0.69
   3   6  -7    1.20    0.32
   3   6  -7    1.09    0.35
   3  -6  -7    0.95    0.41
   3  -6  -7    0.79    0.30
   3   6  -6    3.33    0.49
   3   6  -6    3.46    0.43
   3  -6  -6    3.39    0.45
  -3  -6   6    3.00    0.41
   3  -6  -6    3.67    0.64
   3   6  -5   85.02    2.01
  -3   6   5   84.75    1.64
   3   6  -5   84.65    1.64
   3  -6  -5   82.39    2.22
  -3  -6   5   84.33    1.89
   3  -6  -5   85.10    1.91
   3   6  -4    3.80    0.47
  -3   6   4    5.54    0.50
  -3   6   4    4.94    0.46
   3   6  -4    4.66    0.34
   3  -6  -4    3.63    0.53
   3  -6  -4    4.75    0.52
  -3  -6   4    5.06    0.51
   3   6  -3   90.39    2.03
  -3   6   3   93.53    1.89
   3   6  -3   92.79    1.49
   3  -6  -3   90.01    2.00
  -3  -6   3   91.95    2.01
   3  -6  -3   89.70    2.18
  -3   6   2    0.08    0.20
   3   6  -2    0.34    0.23
  -3  -6   2    0.08    0.21
   3  -6  -2    0.10    0.21
   3  -6  -2    0.84    0.30
   3   6  -1   61.80    1.58
  -3   6   1   63.60    1.57
   3  -6  -1   63.09    1.65
   3  -6  -1   61.83    1.61
  -3  -6   1   64.69    1.61
   3   6   0  121.41    2.34
  -3   6   0  122.23    2.40
   3  -6   0  121.86    2.40
   3  -6   0  120.92    2.41
  -3  -6   0  118.72    2.37
  -3   6  -1   13.16    0.75
   3   6   1   13.11    0.67
  -3  -6  -1   13.99    0.74
   3  -6   1   13.91    0.74
   3  -6   1   14.06    0.73
  -3  -6  -1   13.36    0.86
  -3   6  -2   72.62    1.79
   3   6   2   69.47    1.56
   3  -6   2   73.90    1.76
  -3  -6  -2   71.72    1.71
  -3  -6  -2   73.54    1.98
   3   6   3    0.22    0.19
  -3   6  -3    0.28    0.28
  -3  -6  -3    0.43    0.34
  -3  -6  -3    0.10    0.22
   3  -6   3    0.14    0.22
  -3   6  -4   13.94    0.82
  -3  -6  -4   13.84    0.75
   3  -6   4   14.60    0.75
  -3  -6  -4   13.70    0.95
  -3   6  -5    5.33    0.60
  -3   6  -5    4.99    0.62
  -3  -6  -5    5.63    0.73
  -3  -6  -5    5.85    0.57
  -3   6  -6   23.24    1.18
  -3   6  -6   21.75    1.04
  -3  -6  -6   20.90    1.21
  -3  -6  -6   22.48    0.94
  -3   6  -7    2.52    0.56
  -3   6  -7    2.38    0.46
  -3  -6  -7    2.32    0.41
  -3  -6  -7    2.86    0.61
  -3   6  -8    4.40    0.73
  -3   6  -8    4.18    0.60
  -3  -6  -8    3.66    0.69
  -3  -6  -8    2.54    0.42
  -3   6  -9    9.78    1.06
  -3   6  -9   10.43    0.82
  -3  -6  -9   10.04    1.09
  -3  -6  -9    9.66    0.67
  -3   6 -10    0.11    0.42
  -3   6 -10    0.02    0.28
  -3  -6 -10    0.04    0.39
  -3  -6 -10    0.01    0.24
  -3   6 -11   -0.17    0.42
  -3   6 -11    0.85    0.40
  -3  -6 -11    0.81    0.52
  -3  -6 -11    0.29    0.28
   3   7 -12   26.76    1.33
   3   7 -12   23.72    1.39
   3  -7 -12   25.08    1.11
   3  -7 -12   24.87    1.66
   3   7 -11    1.55    0.47
   3   7 -11    0.98    0.44
   3  -7 -11    0.63    0.50
   3  -7 -11    1.18    0.36
   3   7 -10   25.43    1.24
   3   7 -10   28.75    1.30
   3  -7 -10   27.22    1.12
   3  -7 -10   25.15    1.57
   3   7  -9    3.38    0.55
   3   7  -9    2.18    0.47
   3  -7  -9    1.61    0.41
   3  -7  -9    2.99    0.64
   3   7  -8   78.75    2.14
   3   7  -8   78.04    1.95
   3  -7  -8   77.56    2.51
   3  -7  -8   79.15    1.97
   3   7  -7   13.41    0.88
   3   7  -7   14.51    0.76
   3  -7  -7   14.10    1.09
   3  -7  -7   13.04    0.80
   3   7  -6   77.77    1.70
   3   7  -6   75.05    2.03
   3  -7  -6   74.46    2.31
   3  -7  -6   76.76    1.93
  -3  -7   6   74.33    1.86
   3   7  -5    6.37    0.67
   3   7  -5    6.89    0.47
  -3  -7   5    6.76    0.64
   3  -7  -5    7.35    0.85
   3  -7  -5    5.83    0.63
   3   7  -4   72.40    1.41
  -3   7   4   71.68    1.66
   3   7  -4   70.82    1.89
  -3  -7   4   70.76    1.83
   3  -7  -4   70.49    1.84
   3  -7  -4   72.94    2.11
   3   7  -3   20.47    0.63
   3   7  -3   20.90    0.98
  -3   7   3   18.85    0.85
  -3  -7   3   20.30    0.96
   3  -7  -3   18.33    1.05
   3  -7  -3   21.81    0.98
   3   7  -2  142.43    2.83
  -3   7   2  142.93    2.70
   3  -7  -2  138.37    2.91
   3  -7  -2  138.11    2.81
  -3  -7   2  142.05    2.80
   3   7  -1   32.42    1.18
  -3   7   1   30.89    1.16
   3  -7  -1   34.14    1.25
   3  -7  -1   35.52    1.32
  -3  -7   1   33.53    1.22
  -3   7   0   13.80    0.80
   3   7   0   16.51    0.82
  -3  -7   0   14.25    0.82
   3  -7   0   15.97    0.86
   3  -7   0   14.48    0.86
   3   7   1   38.99    1.24
  -3   7  -1   37.26    1.32
   3  -7   1   38.82    1.32
  -3  -7  -1   38.39    1.31
  -3  -7  -1   41.64    1.56
   3  -7   1   37.68    1.31
  -3   7  -2   57.37    1.67
   3   7   2   54.86    1.46
  -3  -7  -2   57.97    1.62
   3  -7   2   57.96    1.62
  -3  -7  -2   61.55    1.93
   3  -7   2   57.67    1.65
   3   7   3    0.33    0.25
  -3   7  -3    0.68    0.33
  -3  -7  -3    0.17    0.37
   3  -7   3    0.26    0.27
  -3  -7  -3    0.53    0.29
  -3   7  -4   59.89    1.79
  -3  -7  -4   61.87    1.69
  -3  -7  -4   60.41    2.01
   3  -7   4   59.31    1.64
  -3   7  -5    1.33    0.41
  -3  -7  -5    2.17    0.42
  -3  -7  -5    2.59    0.59
  -3   7  -6   45.43    1.73
  -3   7  -6   46.42    1.61
  -3  -7  -6   48.33    1.48
  -3  -7  -6   46.67    1.84
  -3   7  -7    4.79    0.72
  -3   7  -7    2.76    0.52
  -3  -7  -7    3.34    0.71
  -3  -7  -7    4.19    0.54
  -3   7  -8   22.22    1.33
  -3   7  -8   22.26    1.18
  -3  -7  -8   24.25    1.06
  -3  -7  -8   24.75    1.43
  -3   7  -9    5.78    0.86
  -3   7  -9    4.73    0.66
  -3  -7  -9    7.38    1.00
  -3  -7  -9    5.05    0.61
  -3   7 -10    1.95    0.51
  -3   7 -10    2.03    0.63
  -3  -7 -10    2.44    0.68
  -3  -7 -10    2.56    0.48
   3   8 -11    6.02    0.78
   3   8 -11    4.81    0.72
   3  -8 -11    4.22    0.62
   3  -8 -11    4.05    0.86
   3   8 -10    0.28    0.32
   3   8 -10   -0.13    0.31
   3  -8 -10   -0.05    0.28
   3  -8 -10   -0.34    0.41
   3   8  -9   34.88    1.50
   3   8  -9   33.39    1.34
   3  -8  -9   31.10    1.29
   3  -8  -9   31.15    1.71
   3   8  -8    7.36    0.82
   3   8  -8    8.84    0.79
   3  -8  -8    5.86    0.90
   3  -8  -8    6.68    0.72
   3   8  -7   33.26    1.16
   3   8  -7   32.50    1.40
   3  -8  -7   30.89    1.28
   3  -8  -7   31.47    1.61
   3   8  -6    0.65    0.36
   3   8  -6    0.99    0.30
   3  -8  -6    1.37    0.49
   3  -8  -6    0.23    0.31
   3   8  -5   55.03    1.78
   3   8  -5   55.20    1.32
  -3  -8   5   54.90    1.66
   3  -8  -5   50.88    1.92
   3  -8  -5   52.83    1.68
   3   8  -4   -0.24    0.16
  -3   8   4   -0.21    0.29
   3   8  -4   -0.47    0.21
   3  -8  -4   -0.55    0.23
  -3  -8   4    0.36    0.29
   3  -8  -4   -0.10    0.36
   3   8  -3  101.35    2.45
  -3   8   3  106.23    2.29
   3   8  -3  107.46    1.82
  -3  -8   3  100.09    2.40
   3  -8  -3  110.44    2.70
   3  -8  -3  102.87    2.45
  -3   8   2   47.90    1.48
   3   8  -2   43.89    1.51
   3  -8  -2   43.83    1.61
  -3  -8   2   46.46    1.55
   3  -8  -2   45.31    1.56
  -3   8   1    0.73    0.33
   3   8  -1    0.31    0.29
  -3  -8   1    0.28    0.31
   3  -8  -1    0.20    0.31
   3  -8  -1    0.24    0.37
   3   8   0    0.15    0.25
  -3   8   0    0.20    0.29
   3  -8   0   -0.03    0.26
  -3  -8   0    0.11    0.39
   3  -8   0   -0.22    0.29
  -3  -8   0   -0.15    0.25
  -3   8  -1    0.91    0.37
   3   8   1    0.66    0.31
  -3  -8  -1    0.53    0.45
  -3  -8  -1    0.25    0.30
   3  -8   1    0.31    0.34
   3  -8   1    0.28    0.33
  -3   8  -2   10.25    0.80
   3   8   2   10.17    0.70
   3  -8   2   11.58    0.82
  -3  -8  -2   10.43    0.79
  -3  -8  -2   10.95    1.09
   3  -8   2   11.58    0.85
  -3   8  -3   36.69    1.42
  -3  -8  -3   32.91    1.31
  -3  -8  -3   35.50    1.60
   3  -8   3   35.74    1.35
  -3   8  -4   -0.01    0.30
   3  -8   4    0.35    0.37
  -3  -8  -4   -0.09    0.41
  -3  -8  -4   -0.26    0.24
  -3   8  -5    3.01    0.57
  -3  -8  -5    4.53    0.61
  -3  -8  -5    3.60    0.69
  -3   8  -6   23.40    1.23
  -3   8  -6   21.85    1.22
  -3  -8  -6   22.73    1.39
  -3  -8  -6   21.18    1.06
  -3   8  -7   11.37    1.08
  -3   8  -7   13.12    0.99
  -3  -8  -7   11.74    0.83
  -3  -8  -7   11.19    1.15
  -3   8  -8    0.59    0.37
  -3   8  -8   -0.11    0.32
  -3  -8  -8    0.33    0.31
  -3  -8  -8    0.00    0.38
  -3   8  -9    0.21    0.32
  -3   8  -9    0.66    0.47
  -3  -8  -9   -0.17    0.29
  -3  -8  -9    0.01    0.44
  -3   8 -10   13.01    1.31
  -3   8 -10   12.52    1.14
  -3  -8 -10   12.82    1.36
  -3  -8 -10   14.96    0.96
   3   9 -10   43.39    2.35
   3   9 -10   42.01    1.79
   3  -9 -10   44.70    2.20
   3  -9 -10   42.05    1.63
   3   9  -9    0.92    0.45
   3   9  -9    1.13    0.40
   3  -9  -9    0.85    0.56
   3  -9  -9    0.40    0.37
   3   9  -8   13.87    1.05
   3   9  -8   13.60    0.85
   3  -9  -8   15.45    1.29
   3  -9  -8   17.12    1.05
   3   9  -7    3.65    0.51
   3   9  -7    1.61    0.48
   3  -9  -7    1.99    0.61
   3  -9  -7    2.09    0.48
   3   9  -6   11.18    0.67
   3   9  -6   10.03    0.93
   3  -9  -6   10.08    1.11
   3  -9  -6    8.11    0.83
   3   9  -5    5.49    0.74
   3   9  -5    5.96    0.54
  -3  -9   5    5.60    0.70
   3  -9  -5    5.61    0.71
   3  -9  -5    7.12    0.92
   3   9  -4   26.98    0.87
   3   9  -4   26.82    1.29
   3  -9  -4   26.91    1.44
   3  -9  -4   29.19    1.32
  -3  -9   4   26.15    1.23
   3   9  -3    0.59    0.22
  -3   9   3    1.00    0.35
   3   9  -3    0.91    0.38
   3  -9  -3    1.30    0.43
   3  -9  -3    0.62    0.45
  -3  -9   3    0.83    0.39
  -3   9   2   21.63    1.08
   3   9  -2   19.98    1.11
  -3  -9   2   19.69    1.10
   3  -9  -2   20.63    1.13
   3  -9  -2   19.18    1.20
  -3   9   1    9.98    0.79
   3   9  -1    8.38    0.79
   3  -9  -1    9.13    0.88
   3  -9  -1    9.23    0.96
  -3  -9   1   10.92    0.98
  -3   9   0   16.16    0.98
   3   9   0   15.30    0.94
  -3  -9   0   18.58    1.24
   3  -9   0   15.69    0.99
   3  -9   0   16.04    1.06
  -3  -9   0   15.63    1.00
  -3   9  -1    4.74    0.65
   3   9   1    4.56    0.60
  -3  -9  -1    5.37    0.67
   3  -9   1    6.90    0.80
   3  -9   1    4.02    0.64
  -3  -9  -1    4.43    0.74
  -3   9  -2   36.86    1.52
   3  -9   2   40.21    1.53
  -3  -9  -2   42.48    1.81
  -3  -9  -2   35.17    1.45
   3  -9   2   36.93    1.50
  -3   9  -3   22.75    1.23
  -3  -9  -3   25.92    1.47
   3  -9   3   23.10    1.17
  -3  -9  -3   22.18    1.17
   3  -9   3   25.74    1.25
  -3   9  -4    2.35    0.54
  -3  -9  -4    4.23    0.63
  -3  -9  -4    3.44    0.71
  -3   9  -5    0.49    0.40
  -3  -9  -5    0.24    0.33
  -3  -9  -5   -0.52    0.39
  -3   9  -6   22.12    1.29
  -3   9  -6   22.17    1.29
  -3  -9  -6   20.75    1.43
  -3  -9  -6   22.29    1.18
  -3   9  -7    1.45    0.49
  -3   9  -7    2.54    0.62
  -3  -9  -7    2.14    0.51
  -3  -9  -7    1.34    0.56
  -3   9  -8    8.52    0.95
  -3   9  -8    8.84    1.06
  -3  -9  -8    7.43    1.05
  -3  -9  -8    8.65    0.88
  -3   9  -9   17.20    1.23
  -3   9  -9   15.06    1.24
  -3  -9  -9   17.55    1.42
  -3  -9  -9   15.46    1.04
   3  10  -9   28.28    1.56
   3 -10  -9   26.23    1.37
   3 -10  -9   30.02    1.83
   3  10  -8    0.13    0.37
   3 -10  -8    0.46    0.53
   3 -10  -8    0.23    0.36
   3  10  -7   50.91    1.98
   3 -10  -7   43.95    1.76
   3 -10  -7   45.74    2.13
   3  10  -6    8.48    0.98
   3 -10  -6    5.37    0.90
   3 -10  -6    5.91    0.77
   3  10  -5    3.38    0.66
   3 -10  -5    3.71    0.75
   3 -10  -5    3.01    0.62
   3  10  -4   12.27    1.12
  -3 -10   4   11.99    0.95
   3 -10  -4    8.50    1.05
   3 -10  -4   10.60    1.01
   3  10  -3   18.45    1.12
   3 -10  -3   18.13    1.17
   3 -10  -3   18.96    1.29
  -3 -10   3   17.78    1.12
  -3  10   2    0.19    0.36
   3  10  -2    0.88    0.40
   3 -10  -2    0.91    0.44
  -3 -10   2    1.04    0.44
   3 -10  -2    0.59    0.45
   3  10  -1    0.82    0.39
  -3  10   1    0.15    0.34
  -3 -10   1    0.34    0.48
   3 -10  -1    0.46    0.40
   3 -10  -1    0.77    0.43
  -3 -10   1    0.31    0.35
  -3  10   0   28.86    1.35
   3  10   0   29.22    1.33
   3 -10   0   31.96    1.51
  -3 -10   0   28.47    1.39
  -3 -10   0   28.19    1.61
   3 -10   0   27.53    1.36
  -3  10  -1    9.87    0.95
  -3 -10  -1   10.16    1.00
   3 -10   1   10.18    0.97
  -3 -10  -1   10.32    1.13
   3 -10   1   10.44    1.02
  -3  10  -2   29.81    1.44
  -3 -10  -2   31.85    1.69
   3 -10   2   32.62    1.49
   3 -10   2   25.64    1.33
  -3 -10  -2   27.73    1.38
  -3  10  -3   27.22    1.43
   3 -10   3   31.16    1.86
   3 -10   3   27.53    1.39
  -3 -10  -3   29.09    1.70
  -3 -10  -3   30.50    1.43
  -3  10  -4   10.17    1.04
   3 -10   4   11.78    1.08
  -3 -10  -4   11.40    1.02
  -3 -10  -4    9.41    1.10
  -3  10  -5    0.37    0.40
  -3 -10  -5    0.19    0.33
  -3 -10  -5    0.08    0.43
  -3  10  -6    3.25    0.65
  -3  10  -6    3.80    0.70
  -3 -10  -6    4.02    0.68
  -3 -10  -6    4.80    0.89
  -3  10  -7    2.10    0.62
  -3  10  -7    1.47    0.51
  -3 -10  -7    1.93    0.51
  -3 -10  -7    1.81    0.64
   3  11  -8    0.30    0.42
   3 -11  -8    0.29    0.53
   3 -11  -8   -0.04    0.39
   3  11  -7    1.75    0.58
   3 -11  -7    1.54    0.64
   3 -11  -7    1.41    0.54
   3  11  -6    8.39    0.99
   3 -11  -6   10.37    1.08
   3 -11  -6    9.91    1.20
   3  11  -5   13.04    1.21
   3 -11  -5   13.75    1.23
   3 -11  -5   10.93    1.22
   3  11  -4    0.17    0.39
  -3 -11   4   -0.15    0.36
   3 -11  -4    0.47    0.49
   3 -11  -4    0.66    0.42
   3  11  -3    0.96    0.45
  -3 -11   3    0.84    0.46
   3 -11  -3    0.47    0.51
   3 -11  -3    0.22    0.40
   3  11  -2   24.16    1.33
   3 -11  -2   23.86    1.47
   3 -11  -2   22.32    1.35
  -3 -11   2   21.71    1.50
  -3 -11   2   20.06    1.25
   3  11  -1   -0.13    0.37
  -3  11   1    1.27    0.48
  -3 -11   1   -0.09    0.34
  -3 -11   1    0.38    0.52
   3 -11  -1    1.40    0.52
   3 -11  -1    0.83    0.49
  -3  11   0    2.67    0.62
  -3 -11   0    1.60    0.53
   3 -11   0    2.71    0.66
  -3 -11   0    3.26    0.78
   3 -11   0    2.87    0.63
  -3  11  -1   50.27    1.92
  -3 -11  -1   46.20    2.13
  -3 -11  -1   46.44    1.87
   3 -11   1   47.26    1.93
   3 -11   1   48.54    1.89
  -3  11  -2    4.95    0.80
  -3 -11  -2    5.19    0.91
  -3 -11  -2    5.01    0.77
   3 -11   2    6.34    0.89
   3 -11   2    5.44    0.79
  -3  11  -3   39.49    1.78
   3 -11   3   37.92    1.71
  -3 -11  -3   39.01    1.71
  -3 -11  -3   39.42    2.01
  -3  11  -4    1.48    0.54
   3 -11   4    1.70    0.57
  -3 -11  -4    1.44    0.53
  -3 -11  -4    1.71    0.68
  -3  11  -5    8.63    1.03
   3 -11   5   11.80    1.17
  -3 -11  -5   11.47    1.33
  -3 -11  -5    8.49    0.99
  -3  11  -6    1.23    0.53
  -3  11  -6    0.13    0.44
  -3 -11  -6    0.73    0.57
  -3 -11  -6    0.58    0.44
   3 -11   6    0.63    0.52
   3  12  -6   17.28    1.51
   3 -12  -6   13.98    1.32
   3 -12  -6   16.93    1.68
   3  12  -5    3.33    0.72
   3 -12  -5    3.36    0.84
   3 -12  -5    3.95    0.76
   3  12  -4   14.58    1.34
   3 -12  -4   12.85    1.29
   3 -12  -4   13.40    1.40
   3  12  -3    4.41    0.79
   3 -12  -3    6.75    1.01
  -3 -12   3    5.33    0.96
   3 -12  -3    5.70    0.88
  -3 -12   3    5.02    0.82
   3  12  -2   -0.24    0.37
   3 -12  -2   -0.02    0.45
  -3 -12   2    0.05    0.51
   3 -12  -2    0.83    0.52
  -3 -12   2   -0.14    0.38
   3 -12  -1   26.47    1.64
  -3 -12   1   27.20    1.53
  -3 -12   1   26.05    1.73
  -3  12   0   21.20    1.38
   3 -12   0   22.95    1.41
  -3 -12   0   19.30    1.54
   3 -12   0   24.78    1.53
  -3 -12   0   23.85    1.46
  -3  12  -1    1.17    0.56
   3 -12   1    1.01    0.49
   3 -12   1    2.65    0.71
  -3 -12  -1    0.42    0.57
  -3 -12  -1    1.17    0.50
  -3  12  -2   10.14    1.12
  -3 -12  -2   11.21    1.18
  -3 -12  -2    9.61    1.30
   3 -12   2   11.10    1.19
  -3  12  -3    2.26    0.67
  -3 -12  -3    2.17    0.74
  -3 -12  -3    1.87    0.60
   3 -12   3    1.88    0.64
  -3  12  -4   36.79    1.85
   3 -12   4   33.27    1.71
  -3 -12  -4   33.31    2.00
  -3 -12  -4   37.47    1.80
   4   0 -15   -0.27    0.17
   4   0 -14   19.92    1.44
   4   0 -14   18.46    0.71
   4   0 -13   -0.14    0.33
   4   0 -13   -0.23    0.14
   4   0 -12   26.99    1.48
   4   0 -12   27.97    0.82
   4   0 -11   -0.03    0.16
   4   0 -11    0.39    0.37
   4   0 -10    4.63    0.36
   4   0 -10    4.29    0.36
   4   0 -10    4.58    0.71
   4   0  -9   -0.14    0.12
   4   0  -9   -0.14    0.28
   4   0  -9    0.06    0.14
   4   0  -8    1.54    0.22
   4   0  -8    1.59    0.24
   4   0  -8    1.13    0.39
   4   0  -7    0.09    0.11
   4   0  -7    0.02    0.12
   4   0  -7   -0.19    0.19
   4   0  -6    0.42    0.23
   4   0  -6    0.26    0.14
   4   0  -5   -0.03    0.12
   4   0  -5   -0.19    0.16
  -4   0   4  127.78    1.91
   4   0  -4  125.62    2.01
   4   0  -4  126.49    2.25
  -4   0   3   -0.13    0.12
   4   0  -3    0.01    0.14
   4   0  -3   -0.05    0.11
   4   0  -2   42.79    0.96
  -4   0   2   40.53    0.91
   4   0  -1   -0.02    0.12
  -4   0   1    0.01    0.13
  -4   0   0   38.84    0.91
   4   0   0   39.66    0.91
   4   0   1    0.08    0.12
  -4   0  -1   -0.01    0.12
  -4   0  -1    0.07    0.09
  -4   0  -2  134.29    2.29
  -4   0  -2  135.78    2.12
   4   0   2  133.74    2.03
  -4   0  -2  134.44    1.83
  -4   0  -3    0.09    0.11
  -4   0  -3    0.02    0.15
  -4   0  -3   -0.09    0.12
  -4   0  -4    1.62    0.23
  -4   0  -4    1.70    0.34
  -4   0  -4    1.78    0.23
  -4   0  -5   -0.12    0.20
  -4   0  -5   -0.05    0.15
  -4   0  -5    0.10    0.15
  -4   0  -5    0.06    0.15
  -4   0  -5   -0.03    0.13
  -4   0  -6   61.13    1.41
  -4   0  -6   60.16    1.27
  -4   0  -6   63.17    1.79
  -4   0  -6   60.33    1.27
  -4   0  -6   61.80    1.28
  -4   0  -7   -0.13    0.19
  -4   0  -7    0.24    0.15
  -4   0  -7   -0.01    0.17
  -4   0  -7    0.02    0.16
  -4   0  -7    0.38    0.31
  -4   0  -8   14.09    0.62
  -4   0  -8   13.52    0.75
  -4   0  -8   13.73    0.61
  -4   0  -8   14.25    1.02
  -4   0  -9    0.11    0.19
  -4   0  -9   -0.07    0.22
  -4   0  -9    0.07    0.17
  -4   0  -9   -0.29    0.30
  -4   0 -10   14.42    0.65
  -4   0 -10   14.06    1.29
  -4   0 -10   14.39    0.89
  -4   0 -11   -0.19    0.38
  -4   0 -11    0.43    0.22
  -4   0 -11   -0.16    0.27
  -4   0 -12   13.71    1.45
  -4   0 -12   12.49    0.66
   4   1 -14    5.87    0.46
   4  -1 -14    7.26    1.07
   4  -1 -14    6.26    0.43
   4   1 -13   52.79    1.28
   4  -1 -13   50.75    1.16
   4  -1 -13   50.99    2.12
   4   1 -12   17.02    0.69
   4  -1 -12   15.27    1.15
   4  -1 -12   17.19    0.62
   4   1 -11    0.12    0.17
   4  -1 -11    0.34    0.17
   4  -1 -11   -0.29    0.33
   4   1 -10    5.20    0.43
   4   1 -10    4.75    0.68
   4  -1 -10    5.00    0.36
   4  -1 -10    4.11    0.66
   4  -1 -10    4.63    0.33
   4   1  -9   77.07    2.19
   4   1  -9   81.57    1.55
   4   1  -9   78.51    1.49
   4  -1  -9   78.71    1.39
   4  -1  -9   79.46    1.44
   4  -1  -9   80.27    2.23
   4   1  -8   59.71    1.78
   4   1  -8   58.25    1.23
   4   1  -8   58.22    1.20
   4  -1  -8   56.89    1.11
   4  -1  -8   56.09    1.14
   4  -1  -8   55.11    1.73
   4   1  -7   25.33    1.08
   4   1  -7   23.98    0.73
   4  -1  -7   24.98    0.66
   4  -1  -7   25.45    0.70
   4  -1  -7   25.36    1.08
   4   1  -6   36.43    0.91
   4  -1  -6   37.20    0.88
   4   1  -5    5.80    0.37
   4  -1  -5    6.43    0.37
   4  -1  -5    6.40    0.50
  -4   1   4  180.78    2.55
   4   1  -4  177.94    2.70
  -4  -1   4  181.17    2.60
   4  -1  -4  182.98    2.95
   4  -1  -4  184.64    2.69
   4   1  -3    1.83    0.24
  -4   1   3    1.58    0.22
   4  -1  -3    1.57    0.25
   4  -1  -3    1.69    0.24
  -4  -1   3    2.09    0.25
   4   1  -2  304.74    4.08
  -4   1   2  300.31    4.01
   4  -1  -2  295.96    3.99
  -4  -1   2  295.66    4.02
   4  -1  -2  297.69    4.05
   4   1  -1   25.77    0.72
  -4   1   1   24.55    0.70
  -4  -1   1   25.09    0.72
   4  -1  -1   24.97    0.72
   4  -1  -1   23.94    0.57
   4   1   0   46.58    1.02
  -4   1   0   47.17    1.03
  -4  -1   0   46.68    1.03
   4  -1   0   46.21    1.03
  -4   1  -1   73.38    1.39
   4   1   1   75.70    1.36
  -4  -1  -1   76.88    1.38
   4  -1   1   74.90    1.39
  -4  -1  -1   74.34    1.39
   4   1   2    0.89    0.16
  -4   1  -2    0.96    0.20
  -4   1  -2    1.14    0.21
   4  -1   2    1.06    0.19
  -4  -1  -2    1.55    0.22
  -4  -1  -2    1.46    0.25
  -4  -1  -2    1.20    0.20
  -4   1  -3    9.37    0.58
  -4   1  -3   10.21    0.48
  -4  -1  -3   10.15    0.56
  -4  -1  -3   10.77    0.48
  -4  -1  -3   11.20    0.48
  -4   1  -4    1.10    0.17
  -4   1  -4    0.99    0.28
  -4   1  -4    0.95    0.21
  -4  -1  -4    0.93    0.26
  -4  -1  -4    0.98    0.20
  -4  -1  -4    0.82    0.22
  -4   1  -5    1.11    0.34
  -4   1  -5    0.54    0.17
  -4   1  -5    0.70    0.21
  -4  -1  -5    0.33    0.24
  -4  -1  -5    1.07    0.21
  -4  -1  -5    0.71    0.23
  -4  -1  -5    0.59    0.17
  -4   1  -6    0.73    0.23
  -4   1  -6    1.00    0.23
  -4   1  -6    0.70    0.34
  -4  -1  -6    0.99    0.21
  -4  -1  -6    0.73    0.27
  -4  -1  -6    0.67    0.30
  -4  -1  -6    0.74    0.21
  -4   1  -7   10.66    0.56
  -4   1  -7   10.27    0.58
  -4   1  -7   10.17    0.83
  -4   1  -7   12.11    0.71
  -4  -1  -7   10.54    0.68
  -4  -1  -7   11.49    0.51
  -4  -1  -7   10.87    0.82
  -4  -1  -7   10.58    0.51
  -4   1  -8   66.74    2.12
  -4   1  -8   66.38    1.64
  -4   1  -8   64.82    1.46
  -4  -1  -8   68.17    1.79
  -4  -1  -8   68.74    1.39
  -4  -1  -8   73.94    2.17
  -4   1  -9    0.79    0.26
  -4   1  -9    1.68    0.52
  -4  -1  -9    0.35    0.29
  -4  -1  -9    0.77    0.22
  -4  -1  -9    0.71    0.42
  -4   1 -10    0.76    0.43
  -4   1 -10    0.05    0.21
  -4  -1 -10    0.25    0.28
  -4  -1 -10   -0.02    0.34
  -4  -1 -10    0.37    0.21
  -4   1 -11    5.74    0.94
  -4   1 -11    5.25    0.51
  -4  -1 -11    5.09    0.45
  -4  -1 -11    4.05    0.78
  -4  -1 -11    5.61    0.75
  -4   1 -12    0.81    0.52
  -4   1 -12    1.45    0.32
  -4   1 -12    2.44    0.37
  -4  -1 -12    1.58    0.30
   4   2 -14   14.16    0.72
   4  -2 -14   15.44    1.29
   4  -2 -14   15.04    0.61
   4   2 -13    1.90    0.35
   4  -2 -13    1.74    0.28
   4  -2 -13    1.45    0.58
   4   2 -12   33.88    1.04
   4  -2 -12   33.19    0.90
   4  -2 -12   36.74    1.73
   4   2 -11   13.42    0.65
   4  -2 -11   13.80    0.56
   4  -2 -11   13.68    1.08
   4   2 -10   15.96    0.68
   4  -2 -10   15.05    1.07
   4  -2 -10   13.94    0.56
   4  -2 -10   13.72    0.59
   4   2  -9    0.36    0.20
   4   2  -9    0.61    0.22
   4  -2  -9    1.12    0.43
   4  -2  -9    0.56    0.18
   4  -2  -9    0.62    0.19
   4   2  -8    5.56    0.47
   4  -2  -8    4.54    0.33
   4  -2  -8    4.86    0.63
   4  -2  -8    5.47    0.37
   4   2  -7   16.06    0.64
   4  -2  -7   15.90    0.57
   4  -2  -7   14.35    0.86
   4  -2  -7   14.96    0.54
   4   2  -6   53.03    1.22
   4  -2  -6   54.92    1.15
   4  -2  -6   55.03    1.55
   4   2  -5    0.67    0.19
  -4  -2   5    0.43    0.16
   4  -2  -5    0.49    0.24
   4  -2  -5    0.41    0.17
  -4   2   4   14.63    0.50
   4   2  -4   14.38    0.59
   4  -2  -4   13.76    0.55
   4  -2  -4   13.99    0.66
  -4  -2   4   13.62    0.53
  -4   2   3  161.38    2.41
   4   2  -3  161.48    2.53
   4  -2  -3  158.78    2.58
  -4  -2   3  161.69    2.47
   4  -2  -3  161.11    2.51
  -4   2   2   11.54    0.49
   4   2  -2   11.45    0.51
   4  -2  -2   12.05    0.52
   4  -2  -2   10.61    0.47
  -4  -2   2   10.70    0.49
   4   2  -1    6.82    0.40
  -4   2   1    6.55    0.39
   4  -2  -1    7.62    0.35
  -4  -2   1    7.90    0.43
  -4   2   0   87.54    1.61
  -4   2   0   88.56    1.62
   4   2   0   88.52    1.58
   4  -2   0   87.24    1.28
   4  -2   0   87.79    1.63
  -4  -2   0   85.94    1.60
  -4  -2   0   87.69    1.34
  -4   2  -1    2.99    0.32
   4   2   1    2.87    0.29
  -4  -2  -1    2.36    0.28
   4  -2   1    2.85    0.31
  -4  -2  -1    2.89    0.27
   4   2   2   17.33    0.55
  -4   2  -2   18.73    0.67
   4  -2   2   17.65    0.62
  -4  -2  -2   18.30    0.66
  -4  -2  -2   17.78    0.63
  -4  -2  -2   16.90    0.62
  -4   2  -3    9.46    0.50
  -4  -2  -3    7.88    0.49
  -4  -2  -3    8.73    0.50
   4  -2   3    8.19    0.41
  -4  -2  -3    8.35    0.44
  -4   2  -4    6.34    0.44
  -4   2  -4    7.28    0.59
  -4  -2  -4    6.51    0.48
  -4  -2  -4    6.75    0.41
  -4  -2  -4    6.54    0.50
  -4   2  -5    0.62    0.29
  -4   2  -5    0.24    0.19
  -4  -2  -5    0.26    0.24
  -4  -2  -5    0.09    0.21
  -4  -2  -5    0.49    0.22
  -4  -2  -5    0.42    0.18
  -4   2  -6    0.17    0.29
  -4   2  -6    0.24    0.21
  -4  -2  -6    0.32    0.25
  -4  -2  -6    0.32    0.18
  -4  -2  -6    0.35    0.17
  -4  -2  -6    0.18    0.27
  -4   2  -7    0.18    0.32
  -4   2  -7    0.05    0.21
  -4  -2  -7    0.15    0.32
  -4  -2  -7    0.19    0.27
  -4  -2  -7   -0.02    0.17
  -4  -2  -7    0.23    0.17
  -4   2  -8    0.92    0.28
  -4   2  -8    0.94    0.42
  -4  -2  -8    1.00    0.42
  -4  -2  -8    1.01    0.36
  -4  -2  -8    0.60    0.21
  -4   2  -9   11.77    0.66
  -4   2  -9   10.56    1.06
  -4  -2  -9   10.72    0.55
  -4  -2  -9   11.46    0.83
  -4  -2  -9   10.75    1.04
  -4   2 -10    0.26    0.24
  -4   2 -10    0.40    0.41
  -4  -2 -10    0.87    0.43
  -4  -2 -10   -0.46    0.25
  -4  -2 -10    0.10    0.19
  -4   2 -11    0.55    0.28
  -4   2 -11    0.84    0.48
  -4  -2 -11    0.66    0.23
  -4  -2 -11    0.66    0.38
  -4   2 -12    0.32    0.52
  -4   2 -12    1.08    0.32
  -4  -2 -12    0.59    0.39
  -4  -2 -12    0.74    0.26
   4   3 -14    1.38    0.35
   4  -3 -14    1.23    0.57
   4  -3 -14    1.10    0.26
   4   3 -13    3.34    0.45
   4  -3 -13    3.80    0.78
   4  -3 -13    3.32    0.37
   4   3 -12   23.63    0.95
   4  -3 -12   29.16    1.61
   4  -3 -12   26.66    0.83
   4   3 -11    8.07    0.58
   4  -3 -11    7.16    0.89
   4  -3 -11    6.95    0.46
   4   3 -10   21.82    0.86
   4  -3 -10   19.03    0.69
   4  -3 -10   19.75    1.23
   4   3  -9   30.58    1.01
   4  -3  -9   31.94    0.87
   4  -3  -9   31.34    1.43
   4  -3  -9   34.67    0.93
   4   3  -8   27.73    0.93
   4  -3  -8   27.47    1.27
   4  -3  -8   28.00    0.83
   4  -3  -8   26.47    0.78
   4   3  -7   11.80    0.60
   4  -3  -7   12.48    0.83
   4  -3  -7   11.57    0.54
   4   3  -6   32.40    0.98
   4  -3  -6   34.13    0.93
   4  -3  -6   32.80    1.21
   4   3  -5    6.83    0.46
   4  -3  -5    6.27    0.42
   4  -3  -5    5.47    0.56
  -4  -3   5    6.01    0.40
  -4   3   4  403.71    5.28
   4   3  -4  406.09    5.53
   4  -3  -4  409.09    5.75
   4  -3  -4  409.29    5.46
  -4  -3   4  403.44    5.42
  -4   3   3   82.31    1.54
   4   3  -3   83.07    1.65
   4  -3  -3   82.95    1.63
   4  -3  -3   83.32    1.70
  -4  -3   3   80.63    1.59
  -4   3   2    8.21    0.45
   4   3  -2    8.93    0.48
  -4  -3   2    9.84    0.51
   4  -3  -2    8.60    0.47
   4  -3  -2    8.30    0.47
  -4   3   1    1.27    0.24
   4   3  -1    1.51    0.26
  -4   3   1    1.62    0.28
  -4  -3   1    1.52    0.26
   4  -3  -1    0.97    0.20
   4  -3  -1    1.32    0.25
  -4   3   0   15.38    0.63
   4   3   0   15.39    0.60
  -4  -3   0   14.87    0.38
   4  -3   0   15.01    0.49
  -4  -3   0   14.81    0.61
   4  -3   0   15.29    0.64
   4   3   1   25.29    0.76
  -4   3  -1   26.27    0.84
   4  -3   1   25.40    0.82
  -4  -3  -1   25.87    0.65
  -4  -3  -1   25.62    0.81
   4  -3   1   24.97    0.58
  -4   3  -2    5.32    0.47
   4   3   2    4.52    0.32
   4  -3   2    4.81    0.43
  -4  -3  -2    5.01    0.47
   4  -3   2    4.53    0.25
  -4  -3  -2    5.09    0.39
  -4  -3  -2    4.75    0.34
  -4   3  -3   19.29    0.75
  -4  -3  -3   19.01    0.70
  -4  -3  -3   19.80    0.74
   4  -3   3   17.55    0.66
  -4  -3  -3   19.43    0.80
  -4   3  -4    2.60    0.37
  -4   3  -4    3.09    0.46
  -4  -3  -4    3.08    0.40
  -4  -3  -4    3.74    0.47
  -4  -3  -4    3.12    0.35
  -4   3  -5   44.08    1.21
  -4   3  -5   43.15    1.46
  -4  -3  -5   43.77    1.10
  -4  -3  -5   42.86    1.34
  -4  -3  -5   42.38    1.33
  -4   3  -6   73.46    2.07
  -4   3  -6   75.29    1.69
  -4  -3  -6   75.83    1.53
  -4  -3  -6   74.42    1.53
  -4  -3  -6   75.02    1.97
  -4  -3  -6   74.82    1.89
  -4   3  -7   52.51    1.81
  -4   3  -7   50.71    1.37
  -4  -3  -7   48.10    1.56
  -4  -3  -7   51.68    1.23
  -4  -3  -7   50.08    1.69
  -4   3  -8   88.34    1.96
  -4   3  -8   87.12    2.50
  -4  -3  -8   89.03    1.75
  -4  -3  -8   89.73    2.30
  -4   3  -9    3.46    0.48
  -4   3  -9    3.63    0.68
  -4  -3  -9    3.35    0.39
  -4  -3  -9    4.03    0.62
  -4   3 -10    2.14    0.40
  -4   3 -10    3.15    0.69
  -4  -3 -10    2.62    0.36
  -4  -3 -10    2.61    0.58
  -4   3 -11    0.85    0.49
  -4   3 -11    0.44    0.29
  -4  -3 -11    0.60    0.25
  -4  -3 -11    0.80    0.43
  -4   3 -12    3.52    0.51
  -4   3 -12    1.82    0.64
  -4  -3 -12    3.09    0.40
  -4  -3 -12    2.99    0.66
   4   4 -14    5.30    0.63
   4  -4 -14    5.28    0.49
   4  -4 -14    4.26    0.90
   4   4 -13    1.54    0.38
   4  -4 -13    1.86    0.33
   4  -4 -13    1.60    0.62
   4   4 -12   13.42    0.80
   4  -4 -12   10.73    1.17
   4  -4 -12   13.60    0.66
   4   4 -11    1.75    0.38
   4  -4 -11    0.73    0.45
   4  -4 -11    1.38    0.30
   4   4 -10   28.41    1.06
   4  -4 -10   27.01    0.89
   4  -4 -10   25.17    1.40
   4   4  -9   50.04    1.40
   4  -4  -9   48.62    1.23
   4  -4  -9   49.87    1.86
   4   4  -8    1.36    0.33
   4  -4  -8    0.76    0.38
   4  -4  -8    1.11    0.27
   4   4  -7   12.59    0.68
   4  -4  -7   12.95    0.90
   4  -4  -7   13.33    0.63
   4   4  -6    7.58    0.54
   4  -4  -6    7.91    0.74
  -4  -4   6    6.72    0.45
   4  -4  -6    7.79    0.50
   4   4  -5   27.03    0.95
   4  -4  -5   26.83    0.89
  -4  -4   5   27.92    0.88
   4  -4  -5   30.29    1.14
  -4   4   4   81.13    1.55
   4   4  -4   78.57    1.71
  -4  -4   4   81.95    1.67
   4  -4  -4   79.53    1.86
   4  -4  -4   81.14    1.68
  -4   4   3  132.47    2.23
   4   4  -3  127.50    2.35
   4  -4  -3  136.04    2.38
  -4  -4   3  130.56    2.32
   4  -4  -3  131.19    2.44
  -4   4   2    2.22    0.32
   4   4  -2    2.03    0.30
  -4   4   2    1.91    0.30
  -4  -4   2    2.24    0.32
   4  -4  -2    2.61    0.35
   4  -4  -2    2.15    0.33
  -4   4   1    6.07    0.45
   4   4  -1    4.45    0.42
  -4  -4   1    5.19    0.46
   4  -4  -1    5.97    0.42
   4  -4  -1    4.86    0.46
   4   4   0   29.97    0.91
  -4   4   0   30.73    0.96
  -4  -4   0   28.54    0.92
   4  -4   0   30.35    0.83
   4  -4   0   29.94    0.96
  -4   4  -1   25.40    0.91
   4   4   1   27.51    0.85
   4  -4   1   27.29    0.92
  -4  -4  -1   28.80    0.92
   4  -4   1   27.48    0.75
  -4   4  -2   19.31    0.79
   4   4   2   18.66    0.66
  -4  -4  -2   19.76    0.88
   4  -4   2   18.23    0.59
   4  -4   2   18.46    0.74
  -4  -4  -2   18.93    0.75
  -4   4  -3   25.22    0.92
  -4  -4  -3   24.79    1.01
   4  -4   3   25.77    0.87
  -4  -4  -3   25.30    0.86
  -4   4  -4    0.23    0.22
  -4  -4  -4    0.14    0.20
   4  -4   4    0.15    0.17
  -4  -4  -4    0.10    0.26
  -4   4  -5   59.95    1.55
  -4   4  -5   61.20    1.82
  -4  -4  -5   58.32    1.71
  -4  -4  -5   62.06    1.44
  -4   4  -6   22.53    0.96
  -4   4  -6   24.12    1.19
  -4  -4  -6   23.69    1.11
  -4  -4  -6   23.99    0.87
  -4   4  -7    0.82    0.40
  -4   4  -7    1.03    0.33
  -4  -4  -7    1.49    0.31
  -4  -4  -7    1.55    0.45
  -4   4  -8   10.33    0.73
  -4   4  -8   12.20    1.14
  -4  -4  -8   10.18    0.60
  -4  -4  -8   10.38    0.87
  -4   4  -9   24.39    1.06
  -4   4  -9   23.28    1.38
  -4  -4  -9   27.47    1.36
  -4  -4  -9   24.13    0.90
  -4   4 -10   22.19    1.04
  -4   4 -10   17.95    1.30
  -4  -4 -10   18.52    1.20
  -4  -4 -10   19.74    0.82
  -4   4 -11    2.06    0.66
  -4   4 -11    2.45    0.47
  -4  -4 -11    3.14    0.66
  -4  -4 -11    2.72    0.40
   4   5 -13   13.16    0.88
   4  -5 -13   14.95    1.50
   4  -5 -13   15.00    0.76
   4   5 -12    7.33    0.72
   4  -5 -12   10.35    1.20
   4  -5 -12    7.12    0.61
   4   5 -11    1.95    0.42
   4  -5 -11    1.89    0.35
   4  -5 -11    1.08    0.51
   4   5 -10   40.51    1.38
   4  -5 -10   42.60    1.23
   4  -5 -10   38.66    1.76
   4   5  -9    1.15    0.35
   4  -5  -9    1.05    0.44
   4  -5  -9    0.95    0.28
   4   5  -8   30.58    1.15
   4   5  -8   29.80    1.10
   4  -5  -8   27.95    1.40
   4  -5  -8   29.97    1.03
   4   5  -7   18.17    0.79
   4   5  -7   18.65    0.89
   4  -5  -7   17.75    1.08
   4  -5  -7   18.07    0.80
   4   5  -6  119.28    2.42
   4   5  -6  116.39    2.09
   4  -5  -6  119.78    2.29
  -4  -5   6  119.50    2.23
   4  -5  -6  115.73    2.69
   4   5  -5   23.44    0.95
  -4   5   5   25.17    0.78
   4   5  -5   23.97    0.70
   4  -5  -5   23.21    0.90
  -4  -5   5   26.39    0.93
   4  -5  -5   22.99    1.07
   4   5  -4   92.16    1.46
  -4   5   4   93.40    1.80
   4   5  -4   95.30    2.04
   4  -5  -4   93.02    1.95
  -4  -5   4   94.19    1.96
   4  -5  -4   96.52    2.19
  -4   5   3    0.71    0.23
  -4   5   3    0.50    0.22
   4   5  -3    0.23    0.22
   4  -5  -3    0.88    0.27
  -4  -5   3    0.56    0.24
   4  -5  -3    0.90    0.31
   4   5  -2    1.24    0.30
  -4   5   2    0.70    0.25
   4  -5  -2    1.36    0.30
  -4  -5   2    1.50    0.31
   4  -5  -2    1.13    0.32
   4   5  -1  308.49    4.57
  -4   5   1  301.75    4.54
   4  -5  -1  304.20    4.50
   4  -5  -1  311.08    4.65
  -4  -5   1  315.46    4.61
  -4   5   0  116.03    2.29
   4   5   0  122.17    2.26
   4  -5   0  116.27    2.14
   4  -5   0  118.27    2.33
  -4  -5   0  122.81    2.32
   4   5   1    2.41    0.34
  -4   5  -1    2.07    0.36
  -4  -5  -1    2.69    0.45
   4  -5   1    2.76    0.35
   4  -5   1    3.03    0.41
  -4  -5  -1    3.60    0.43
   4   5   2    6.27    0.45
  -4   5  -2    5.85    0.54
   4  -5   2    6.21    0.54
   4  -5   2    6.36    0.45
  -4  -5  -2    6.51    0.58
  -4  -5  -2    7.20    0.69
  -4   5  -3    0.93    0.31
   4   5   3    1.56    0.26
   4  -5   3    0.97    0.27
  -4  -5  -3    1.78    0.33
  -4  -5  -3    1.06    0.36
  -4   5  -4   32.97    1.17
   4  -5   4   34.94    1.08
  -4  -5  -4   32.07    1.08
  -4  -5  -4   34.38    1.33
  -4   5  -5    0.18    0.32
  -4   5  -5    0.00    0.26
  -4  -5  -5    0.49    0.26
  -4  -5  -5    1.67    0.47
  -4   5  -6   43.39    1.42
  -4   5  -6   41.37    1.60
  -4  -5  -6   43.50    1.60
  -4  -5  -6   44.74    1.30
  -4   5  -7    6.35    0.84
  -4   5  -7    5.79    0.63
  -4  -5  -7    4.13    0.49
  -4  -5  -7    5.22    0.70
  -4   5  -8    2.70    0.62
  -4   5  -8    2.30    0.44
  -4  -5  -8    2.23    0.39
  -4  -5  -8    2.95    0.61
  -4   5  -9   19.54    1.04
  -4   5  -9   21.63    1.34
  -4  -5  -9   19.19    1.22
  -4  -5  -9   18.71    0.85
  -4   5 -10    3.08    0.54
  -4   5 -10    4.42    0.83
  -4  -5 -10    4.24    0.51
  -4  -5 -10    3.86    0.71
  -4   5 -11    0.08    0.32
  -4   5 -11    0.07    0.42
  -4  -5 -11   -0.25    0.21
  -4  -5 -11    0.63    0.44
   4   6 -13   12.06    0.91
   4  -6 -13   11.21    1.35
   4  -6 -13   11.31    0.75
   4   6 -12    6.94    0.77
   4  -6 -12    8.31    1.14
   4  -6 -12    7.04    0.65
   4   6 -11   26.01    1.20
   4  -6 -11   26.93    1.06
   4  -6 -11   27.59    1.62
   4   6 -10    3.06    0.52
   4  -6 -10    2.56    0.43
   4  -6 -10    3.21    0.69
   4   6  -9   25.26    1.13
   4   6  -9   24.89    1.09
   4  -6  -9   21.95    1.37
   4  -6  -9   25.23    1.03
   4   6  -8    7.65    0.74
   4   6  -8    7.18    0.65
   4  -6  -8    7.40    0.66
   4  -6  -8    7.46    0.93
   4   6  -7    6.53    0.52
   4   6  -7    5.54    0.63
   4  -6  -7    5.99    0.60
   4  -6  -7    4.90    0.71
   4   6  -6   23.80    0.81
   4   6  -6   23.01    1.03
   4  -6  -6   24.98    1.02
  -4  -6   6   24.40    0.97
   4  -6  -6   22.62    1.21
  -4   6   5   39.26    1.09
   4   6  -5   41.24    1.36
   4   6  -5   42.07    0.97
  -4  -6   5   41.23    1.28
   4  -6  -5   43.62    1.56
   4  -6  -5   42.27    1.31
  -4   6   4   16.74    0.74
   4   6  -4   17.18    0.51
   4   6  -4   17.16    0.86
  -4   6   4   17.71    0.75
   4  -6  -4   15.73    0.92
  -4  -6   4   17.75    0.84
   4  -6  -4   16.36    0.84
   4   6  -3   27.09    1.05
  -4   6   3   25.13    0.94
   4  -6  -3   29.38    1.08
  -4  -6   3   27.49    1.04
   4  -6  -3   26.51    1.11
   4   6  -2    3.15    0.45
  -4   6   2    3.05    0.42
   4  -6  -2    2.25    0.43
   4  -6  -2    2.13    0.39
  -4  -6   2    2.68    0.42
   4   6  -1  205.84    3.50
  -4   6   1  210.02    3.51
  -4  -6   1  213.37    3.56
   4  -6  -1  203.17    3.56
   4  -6  -1  203.48    3.48
  -4   6   0    1.16    0.32
   4   6   0    2.00    0.36
   4  -6   0    1.38    0.33
  -4  -6   0    1.40    0.33
   4  -6   0    1.28    0.32
   4   6   1   11.37    0.64
  -4   6  -1   10.18    0.69
   4  -6   1   11.27    0.66
  -4  -6  -1   10.74    0.81
  -4  -6  -1   10.37    0.68
   4  -6   1   10.36    0.69
   4   6   2    1.43    0.31
  -4   6  -2    1.32    0.36
  -4  -6  -2    2.85    0.54
   4  -6   2    1.60    0.34
   4  -6   2    1.13    0.32
  -4  -6  -2    1.63    0.36
  -4   6  -3    2.81    0.45
   4   6   3    3.10    0.40
  -4  -6  -3    2.52    0.53
  -4  -6  -3    2.56    0.42
   4  -6   3    3.42    0.48
  -4   6  -4    1.61    0.41
   4  -6   4    2.01    0.39
  -4  -6  -4    2.48    0.43
  -4  -6  -4    1.77    0.49
  -4   6  -5   87.96    2.19
  -4  -6  -5   86.80    2.38
  -4  -6  -5   86.53    1.99
  -4   6  -6   75.23    2.27
  -4   6  -6   76.98    2.06
  -4  -6  -6   73.52    1.82
  -4  -6  -6   76.22    2.28
  -4   6  -7   15.00    0.94
  -4   6  -7   14.40    1.06
  -4  -6  -7   14.60    0.81
  -4  -6  -7   15.85    1.09
  -4   6  -8   13.04    0.91
  -4   6  -8   12.01    1.18
  -4  -6  -8   14.08    1.08
  -4  -6  -8   12.03    0.75
  -4   6  -9   37.24    1.78
  -4   6  -9   38.83    1.51
  -4  -6  -9   35.54    1.26
  -4  -6  -9   37.17    1.74
  -4   6 -10    1.37    0.46
  -4   6 -10    1.42    0.58
  -4  -6 -10    2.93    0.69
  -4  -6 -10    2.26    0.44
   4   7 -12   22.74    1.24
   4  -7 -12   23.70    1.65
   4  -7 -12   23.95    1.09
   4   7 -11   -0.09    0.28
   4  -7 -11    0.69    0.33
   4  -7 -11    0.23    0.47
   4   7 -10   18.86    1.05
   4   7 -10   17.34    1.04
   4  -7 -10   18.40    0.96
   4  -7 -10   16.45    1.32
   4   7  -9    5.71    0.73
   4   7  -9    4.48    0.59
   4  -7  -9    4.38    0.79
   4  -7  -9    4.13    0.57
   4   7  -8   18.35    0.88
   4   7  -8   17.44    1.01
   4  -7  -8   18.61    1.26
   4  -7  -8   19.17    0.97
   4   7  -7   31.98    1.05
   4   7  -7   31.65    1.32
   4  -7  -7   33.25    1.26
   4  -7  -7   32.89    1.56
   4   7  -6   40.08    1.08
   4   7  -6   40.58    1.47
  -4  -7   6   39.25    1.33
   4  -7  -6   43.10    1.43
   4  -7  -6   42.64    1.72
   4   7  -5   30.15    0.82
   4   7  -5   29.47    1.22
   4  -7  -5   28.65    1.18
   4  -7  -5   30.25    1.40
  -4  -7   5   29.29    1.16
   4   7  -4   61.07    1.76
  -4   7   4   59.50    1.54
  -4   7   4   60.42    1.55
   4   7  -4   61.29    1.12
  -4  -7   4   63.20    1.74
   4  -7  -4   63.26    1.93
   4  -7  -4   60.70    1.73
   4   7  -3    8.97    0.33
   4   7  -3   10.68    0.76
  -4   7   3    9.39    0.66
   4  -7  -3    9.72    0.72
  -4  -7   3   11.09    0.74
   4  -7  -3   10.27    0.80
   4   7  -2   32.65    1.21
  -4   7   2   29.37    1.12
  -4  -7   2   31.46    1.21
   4  -7  -2   29.13    1.21
   4  -7  -2   30.07    1.19
   4   7  -1   88.15    2.07
  -4   7   1   81.79    2.00
   4  -7  -1   83.91    2.07
   4  -7  -1   83.05    2.06
  -4  -7   1   82.78    2.04
  -4   7   0  108.38    2.42
   4   7   0  110.67    2.35
   4  -7   0  110.54    2.38
   4  -7   0  108.35    2.45
  -4  -7   0  109.14    2.41
   4   7   1    1.85    0.39
  -4   7  -1    2.26    0.46
  -4  -7  -1    1.91    0.41
  -4  -7  -1    1.87    0.53
   4  -7   1    1.66    0.38
   4  -7   1    1.92    0.42
   4   7   2   73.11    1.74
  -4   7  -2   73.99    1.98
  -4  -7  -2   72.57    1.91
   4  -7   2   76.67    1.95
   4  -7   2   75.95    1.83
  -4  -7  -2   77.64    2.24
  -4   7  -3   10.70    0.80
   4  -7   3   11.88    0.78
   4  -7   3   11.10    0.72
  -4  -7  -3   10.99    1.03
  -4  -7  -3    9.31    0.72
  -4   7  -4    0.59    0.36
   4  -7   4    0.28    0.36
  -4  -7  -4    0.82    0.33
  -4  -7  -4    0.77    0.43
  -4   7  -5   24.33    1.20
  -4  -7  -5   25.91    1.36
  -4  -7  -5   25.03    1.10
  -4   7  -6    0.73    0.42
  -4   7  -6    1.58    0.45
  -4  -7  -6    1.47    0.39
  -4  -7  -6    0.81    0.45
  -4   7  -7    1.84    0.52
  -4   7  -7    2.12    0.50
  -4  -7  -7    2.30    0.61
  -4  -7  -7    2.04    0.45
  -4   7  -8   18.87    1.30
  -4   7  -8   18.08    1.12
  -4  -7  -8   21.37    1.05
  -4  -7  -8   19.19    1.29
  -4   7  -9    3.13    0.60
  -4   7  -9    3.41    0.73
  -4  -7  -9    3.88    0.79
  -4  -7  -9    4.12    0.58
  -4   7 -10    1.85    0.54
  -4   7 -10    1.14    0.56
  -4  -7 -10    1.65    0.63
  -4  -7 -10    2.31    0.47
   4   8 -11   29.98    1.48
   4  -8 -11   30.86    1.34
   4  -8 -11   30.40    1.83
   4   8 -10    0.92    0.41
   4   8 -10    0.70    0.39
   4  -8 -10    0.90    0.37
   4  -8 -10    1.15    0.58
   4   8  -9    0.45    0.35
   4   8  -9    0.86    0.35
   4  -8  -9    1.59    0.58
   4  -8  -9    1.01    0.39
   4   8  -8    0.43    0.29
   4   8  -8    0.35    0.34
   4  -8  -8    0.92    0.37
   4  -8  -8    0.82    0.49
   4   8  -7   41.81    1.22
   4   8  -7   39.72    1.56
   4  -8  -7   40.92    1.51
   4  -8  -7   43.05    1.85
   4   8  -6   17.37    0.71
   4   8  -6   16.05    1.02
   4  -8  -6   16.59    1.20
   4  -8  -6   18.04    1.01
   4   8  -5   -0.06    0.16
   4   8  -5    0.33    0.30
   4  -8  -5    0.38    0.39
   4  -8  -5    0.02    0.31
  -4  -8   5    0.18    0.31
   4   8  -4    1.28    0.42
  -4   8   4    1.10    0.35
   4   8  -4    1.08    0.21
   4  -8  -4    0.99    0.47
   4  -8  -4    0.41    0.33
  -4  -8   4    1.67    0.43
   4   8  -3   19.55    0.54
  -4   8   3   20.13    0.99
   4   8  -3   19.43    1.04
   4  -8  -3   18.29    1.13
  -4  -8   3   19.50    1.05
   4  -8  -3   19.84    1.07
   4   8  -2    0.15    0.27
   4   8  -2    0.14    0.12
  -4   8   2   -0.02    0.28
   4  -8  -2    0.50    0.33
   4  -8  -2    0.36    0.34
  -4  -8   2    0.14    0.28
   4   8  -1   52.52    1.64
  -4   8   1   54.08    1.66
   4  -8  -1   54.20    1.72
  -4  -8   1   52.22    1.69
   4  -8  -1   52.94    1.71
   4   8   0    0.27    0.29
  -4   8   0    0.43    0.33
   4  -8   0    0.52    0.36
   4  -8   0   -0.36    0.26
  -4  -8   0   -0.01    0.28
  -4  -8   0    0.48    0.37
  -4   8  -1   16.52    0.99
   4   8   1   16.13    0.88
   4  -8   1   15.21    0.95
  -4  -8  -1   17.58    0.99
   4  -8   1   17.12    0.96
  -4  -8  -1   16.48    1.16
  -4   8  -2    1.25    0.40
  -4  -8  -2    1.93    0.45
  -4  -8  -2    1.81    0.55
   4  -8   2    1.11    0.38
   4  -8   2    1.74    0.44
  -4   8  -3   12.90    0.92
   4  -8   3   13.76    0.87
   4  -8   3   13.67    0.89
  -4  -8  -3   13.99    1.09
  -4  -8  -3   14.11    0.90
  -4   8  -4    2.70    0.53
   4  -8   4    2.84    0.51
  -4  -8  -4    2.77    0.66
  -4  -8  -4    2.72    0.51
  -4   8  -5   31.85    1.44
  -4  -8  -5   34.77    1.37
  -4  -8  -5   34.45    1.64
  -4   8  -6    1.30    0.46
  -4   8  -6    1.64    0.51
  -4  -8  -6    0.97    0.54
  -4  -8  -6    2.57    0.52
  -4   8  -7   30.84    1.47
  -4   8  -7   27.45    1.48
  -4  -8  -7   30.89    1.64
  -4  -8  -7   28.02    1.26
  -4   8  -8    6.62    0.94
  -4   8  -8    6.91    0.83
  -4  -8  -8    7.91    1.05
  -4  -8  -8    7.29    0.78
  -4   8  -9    8.50    1.06
  -4   8  -9   10.78    1.04
  -4  -8  -9   12.53    0.91
  -4  -8  -9    9.23    1.13
   4  -9 -11    0.42    0.56
   4   9 -10   27.70    1.48
   4  -9 -10   29.02    1.80
   4  -9 -10   27.55    1.35
   4   9  -9    1.88    0.53
   4  -9  -9    1.54    0.65
   4  -9  -9    1.94    0.50
   4   9  -8   17.37    1.16
   4  -9  -8   20.42    1.16
   4  -9  -8   18.05    1.37
   4   9  -7    0.30    0.35
   4  -9  -7   -0.09    0.29
   4  -9  -7    0.19    0.42
   4   9  -6   24.22    1.29
   4  -9  -6   26.31    1.51
   4  -9  -6   24.75    1.26
   4   9  -5    0.14    0.31
   4  -9  -5    0.02    0.29
   4  -9  -5    0.18    0.40
  -4  -9   5   -0.15    0.29
   4   9  -4    0.37    0.36
  -4  -9   4    1.48    0.43
   4  -9  -4    0.95    0.41
   4  -9  -4    1.12    0.46
  -4   9   3    0.40    0.34
   4   9  -3   -0.19    0.27
  -4  -9   3   -0.19    0.28
   4  -9  -3   -0.11    0.35
   4  -9  -3    0.07    0.32
  -4   9   2  109.24    2.55
   4   9  -2  109.42    2.67
  -4  -9   2  107.01    2.66
   4  -9  -2  109.00    2.78
   4  -9  -2  109.93    2.70
   4   9  -1    0.19    0.30
  -4   9   1    0.69    0.35
   4  -9  -1    0.02    0.31
  -4  -9   1    0.30    0.32
   4  -9  -1    0.33    0.39
  -4   9   0   27.67    1.28
   4   9   0   26.32    1.20
  -4  -9   0   27.28    1.29
   4  -9   0   27.54    1.31
  -4  -9   0   27.20    1.49
   4  -9   0   27.06    1.30
  -4   9  -1   -0.27    0.31
   4   9   1    0.26    0.33
   4  -9   1    0.20    0.34
  -4  -9  -1   -0.55    0.35
   4  -9   1   -0.24    0.33
  -4  -9  -1   -0.55    0.27
  -4   9  -2   92.86    2.50
   4  -9   2   94.27    2.40
  -4  -9  -2   98.64    2.85
  -4  -9  -2   95.59    2.49
   4  -9   2   98.01    2.51
  -4   9  -3   26.97    1.34
   4  -9   3   28.93    1.28
  -4  -9  -3   29.80    1.35
   4  -9   3   29.10    1.36
  -4  -9  -3   28.72    1.56
  -4   9  -4    9.15    0.96
   4  -9   4    9.80    0.93
  -4  -9  -4    8.32    0.84
  -4  -9  -4    7.22    0.96
  -4   9  -5    1.01    0.44
   4  -9   5    1.40    0.48
  -4  -9  -5    0.62    0.52
  -4  -9  -5    1.24    0.43
  -4   9  -6    0.58    0.41
  -4   9  -6    0.06    0.34
  -4  -9  -6   -0.13    0.29
  -4  -9  -6   -1.06    0.32
  -4   9  -7    0.42    0.40
  -4   9  -7    0.61    0.41
  -4  -9  -7    0.27    0.44
  -4  -9  -7    0.84    0.41
  -4   9  -8    4.12    0.79
  -4   9  -8    2.49    0.63
  -4  -9  -8    3.36    0.61
  -4  -9  -8    3.44    0.82
   4  10  -9   14.06    1.29
   4 -10  -9   14.61    1.10
   4 -10  -9   14.41    1.47
   4  10  -8    9.33    1.02
   4 -10  -8    9.69    1.00
   4 -10  -8   12.89    1.41
   4  10  -7   29.96    1.53
   4 -10  -7   27.90    1.42
   4 -10  -7   29.77    1.73
   4  10  -6    0.80    0.43
   4 -10  -6    0.07    0.36
   4 -10  -6    0.78    0.45
   4  10  -5    0.42    0.37
   4 -10  -5    0.36    0.46
   4 -10  -5    1.03    0.44
   4  10  -4    1.58    0.51
  -4 -10   4    2.56    0.58
   4 -10  -4    2.22    0.54
   4 -10  -4    1.48    0.52
   4  10  -3    5.19    0.75
  -4 -10   3    3.17    0.64
   4 -10  -3    3.64    0.63
   4 -10  -3    5.18    0.82
   4  10  -2    3.27    0.63
  -4  10   2    3.71    0.61
   4 -10  -2    4.35    0.70
   4 -10  -2    4.32    0.73
  -4 -10   2    3.66    0.64
  -4  10   1   10.89    0.99
   4  10  -1   12.70    0.95
  -4 -10   1   10.87    1.03
  -4 -10   1   10.07    1.11
   4 -10  -1   14.35    1.09
   4 -10  -1   11.87    1.07
  -4  10   0    1.70    0.52
   4  10   0    2.77    0.56
   4 -10   0    2.06    0.53
  -4 -10   0    2.08    0.68
   4 -10   0    1.96    0.53
  -4 -10   0    2.38    0.56
  -4  10  -1    3.25    0.63
   4 -10   1    2.91    0.60
  -4 -10  -1    3.38    0.78
  -4 -10  -1    1.86    0.51
   4 -10   1    3.29    0.62
  -4  10  -2   22.59    1.29
  -4 -10  -2   23.41    1.51
   4 -10   2   23.18    1.27
   4 -10   2   23.44    1.26
  -4 -10  -2   24.33    1.30
  -4  10  -3   79.70    2.42
   4 -10   3   75.82    2.25
  -4 -10  -3   77.98    2.36
  -4 -10  -3   78.39    2.72
  -4  10  -4    1.99    0.55
   4 -10   4    2.23    0.56
  -4 -10  -4    2.20    0.56
  -4 -10  -4    2.30    0.69
  -4  10  -5   -0.09    0.36
  -4 -10  -5   -0.36    0.30
   4 -10   5   -0.01    0.36
  -4 -10  -5    2.56    0.83
  -4  10  -6   -0.41    0.34
  -4  10  -6   -0.03    0.36
  -4 -10  -6   -0.65    0.36
  -4 -10  -6   -0.06    0.32
  -4  10  -7   12.06    1.22
  -4  10  -7   10.65    1.16
  -4 -10  -7   11.23    1.08
  -4 -10  -7   10.87    1.25
   4  11  -8    2.31    0.63
   4 -11  -8    0.41    0.48
   4 -11  -8    2.62    0.75
   4  11  -7    7.14    0.96
   4 -11  -7    7.32    0.94
   4 -11  -7    8.25    1.14
   4  11  -6   10.56    1.13
   4 -11  -6   12.37    1.32
   4 -11  -6   11.26    1.10
   4  11  -5    0.45    0.42
   4 -11  -5    0.32    0.41
   4 -11  -5    0.07    0.46
   4  11  -4    7.21    0.90
   4 -11  -4    7.54    0.94
   4 -11  -4    7.90    1.05
  -4 -11   4    5.67    0.81
   4  11  -3    6.22    0.84
  -4 -11   3    5.45    0.85
   4 -11  -3    3.97    0.72
   4 -11  -3    4.84    0.85
   4  11  -2    3.94    0.72
   4 -11  -2    3.84    0.72
   4 -11  -2    3.87    0.74
  -4 -11   2    6.14    0.82
   4  11  -1    1.05    0.47
  -4  11   1    0.86    0.45
   4 -11  -1    1.87    0.57
  -4 -11   1    1.06    0.63
  -4 -11   1    0.65    0.43
   4 -11  -1    0.86    0.46
  -4  11   0   11.87    1.10
  -4 -11   0   12.00    1.13
   4 -11   0   14.56    1.12
   4 -11   0   12.11    1.17
  -4 -11   0   12.11    1.34
  -4  11  -1   -0.24    0.37
  -4 -11  -1    0.37    0.55
   4 -11   1   -0.01    0.40
  -4 -11  -1    0.74    0.45
   4 -11   1    0.12    0.39
  -4  11  -2   28.35    1.50
   4 -11   2   29.50    1.50
  -4 -11  -2   29.20    1.53
  -4 -11  -2   29.98    1.81
  -4  11  -3    0.06    0.41
   4 -11   3    0.31    0.44
  -4 -11  -3    0.26    0.41
  -4 -11  -3    0.91    0.62
  -4  11  -4    8.76    1.07
  -4 -11  -4    6.97    0.89
   4 -11   4    9.31    0.99
  -4 -11  -4    7.71    1.13
  -4  11  -5    0.83    0.51
  -4 -11  -5    0.77    0.60
  -4 -11  -5    0.66    0.45
   4  12  -5    8.32    1.04
   4 -12  -5    7.41    0.98
   4 -12  -5    6.66    1.08
   4  12  -4    7.63    0.98
   4 -12  -4    6.58    0.94
   4 -12  -4    8.13    1.11
   4  12  -3    6.95    0.93
   4 -12  -3    5.59    0.86
   4 -12  -3    7.17    1.04
  -4 -12   3    8.81    1.03
   4  12  -2    8.48    1.33
   4 -12  -2    9.33    1.16
  -4 -12   2    9.36    1.08
  -4 -12   2    8.95    1.20
   4 -12  -2    7.09    0.94
  -4 -12   1    3.99    0.74
   4 -12  -1    3.88    0.80
  -4 -12   1    3.69    0.88
   4 -12  -1    3.74    0.79
  -4  12   0   25.46    1.49
  -4 -12   0   26.09    1.76
   4 -12   0   25.71    1.53
   4 -12   0   25.91    1.56
  -4 -12   0   26.45    1.51
  -4  12  -1   22.29    1.41
   4 -12   1   24.06    1.47
  -4 -12  -1   24.57    1.49
   4 -12   1   24.69    1.49
  -4 -12  -1   26.89    1.78
  -4  12  -2    6.59    0.96
  -4 -12  -2    5.03    0.98
  -4 -12  -2    7.40    0.99
   4 -12   2    6.64    0.94
  -4  12  -3    0.64    0.51
   4 -12   3    0.95    0.51
  -4 -12  -3    1.41    0.68
  -4 -12  -3    1.56    0.58
   5   0 -15    0.06    0.23
   5   0 -14    1.34    0.30
   5   0 -14    0.78    0.50
   5   0 -13    0.01    0.33
   5   0 -13   -0.01    0.19
   5   0 -12   38.17    1.08
   5   0 -12   37.89    1.76
   5   0 -11    0.45    0.37
   5   0 -11   -0.01    0.18
   5   0 -10   92.15    2.57
   5   0 -10   92.27    1.79
   5   0  -9   -0.09    0.27
   5   0  -9    0.16    0.16
   5   0  -9   -0.09    0.14
   5   0  -8    6.40    0.68
   5   0  -8    6.47    0.43
   5   0  -7   -0.13    0.21
   5   0  -7    0.03    0.14
   5   0  -6   90.08    2.06
   5   0  -6   91.35    1.72
   5   0  -5   -0.27    0.18
  -5   0   5   -0.08    0.14
   5   0  -5   -0.18    0.14
   5   0  -4  147.26    2.42
   5   0  -4  149.27    2.58
  -5   0   4  150.01    2.33
  -5   0   3   -0.12    0.15
   5   0  -3   -0.29    0.13
  -5   0   2   11.85    0.52
  -5   0   1   -0.12    0.15
   5   0  -1   -0.28    0.12
  -5   0   0  276.18    3.88
   5   0   0  271.15    3.86
  -5   0  -1   -0.10    0.09
   5   0   1   -0.15    0.12
  -5   0  -1    0.06    0.16
   5   0   2   41.88    0.98
  -5   0  -2   43.32    0.76
  -5   0  -2   41.87    1.06
  -5   0  -2   42.32    1.15
  -5   0  -3   -0.03    0.16
  -5   0  -3   -0.03    0.19
  -5   0  -3    0.04    0.11
  -5   0  -4   57.31    1.57
  -5   0  -4   57.97    1.11
  -5   0  -4   56.93    1.30
  -5   0  -5    0.10    0.18
  -5   0  -5   -0.30    0.21
  -5   0  -5   -0.04    0.14
  -5   0  -6   87.80    2.24
  -5   0  -6   83.84    1.68
  -5   0  -6   84.16    1.70
  -5   0  -7   -0.23    0.28
  -5   0  -7    0.01    0.20
  -5   0  -7    0.12    0.20
  -5   0  -8  101.98    1.97
  -5   0  -8   98.00    2.67
  -5   0  -8   95.35    2.06
  -5   0  -9   -0.69    0.25
  -5   0  -9    0.11    0.21
  -5   0  -9   -0.16    0.20
  -5   0 -10   20.25    0.85
  -5   0 -10   20.49    1.35
  -5   0 -11   -0.20    0.39
  -5   0 -11   -0.04    0.23
   5   1 -15   12.67    0.71
   5  -1 -15   12.93    1.40
   5  -1 -15   14.06    0.69
   5   1 -14    0.29    0.23
   5  -1 -14    0.13    0.44
   5  -1 -14    0.01    0.19
   5   1 -13   11.77    0.66
   5  -1 -13   12.02    0.61
   5  -1 -13   10.91    1.18
   5   1 -12    6.16    0.53
   5  -1 -12    4.97    0.80
   5  -1 -12    5.95    0.46
   5   1 -11   43.95    1.19
   5  -1 -11   43.82    1.13
   5  -1 -11   45.81    1.83
   5   1 -10   -0.03    0.18
   5  -1 -10   -0.06    0.37
   5  -1 -10    0.36    0.20
   5   1  -9   23.99    0.83
   5  -1  -9   25.43    0.81
   5  -1  -9   25.09    1.24
   5  -1  -9   24.60    0.76
   5   1  -8    2.83    0.35
   5  -1  -8    2.97    0.52
   5  -1  -8    3.29    0.42
   5  -1  -8    3.25    0.35
   5   1  -7   11.56    0.57
   5  -1  -7   12.75    0.56
   5  -1  -7   11.04    0.75
   5   1  -6   47.86    1.16
   5  -1  -6   46.16    1.11
   5  -1  -6   47.29    1.42
   5   1  -5  202.51    3.10
  -5   1   5  200.94    2.87
  -5  -1   5  204.46    2.93
   5  -1  -5  200.87    3.05
   5  -1  -5  200.83    3.37
   5   1  -4   16.57    0.64
  -5   1   4   14.83    0.56
  -5  -1   4   16.53    0.61
   5  -1  -4   15.30    0.68
   5  -1  -4   15.57    0.62
  -5   1   3   31.64    0.85
   5   1  -3   30.23    0.89
   5  -1  -3   30.41    0.88
  -5  -1   3   33.93    0.90
   5  -1  -3   32.73    0.91
   5   1  -2    0.57    0.20
  -5   1   2   -0.03    0.15
   5  -1  -2    0.02    0.13
  -5  -1   2   -0.11    0.15
   5  -1  -2    0.38    0.19
   5   1  -1   13.80    0.58
  -5   1   1   15.85    0.61
  -5  -1   1   13.95    0.59
   5  -1  -1   15.09    0.62
  -5   1   0    5.97    0.42
   5   1   0    7.52    0.43
   5  -1   0    6.32    0.42
  -5  -1   0    5.70    0.40
  -5   1  -1   28.36    0.85
   5   1   1   29.94    0.83
   5  -1   1   28.24    0.84
  -5  -1  -1   29.63    0.86
  -5   1  -2   32.98    0.94
   5   1   2   32.61    0.83
  -5  -1  -2   34.51    0.98
  -5  -1  -2   32.56    0.80
  -5  -1  -2   33.55    0.93
   5  -1   2   32.17    0.87
  -5   1  -3    0.50    0.20
  -5   1  -3    0.53    0.25
  -5   1  -3    0.10    0.17
  -5  -1  -3    0.19    0.17
  -5  -1  -3    0.15    0.19
   5  -1   3    0.63    0.27
  -5  -1  -3    0.26    0.16
  -5   1  -4   17.20    0.87
  -5   1  -4   16.95    0.69
  -5   1  -4   16.82    0.69
  -5  -1  -4   16.45    0.66
  -5  -1  -4   16.89    0.63
  -5  -1  -4   16.25    0.80
  -5   1  -5  116.85    2.13
  -5   1  -5  113.58    2.56
  -5   1  -5  117.20    2.14
  -5  -1  -5  113.60    2.48
  -5  -1  -5  118.70    2.08
  -5  -1  -5  114.78    2.09
  -5   1  -6   21.79    0.82
  -5   1  -6   20.72    0.80
  -5   1  -6   19.59    1.07
  -5  -1  -6   20.50    0.77
  -5  -1  -6   21.56    0.84
  -5  -1  -6   20.00    1.04
  -5   1  -7   72.39    1.61
  -5   1  -7   71.02    1.60
  -5   1  -7   68.58    2.10
  -5  -1  -7   70.79    2.09
  -5  -1  -7   66.03    1.66
  -5  -1  -7   72.37    1.54
  -5   1  -8    3.97    0.46
  -5   1  -8    4.07    0.68
  -5   1  -8    4.97    0.49
  -5  -1  -8    3.47    0.48
  -5  -1  -8    4.47    0.70
  -5  -1  -8    3.99    0.43
  -5   1  -9    1.30    0.30
  -5   1  -9    0.66    0.26
  -5   1  -9    0.25    0.38
  -5  -1  -9    0.77    0.44
  -5  -1  -9    1.19    0.29
  -5  -1  -9    1.30    0.37
  -5   1 -10    0.10    0.23
  -5   1 -10    0.25    0.25
  -5   1 -10    0.46    0.44
  -5  -1 -10    0.34    0.42
  -5  -1 -10   -0.10    0.19
  -5  -1 -10   -0.07    0.27
  -5   1 -11   38.99    1.24
  -5   1 -11   39.36    1.94
  -5  -1 -11   39.30    1.16
  -5  -1 -11   34.05    1.80
   5   2 -14    0.05    0.21
   5  -2 -14    0.35    0.22
   5  -2 -14    0.44    0.48
   5   2 -13    3.34    0.45
   5  -2 -13    2.68    0.69
   5  -2 -13    2.39    0.35
   5   2 -12    3.10    0.43
   5  -2 -12    3.15    0.69
   5  -2 -12    2.59    0.36
   5   2 -11    4.83    0.49
   5  -2 -11    5.22    0.46
   5  -2 -11    5.15    0.79
   5   2 -10   91.29    1.92
   5  -2 -10   91.66    1.78
   5  -2 -10   91.05    2.59
   5   2  -9    6.46    0.55
   5  -2  -9    6.56    0.44
   5  -2  -9    6.80    0.47
   5  -2  -9    5.03    0.68
   5   2  -8    6.57    0.49
   5  -2  -8    7.36    0.81
   5  -2  -8    7.74    0.48
   5   2  -7   32.98    1.00
   5  -2  -7   32.49    0.94
   5  -2  -7   33.58    1.28
   5   2  -6    1.49    0.27
  -5  -2   6    2.56    0.36
   5  -2  -6    2.18    0.39
   5  -2  -6    2.60    0.32
   5   2  -5   24.85    0.84
  -5   2   5   24.14    0.70
   5  -2  -5   25.05    0.81
  -5  -2   5   23.96    0.75
   5  -2  -5   26.44    0.99
   5   2  -4   88.84    1.77
  -5   2   4   88.58    1.61
   5  -2  -4   88.59    1.73
   5  -2  -4   90.02    1.86
  -5  -2   4   90.27    1.69
  -5   2   3   37.44    0.96
  -5  -2   3   36.35    0.99
   5  -2  -3   36.47    1.00
   5  -2  -3   37.41    1.02
  -5   2   2   29.53    0.87
   5  -2  -2   31.33    0.93
   5  -2  -2   29.79    0.80
  -5  -2   2   31.11    0.90
  -5   2   1    0.19    0.16
   5   2  -1   -0.07    0.14
   5  -2  -1    0.18    0.17
  -5  -2   1    0.08    0.16
   5  -2  -1   -0.04    0.11
   5   2   0   41.13    1.05
  -5   2   0   42.32    1.09
   5  -2   0   44.39    1.12
   5  -2   0   43.68    0.74
  -5  -2   0   42.90    1.10
  -5  -2   0   43.22    0.89
  -5   2  -1   95.44    1.82
  -5   2  -1   90.59    1.78
   5   2   1   93.68    1.71
  -5  -2  -1   93.19    1.78
  -5  -2  -1   92.92    1.64
   5  -2   1   96.56    1.80
  -5   2  -2  108.42    2.02
   5   2   2  109.75    1.85
  -5   2  -2  108.66    2.02
  -5  -2  -2  108.24    1.97
  -5  -2  -2  107.12    1.93
   5  -2   2  108.24    1.95
  -5  -2  -2  109.94    1.97
  -5   2  -3    4.77    0.45
  -5  -2  -3    5.19    0.45
  -5  -2  -3    5.17    0.45
  -5  -2  -3    5.35    0.43
   5  -2   3    5.38    0.38
  -5   2  -4   41.69    1.15
  -5   2  -4   42.25    1.40
  -5  -2  -4   40.51    1.25
  -5  -2  -4   39.93    1.07
  -5  -2  -4   41.40    1.15
  -5   2  -5   26.54    1.17
  -5   2  -5   25.69    0.92
  -5  -2  -5   27.30    1.10
  -5  -2  -5   24.26    0.84
  -5  -2  -5   27.23    0.96
  -5   2  -6   11.22    0.86
  -5   2  -6   11.38    0.66
  -5  -2  -6   13.44    0.87
  -5  -2  -6   12.10    0.61
  -5  -2  -6   12.46    0.72
  -5   2  -7   27.23    1.34
  -5   2  -7   24.10    0.95
  -5  -2  -7   25.01    0.87
  -5  -2  -7   24.69    1.22
  -5  -2  -7   26.01    1.07
  -5   2  -8   47.43    1.35
  -5   2  -8   48.83    1.85
  -5  -2  -8   49.11    1.81
  -5  -2  -8   46.33    1.51
  -5  -2  -8   46.89    1.23
  -5   2  -9    0.34    0.42
  -5   2  -9    0.08    0.24
  -5  -2  -9    0.30    0.35
  -5  -2  -9    0.16    0.29
  -5  -2  -9    0.18    0.23
  -5   2 -10   11.51    1.23
  -5   2 -10   13.52    0.77
  -5  -2 -10   11.73    0.64
  -5  -2 -10    9.03    1.09
  -5  -2 -10   11.49    0.88
  -5   2 -11    5.67    0.96
  -5   2 -11    4.99    0.57
  -5   2 -11    5.18    0.58
  -5  -2 -11    5.07    0.51
   5   3 -14    3.94    0.52
   5  -3 -14    4.52    0.47
   5  -3 -14    2.96    0.74
   5   3 -13    5.32    0.58
   5  -3 -13    5.86    0.52
   5  -3 -13    4.20    0.81
   5   3 -12    3.33    0.47
   5  -3 -12    2.69    0.68
   5  -3 -12    3.90    0.43
   5   3 -11    0.11    0.21
   5  -3 -11    0.03    0.36
   5  -3 -11    0.28    0.21
   5   3 -10   15.27    0.77
   5  -3 -10   13.19    1.05
   5  -3 -10   14.64    0.68
   5   3  -9   14.33    0.74
   5  -3  -9   15.69    0.69
   5  -3  -9   14.13    1.02
   5   3  -8   13.76    0.70
   5  -3  -8   11.98    0.61
   5  -3  -8   13.98    0.94
   5   3  -7   61.11    1.51
   5  -3  -7   64.34    1.44
   5  -3  -7   62.87    1.85
   5   3  -6   15.54    0.72
   5  -3  -6   16.73    0.88
  -5  -3   6   15.76    0.63
   5  -3  -6   16.75    0.70
   5   3  -5    8.71    0.54
  -5   3   5    8.50    0.44
   5  -3  -5    8.00    0.60
   5  -3  -5    8.61    0.52
  -5  -3   5    9.01    0.50
  -5   3   4  216.99    3.22
   5   3  -4  216.71    3.42
   5  -3  -4  217.80    3.52
   5  -3  -4  214.86    3.38
  -5  -3   4  220.81    3.34
   5   3  -3    1.08    0.26
  -5   3   3    1.58    0.27
  -5  -3   3    0.85    0.23
   5  -3  -3    0.88    0.24
   5  -3  -3    1.40    0.28
  -5   3   2   17.98    0.70
   5   3  -2   18.52    0.73
   5  -3  -2   17.93    0.73
  -5  -3   2   17.91    0.72
   5  -3  -2   17.81    0.66
  -5   3   1   74.26    1.56
   5   3  -1   72.01    1.54
  -5  -3   1   72.22    1.04
   5  -3  -1   71.23    1.33
  -5  -3   1   71.23    1.56
  -5   3   0   24.11    0.85
  -5   3   0   24.94    0.87
   5   3   0   25.61    0.84
   5  -3   0   24.88    0.61
   5  -3   0   27.56    0.91
  -5  -3   0   24.37    0.85
  -5  -3   0   24.45    0.58
   5   3   1    1.94    0.28
  -5   3  -1    1.63    0.30
   5  -3   1    1.65    0.29
  -5  -3  -1    1.66    0.23
  -5  -3  -1    1.91    0.32
   5  -3   1    1.82    0.17
  -5   3  -2    3.69    0.41
   5   3   2    4.84    0.40
   5  -3   2    4.48    0.44
  -5  -3  -2    4.66    0.48
  -5  -3  -2    4.15    0.38
  -5  -3  -2    4.12    0.43
  -5   3  -3  153.92    2.70
  -5  -3  -3  152.34    2.64
   5  -3   3  152.46    2.55
  -5  -3  -3  152.83    2.71
  -5  -3  -3  153.77    2.62
  -5   3  -4    2.11    0.36
  -5  -3  -4    2.25    0.35
   5  -3   4    2.56    0.44
  -5  -3  -4    1.63    0.33
  -5  -3  -4    2.30    0.40
  -5   3  -5   42.73    1.53
  -5   3  -5   41.48    1.25
  -5  -3  -5   43.23    1.17
  -5  -3  -5   41.28    1.36
  -5  -3  -5   38.75    1.29
  -5   3  -6   22.06    0.94
  -5   3  -6   21.76    1.17
  -5  -3  -6   22.26    1.02
  -5  -3  -6   22.73    1.08
  -5  -3  -6   24.49    0.88
  -5   3  -7    7.79    0.68
  -5   3  -7    8.11    0.92
  -5  -3  -7    8.91    0.57
  -5  -3  -7    9.40    0.92
  -5  -3  -7    8.57    0.79
  -5   3  -8    3.97    0.72
  -5   3  -8    2.25    0.40
  -5  -3  -8    3.12    0.41
  -5  -3  -8    2.92    0.54
  -5  -3  -8    2.33    0.56
  -5   3  -9   38.73    1.77
  -5   3  -9   36.84    1.28
  -5  -3  -9   35.98    1.48
  -5  -3  -9   36.70    1.13
  -5   3 -10    0.80    0.49
  -5   3 -10    0.82    0.33
  -5  -3 -10    1.17    0.31
  -5  -3 -10    1.29    0.45
  -5   3 -11    4.01    0.82
  -5   3 -11    5.42    0.63
  -5  -3 -11    5.50    0.80
  -5  -3 -11    4.71    0.51
   5   4 -14    4.06    0.58
   5  -4 -14    3.63    0.84
   5  -4 -14    3.08    0.43
   5   4 -13   11.95    0.80
   5  -4 -13   12.27    1.32
   5  -4 -13   12.88    0.70
   5   4 -12    6.63    0.66
   5  -4 -12    7.52    0.56
   5  -4 -12    6.01    0.91
   5   4 -11   38.24    1.30
   5  -4 -11   37.61    1.15
   5  -4 -11   35.02    1.73
   5   4 -10    8.26    0.64
   5  -4 -10    9.14    1.03
   5  -4 -10    8.79    0.60
   5   4  -9    3.87    0.50
   5  -4  -9    3.69    0.43
   5  -4  -9    3.32    0.61
   5   4  -8    0.40    0.26
   5  -4  -8    0.32    0.22
   5  -4  -8    0.68    0.37
   5   4  -7   -0.01    0.19
   5  -4  -7    0.19    0.30
  -5  -4   7    0.02    0.17
   5  -4  -7   -0.02    0.19
   5   4  -6    1.84    0.36
   5  -4  -6    1.57    0.40
  -5  -4   6    0.77    0.26
   5  -4  -6    1.36    0.30
   5   4  -5    5.24    0.54
  -5   4   5    4.09    0.39
   5  -4  -5    4.08    0.52
   5  -4  -5    3.26    0.40
  -5  -4   5    4.44    0.45
   5   4  -4    8.60    0.57
  -5   4   4    8.73    0.50
   5  -4  -4    8.39    0.60
  -5  -4   4    6.73    0.51
   5  -4  -4    8.30    0.55
   5   4  -3   25.12    0.92
  -5   4   3   25.25    0.85
   5  -4  -3   26.25    0.93
  -5  -4   3   24.91    0.89
   5  -4  -3   25.67    0.93
  -5   4   2   26.21    0.90
   5   4  -2   24.37    0.89
  -5   4   2   24.66    0.88
  -5  -4   2   26.37    0.93
   5  -4  -2   24.37    0.91
   5  -4  -2   24.67    0.85
   5   4  -1   58.83    1.44
  -5   4   1   59.19    1.44
  -5   4   1   60.77    1.46
   5  -4  -1   59.78    1.29
   5  -4  -1   55.86    1.44
  -5  -4   1   57.49    1.43
   5   4   0   34.93    1.04
  -5   4   0   35.47    1.09
   5  -4   0   33.98    0.86
  -5  -4   0   34.03    1.08
   5  -4   0   33.69    1.08
   5   4   1    5.56    0.48
  -5   4  -1    4.95    0.48
  -5  -4  -1    5.35    0.50
   5  -4   1    4.79    0.47
   5  -4   1    5.65    0.34
  -5   4  -2   19.87    0.85
   5   4   2   21.18    0.74
   5  -4   2   22.48    0.86
  -5  -4  -2   22.72    0.86
  -5  -4  -2   20.24    0.91
   5  -4   2   20.72    0.57
  -5   4  -3    4.23    0.49
   5  -4   3    5.17    0.50
  -5  -4  -3    4.86    0.55
  -5  -4  -3    4.97    0.49
   5  -4   3    4.65    0.30
  -5   4  -4    0.85    0.31
   5  -4   4    0.79    0.25
  -5  -4  -4    0.56    0.25
  -5  -4  -4    0.99    0.36
  -5   4  -5   53.10    1.76
  -5   4  -5   51.52    1.50
  -5  -4  -5   56.60    1.44
  -5  -4  -5   52.37    1.62
  -5   4  -6    3.05    0.61
  -5   4  -6    3.02    0.47
  -5  -4  -6    3.79    0.57
  -5  -4  -6    3.55    0.44
  -5   4  -7    2.78    0.60
  -5   4  -7    2.62    0.46
  -5  -4  -7    3.18    0.56
  -5  -4  -7    2.55    0.41
  -5   4  -8   17.94    0.95
  -5   4  -8   16.44    1.18
  -5  -4  -8   17.71    0.82
  -5  -4  -8   18.49    1.09
  -5   4  -9   -0.08    0.26
  -5   4  -9    0.60    0.47
  -5  -4  -9    0.05    0.23
  -5  -4  -9    0.04    0.34
  -5   4 -10    3.20    0.72
  -5   4 -10    4.41    0.60
  -5  -4 -10    5.37    0.57
  -5  -4 -10    5.78    0.80
  -5   4 -11   -0.33    0.33
  -5   4 -11   -0.08    0.28
  -5  -4 -11    0.05    0.24
  -5  -4 -11    0.80    0.44
   5   5 -13    0.20    0.29
   5  -5 -13    0.77    0.52
   5  -5 -13    0.48    0.28
   5   5 -12   17.55    0.99
   5  -5 -12   16.12    1.32
   5  -5 -12   18.10    0.88
   5   5 -11   15.35    0.91
   5  -5 -11   17.64    0.85
   5  -5 -11   17.82    1.30
   5   5 -10    0.94    0.33
   5  -5 -10    0.75    0.45
   5  -5 -10    1.68    0.36
   5   5  -9   10.15    0.73
   5  -5  -9    9.92    0.67
   5  -5  -9    8.97    0.97
   5   5  -8    0.01    0.24
   5  -5  -8    0.07    0.33
   5  -5  -8    0.05    0.24
   5   5  -7    0.62    0.29
   5  -5  -7    0.50    0.27
   5  -5  -7   -0.01    0.34
  -5  -5   7    0.51    0.27
   5   5  -6   14.60    0.80
   5  -5  -6   13.09    0.90
  -5  -5   6   14.62    0.73
   5  -5  -6   15.37    0.78
   5   5  -5    7.85    0.62
  -5   5   5    9.47    0.54
   5  -5  -5    9.50    0.73
   5  -5  -5    9.36    0.64
  -5  -5   5    9.28    0.62
   5   5  -4    0.18    0.22
  -5   5   4    0.15    0.20
   5  -5  -4   -0.02    0.21
   5  -5  -4    0.01    0.24
  -5  -5   4    0.14    0.22
  -5   5   3   38.84    1.15
  -5   5   3   37.12    1.12
   5   5  -3   36.87    1.20
  -5  -5   3   37.24    1.19
   5  -5  -3   38.87    1.24
   5  -5  -3   37.40    1.20
   5   5  -2  361.31    5.24
  -5   5   2  344.78    5.11
  -5   5   2  352.82    5.13
  -5  -5   2  350.29    5.20
   5  -5  -2  353.88    5.13
   5  -5  -2  350.14    5.26
   5   5  -1    4.82    0.51
  -5   5   1    4.50    0.50
   5  -5  -1    5.98    0.58
   5  -5  -1    5.51    0.46
  -5  -5   1    6.03    0.58
   5   5   0    0.01    0.18
  -5   5   0   -0.04    0.21
  -5  -5   0    0.27    0.22
   5  -5   0    0.01    0.20
   5  -5   0    0.28    0.20
   5   5   1   16.86    0.74
  -5   5  -1   14.69    0.77
   5  -5   1   15.85    0.64
  -5  -5  -1   15.65    0.78
   5  -5   1   15.88    0.78
  -5  -5  -1   16.89    0.90
   5   5   2    6.89    0.49
  -5   5  -2    7.43    0.67
  -5  -5  -2    6.38    0.67
   5  -5   2    6.16    0.56
  -5  -5  -2    6.80    0.60
   5  -5   2    6.95    0.44
   5   5   3    7.75    0.48
  -5   5  -3    9.13    0.69
   5  -5   3    8.50    0.60
   5  -5   3    7.85    0.46
  -5  -5  -3    6.65    0.61
  -5  -5  -3    7.80    0.74
  -5   5  -4    0.03    0.27
   5  -5   4    0.30    0.24
  -5  -5  -4    0.27    0.34
  -5  -5  -4    0.23    0.24
  -5   5  -5   24.29    1.09
  -5   5  -5   26.68    1.27
  -5  -5  -5   24.87    1.00
  -5  -5  -5   22.67    1.17
  -5   5  -6    5.84    0.65
  -5   5  -6    6.65    0.78
  -5  -5  -6    7.78    0.66
  -5  -5  -6    6.32    0.75
  -5   5  -7   13.70    1.06
  -5   5  -7   15.10    0.91
  -5  -5  -7   14.49    0.99
  -5  -5  -7   12.61    0.74
  -5   5  -8    1.55    0.54
  -5   5  -8    1.80    0.44
  -5  -5  -8    1.85    0.51
  -5  -5  -8    1.71    0.39
  -5   5  -9   11.94    0.89
  -5   5  -9   10.21    1.13
  -5  -5  -9   12.00    1.13
  -5  -5  -9   11.50    0.74
  -5   5 -10    2.60    0.50
  -5   5 -10    0.40    0.46
  -5  -5 -10    1.00    0.36
  -5  -5 -10    1.95    0.57
   5   6 -13   13.04    0.95
   5  -6 -13   12.90    1.43
   5  -6 -13   14.14    0.85
   5   6 -12   13.29    0.94
   5  -6 -12   14.05    0.84
   5  -6 -12   14.74    1.52
   5   6 -11    0.45    0.33
   5  -6 -11    1.28    0.35
   5  -6 -11    1.38    0.56
   5   6 -10    2.43    0.48
   5  -6 -10    3.21    0.48
   5  -6 -10    2.34    0.63
   5   6  -9    1.09    0.38
   5  -6  -9   -0.15    0.34
   5  -6  -9    0.55    0.30
   5   6  -8   11.22    0.81
   5  -6  -8   12.91    1.19
   5  -6  -8   11.44    0.74
   5   6  -7   50.03    1.61
   5  -6  -7   52.27    1.88
   5  -6  -7   53.87    1.54
   5   6  -6   18.29    0.95
   5  -6  -6   18.46    1.09
  -5  -6   6   18.71    0.89
   5  -6  -6   17.91    0.90
   5   6  -5    1.96    0.40
  -5   6   5    2.28    0.38
   5  -6  -5    1.54    0.44
   5  -6  -5    1.54    0.38
  -5  -6   5    1.31    0.35
  -5   6   4    1.22    0.30
   5   6  -4    1.42    0.34
  -5  -6   4    1.23    0.35
   5  -6  -4    1.15    0.39
   5  -6  -4    0.58    0.29
  -5   6   3   14.27    0.75
  -5   6   3   15.98    0.80
   5   6  -3   15.93    0.83
   5  -6  -3   15.16    0.84
   5  -6  -3   12.98    0.80
  -5  -6   3   15.13    0.82
  -5   6   2  106.53    2.27
   5   6  -2  110.16    2.35
  -5  -6   2  113.92    2.39
   5  -6  -2  110.97    2.38
   5  -6  -2  107.55    2.30
  -5   6   1    2.22    0.41
   5   6  -1    2.98    0.44
  -5  -6   1    2.14    0.40
   5  -6  -1    2.46    0.42
   5  -6  -1    2.67    0.46
   5   6   0    9.08    0.63
  -5   6   0    6.82    0.64
   5  -6   0    8.95    0.68
  -5  -6   0   10.05    0.71
   5  -6   0    9.49    0.61
   5   6   1   11.32    0.67
  -5   6  -1   10.53    0.74
   5  -6   1   11.70    0.64
  -5  -6  -1   11.05    0.84
   5  -6   1   11.32    0.75
  -5  -6  -1   11.97    0.76
   5   6   2   10.08    0.61
  -5   6  -2    9.83    0.75
  -5  -6  -2    9.51    0.68
  -5  -6  -2   10.03    0.83
   5  -6   2    9.70    0.69
   5  -6   2    9.74    0.59
  -5   6  -3   25.99    1.15
  -5  -6  -3   26.48    1.07
  -5  -6  -3   25.56    1.25
   5  -6   3   24.55    1.04
   5  -6   3   26.35    0.89
  -5   6  -4   13.75    0.88
   5  -6   4   12.95    0.66
  -5  -6  -4   13.83    0.97
  -5  -6  -4   14.83    0.82
  -5   6  -5   -0.12    0.28
  -5  -6  -5    0.02    0.37
  -5  -6  -5    0.09    0.24
  -5   6  -6    2.55    0.57
  -5   6  -6    3.80    0.59
  -5  -6  -6    3.33    0.64
  -5  -6  -6    2.88    0.47
  -5   6  -7    3.69    0.70
  -5   6  -7    3.35    0.56
  -5  -6  -7    4.13    0.54
  -5  -6  -7    3.76    0.69
  -5   6  -8    1.92    0.50
  -5   6  -8    1.38    0.52
  -5  -6  -8    1.50    0.54
  -5  -6  -8    2.13    0.44
  -5   6  -9    0.33    0.48
  -5   6  -9   -0.02    0.36
  -5  -6  -9    0.77    0.33
  -5  -6  -9    0.88    0.48
  -5   6 -10   23.70    1.59
  -5   6 -10   25.31    1.32
  -5  -6 -10   23.27    1.47
  -5  -6 -10   25.23    1.12
   5   7 -12   13.92    1.02
   5  -7 -12   16.78    0.98
   5  -7 -12   15.02    1.53
   5   7 -11    1.72    0.47
   5  -7 -11    1.12    0.38
   5  -7 -11    0.15    0.47
   5   7 -10    2.35    0.51
   5  -7 -10    2.97    0.68
   5  -7 -10    2.55    0.49
   5   7  -9    0.21    0.28
   5  -7  -9    0.48    0.44
   5  -7  -9    0.36    0.28
   5   7  -8   15.47    0.97
   5  -7  -8   12.74    0.84
   5  -7  -8   13.88    1.11
   5   7  -7   10.16    0.80
   5  -7  -7    8.23    0.75
   5  -7  -7    8.57    0.95
   5   7  -6   19.10    1.04
   5  -7  -6   20.89    1.22
  -5  -7   6   19.80    0.98
   5  -7  -6   20.86    1.03
   5   7  -5    6.83    0.73
  -5  -7   5    6.51    0.68
   5  -7  -5    5.61    0.66
   5  -7  -5    5.35    0.74
  -5   7   4    2.28    0.42
   5   7  -4    1.96    0.42
  -5   7   4    2.16    0.41
   5  -7  -4    2.97    0.53
   5  -7  -4    2.90    0.51
  -5  -7   4    2.84    0.50
   5   7  -3   17.54    0.95
  -5   7   3   16.57    0.87
  -5   7   3   17.56    0.90
   5  -7  -3   18.48    1.00
  -5  -7   3   18.79    0.98
   5  -7  -3   15.88    0.94
   5   7  -2   -0.12    0.22
  -5   7   2   -0.32    0.23
  -5  -7   2   -0.13    0.26
   5  -7  -2    0.03    0.28
   5  -7  -2   -0.08    0.28
  -5   7   1    8.94    0.80
   5   7  -1    7.43    0.69
   5  -7  -1    8.47    0.75
  -5  -7   1    6.24    0.66
   5  -7  -1    9.19    0.82
  -5   7   0   84.57    2.12
   5   7   0   86.97    2.07
   5  -7   0   86.24    2.00
  -5  -7   0   86.86    2.15
   5  -7   0   85.04    2.17
   5   7   1    2.29    0.43
  -5   7  -1    2.28    0.46
  -5  -7  -1    1.31    0.38
   5  -7   1    2.22    0.45
  -5  -7  -1    1.32    0.47
   5  -7   1    2.58    0.44
  -5   7  -2    3.35    0.54
   5   7   2    4.19    0.60
   5  -7   2    2.16    0.41
  -5  -7  -2    3.59    0.65
  -5  -7  -2    2.78    0.50
   5  -7   2    3.41    0.55
  -5   7  -3    2.82    0.52
  -5  -7  -3    2.67    0.48
   5  -7   3    3.34    0.47
  -5  -7  -3    2.69    0.61
   5  -7   3    3.37    0.52
  -5   7  -4   23.26    1.17
  -5  -7  -4   24.93    1.32
  -5  -7  -4   22.03    1.07
   5  -7   4   22.18    0.92
  -5   7  -5    1.50    0.46
  -5  -7  -5    0.62    0.46
  -5  -7  -5    0.78    0.34
  -5   7  -6    3.24    0.63
  -5   7  -6    3.40    0.61
  -5  -7  -6    3.88    0.58
  -5  -7  -6    2.65    0.61
  -5   7  -7    0.43    0.39
  -5   7  -7    0.34    0.43
  -5  -7  -7    0.90    0.49
  -5  -7  -7    0.25    0.31
  -5   7  -8    0.76    0.44
  -5   7  -8    0.55    0.48
  -5  -7  -8    1.65    0.57
  -5  -7  -8    0.84    0.39
  -5   7  -9    0.57    0.51
  -5   7  -9   -0.50    0.28
  -5  -7  -9    0.80    0.47
  -5  -7  -9    0.61    0.37
   5   8 -11    0.31    0.35
   5  -8 -11    0.53    0.51
   5  -8 -11   -0.16    0.29
   5   8 -10    9.28    0.97
   5  -8 -10   11.10    0.86
   5  -8 -10    7.80    1.09
   5   8  -9   45.70    1.75
   5  -8  -9   44.38    1.61
   5  -8  -9   44.79    2.04
   5   8  -8    0.40    0.36
   5  -8  -8    0.62    0.35
   5  -8  -8    0.24    0.39
   5   8  -7    4.46    0.64
   5  -8  -7    4.14    0.63
   5  -8  -7    4.38    0.77
   5   8  -6    2.73    0.55
   5  -8  -6    2.97    0.53
   5  -8  -6    2.88    0.63
   5   8  -5   20.71    1.13
   5  -8  -5   20.29    1.09
  -5  -8   5   18.77    1.04
   5  -8  -5   19.96    1.24
   5   8  -4   11.24    0.84
  -5   8   4    9.30    0.73
  -5   8   4   10.94    0.77
   5  -8  -4    9.88    0.90
  -5  -8   4   10.33    0.82
   5  -8  -4   11.77    0.94
   5   8  -3    5.16    0.67
  -5   8   3    4.44    0.58
   5  -8  -3    4.03    0.63
   5  -8  -3    3.28    0.58
  -5  -8   3    4.87    0.66
  -5   8   2    0.65    0.35
   5   8  -2    0.29    0.33
  -5  -8   2    0.89    0.38
   5  -8  -2    1.42    0.42
   5  -8  -2    0.64    0.40
  -5   8   1   10.52    0.92
   5   8  -1    8.28    0.78
  -5  -8   1    9.70    0.86
   5  -8  -1    7.93    0.78
   5  -8  -1    9.50    0.86
   5   8   0   77.82    2.02
  -5   8   0   75.09    2.09
   5  -8   0   72.22    1.96
  -5  -8   0   78.20    2.13
   5  -8   0   75.53    2.12
   5   8   1    0.47    0.32
  -5   8  -1    0.77    0.39
   5  -8   1    0.70    0.36
   5  -8   1    0.68    0.35
  -5  -8  -1    0.47    0.34
  -5  -8  -1    0.83    0.53
  -5   8  -2    3.28    0.59
  -5  -8  -2    3.42    0.68
  -5  -8  -2    3.50    0.56
   5  -8   2    3.33    0.56
   5  -8   2    2.89    0.49
  -5   8  -3    1.16    0.42
  -5  -8  -3    0.70    0.35
  -5  -8  -3    0.77    0.47
   5  -8   3    0.99    0.40
   5  -8   3    0.44    0.32
  -5   8  -4   29.66    1.39
  -5  -8  -4   31.02    1.58
   5  -8   4   28.51    1.13
  -5  -8  -4   26.65    1.24
  -5   8  -5    6.80    0.82
  -5  -8  -5    7.50    0.95
  -5  -8  -5    7.55    0.80
  -5   8  -6    4.17    0.74
  -5   8  -6    5.43    0.80
  -5  -8  -6    3.36    0.71
  -5  -8  -6    5.17    0.70
  -5   8  -7    6.59    0.94
  -5   8  -7    6.48    0.84
  -5  -8  -7    7.16    1.02
  -5  -8  -7    7.47    0.81
  -5   8  -8    7.45    1.03
  -5   8  -8    8.03    0.93
  -5  -8  -8    9.25    1.11
  -5  -8  -8   10.07    0.94
   5   9 -10    3.01    0.67
   5  -9 -10    3.77    0.64
   5  -9 -10    3.30    0.83
   5   9  -9   19.35    1.24
   5  -9  -9   15.63    1.51
   5  -9  -9   19.03    1.16
   5   9  -8   23.35    1.32
   5  -9  -8   22.22    1.52
   5  -9  -8   22.21    1.23
   5   9  -7    1.03    0.41
   5  -9  -7   -0.13    0.40
   5  -9  -7   -0.18    0.28
   5   9  -6    2.75    0.57
   5  -9  -6    1.12    0.43
   5  -9  -6    2.27    0.60
   5   9  -5    2.30    0.55
   5  -9  -5    3.67    0.70
  -5  -9   5    3.08    0.56
   5  -9  -5    3.71    0.63
   5   9  -4   -0.18    0.32
   5  -9  -4    0.05    0.37
   5  -9  -4    0.36    0.36
  -5  -9   4    0.82    0.40
  -5   9   3    0.12    0.34
   5   9  -3   -0.21    0.28
   5  -9  -3   -0.09    0.35
   5  -9  -3   -0.20    0.32
  -5  -9   3    0.33    0.36
   5   9  -2   15.54    0.99
  -5   9   2   15.20    0.97
   5  -9  -2   15.11    1.05
   5  -9  -2   14.71    1.04
  -5  -9   2   12.66    0.93
   5   9  -1   15.32    0.96
  -5   9   1   13.58    0.97
   5  -9  -1   14.05    1.01
  -5  -9   1   16.15    1.05
   5  -9  -1   15.00    1.00
   5   9   0   68.52    2.01
  -5   9   0   72.30    2.12
   5  -9   0   71.80    2.14
  -5  -9   0   71.79    2.14
  -5  -9   0   67.81    2.37
   5  -9   0   68.30    2.02
  -5   9  -1    4.89    0.69
   5  -9   1    5.79    0.73
   5  -9   1    7.05    0.85
  -5  -9  -1    5.47    0.72
  -5  -9  -1    4.00    0.76
  -5   9  -2    9.12    0.94
   5  -9   2   11.83    1.02
   5  -9   2   11.41    0.84
  -5  -9  -2    9.33    1.05
  -5  -9  -2    9.57    0.91
  -5   9  -3    9.76    1.00
   5  -9   3   10.85    0.84
  -5  -9  -3   11.09    1.18
  -5  -9  -3   11.95    0.93
  -5   9  -4    3.50    0.67
  -5  -9  -4    3.41    0.61
  -5  -9  -4    4.14    0.78
   5  -9   4    2.97    0.61
  -5   9  -5    0.73    0.45
  -5  -9  -5    0.80    0.54
  -5  -9  -5    0.57    0.39
  -5   9  -6   -0.18    0.36
  -5   9  -6    0.27    0.41
  -5  -9  -6   -0.04    0.32
  -5  -9  -6    0.56    0.51
  -5   9  -7   15.61    1.22
  -5   9  -7   14.83    1.18
  -5  -9  -7   15.03    1.06
  -5  -9  -7   13.87    1.34
   5  10  -9   18.29    1.30
   5 -10  -9   15.54    1.53
   5 -10  -9   17.95    1.19
   5  10  -8    3.25    0.69
   5 -10  -8    2.89    0.62
   5 -10  -8    2.52    0.71
   5  10  -7    0.49    0.42
   5 -10  -7    0.76    0.52
   5 -10  -7    0.11    0.39
   5  10  -6   10.78    1.05
   5 -10  -6   12.22    1.25
   5 -10  -6   11.35    1.07
   5  10  -5    0.24    0.35
   5 -10  -5    0.62    0.41
   5 -10  -5    0.81    0.48
   5  10  -4   13.80    1.05
  -5 -10   4   11.81    1.07
   5 -10  -4   12.04    1.17
   5 -10  -4   12.09    1.12
   5  10  -3    0.20    0.38
   5 -10  -3    1.91    0.59
  -5 -10   3    2.65    0.61
   5 -10  -3    1.19    0.48
   5  10  -2    0.12    0.33
  -5  10   2   -0.21    0.34
  -5 -10   2   -0.16    0.31
   5 -10  -2    0.02    0.38
   5 -10  -2   -0.38    0.34
   5  10  -1    8.37    0.91
  -5  10   1    7.60    0.86
  -5 -10   1    8.30    1.07
   5 -10  -1    6.17    0.80
   5 -10  -1    8.04    0.90
  -5 -10   1    8.55    0.94
  -5  10   0    0.90    0.46
   5 -10   0    0.07    0.36
   5 -10   0    1.31    0.48
  -5 -10   0    0.19    0.38
  -5 -10   0    0.37    0.53
  -5  10  -1   -0.22    0.32
  -5 -10  -1   -0.43    0.30
   5 -10   1    0.35    0.38
   5 -10   1    0.33    0.41
  -5 -10  -1    0.06    0.49
  -5  10  -2   31.88    1.56
   5 -10   2   28.76    1.36
  -5 -10  -2   32.05    1.75
  -5 -10  -2   32.64    1.54
   5 -10   2   28.84    1.57
  -5  10  -3    4.92    0.80
  -5 -10  -3    6.56    0.87
   5 -10   3    7.72    0.84
  -5 -10  -3    6.97    1.01
  -5  10  -4    3.50    0.69
  -5 -10  -4    2.88    0.76
  -5 -10  -4    2.91    0.62
  -5  10  -5    1.36    0.53
  -5 -10  -5    0.69    0.42
  -5 -10  -5    1.59    0.65
  -5  10  -6    3.02    0.68
  -5  10  -6    3.28    0.71
  -5 -10  -6    3.23    0.66
  -5 -10  -6    3.85    0.84
   5  11  -7   16.23    1.26
   5 -11  -7   15.40    1.19
   5 -11  -7   16.82    1.59
   5  11  -6    4.53    0.80
   5 -11  -6    4.17    0.75
   5 -11  -6    4.73    0.91
   5  11  -5   18.45    1.28
   5 -11  -5   17.96    1.39
   5 -11  -5   18.54    1.26
   5  11  -4    0.25    0.37
   5 -11  -4   -0.28    0.32
   5 -11  -4   -0.04    0.42
  -5 -11   4    0.13    0.40
   5  11  -3    2.68    0.61
   5 -11  -3    2.13    0.60
   5 -11  -3    2.35    0.61
  -5 -11   3    1.90    0.58
   5  11  -2    2.39    0.58
   5 -11  -2    3.43    0.73
   5 -11  -2    1.03    0.50
  -5 -11   2    1.80    0.54
  -5  11   1    1.90    0.58
  -5 -11   1    2.03    0.67
   5 -11  -1    1.73    0.58
  -5 -11   1    1.99    0.59
   5 -11  -1    0.31    0.43
  -5  11   0    5.54    0.83
   5 -11   0    4.99    0.79
  -5 -11   0    4.29    0.91
   5 -11   0    4.60    0.76
  -5 -11   0    5.24    0.81
  -5  11  -1   22.97    1.37
   5 -11   1   21.63    1.38
  -5 -11  -1   21.97    1.61
  -5 -11  -1   22.57    1.37
   5 -11   1   20.17    1.29
  -5  11  -2   20.15    1.34
  -5 -11  -2   18.11    1.26
   5 -11   2   19.78    1.23
  -5 -11  -2   20.64    1.56
  -5  11  -3    1.28    0.57
  -5 -11  -3    1.93    0.60
   5 -11   3    2.66    0.69
  -5 -11  -3    1.53    0.70
  -5  11  -4    1.06    0.54
  -5 -11  -4    1.72    0.66
  -5 -11  -4    1.26    0.52
   5  12  -5   11.08    1.22
   5 -12  -5   11.09    1.23
   5 -12  -5   10.55    1.29
   5  12  -4    8.19    1.01
   5 -12  -4    9.52    1.22
   5 -12  -4    7.91    1.01
   5  12  -3    1.36    0.57
  -5 -12   3    1.33    0.55
   5 -12  -3    1.06    0.53
   5 -12  -3    1.16    0.58
  -5 -12   2    3.87    0.94
   5 -12  -2    3.09    0.75
   5 -12  -2    2.67    0.73
  -5 -12   2    3.67    0.78
   5 -12  -1   -0.15    0.40
   5 -12  -1   -0.28    0.39
  -5 -12   1   -0.16    0.37
  -5 -12   1   -0.37    0.47
  -5  12   0   21.11    1.36
  -5 -12   0   22.43    1.44
   5 -12   0   21.38    1.40
  -5 -12   0   25.72    1.76
   5 -12   0   23.80    1.46
  -5  12  -1    0.02    0.47
  -5 -12  -1    1.36    0.53
   5 -12   1   -0.13    0.45
  -5 -12  -1    0.67    0.61
  -5  12  -2   51.06    2.14
  -5 -12  -2   46.88    2.33
  -5 -12  -2   50.15    2.12
   5 -12   2   47.81    1.97
   6   0 -15   -0.18    0.22
   6   0 -14    2.50    0.41
   6   0 -13    0.08    0.37
   6   0 -13   -0.05    0.20
   6   0 -12   90.64    1.91
   6   0 -12   83.42    2.70
   6   0 -11   -0.17    0.32
   6   0 -11    0.04    0.21
   6   0 -10    0.67    0.24
   6   0 -10    0.29    0.36
   6   0  -9   -0.07    0.19
   6   0  -9    0.03    0.28
   6   0  -8    9.51    0.78
   6   0  -8    8.69    0.55
   6   0  -7    0.26    0.20
   6   0  -7    0.29    0.28
  -6   0   6  230.70    3.34
   6   0  -6  236.25    3.97
   6   0  -6  229.92    3.57
  -6   0   5    0.03    0.16
   6   0  -5    0.35    0.20
   6   0  -5    0.02    0.19
   6   0  -4  179.45    2.92
  -6   0   4  175.98    2.81
  -6   0   3   -0.06    0.15
   6   0  -3    0.14    0.18
   6   0  -2    8.49    0.52
  -6   0   2    7.56    0.49
  -6   0   1   -0.25    0.17
   6   0  -1   -0.23    0.17
   6   0   0   43.17    1.13
  -6   0   0   42.60    1.14
   6   0   1    0.00    0.14
  -6   0  -1    0.01    0.11
  -6   0  -1    0.03    0.18
  -6   0  -2  201.49    2.62
  -6   0  -2  198.64    3.18
   6   0   2  202.62    3.07
  -6   0  -3    0.23    0.22
  -6   0  -3   -0.01    0.17
  -6   0  -3   -0.01    0.10
  -6   0  -4   28.27    0.95
  -6   0  -4   26.10    1.11
  -6   0  -4   27.98    0.69
  -6   0  -5    0.00    0.20
  -6   0  -5   -0.07    0.13
  -6   0  -5    0.23    0.29
  -6   0  -6   90.40    1.73
  -6   0  -6   93.60    1.96
  -6   0  -6   98.23    2.47
  -6   0  -7    0.27    0.24
  -6   0  -7    0.41    0.35
  -6   0  -7    0.03    0.19
  -6   0  -8   -0.26    0.30
  -6   0  -8   -0.02    0.21
  -6   0  -9    0.06    0.23
  -6   0  -9   -0.06    0.32
  -6   0 -10   13.57    0.77
  -6   0 -10   13.55    1.37
  -6   0 -11    0.22    0.43
  -6   0 -11   -0.19    0.23
   6  -1 -15   15.83    1.61
   6   1 -14    7.62    0.66
   6  -1 -14    6.86    0.60
   6  -1 -14    5.78    0.93
   6   1 -13   10.20    0.66
   6  -1 -13    8.14    0.59
   6  -1 -13    9.26    1.12
   6   1 -12    6.37    0.59
   6  -1 -12    7.06    0.55
   6  -1 -12    8.16    1.02
   6   1 -11   23.94    0.93
   6  -1 -11   21.54    1.31
   6  -1 -11   22.88    0.87
   6   1 -10    8.64    0.59
   6  -1 -10   10.29    0.60
   6  -1 -10   10.62    1.03
   6   1  -9   24.72    0.90
   6  -1  -9   23.65    0.87
   6  -1  -9   24.02    1.23
   6   1  -8   16.56    0.74
   6  -1  -8   16.61    0.72
   6  -1  -8   18.28    1.03
   6   1  -7   12.62    0.64
   6  -1  -7   11.32    0.78
   6  -1  -7   12.40    0.63
   6   1  -6   33.56    1.04
  -6  -1   6   34.52    0.92
   6  -1  -6   34.09    1.03
   6  -1  -6   35.85    1.24
  -6   1   5   38.65    1.00
   6   1  -5   40.03    1.13
   6  -1  -5   39.87    1.24
  -6  -1   5   40.82    1.05
   6  -1  -5   43.35    1.16
   6   1  -4   14.84    0.67
  -6   1   4   15.28    0.64
   6  -1  -4   15.07    0.69
  -6  -1   4   15.61    0.65
   6  -1  -4   14.67    0.67
   6   1  -3    7.69    0.51
  -6   1   3    9.33    0.52
   6  -1  -3    8.68    0.52
   6  -1  -3    8.30    0.49
  -6  -1   3    8.88    0.51
   6   1  -2   37.66    1.07
  -6   1   2   38.09    1.06
   6  -1  -2   37.53    1.08
  -6  -1   2   39.16    1.07
   6   1  -1    2.01    0.31
  -6   1   1    2.60    0.35
  -6  -1   1    2.19    0.33
   6  -1  -1    2.43    0.34
   6   1   0   34.84    1.00
  -6   1   0   35.81    1.03
   6  -1   0   34.41    1.02
  -6  -1   0   35.46    1.03
  -6   1  -1    3.75    0.40
   6   1   1    4.37    0.41
  -6  -1  -1    3.58    0.39
   6  -1   1    3.96    0.40
   6   1   2   28.20    0.83
  -6   1  -2   28.25    0.94
  -6  -1  -2   27.23    0.90
  -6  -1  -2   26.81    0.74
  -6  -1  -2   28.48    0.95
   6  -1   2   25.90    0.84
  -6   1  -3   15.91    0.73
  -6   1  -3   17.70    0.87
  -6  -1  -3   18.56    0.83
  -6  -1  -3   17.47    0.61
   6  -1   3   16.43    0.63
  -6  -1  -3   17.93    0.75
  -6   1  -4   20.53    1.00
  -6   1  -4   21.24    0.85
  -6  -1  -4   19.47    0.69
  -6  -1  -4   20.17    0.80
  -6  -1  -4   19.79    0.93
  -6   1  -5   81.84    2.17
  -6   1  -5   80.56    1.79
  -6  -1  -5   78.24    2.05
  -6  -1  -5   82.75    1.76
  -6  -1  -5   80.53    1.63
  -6   1  -6   46.23    1.70
  -6   1  -6   48.38    1.35
  -6  -1  -6   45.06    1.23
  -6  -1  -6   50.74    1.32
  -6  -1  -6   44.29    1.60
  -6   1  -7  119.44    2.38
  -6   1  -7  125.72    3.04
  -6  -1  -7  122.46    2.96
  -6  -1  -7  124.71    2.35
  -6  -1  -7  119.71    2.36
  -6   1  -8    0.60    0.43
  -6   1  -8    0.86    0.29
  -6  -1  -8    0.80    0.29
  -6  -1  -8    1.22    0.46
  -6  -1  -8    0.86    0.32
  -6   1  -9    3.23    0.48
  -6   1  -9    3.54    0.69
  -6  -1  -9    3.14    0.67
  -6  -1  -9    3.13    0.44
  -6   1 -10    0.43    0.44
  -6   1 -10    1.37    0.37
  -6  -1 -10    1.19    0.52
  -6  -1 -10    0.71    0.28
  -6   1 -11   11.69    0.78
  -6   1 -11   12.71    1.39
  -6  -1 -11   13.10    1.38
  -6  -1 -11   11.13    0.73
   6   2 -14   18.07    0.91
   6  -2 -14   18.63    0.83
   6  -2 -14   17.12    1.39
   6   2 -13    4.03    0.51
   6  -2 -13    4.30    0.47
   6  -2 -13    4.57    0.81
   6   2 -12   47.79    1.42
   6  -2 -12   48.99    1.33
   6  -2 -12   48.33    2.05
   6   2 -11    4.11    0.51
   6  -2 -11    3.89    0.45
   6  -2 -11    4.95    0.83
   6   2 -10    1.14    0.31
   6  -2 -10    1.27    0.30
   6  -2 -10    1.49    0.48
   6   2  -9   -0.23    0.18
   6  -2  -9   -0.20    0.30
   6  -2  -9    0.03    0.20
   6   2  -8    1.57    0.33
   6  -2  -8    1.60    0.31
   6  -2  -8    2.07    0.49
   6   2  -7    4.61    0.49
   6  -2  -7    4.23    0.44
   6  -2  -7    3.64    0.53
   6   2  -6   10.75    0.61
  -6  -2   6   10.49    0.54
   6  -2  -6    9.70    0.58
   6  -2  -6   10.74    0.72
   6   2  -5   59.54    1.47
  -6   2   5   62.28    1.32
  -6  -2   5   62.03    1.38
   6  -2  -5   59.96    1.58
   6  -2  -5   57.17    1.42
  -6   2   4   35.36    0.98
   6   2  -4   33.47    1.05
  -6  -2   4   35.15    1.02
   6  -2  -4   34.22    1.08
   6  -2  -4   34.08    1.04
  -6   2   3  207.95    3.24
   6   2  -3  213.32    3.38
  -6  -2   3  212.02    3.32
   6  -2  -3  210.16    3.24
   6  -2  -3  208.42    3.34
   6   2  -2   91.85    1.88
  -6   2   2   93.41    1.84
   6  -2  -2   94.54    1.67
  -6  -2   2   92.75    1.86
   6  -2  -2   91.52    1.88
  -6   2   1   11.74    0.61
   6   2  -1   13.10    0.63
   6  -2  -1   13.11    0.45
  -6  -2   1   11.95    0.63
   6  -2  -1   12.40    0.63
   6   2   0    1.25    0.26
  -6   2   0    0.82    0.24
  -6  -2   0    1.55    0.29
   6  -2   0    1.51    0.30
  -6  -2   0    1.14    0.20
  -6   2  -1    0.92    0.26
   6   2   1    0.72    0.20
  -6  -2  -1    0.79    0.24
  -6  -2  -1    0.55    0.19
   6  -2   1    0.21    0.18
   6   2   2   60.18    1.31
  -6   2  -2   58.89    1.45
   6  -2   2   59.47    1.39
  -6  -2  -2   59.01    1.40
  -6  -2  -2   59.70    1.43
  -6  -2  -2   58.79    1.32
  -6   2  -3    7.00    0.53
  -6   2  -3    5.72    0.53
  -6  -2  -3    6.86    0.52
   6  -2   3    6.38    0.45
  -6  -2  -3    6.48    0.51
  -6  -2  -3    6.17    0.48
  -6   2  -4   45.01    1.30
  -6   2  -4   46.23    1.54
  -6   2  -4   44.31    1.29
  -6  -2  -4   45.97    1.24
  -6  -2  -4   46.42    1.23
  -6  -2  -4   45.08    1.38
  -6   2  -5    4.96    0.66
  -6   2  -5    5.10    0.56
  -6   2  -5    5.71    0.58
  -6  -2  -5    4.60    0.48
  -6  -2  -5    4.90    0.50
  -6  -2  -5    4.88    0.61
  -6   2  -6    6.61    0.61
  -6   2  -6    8.09    0.62
  -6   2  -6    6.20    0.77
  -6  -2  -6    7.07    0.59
  -6  -2  -6    5.76    0.70
  -6  -2  -6    7.61    0.66
  -6   2  -7   25.47    1.03
  -6   2  -7   24.55    1.33
  -6   2  -7   24.44    1.01
  -6  -2  -7   25.51    1.04
  -6  -2  -7   26.12    1.30
  -6  -2  -7   25.38    0.96
  -6   2  -8    0.45    0.27
  -6   2  -8    0.67    0.29
  -6   2  -8   -0.01    0.34
  -6  -2  -8    0.40    0.37
  -6  -2  -8    0.21    0.22
  -6  -2  -8    0.49    0.29
  -6   2  -9    7.88    1.03
  -6   2  -9    8.44    0.73
  -6   2  -9    9.07    0.70
  -6  -2  -9    9.13    0.83
  -6  -2  -9    8.70    0.62
  -6  -2  -9    6.78    0.90
  -6   2 -10    5.42    0.60
  -6   2 -10    5.09    0.61
  -6   2 -10    4.69    0.83
  -6  -2 -10    6.99    0.63
  -6  -2 -10    5.59    0.89
  -6   2 -11    1.61    0.41
  -6   2 -11    0.13    0.46
  -6  -2 -11    1.26    0.56
  -6  -2 -11    0.96    0.33
   6   3 -14   11.86    0.79
   6  -3 -14   12.62    0.72
   6  -3 -14   12.70    1.41
   6   3 -13    7.74    0.71
   6  -3 -13    8.99    0.62
   6  -3 -13    8.99    1.13
   6   3 -12    1.39    0.37
   6  -3 -12    1.36    0.34
   6  -3 -12    0.86    0.49
   6   3 -11   29.94    1.14
   6  -3 -11   30.49    1.61
   6  -3 -11   31.62    1.07
   6   3 -10   32.11    1.16
   6  -3 -10   32.24    1.56
   6  -3 -10   31.94    1.07
   6   3  -9   17.46    0.85
   6  -3  -9   16.82    0.79
   6  -3  -9   18.79    1.15
   6   3  -8  114.76    2.38
   6  -3  -8  118.33    2.82
   6  -3  -8  117.03    2.27
   6   3  -7    0.70    0.26
   6  -3  -7    0.37    0.23
   6  -3  -7    0.83    0.37
   6   3  -6  101.84    2.13
  -6   3   6   97.12    2.07
  -6  -3   6  101.52    1.95
   6  -3  -6   99.71    2.05
   6  -3  -6  102.13    2.33
   6   3  -5    0.18    0.20
  -6   3   5    0.24    0.18
   6  -3  -5    0.17    0.19
   6  -3  -5   -0.07    0.21
  -6  -3   5    0.22    0.20
   6   3  -4   24.91    0.94
  -6   3   4   24.70    0.84
  -6  -3   4   27.08    0.92
   6  -3  -4   25.04    0.94
   6  -3  -4   27.41    0.95
  -6   3   3  101.64    1.97
   6   3  -3  102.26    2.07
   6  -3  -3  101.08    2.08
   6  -3  -3  101.66    1.97
  -6  -3   3  102.93    2.05
  -6   3   2  129.35    2.37
   6   3  -2  130.13    2.41
  -6  -3   2  131.37    2.42
   6  -3  -2  129.88    2.45
   6  -3  -2  129.96    2.19
  -6   3   1   12.62    0.66
   6   3  -1   13.48    0.66
   6  -3  -1   13.57    0.68
   6  -3  -1   13.44    0.51
  -6  -3   1   13.43    0.40
  -6  -3   1   13.47    0.68
   6   3   0   29.23    0.94
  -6   3   0   29.07    0.98
   6  -3   0   28.28    0.64
   6  -3   0   27.73    0.98
  -6  -3   0   30.27    1.01
  -6  -3   0   28.70    0.71
  -6   3  -1    1.81    0.33
  -6   3  -1    2.11    0.36
   6   3   1    2.43    0.33
  -6  -3  -1    1.93    0.34
  -6  -3  -1    2.17    0.27
   6  -3   1    1.95    0.34
  -6   3  -2   44.98    1.30
  -6   3  -2   46.38    1.31
   6   3   2   44.77    1.14
  -6  -3  -2   42.28    1.23
  -6  -3  -2   44.53    1.15
  -6  -3  -2   45.57    1.28
   6  -3   2   45.57    1.24
  -6   3  -3   67.55    1.66
  -6  -3  -3   69.15    1.61
  -6  -3  -3   69.49    1.63
  -6  -3  -3   65.49    1.61
   6  -3   3   69.61    1.56
  -6   3  -4  101.74    2.18
  -6  -3  -4  100.54    2.09
   6  -3   4  102.17    2.14
  -6  -3  -4  105.51    2.18
  -6  -3  -4   98.21    2.17
  -6   3  -5   11.70    0.75
  -6   3  -5   11.15    1.03
  -6  -3  -5   11.46    0.74
  -6  -3  -5   11.82    0.78
  -6  -3  -5   11.20    0.68
  -6   3  -6  111.64    2.82
  -6   3  -6  110.56    2.37
  -6  -3  -6  109.62    2.23
  -6  -3  -6  112.81    2.43
  -6  -3  -6  108.12    2.59
  -6   3  -7   12.57    0.79
  -6   3  -7   11.73    1.11
  -6  -3  -7   12.64    0.83
  -6  -3  -7   11.71    0.70
  -6  -3  -7   13.23    0.95
  -6   3  -8    5.87    0.85
  -6   3  -8    6.26    0.66
  -6  -3  -8    4.90    0.75
  -6  -3  -8    5.48    0.69
  -6  -3  -8    5.59    0.57
  -6   3  -9    3.83    0.74
  -6   3  -9    5.08    0.62
  -6  -3  -9    5.02    0.80
  -6  -3  -9    5.28    0.72
  -6  -3  -9    6.75    0.64
  -6   3 -10    0.08    0.31
  -6   3 -10    0.76    0.49
  -6  -3 -10    0.51    0.31
   6   4 -14    1.16    0.38
   6  -4 -14    0.93    0.33
   6  -4 -14    0.55    0.57
   6   4 -13   13.22    0.86
   6  -4 -13   12.53    0.76
   6  -4 -13   11.85    1.31
   6   4 -12    7.37    0.72
   6  -4 -12    6.06    0.92
   6  -4 -12    7.21    0.64
   6   4 -11   32.87    1.24
   6  -4 -11   30.52    1.62
   6  -4 -11   28.15    1.07
   6   4 -10    2.58    0.45
   6  -4 -10    2.20    0.40
   6  -4 -10    2.03    0.56
   6   4  -9    4.80    0.57
   6  -4  -9    3.75    0.66
   6  -4  -9    4.37    0.52
   6   4  -8    0.08    0.23
   6  -4  -8    0.09    0.32
   6  -4  -8   -0.17    0.21
   6   4  -7  119.97    2.47
  -6  -4   7  119.86    2.23
   6  -4  -7  116.29    2.76
   6  -4  -7  118.90    2.37
  -6   4   6    5.37    0.42
   6   4  -6    4.83    0.53
   6  -4  -6    6.26    0.70
   6  -4  -6    5.53    0.55
  -6  -4   6    5.55    0.53
   6   4  -5   79.28    1.86
  -6   4   5   77.76    1.63
  -6  -4   5   79.81    1.77
   6  -4  -5   76.29    1.93
   6  -4  -5   75.74    1.80
   6   4  -4    7.94    0.59
  -6   4   4    8.52    0.55
  -6  -4   4    6.85    0.53
   6  -4  -4    7.29    0.59
   6  -4  -4    8.79    0.60
  -6   4   3   49.60    1.33
   6   4  -3   49.97    1.40
   6  -4  -3   49.44    1.40
   6  -4  -3   51.32    1.35
  -6  -4   3   50.25    1.39
  -6   4   2   10.80    0.64
   6   4  -2    9.86    0.63
  -6  -4   2    9.57    0.62
   6  -4  -2   10.00    0.63
   6  -4  -2   10.55    0.57
  -6   4   1   98.60    2.06
   6   4  -1  100.37    2.06
  -6   4   1   98.11    2.08
  -6  -4   1  101.94    2.12
   6  -4  -1  100.89    2.14
   6  -4  -1   99.01    1.78
   6   4   0   13.75    0.69
  -6   4   0   14.30    0.75
  -6   4   0   13.57    0.74
   6  -4   0   13.70    0.73
  -6  -4   0   12.93    0.72
  -6  -4   0   14.62    0.45
   6  -4   0   14.16    0.52
   6   4   1    1.58    0.32
  -6   4  -1    1.97    0.38
  -6  -4  -1    1.54    0.33
   6  -4   1    1.53    0.32
   6  -4   1    1.49    0.19
  -6  -4  -1    1.38    0.23
  -6   4  -2    3.60    0.49
   6   4   2    4.95    0.46
  -6  -4  -2    4.98    0.53
  -6  -4  -2    4.53    0.42
  -6  -4  -2    4.30    0.53
   6  -4   2    3.93    0.47
   6   4   3   93.53    2.35
  -6   4  -3   91.46    2.09
  -6  -4  -3   92.33    2.03
   6  -4   3   93.50    1.97
  -6  -4  -3   89.02    2.09
  -6  -4  -3   90.47    1.90
  -6   4  -4   31.85    1.20
  -6  -4  -4   33.20    1.24
  -6  -4  -4   33.16    1.15
  -6  -4  -4   32.18    1.14
  -6   4  -5   40.16    1.59
  -6  -4  -5   42.78    1.42
  -6  -4  -5   41.98    1.29
  -6  -4  -5   39.91    1.43
  -6   4  -6    3.93    0.67
  -6   4  -6    2.55    0.46
  -6  -4  -6    3.49    0.56
  -6  -4  -6    2.99    0.44
  -6  -4  -6    3.19    0.55
  -6   4  -7   17.32    1.17
  -6   4  -7   18.07    0.97
  -6  -4  -7   16.94    1.03
  -6  -4  -7   16.33    0.84
  -6   4  -8    1.50    0.52
  -6   4  -8    1.12    0.39
  -6  -4  -8    1.08    0.41
  -6  -4  -8    2.10    0.40
  -6   4  -9   16.67    0.98
  -6   4  -9   17.11    1.30
  -6  -4  -9   14.86    1.05
  -6  -4  -9   15.00    0.84
  -6   4 -10   20.95    1.12
  -6   4 -10   19.47    1.42
  -6  -4 -10   19.89    0.97
  -6  -4 -10   20.34    1.25
   6   5 -13    2.72    0.53
   6  -5 -13    1.72    0.67
   6  -5 -13    1.58    0.38
   6   5 -12   22.83    1.14
   6  -5 -12   23.77    1.55
   6  -5 -12   21.71    1.01
   6   5 -11    0.33    0.30
   6  -5 -11   -0.19    0.23
   6  -5 -11    0.58    0.45
   6   5 -10   70.57    1.95
   6  -5 -10   72.95    1.84
   6  -5 -10   69.68    2.41
   6   5  -9   46.56    1.54
   6  -5  -9   51.27    1.50
   6  -5  -9   46.51    1.87
   6   5  -8   35.76    1.32
   6  -5  -8   37.59    1.28
   6  -5  -8   35.40    1.56
   6   5  -7    0.12    0.26
   6  -5  -7    0.05    0.33
   6  -5  -7   -0.03    0.23
  -6  -5   7    0.06    0.27
  -6   5   6   40.65    1.21
   6   5  -6   41.09    1.38
   6  -5  -6   42.34    1.55
  -6  -5   6   41.27    1.28
   6  -5  -6   43.85    1.37
   6   5  -5   11.19    0.72
  -6   5   5    8.49    0.58
   6  -5  -5   10.29    0.70
   6  -5  -5    9.73    0.75
  -6  -5   5    9.67    0.66
   6   5  -4   68.97    1.78
  -6   5   4   69.15    1.64
   6  -5  -4   68.43    1.76
   6  -5  -4   69.21    1.80
  -6  -5   4   69.84    1.74
  -6   5   3    1.66    0.34
   6   5  -3    1.46    0.35
   6  -5  -3    1.29    0.34
  -6  -5   3    2.31    0.41
   6  -5  -3    1.45    0.34
   6   5  -2  227.74    3.79
  -6   5   2  224.04    3.73
  -6   5   2  225.99    3.72
   6  -5  -2  219.50    3.58
  -6  -5   2  231.93    3.84
   6  -5  -2  227.42    3.84
  -6   5   1    1.43    0.35
  -6   5   1    1.08    0.32
   6   5  -1    1.60    0.35
  -6  -5   1    1.32    0.34
   6  -5  -1    1.31    0.33
   6  -5  -1    1.61    0.31
   6   5   0   42.40    1.27
  -6   5   0   41.30    1.34
  -6  -5   0   44.58    1.36
   6  -5   0   43.44    1.09
   6  -5   0   41.54    1.34
   6   5   1   29.31    1.01
  -6   5  -1   29.72    1.14
   6  -5   1   27.43    0.80
  -6  -5  -1   31.06    1.14
  -6  -5  -1   29.64    1.21
   6  -5   1   30.47    1.14
  -6   5  -2   89.13    2.11
   6   5   2   84.54    1.82
   6  -5   2   83.58    1.98
  -6  -5  -2   84.43    2.02
   6  -5   2   86.40    1.50
  -6  -5  -2   86.98    2.16
  -6   5  -3   25.86    1.11
   6  -5   3   24.84    1.00
  -6  -5  -3   25.97    1.06
   6  -5   3   25.23    0.67
  -6  -5  -3   24.95    1.15
  -6   5  -4   36.48    1.33
  -6  -5  -4   31.71    1.19
  -6  -5  -4   35.91    1.40
  -6   5  -5    6.67    0.79
  -6   5  -5    4.82    0.61
  -6  -5  -5    5.52    0.61
  -6  -5  -5    6.70    0.75
  -6   5  -6   35.14    1.36
  -6   5  -6   33.72    1.57
  -6  -5  -6   33.57    1.23
  -6  -5  -6   34.78    1.45
  -6   5  -7    1.10    0.39
  -6   5  -7    1.15    0.51
  -6  -5  -7    1.30    0.36
  -6  -5  -7    1.49    0.48
  -6   5  -8   29.96    1.61
  -6   5  -8   29.10    1.31
  -6  -5  -8   26.72    1.13
  -6  -5  -8   30.20    1.44
  -6   5  -9   13.26    0.94
  -6   5  -9    9.60    1.16
  -6  -5  -9   10.50    0.76
  -6  -5  -9   11.82    1.14
  -6   5 -10   -0.16    0.32
  -6   5 -10    0.66    0.50
  -6  -5 -10    0.33    0.30
  -6  -5 -10    0.40    0.42
   6   6 -13   12.65    0.95
   6  -6 -13   10.67    1.32
   6  -6 -13   11.85    0.83
   6   6 -12    8.63    0.88
   6  -6 -12    7.22    1.04
   6  -6 -12    8.02    0.76
   6   6 -11   26.98    1.28
   6  -6 -11   24.58    1.56
   6  -6 -11   22.52    1.09
   6   6 -10   15.22    0.97
   6  -6 -10   16.00    1.24
   6  -6 -10   13.69    0.86
   6   6  -9   14.04    0.93
   6  -6  -9   14.20    0.85
   6  -6  -9   15.65    1.17
   6   6  -8    2.82    0.52
   6  -6  -8    3.09    0.51
   6  -6  -8    2.13    0.56
   6   6  -7   58.03    1.77
   6  -6  -7   55.93    1.67
   6  -6  -7   59.01    2.00
   6   6  -6    2.20    0.46
   6  -6  -6    1.70    0.39
   6  -6  -6    1.81    0.50
  -6  -6   6    1.31    0.37
  -6   6   5   91.21    1.96
   6   6  -5   89.13    2.22
   6  -6  -5   91.92    2.33
   6  -6  -5   91.15    2.19
  -6  -6   5   89.17    2.12
  -6   6   4    2.69    0.43
   6   6  -4    3.37    0.53
   6  -6  -4    1.68    0.42
  -6  -6   4    1.98    0.41
   6  -6  -4    2.89    0.48
   6   6  -3   42.98    1.44
  -6   6   3   45.24    1.38
  -6  -6   3   46.78    1.47
   6  -6  -3   46.38    1.45
   6  -6  -3   44.46    1.47
   6   6  -2   -0.20    0.20
  -6   6   2    0.03    0.25
  -6   6   2    0.04    0.25
   6  -6  -2   -0.03    0.25
  -6  -6   2   -0.18    0.23
   6  -6  -2   -0.10    0.24
   6   6  -1   84.58    2.02
  -6   6   1   84.46    2.05
   6  -6  -1   84.79    2.11
   6  -6  -1   85.52    1.89
  -6  -6   1   84.98    2.08
  -6   6   0    0.73    0.34
   6   6   0    0.55    0.29
   6  -6   0    0.78    0.33
   6  -6   0    1.12    0.30
  -6  -6   0    0.62    0.32
  -6   6  -1   36.02    1.34
   6   6   1   41.76    1.29
  -6  -6  -1   39.29    1.36
  -6  -6  -1   39.48    1.51
   6  -6   1   39.14    1.09
   6  -6   1   39.10    1.36
  -6   6  -2    3.41    0.55
   6   6   2    2.98    0.46
   6  -6   2    3.16    0.37
  -6  -6  -2    1.79    0.50
   6  -6   2    4.62    0.59
  -6  -6  -2    2.46    0.45
  -6   6  -3   90.33    2.25
  -6  -6  -3   89.94    2.37
  -6  -6  -3   88.07    2.15
   6  -6   3   86.67    1.67
   6  -6   3   87.57    2.11
  -6   6  -4   22.40    1.12
  -6  -6  -4   24.08    1.09
  -6  -6  -4   24.34    1.26
  -6   6  -5   72.92    2.07
  -6  -6  -5   71.78    2.17
  -6  -6  -5   68.83    1.91
  -6   6  -6    7.82    0.81
  -6   6  -6    8.33    0.98
  -6  -6  -6    8.18    0.78
  -6  -6  -6    7.49    0.87
  -6   6  -7   67.47    2.06
  -6   6  -7   60.92    2.25
  -6  -6  -7   68.20    2.22
  -6  -6  -7   64.34    1.86
  -6   6  -8    1.94    0.59
  -6   6  -8    3.94    0.64
  -6  -6  -8    3.94    0.58
  -6  -6  -8    3.22    0.67
  -6   6  -9   12.13    1.07
  -6   6  -9   11.69    1.28
  -6  -6  -9   11.96    0.85
  -6  -6  -9   11.80    1.19
   6   7 -12   29.68    1.43
   6  -7 -12   26.77    1.26
   6  -7 -12   25.74    1.73
   6   7 -11    1.41    0.47
   6  -7 -11    1.54    0.59
   6  -7 -11    0.75    0.36
   6   7 -10   17.40    1.09
   6  -7 -10   18.25    1.03
   6  -7 -10   18.05    1.36
   6   7  -9    4.67    0.67
   6  -7  -9    4.30    0.61
   6  -7  -9    4.14    0.77
   6   7  -8    6.14    0.72
   6  -7  -8    5.10    0.80
   6  -7  -8    6.01    0.70
   6   7  -7    1.50    0.41
   6  -7  -7    2.47    0.50
   6  -7  -7    2.12    0.58
   6   7  -6  101.89    2.53
  -6  -7   6  104.40    2.43
   6  -7  -6  108.64    2.78
   6  -7  -6  107.05    2.53
   6   7  -5    4.38    0.61
  -6  -7   5    6.65    0.71
   6  -7  -5    4.87    0.63
   6  -7  -5    5.95    0.75
  -6   7   4  118.86    2.49
   6   7  -4  115.86    2.68
  -6  -7   4  118.61    2.65
   6  -7  -4  122.85    2.78
   6  -7  -4  118.51    2.69
  -6   7   3   35.55    1.29
  -6   7   3   35.51    1.29
   6   7  -3   36.20    1.37
  -6  -7   3   35.90    1.37
   6  -7  -3   34.19    1.37
   6  -7  -3   35.33    1.37
  -6   7   2   96.00    2.26
   6   7  -2   94.08    2.28
  -6   7   2   90.81    2.21
  -6  -7   2   89.54    2.26
   6  -7  -2   93.40    2.32
   6  -7  -2   94.86    2.24
  -6   7   1    1.25    0.40
   6   7  -1    1.03    0.36
   6  -7  -1    1.52    0.43
   6  -7  -1    1.30    0.38
  -6  -7   1    0.78    0.36
  -6   7   0   74.82    2.02
   6   7   0   71.88    1.90
   6  -7   0   70.12    1.76
  -6  -7   0   74.00    2.02
   6  -7   0   71.00    2.01
   6   7   1    9.17    0.69
  -6   7  -1    9.31    0.87
  -6  -7  -1    8.94    0.92
  -6  -7  -1    7.66    0.75
   6  -7   1    8.20    0.77
   6  -7   1    7.98    0.61
  -6   7  -2   23.41    1.16
   6  -7   2   21.62    1.07
   6  -7   2   21.29    0.86
  -6  -7  -2   20.43    1.20
  -6  -7  -2   20.97    1.09
  -6   7  -3    9.61    0.88
   6  -7   3   11.66    0.66
  -6  -7  -3   11.21    0.83
  -6  -7  -3   12.24    0.98
  -6   7  -4   22.62    1.20
  -6  -7  -4   22.55    1.13
  -6  -7  -4   20.87    1.24
  -6   7  -5   -0.05    0.31
  -6  -7  -5   -0.17    0.38
  -6  -7  -5    0.12    0.28
  -6   7  -6   41.15    1.82
  -6   7  -6   45.69    1.73
  -6  -7  -6   46.57    1.60
  -6  -7  -6   42.81    1.83
  -6   7  -7    7.49    0.98
  -6   7  -7    7.37    0.88
  -6  -7  -7    9.13    1.03
  -6  -7  -7    8.07    0.82
  -6   7  -8   13.81    1.07
  -6   7  -8   16.03    1.31
  -6  -7  -8   14.75    1.19
  -6  -7  -8   14.48    0.96
   6   8 -11    9.16    0.96
   6  -8 -11   10.66    0.97
   6  -8 -11   11.26    1.28
   6   8 -10    4.05    0.68
   6  -8 -10    2.86    0.57
   6  -8 -10    2.88    0.72
   6   8  -9   37.93    1.61
   6  -8  -9   34.94    1.82
   6  -8  -9   34.22    1.47
   6   8  -8   15.86    1.06
   6  -8  -8   13.68    0.97
   6  -8  -8   16.01    1.24
   6   8  -7    7.63    0.88
   6  -8  -7    8.67    0.86
   6  -8  -7    7.33    0.95
   6   8  -6    0.11    0.30
   6  -8  -6    0.02    0.37
   6  -8  -6    0.10    0.30
   6   8  -5    9.24    0.89
   6  -8  -5   12.61    0.91
   6  -8  -5   11.69    0.96
  -6  -8   5   11.96    0.86
  -6   8   4   15.59    0.92
   6   8  -4   16.70    1.03
   6  -8  -4   14.70    1.04
   6  -8  -4   16.64    1.05
  -6  -8   4   14.41    0.98
   6   8  -3   59.00    1.86
  -6   8   3   55.72    1.71
  -6   8   3   56.97    1.73
  -6  -8   3   59.78    1.87
   6  -8  -3   59.83    1.89
   6  -8  -3   57.66    1.87
   6   8  -2   12.24    0.89
  -6   8   2   13.56    0.91
   6  -8  -2   11.30    0.89
   6  -8  -2   12.49    0.88
  -6  -8   2   14.77    0.97
  -6   8   1   21.81    1.12
   6   8  -1   22.62    1.13
  -6  -8   1   21.73    1.16
   6  -8  -1   24.33    1.13
   6  -8  -1   21.97    1.18
   6   8   0    9.48    0.85
  -6   8   0    9.52    0.89
   6  -8   0    8.07    0.76
  -6  -8   0    8.27    0.83
   6  -8   0    8.90    0.87
  -6   8  -1   86.47    2.34
   6  -8   1   88.19    2.35
  -6  -8  -1   86.98    2.31
   6  -8   1   83.87    2.03
  -6  -8  -1   85.12    2.57
  -6   8  -2    5.55    0.74
   6  -8   2    5.56    0.60
  -6  -8  -2    5.67    0.73
  -6  -8  -2    6.02    0.85
   6  -8   2    5.45    0.69
  -6   8  -3    5.81    0.74
  -6  -8  -3    4.44    0.75
  -6  -8  -3    4.83    0.66
  -6   8  -4   23.04    1.27
  -6  -8  -4   21.22    1.34
  -6  -8  -4   20.25    1.15
  -6   8  -5   65.69    2.16
  -6  -8  -5   65.51    2.31
  -6  -8  -5   65.08    2.04
  -6   8  -6    0.93    0.48
  -6   8  -6   -0.12    0.34
  -6  -8  -6   -0.05    0.31
  -6  -8  -6   -0.14    0.39
  -6   8  -7   23.58    1.49
  -6   8  -7   21.04    1.32
  -6  -8  -7   23.13    1.24
  -6  -8  -7   19.79    1.39
  -6   8  -8   18.72    1.28
  -6   8  -8   17.65    1.38
  -6  -8  -8   18.90    1.16
  -6  -8  -8   19.62    1.43
   6   9 -10   29.62    1.56
   6  -9 -10   31.34    1.89
   6  -9 -10   26.23    1.37
   6   9  -9   13.42    1.23
   6  -9  -9   10.52    1.24
   6  -9  -9   13.28    1.04
   6   9  -8   28.21    1.47
   6  -9  -8   28.68    1.42
   6  -9  -8   30.33    1.72
   6   9  -7    3.41    0.64
   6  -9  -7    3.72    0.66
   6  -9  -7    4.70    0.81
   6   9  -6    5.26    0.76
   6  -9  -6    5.18    0.83
   6  -9  -6    5.91    0.79
   6   9  -5    0.38    0.36
   6  -9  -5    0.12    0.37
  -6  -9   5   -0.14    0.34
   6  -9  -5    0.28    0.43
   6   9  -4  252.07    4.75
   6  -9  -4  256.30    4.80
  -6  -9   4  256.54    4.71
   6  -9  -4  248.80    4.85
  -6   9   3   15.35    0.99
   6   9  -3   14.87    1.04
  -6   9   3   12.52    0.91
   6  -9  -3   14.08    1.02
   6  -9  -3   14.16    1.01
  -6  -9   3   14.93    1.03
   6   9  -2    1.41    0.46
  -6   9   2    1.89    0.49
  -6  -9   2    1.37    0.46
   6  -9  -2    1.68    0.48
   6  -9  -2    2.05    0.55
   6   9  -1    2.08    0.49
  -6   9   1    3.02    0.59
   6  -9  -1    2.06    0.55
   6  -9  -1    2.50    0.55
  -6  -9   1    2.39    0.54
  -6   9   0   64.17    2.03
   6  -9   0   59.72    1.84
   6  -9   0   58.46    1.99
  -6  -9   0   62.09    2.29
  -6  -9   0   60.25    2.00
  -6   9  -1    9.28    0.94
   6  -9   1    9.07    0.93
   6  -9   1    9.56    0.86
  -6  -9  -1    8.26    1.03
  -6  -9  -1    9.62    0.95
  -6   9  -2   74.06    2.29
   6  -9   2   77.61    2.50
  -6  -9  -2   77.95    2.58
  -6  -9  -2   75.15    2.27
   6  -9   2   72.10    1.97
  -6   9  -3    2.14    0.57
  -6  -9  -3    3.46    0.74
  -6  -9  -3    3.07    0.59
  -6   9  -4   17.25    1.19
  -6  -9  -4   16.89    1.12
  -6  -9  -4   15.15    1.28
  -6   9  -5   -0.30    0.32
  -6  -9  -5    0.22    0.45
  -6  -9  -5   -0.59    0.25
  -6   9  -6    2.20    0.59
  -6   9  -6    2.49    0.71
  -6  -9  -6    2.05    0.65
  -6  -9  -6    2.68    0.59
  -6   9  -7    1.53    0.58
  -6   9  -7    1.78    0.65
  -6  -9  -7    2.56    0.58
  -6  -9  -7    2.79    0.73
   6  10  -9   24.74    1.50
   6 -10  -9   27.31    1.78
   6 -10  -9   24.84    1.42
   6  10  -8    5.13    0.85
   6 -10  -8    6.55    1.04
   6 -10  -8    6.30    0.87
   6  10  -7    1.35    0.55
   6 -10  -7    1.44    0.50
   6 -10  -7    1.06    0.54
   6  10  -6    5.57    0.83
   6 -10  -6    4.74    0.76
   6 -10  -6    5.13    0.86
   6  10  -5    0.23    0.36
   6 -10  -5    0.33    0.38
   6 -10  -5   -0.09    0.42
   6  10  -4   15.28    1.12
   6 -10  -4   16.84    1.19
  -6 -10   4   17.04    1.16
   6 -10  -4   19.49    1.29
   6  10  -3    1.57    0.49
   6 -10  -3    0.96    0.48
   6 -10  -3    1.61    0.53
  -6 -10   3    1.23    0.49
   6  10  -2    0.57    0.42
  -6  10   2    0.66    0.43
   6 -10  -2    0.71    0.46
  -6 -10   2    0.71    0.42
   6 -10  -2    1.00    0.47
   6  10  -1   56.73    2.13
  -6  10   1   52.99    1.91
   6 -10  -1   49.80    1.95
  -6 -10   1   51.08    2.19
   6 -10  -1   50.61    1.86
  -6 -10   1   52.73    1.96
  -6  10   0   11.56    1.10
   6 -10   0   12.86    0.97
  -6 -10   0   11.90    1.12
   6 -10   0   11.99    1.10
  -6 -10   0   13.53    1.35
  -6  10  -1    8.77    0.99
  -6 -10  -1    7.76    1.03
   6 -10   1    8.36    0.88
  -6 -10  -1    8.16    0.94
   6 -10   1    8.95    0.99
  -6  10  -2    5.66    0.85
  -6 -10  -2    5.35    0.93
   6 -10   2    5.42    0.91
  -6 -10  -2    5.06    0.76
  -6  10  -3    5.73    0.85
  -6 -10  -3    5.19    0.79
  -6 -10  -3    6.18    1.01
  -6  10  -4    2.60    0.63
  -6 -10  -4    1.82    0.55
  -6 -10  -4    2.36    0.70
  -6  10  -5    4.19    0.77
  -6 -10  -5    4.71    0.90
  -6 -10  -5    5.44    0.82
   6  11  -7    0.04    0.40
   6 -11  -7   -0.10    0.46
   6 -11  -7    0.24    0.40
   6  11  -6   20.83    1.37
   6 -11  -6   24.47    1.49
   6 -11  -6   23.77    1.57
   6  11  -5    0.91    0.50
   6 -11  -5    0.22    0.43
   6 -11  -5    0.55    0.52
   6  11  -4   18.44    1.25
   6 -11  -4   18.01    1.30
   6 -11  -4   18.52    1.29
  -6 -11   4   20.44    1.32
   6  11  -3    0.33    0.41
   6 -11  -3   -0.22    0.35
  -6 -11   3   -0.12    0.35
   6 -11  -3   -0.36    0.36
   6  11  -2    3.65    0.92
  -6 -11   2    3.60    0.71
   6 -11  -2    3.89    0.74
   6 -11  -2    2.73    0.64
  -6  11   1    0.02    0.41
   6 -11  -1   -0.12    0.38
   6 -11  -1    0.20    0.43
  -6 -11   1    0.75    0.45
  -6 -11   1   -0.23    0.47
  -6  11   0   13.56    1.23
   6 -11   0   13.95    1.25
  -6 -11   0   12.95    1.21
  -6 -11   0   14.73    1.54
   6 -11   0   14.82    1.13
  -6  11  -1    8.57    1.02
   6 -11   1    7.56    0.90
  -6 -11  -1    7.54    1.11
  -6 -11  -1    8.04    1.01
  -6  11  -2   30.36    1.61
  -6 -11  -2   29.81    1.83
  -6 -11  -2   27.59    1.54
  -6  11  -3    3.98    0.81
  -6 -11  -3    2.36    0.78
  -6 -11  -3    2.55    0.67
   6  12  -4    0.01    0.43
   6 -12  -4    0.43    0.51
   6 -12  -4   -0.18    0.40
   6 -12  -3    1.10    0.58
   6 -12  -3    1.04    0.52
  -6 -12   3    1.66    0.61
  -6 -12   2    3.33    0.91
   6 -12  -2    2.44    0.66
   6 -12  -2    1.67    0.60
  -6 -12   2    1.05    0.59
   6 -12  -1    1.67    0.60
   6 -12  -1    2.11    0.67
  -6 -12   1    2.90    0.87
  -6 -12   1    2.41    0.67
  -6  12   0    5.40    0.90
   6 -12   0    4.57    0.82
   6 -12   0    5.22    0.90
  -6 -12   0    5.94    1.08
  -6 -12   0    5.90    0.92
   7   0 -14    7.41    0.68
   7   0 -13    0.21    0.23
   7   0 -12   50.67    2.12
   7   0 -12   54.78    1.52
   7   0 -11   -0.32    0.29
   7   0 -11   -0.12    0.21
   7   0 -10   38.83    1.26
   7   0 -10   42.56    1.74
   7   0  -9    0.13    0.23
   7   0  -9    0.17    0.29
   7   0  -8  137.96    3.08
   7   0  -8  141.72    2.64
   7   0  -7    0.00    0.19
   7   0  -7    0.06    0.26
   7   0  -6  111.39    2.26
  -7   0   6  117.76    2.09
  -7   0   5   -0.06    0.18
   7   0  -5   -0.02    0.18
  -7   0   4  101.03    1.99
   7   0  -4  102.59    2.11
   7   0  -3   -0.19    0.17
  -7   0   3   -0.16    0.17
  -7   0   2   49.22    1.30
   7   0  -2   48.63    1.32
  -7   0   1   -0.07    0.17
   7   0  -1   -0.30    0.15
  -7   0   0  249.71    3.92
   7   0   0  256.04    3.91
  -7   0  -1   -0.11    0.18
  -7   0  -1    0.18    0.12
   7   0   1    0.08    0.17
  -7   0  -2    5.59    0.54
   7   0   2    5.88    0.51
  -7   0  -2    5.48    0.26
  -7   0  -3    0.41    0.25
  -7   0  -3   -0.09    0.23
   7   0   3   -0.12    0.15
  -7   0  -4   52.64    0.96
  -7   0  -4   52.49    1.64
  -7   0  -4   52.36    1.44
  -7   0  -5   -0.04    0.28
  -7   0  -5    0.03    0.13
  -7   0  -5    0.06    0.24
  -7   0  -6    9.05    0.66
  -7   0  -6   10.32    0.99
  -7   0  -7   -0.16    0.29
  -7   0  -7   -0.05    0.22
  -7   0  -8    9.10    0.69
  -7   0  -8    9.47    1.05
  -7   0  -9    0.11    0.41
  -7   0  -9   -0.11    0.24
  -7   0 -10    0.48    0.31
  -7   0 -10    0.16    0.46
   7   1 -14    0.55    0.29
   7  -1 -14   -0.16    0.21
   7  -1 -14    0.07    0.42
   7   1 -13    0.25    0.27
   7  -1 -13    0.28    0.44
   7  -1 -13    0.20    0.26
   7   1 -12    0.30    0.25
   7  -1 -12    0.00    0.23
   7  -1 -12    0.03    0.38
   7   1 -11    1.54    0.36
   7  -1 -11    1.58    0.35
   7  -1 -11    2.77    0.62
   7   1 -10   16.99    0.84
   7  -1 -10   14.91    1.08
   7  -1 -10   16.31    0.81
   7   1  -9   62.51    1.60
   7  -1  -9   61.49    2.01
   7  -1  -9   60.06    1.56
   7   1  -8    2.93    0.42
   7  -1  -8    3.30    0.45
   7  -1  -8    2.27    0.51
   7   1  -7  204.17    3.43
   7  -1  -7  206.48    3.80
  -7  -1   7  205.56    3.13
   7  -1  -7  204.36    3.41
   7   1  -6    2.22    0.36
  -7   1   6    2.06    0.31
  -7  -1   6    2.36    0.34
   7  -1  -6    1.85    0.40
   7  -1  -6    2.13    0.36
   7   1  -5   40.36    1.20
  -7   1   5   38.70    1.09
   7  -1  -5   38.27    1.18
   7  -1  -5   41.07    1.27
  -7  -1   5   39.58    1.12
  -7   1   4   10.46    0.59
   7   1  -4   11.02    0.64
   7  -1  -4   11.48    0.64
   7  -1  -4   10.36    0.61
  -7  -1   4   11.33    0.62
   7   1  -3    6.49    0.51
  -7   1   3    6.71    0.49
   7  -1  -3    7.32    0.53
  -7  -1   3    7.05    0.53
   7   1  -2    1.71    0.32
  -7   1   2    1.70    0.31
  -7  -1   2    1.78    0.33
   7  -1  -2    2.17    0.34
   7   1  -1   22.62    0.86
  -7   1   1   23.76    0.88
   7  -1  -1   21.62    0.87
  -7  -1   1   21.03    0.85
   7   1   0    4.70    0.46
  -7   1   0    3.53    0.43
   7  -1   0    4.09    0.44
  -7  -1   0    3.98    0.45
   7   1   1    0.76    0.23
  -7   1  -1    1.09    0.29
   7  -1   1    0.98    0.27
  -7  -1  -1    1.16    0.29
   7   1   2   -0.09    0.16
  -7   1  -2    0.28    0.22
  -7  -1  -2   -0.12    0.20
   7  -1   2    0.06    0.18
  -7  -1  -2    0.02    0.17
  -7  -1  -2    0.10    0.19
  -7   1  -3   48.40    1.38
   7   1   3   50.53    1.33
  -7   1  -3   50.40    1.57
  -7  -1  -3   50.03    1.10
  -7  -1  -3   48.30    1.45
   7  -1   3   52.45    1.27
  -7  -1  -3   52.22    1.41
  -7   1  -4   -0.02    0.27
  -7   1  -4    0.27    0.27
  -7  -1  -4    0.21    0.26
  -7  -1  -4    0.23    0.19
  -7  -1  -4    0.06    0.24
  -7   1  -5   66.51    2.00
  -7   1  -5   67.64    1.71
  -7  -1  -5   62.02    1.87
  -7  -1  -5   66.20    1.66
  -7  -1  -5   64.09    1.39
  -7   1  -6    0.36    0.27
  -7   1  -6    0.23    0.35
  -7  -1  -6    0.23    0.34
  -7  -1  -6   -0.26    0.20
  -7  -1  -6   -0.10    0.18
  -7   1  -7   10.18    0.72
  -7   1  -7   11.44    1.11
  -7  -1  -7    9.76    0.69
  -7  -1  -7   10.69    1.03
  -7   1  -8    3.90    0.74
  -7   1  -8    4.82    0.58
  -7  -1  -8    3.33    0.66
  -7  -1  -8    4.41    0.55
  -7   1  -9    2.47    0.47
  -7   1  -9    3.58    0.74
  -7  -1  -9    3.38    0.51
  -7  -1  -9    2.01    0.62
  -7   1 -10    1.13    0.53
  -7   1 -10    1.37    0.39
  -7  -1 -10    1.81    0.41
  -7  -1 -10    1.16    0.59
   7   2 -14   17.07    0.93
   7  -2 -14   17.31    0.88
   7  -2 -14   14.88    1.45
   7   2 -13    0.18    0.26
   7  -2 -13   -0.22    0.35
   7  -2 -13   -0.01    0.22
   7   2 -12   35.90    1.28
   7  -2 -12   35.31    1.20
   7  -2 -12   32.69    1.69
   7   2 -11   24.11    1.05
   7  -2 -11   25.29    1.01
   7  -2 -11   25.87    1.45
   7   2 -10  104.25    2.29
   7  -2 -10  103.52    2.19
   7  -2 -10  103.87    2.83
   7   2  -9   32.88    1.18
   7  -2  -9   32.17    1.12
   7  -2  -9   33.47    1.49
   7   2  -8   66.01    1.70
   7  -2  -8   68.84    1.68
   7  -2  -8   68.87    2.04
   7   2  -7    4.61    0.53
   7  -2  -7    3.82    0.47
   7  -2  -7    4.46    0.61
  -7  -2   7    4.06    0.42
   7   2  -6   44.69    1.33
  -7   2   6   43.89    1.13
  -7  -2   6   43.81    1.20
   7  -2  -6   45.43    1.46
   7  -2  -6   43.94    1.29
   7   2  -5   18.12    0.83
  -7   2   5   18.75    0.75
  -7  -2   5   18.94    0.80
   7  -2  -5   19.32    0.85
   7  -2  -5   18.34    0.86
  -7   2   4   45.76    1.23
   7   2  -4   45.81    1.33
  -7  -2   4   45.53    1.27
   7  -2  -4   46.70    1.28
   7  -2  -4   47.26    1.34
  -7   2   3   18.51    0.78
   7   2  -3   16.87    0.78
   7  -2  -3   16.48    0.79
   7  -2  -3   18.23    0.72
  -7  -2   3   16.60    0.77
   7   2  -2   15.90    0.76
  -7   2   2   17.34    0.77
  -7  -2   2   16.79    0.77
   7  -2  -2   17.03    0.62
   7  -2  -2   17.22    0.79
  -7   2   1   27.03    0.98
   7   2  -1   27.05    0.96
  -7  -2   1   27.38    0.99
   7  -2  -1   27.93    0.99
  -7   2   0   28.10    1.01
   7   2   0   28.05    0.97
  -7  -2   0   27.33    1.01
   7  -2   0   30.61    1.03
  -7   2  -1   64.22    1.61
   7   2   1   63.91    1.50
  -7  -2  -1   64.29    1.44
   7  -2   1   64.38    1.57
  -7  -2  -1   66.44    1.62
  -7   2  -2  218.95    3.61
   7   2   2  210.78    3.33
  -7  -2  -2  217.92    3.50
   7  -2   2  220.80    3.51
  -7  -2  -2  215.56    3.31
  -7  -2  -2  214.98    3.56
  -7   2  -3    9.19    0.65
   7  -2   3    7.48    0.52
  -7  -2  -3    9.26    0.63
  -7  -2  -3    7.79    0.54
  -7  -2  -3    8.51    0.61
  -7   2  -4   13.55    0.91
  -7   2  -4   13.88    0.79
  -7  -2  -4   13.50    0.81
  -7  -2  -4   12.42    0.66
  -7  -2  -4   12.01    0.72
  -7   2  -5   -0.28    0.30
  -7   2  -5    0.20    0.26
  -7  -2  -5   -0.07    0.22
  -7  -2  -5    0.31    0.29
  -7  -2  -5    0.17    0.26
  -7   2  -6    4.24    0.70
  -7   2  -6    3.82    0.53
  -7  -2  -6    4.46    0.51
  -7  -2  -6    4.65    0.67
  -7  -2  -6    3.43    0.48
  -7   2  -7   63.36    2.19
  -7   2  -7   61.25    1.72
  -7  -2  -7   61.36    1.64
  -7  -2  -7   65.66    2.10
  -7  -2  -7   61.01    1.63
  -7   2  -8    6.82    0.91
  -7   2  -8    7.16    0.71
  -7  -2  -8    7.92    0.69
  -7  -2  -8    7.52    0.94
  -7   2  -9    5.07    0.90
  -7   2  -9    4.57    0.60
  -7  -2  -9    5.16    0.84
  -7  -2  -9    4.11    0.54
  -7   2 -10    1.03    0.38
  -7   2 -10    0.68    0.51
  -7  -2 -10    0.72    0.51
  -7  -2 -10    0.63    0.32
   7   3 -14    0.82    0.37
   7  -3 -14    0.66    0.56
   7  -3 -14    1.42    0.36
   7   3 -13   13.63    0.86
   7  -3 -13   13.72    1.38
   7  -3 -13   13.96    0.81
   7   3 -12   15.38    0.90
   7  -3 -12   15.90    0.83
   7  -3 -12   12.38    1.21
   7   3 -11   10.05    0.74
   7  -3 -11    9.23    0.67
   7  -3 -11    9.57    1.07
   7   3 -10    5.86    0.65
   7  -3 -10    6.01    0.81
   7  -3 -10    7.73    0.68
   7   3  -9   24.37    1.05
   7  -3  -9   26.45    1.05
   7  -3  -9   27.04    1.38
   7   3  -8   13.07    0.78
   7  -3  -8   14.95    0.80
   7  -3  -8   15.26    1.02
   7   3  -7   28.87    1.10
  -7  -3   7   26.26    0.93
   7  -3  -7   27.47    1.04
   7  -3  -7   24.44    1.18
   7   3  -6    2.97    0.44
  -7   3   6    2.57    0.36
   7  -3  -6    2.01    0.37
  -7  -3   6    2.34    0.37
   7  -3  -6    2.44    0.45
   7   3  -5    3.12    0.44
  -7   3   5    4.10    0.44
   7  -3  -5    4.20    0.54
  -7  -3   5    3.81    0.46
   7  -3  -5    3.49    0.45
   7   3  -4   31.43    1.13
  -7   3   4   31.71    1.04
   7  -3  -4   33.24    1.15
  -7  -3   4   33.38    1.11
   7  -3  -4   33.85    1.11
   7   3  -3    2.48    0.39
  -7   3   3    3.08    0.41
   7  -3  -3    2.82    0.43
   7  -3  -3    2.85    0.37
  -7  -3   3    3.57    0.46
   7   3  -2   16.72    0.79
  -7   3   2   16.64    0.78
  -7  -3   2   17.54    0.81
   7  -3  -2   16.69    0.81
   7  -3  -2   17.26    0.65
   7   3  -1    8.15    0.56
  -7   3   1    7.79    0.59
   7  -3  -1    6.54    0.58
  -7  -3   1    6.68    0.35
   7  -3  -1    7.43    0.39
  -7  -3   1    7.52    0.58
   7   3   0    1.04    0.29
  -7   3   0    0.96    0.28
  -7  -3   0    1.39    0.33
   7  -3   0    1.57    0.17
   7  -3   0    1.11    0.30
  -7  -3   0    1.18    0.22
  -7   3  -1   22.26    0.96
   7   3   1   21.55    0.85
  -7  -3  -1   22.53    0.95
   7  -3   1   22.74    0.92
  -7  -3  -1   22.50    0.76
  -7   3  -2   71.61    1.80
  -7   3  -2   73.64    1.83
   7   3   2   73.84    1.62
   7  -3   2   74.33    1.74
  -7  -3  -2   75.38    1.72
  -7  -3  -2   74.88    1.64
  -7  -3  -2   72.00    1.78
  -7   3  -3    6.85    0.68
  -7   3  -3    8.55    0.65
  -7  -3  -3    7.92    0.62
  -7  -3  -3    7.14    0.55
  -7  -3  -3    8.17    0.62
   7  -3   3    7.68    0.57
  -7   3  -4    0.44    0.31
  -7   3  -4    0.74    0.32
  -7  -3  -4    0.52    0.30
  -7  -3  -4    0.83    0.32
  -7  -3  -4    0.42    0.27
  -7   3  -5    1.41    0.38
  -7   3  -5    2.72    0.59
  -7   3  -5    3.13    0.50
  -7  -3  -5    1.97    0.46
  -7  -3  -5    2.67    0.45
  -7  -3  -5    3.01    0.45
  -7   3  -6    0.36    0.38
  -7   3  -6   -0.20    0.24
  -7   3  -6    0.20    0.28
  -7  -3  -6    0.56    0.30
  -7  -3  -6    0.35    0.27
  -7  -3  -6    0.28    0.33
  -7   3  -7    0.51    0.42
  -7   3  -7    1.05    0.38
  -7   3  -7    1.39    0.39
  -7  -3  -7    1.33    0.47
  -7  -3  -7    1.54    0.37
  -7  -3  -7    0.62    0.34
  -7   3  -8    6.68    0.73
  -7   3  -8    6.27    0.70
  -7   3  -8    6.70    0.96
  -7  -3  -8    6.76    0.74
  -7  -3  -8    6.37    0.64
  -7  -3  -8    7.74    0.94
  -7   3  -9    0.39    0.33
  -7   3  -9    0.07    0.39
  -7   3  -9    0.00    0.28
  -7  -3  -9    0.29    0.43
  -7  -3  -9    0.09    0.25
  -7   3 -10    2.40    0.52
  -7   3 -10    2.15    0.67
  -7  -3 -10    2.60    0.47
   7   4 -14    9.59    0.89
   7  -4 -14    8.39    0.75
   7  -4 -14   10.12    1.32
   7   4 -13   32.53    1.34
   7  -4 -13   33.62    1.87
   7  -4 -13   32.62    1.24
   7   4 -12   25.02    1.17
   7  -4 -12   24.38    1.58
   7  -4 -12   26.39    1.11
   7   4 -11   80.27    2.11
   7  -4 -11   75.15    2.58
   7  -4 -11   81.63    2.00
   7   4 -10   33.76    1.31
   7  -4 -10   35.29    1.67
   7  -4 -10   36.27    1.26
   7   4  -9   -0.16    0.25
   7  -4  -9    0.02    0.37
   7  -4  -9    0.07    0.25
   7   4  -8   38.47    1.36
   7  -4  -8   35.88    1.26
   7  -4  -8   38.47    1.59
   7   4  -7   36.54    1.31
  -7  -4   7   36.45    1.17
   7  -4  -7   38.23    1.29
   7  -4  -7   39.84    1.51
   7   4  -6    0.17    0.23
  -7   4   6   -0.08    0.20
  -7  -4   6    0.20    0.25
   7  -4  -6   -0.16    0.26
   7  -4  -6    0.33    0.26
  -7   4   5    4.58    0.50
   7   4  -5    2.29    0.40
   7  -4  -5    4.78    0.54
   7  -4  -5    2.89    0.47
  -7  -4   5    3.81    0.49
  -7   4   4   15.42    0.76
   7  -4  -4   14.01    0.79
  -7  -4   4   14.47    0.79
   7  -4  -4   14.74    0.77
  -7   4   3    2.04    0.38
   7   4  -3    2.27    0.41
  -7  -4   3    3.04    0.46
   7  -4  -3    2.08    0.36
   7  -4  -3    2.04    0.38
  -7   4   2   91.27    2.02
   7   4  -2   87.33    2.00
   7  -4  -2   90.87    2.08
  -7  -4   2   84.81    2.00
   7  -4  -2   86.34    1.75
   7   4  -1   12.39    0.72
  -7   4   1   11.42    0.72
   7  -4  -1   11.85    0.54
   7  -4  -1   12.09    0.75
  -7  -4   1   14.18    0.78
  -7  -4   1   12.03    0.37
  -7   4   0   29.73    1.13
   7   4   0   31.80    1.09
  -7  -4   0   31.17    0.76
   7  -4   0   33.35    1.18
  -7  -4   0   30.70    1.14
   7  -4   0   31.97    0.76
   7   4   1  116.95    2.30
  -7   4  -1  119.68    2.48
  -7   4  -1  115.38    2.44
  -7  -4  -1  115.17    1.99
   7  -4   1  115.09    2.41
  -7  -4  -1  116.03    2.44
   7   4   2   37.85    1.12
  -7   4  -2   38.24    1.33
  -7   4  -2   36.81    1.31
  -7  -4  -2   37.95    1.29
  -7  -4  -2   36.73    1.06
   7  -4   2   35.81    1.22
  -7  -4  -2   37.93    1.30
  -7   4  -3   27.03    1.14
  -7   4  -3   27.11    1.15
  -7  -4  -3   27.96    1.01
  -7  -4  -3   28.84    1.13
  -7  -4  -3   28.80    1.16
   7  -4   3   27.17    1.03
  -7   4  -4    0.51    0.31
  -7  -4  -4    0.36    0.29
  -7  -4  -4    0.44    0.29
  -7  -4  -4    0.02    0.32
  -7   4  -5   15.90    0.92
  -7   4  -5   15.15    1.06
  -7  -4  -5   16.07    0.91
  -7  -4  -5   14.27    0.88
  -7  -4  -5   13.23    0.81
  -7   4  -6    2.61    0.49
  -7   4  -6    2.77    0.64
  -7  -4  -6    3.59    0.59
  -7  -4  -6    2.97    0.48
  -7  -4  -6    2.80    0.54
  -7   4  -7    4.87    0.65
  -7   4  -7    5.88    0.83
  -7  -4  -7    6.15    0.65
  -7  -4  -7    6.95    0.76
  -7  -4  -7    6.88    0.81
  -7   4  -8    5.33    0.87
  -7   4  -8    5.99    0.71
  -7  -4  -8    5.32    0.63
  -7  -4  -8    7.55    0.83
  -7   4  -9   15.14    1.01
  -7   4  -9   16.64    1.04
  -7   4  -9   13.99    1.34
  -7  -4  -9   17.03    0.94
   7   5 -13    9.50    0.93
   7  -5 -13   11.67    1.37
   7  -5 -13    9.69    0.77
   7   5 -12    2.52    0.52
   7  -5 -12    2.84    0.71
   7  -5 -12    2.93    0.52
   7   5 -11    0.25    0.29
   7  -5 -11    0.17    0.27
   7  -5 -11    0.09    0.40
   7   5 -10   31.69    1.33
   7  -5 -10   35.25    1.31
   7  -5 -10   32.78    1.68
   7   5  -9    4.42    0.60
   7  -5  -9    4.69    0.77
   7  -5  -9    4.59    0.57
   7   5  -8   13.38    0.86
   7  -5  -8   13.75    0.85
   7  -5  -8   15.26    1.07
   7   5  -7   19.97    1.01
   7  -5  -7   21.86    1.18
   7  -5  -7   19.61    0.99
  -7  -5   7   19.65    1.21
  -7   5   6    7.20    0.86
   7   5  -6    6.17    0.66
   7  -5  -6    7.32    0.69
   7  -5  -6    5.88    0.71
  -7  -5   6    7.24    0.66
  -7   5   5    4.12    0.49
   7   5  -5    3.24    0.50
   7  -5  -5    3.39    0.52
   7  -5  -5    4.54    0.59
  -7  -5   5    3.93    0.51
   7   5  -4    2.86    0.45
  -7   5   4    2.72    0.44
  -7  -5   4    2.66    0.45
   7  -5  -4    2.98    0.47
   7  -5  -4    2.47    0.45
  -7   5   3    5.58    0.60
   7   5  -3    5.91    0.61
   7  -5  -3    5.88    0.57
   7  -5  -3    5.32    0.61
  -7  -5   3    5.41    0.60
  -7   5   2   33.05    1.20
   7   5  -2   33.84    1.21
  -7  -5   2   32.87    1.24
   7  -5  -2   32.38    1.22
   7  -5  -2   31.12    1.04
  -7   5   1   24.02    1.05
   7   5  -1   24.93    1.03
  -7   5   1   24.37    1.04
  -7  -5   1   26.20    1.09
   7  -5  -1   23.50    1.05
   7  -5  -1   24.44    0.84
  -7   5   0   88.48    2.11
  -7   5   0   86.43    2.09
   7   5   0   78.95    1.93
   7  -5   0   82.77    1.58
   7  -5   0   88.70    2.12
  -7  -5   0   84.03    2.08
   7   5   1    6.81    0.61
  -7   5  -1    6.49    0.66
  -7   5  -1    6.74    0.68
   7  -5   1    7.20    0.69
  -7  -5  -1    7.04    0.72
  -7  -5  -1    5.33    0.64
   7  -5   1    7.23    0.39
   7   5   2   40.66    1.72
  -7   5  -2   43.07    1.46
   7  -5   2   39.81    1.35
  -7  -5  -2   39.98    1.45
  -7  -5  -2   40.75    1.41
  -7   5  -3    6.78    0.71
   7  -5   3    6.60    0.86
  -7  -5  -3    5.79    0.65
  -7  -5  -3    6.64    0.73
  -7   5  -4   -0.14    0.26
  -7  -5  -4    0.38    0.35
  -7  -5  -4    0.18    0.28
  -7   5  -5    0.06    0.29
  -7   5  -5    0.28    0.35
  -7  -5  -5    0.19    0.28
  -7  -5  -5   -0.19    0.29
  -7   5  -6    6.82    0.75
  -7   5  -6    8.50    1.01
  -7  -5  -6    8.15    0.84
  -7  -5  -6    8.69    0.78
  -7   5  -7    1.26    0.51
  -7   5  -7    1.76    0.47
  -7  -5  -7    2.23    0.46
  -7  -5  -7    1.64    0.48
  -7   5  -8    5.75    0.74
  -7   5  -8    6.53    0.93
  -7  -5  -8    5.14    0.65
  -7  -5  -8    4.15    0.69
  -7   5  -9   -0.66    0.32
  -7   5  -9   -0.24    0.30
  -7  -5  -9   -0.22    0.26
  -7  -5  -9    0.43    0.44
   7   6 -13   10.90    1.03
   7  -6 -13    8.78    1.23
   7  -6 -13    9.88    0.89
   7   6 -12    4.95    0.71
   7  -6 -12    4.06    0.60
   7  -6 -12    4.68    0.87
   7   6 -11    1.33    0.43
   7  -6 -11   -0.03    0.44
   7  -6 -11    1.07    0.38
   7   6 -10   20.82    1.15
   7  -6 -10   22.39    1.11
   7  -6 -10   18.98    1.35
   7   6  -9    0.32    0.29
   7  -6  -9    0.73    0.44
   7  -6  -9    0.52    0.33
   7   6  -8   14.09    0.94
   7  -6  -8   14.53    1.09
   7  -6  -8   12.33    0.85
   7   6  -7    0.17    0.28
   7  -6  -7   -0.27    0.25
   7  -6  -7   -0.25    0.31
   7   6  -6    3.95    0.57
   7  -6  -6    3.68    0.61
  -7  -6   6    4.13    0.56
   7  -6  -6    4.10    0.58
   7   6  -5   23.45    1.13
  -7   6   5   23.67    1.00
  -7  -6   5   21.82    1.04
   7  -6  -5   22.51    1.11
   7  -6  -5   21.99    1.14
  -7   6   4   16.80    0.90
   7   6  -4   19.31    1.01
   7  -6  -4   19.84    1.01
  -7  -6   4   18.79    1.00
   7  -6  -4   19.47    1.02
  -7   6   3    2.43    0.46
   7   6  -3    1.86    0.43
   7  -6  -3    2.03    0.43
  -7  -6   3    2.65    0.50
   7  -6  -3    2.15    0.47
  -7   6   2    7.35    0.72
   7   6  -2    8.74    0.80
  -7   6   2    8.42    0.74
  -7  -6   2    7.77    0.74
   7  -6  -2    7.55    0.61
   7  -6  -2    7.24    0.73
  -7   6   1   27.07    1.17
  -7   6   1   25.87    1.14
   7   6  -1   27.10    1.12
   7  -6  -1   28.28    0.99
  -7  -6   1   27.36    1.20
   7  -6  -1   25.58    1.17
  -7   6   0   38.86    1.41
  -7   6   0   38.11    1.40
   7   6   0   39.27    1.32
   7  -6   0   38.47    1.10
   7  -6   0   39.20    1.42
  -7  -6   0   38.01    1.40
   7   6   1   18.48    0.89
  -7   6  -1   17.40    1.01
  -7  -6  -1   18.96    1.12
   7  -6   1   17.53    0.98
  -7  -6  -1   17.45    0.97
   7  -6   1   18.40    0.70
  -7   6  -2   19.24    1.04
  -7  -6  -2   21.30    1.18
  -7  -6  -2   20.07    1.05
   7  -6   2   20.74    1.04
  -7   6  -3   19.00    1.05
  -7  -6  -3   17.82    1.00
  -7  -6  -3   18.33    1.10
  -7   6  -4    5.89    0.72
  -7  -6  -4    6.03    0.71
  -7  -6  -4    6.09    0.76
  -7   6  -5    0.54    0.35
  -7  -6  -5    0.46    0.32
  -7  -6  -5    0.53    0.39
  -7   6  -6    0.09    0.40
  -7   6  -6    0.82    0.41
  -7  -6  -6    0.81    0.37
  -7  -6  -6    0.82    0.44
  -7   6  -7   30.93    1.46
  -7   6  -7   29.48    1.62
  -7  -6  -7   31.27    1.33
  -7  -6  -7   31.00    1.52
  -7   6  -8    3.82    0.65
  -7   6  -8    3.76    0.80
  -7  -6  -8    4.78    0.65
  -7  -6  -8    5.07    0.80
   7   7 -12    1.76    0.51
   7  -7 -12    1.25    0.45
   7  -7 -12    1.37    0.66
   7   7 -11    0.13    0.34
   7  -7 -11    0.41    0.34
   7  -7 -11    0.44    0.51
   7   7 -10    3.66    0.65
   7  -7 -10    3.70    0.79
   7  -7 -10    2.78    0.55
   7   7  -9    1.44    0.47
   7  -7  -9    1.15    0.56
   7  -7  -9    1.98    0.48
   7   7  -8   14.04    0.98
   7  -7  -8   12.44    0.90
   7  -7  -8   11.39    1.14
   7   7  -7    1.31    0.46
   7  -7  -7    1.42    0.43
   7  -7  -7    1.29    0.49
   7   7  -6    0.52    0.34
   7  -7  -6    0.32    0.34
  -7  -7   6    0.67    0.36
   7  -7  -6    0.39    0.40
   7   7  -5    2.20    0.50
   7  -7  -5    1.21    0.46
   7  -7  -5    1.11    0.40
  -7  -7   5    1.09    0.41
   7   7  -4   16.82    1.00
  -7   7   4   18.13    0.96
  -7  -7   4   17.31    1.02
   7  -7  -4   19.22    1.07
   7  -7  -4   16.11    1.00
   7   7  -3   85.98    2.24
  -7   7   3   84.17    2.12
   7  -7  -3   82.99    2.26
   7  -7  -3   84.27    2.15
  -7  -7   3   83.85    2.22
  -7   7   2   98.90    2.39
   7   7  -2   98.98    2.42
  -7   7   2   99.92    2.39
   7  -7  -2   96.51    2.26
  -7  -7   2  106.72    2.52
   7  -7  -2  103.54    2.55
  -7   7   1   50.68    1.68
  -7   7   1   52.29    1.71
   7   7  -1   53.52    1.68
   7  -7  -1   52.54    1.75
  -7  -7   1   57.04    1.79
   7  -7  -1   51.32    1.50
   7   7   0    4.84    0.61
  -7   7   0    5.19    0.69
  -7  -7   0    4.51    0.63
   7  -7   0    5.34    0.56
   7  -7   0    5.39    0.68
  -7   7  -1    0.68    0.39
   7  -7   1    0.40    0.33
  -7  -7  -1    0.06    0.39
   7  -7   1    0.44    0.25
  -7  -7  -1    0.81    0.36
  -7   7  -2    0.68    0.38
   7  -7   2    0.29    0.31
  -7  -7  -2    1.46    0.49
  -7  -7  -2    0.66    0.36
  -7   7  -3    1.78    0.49
  -7  -7  -3    1.18    0.39
  -7  -7  -3    1.21    0.51
  -7   7  -4   12.10    0.96
  -7  -7  -4   11.04    1.08
  -7  -7  -4   12.18    0.89
  -7   7  -5    1.29    0.46
  -7  -7  -5    1.55    0.54
  -7  -7  -5    1.33    0.42
  -7   7  -6    5.21    0.75
  -7   7  -6    5.14    0.85
  -7  -7  -6    5.91    0.75
  -7  -7  -6    4.99    0.81
  -7   7  -7    0.74    0.44
  -7   7  -7    1.53    0.57
  -7  -7  -7    0.26    0.32
  -7  -7  -7    0.75    0.51
  -7   7  -8   38.78    1.73
  -7   7  -8   40.60    2.04
  -7  -7  -8   42.83    1.91
  -7  -7  -8   39.51    1.59
   7   8 -11   15.45    1.15
   7  -8 -11   18.10    1.14
   7  -8 -11   15.42    1.52
   7   8 -10    1.68    0.53
   7  -8 -10    2.86    0.75
   7  -8 -10    1.70    0.49
   7   8  -9    0.48    0.39
   7  -8  -9   -0.30    0.30
   7  -8  -9    0.20    0.43
   7   8  -8   18.61    1.19
   7  -8  -8   22.36    1.25
   7  -8  -8   23.48    1.45
   7   8  -7    1.66    0.48
   7  -8  -7    0.71    0.40
   7  -8  -7    2.25    0.62
   7   8  -6   12.79    0.99
   7  -8  -6   13.73    1.01
   7  -8  -6   13.02    1.06
   7   8  -5    6.73    0.80
   7  -8  -5    5.78    0.74
  -7  -8   5    6.15    0.75
   7  -8  -5    7.02    0.86
   7   8  -4   12.47    0.95
  -7   8   4   13.61    1.06
   7  -8  -4   14.54    1.02
   7  -8  -4   13.72    1.00
  -7  -8   4   13.71    0.96
   7   8  -3   37.79    1.51
  -7   8   3   37.38    1.44
  -7   8   3   37.36    1.45
  -7  -8   3   34.94    1.48
   7  -8  -3   38.30    1.49
   7  -8  -3   38.65    1.57
  -7   8   2   68.79    2.02
   7   8  -2   69.62    2.05
  -7   8   2   67.79    2.01
  -7  -8   2   68.35    2.08
   7  -8  -2   70.27    2.13
   7  -8  -2   65.32    1.92
  -7   8   1   22.53    1.19
   7   8  -1   23.77    1.18
   7  -8  -1   23.87    1.08
   7  -8  -1   22.92    1.21
  -7  -8   1   24.86    1.26
  -7   8   0    0.47    0.37
   7   8   0    0.16    0.32
   7  -8   0    0.41    0.37
  -7  -8   0    0.45    0.45
   7  -8   0    0.70    0.35
  -7  -8   0   -0.03    0.34
  -7   8  -1   24.37    1.27
  -7  -8  -1   27.16    1.32
   7  -8   1   24.75    1.25
  -7  -8  -1   25.36    1.44
   7  -8   1   23.40    1.00
  -7   8  -2   13.41    1.02
  -7  -8  -2   12.00    0.95
  -7  -8  -2   12.64    1.24
  -7   8  -3    1.03    0.46
  -7  -8  -3    0.20    0.44
  -7  -8  -3    0.74    0.41
  -7   8  -4    3.55    0.65
  -7  -8  -4    2.76    0.64
  -7  -8  -4    2.71    0.56
  -7   8  -5    8.61    0.98
  -7  -8  -5    9.71    1.10
  -7  -8  -5    8.58    0.89
  -7   8  -6    1.13    0.53
  -7   8  -6    2.27    0.60
  -7  -8  -6    1.00    0.50
  -7  -8  -6    1.29    0.47
  -7   8  -7    8.77    1.00
  -7   8  -7   10.75    1.20
  -7  -8  -7   11.13    1.23
  -7  -8  -7   13.35    1.03
   7   9 -10   -0.43    0.33
   7  -9 -10    0.36    0.50
   7  -9 -10   -0.10    0.33
   7   9  -9   12.49    1.19
   7  -9  -9   10.00    1.01
   7  -9  -9   11.78    1.30
   7   9  -8    8.59    1.03
   7  -9  -8    6.85    0.99
   7  -9  -8    6.08    0.83
   7   9  -7    2.17    0.53
   7  -9  -7    1.69    0.59
   7  -9  -7    2.28    0.56
   7   9  -6    5.28    0.77
   7  -9  -6    4.17    0.75
   7  -9  -6    4.28    0.72
   7   9  -5    7.19    0.86
  -7  -9   5    5.90    0.79
   7  -9  -5    5.01    0.76
   7  -9  -5    5.58    0.83
   7   9  -4   15.86    1.10
   7  -9  -4   15.17    1.09
  -7  -9   4   15.69    1.09
   7  -9  -4   13.56    1.04
  -7   9   3    2.82    0.57
   7   9  -3    4.04    0.65
  -7   9   3    4.07    0.65
  -7  -9   3    3.71    0.66
   7  -9  -3    3.68    0.65
   7  -9  -3    2.84    0.61
  -7   9   2    2.82    0.59
   7   9  -2    2.17    0.53
  -7   9   2    2.46    0.56
   7  -9  -2    1.80    0.52
   7  -9  -2    3.27    0.59
  -7  -9   2    3.88    0.66
  -7   9   1    1.01    0.43
   7   9  -1    1.35    0.45
   7  -9  -1    1.28    0.43
   7  -9  -1    0.65    0.44
  -7  -9   1    1.19    0.47
  -7   9   0    0.31    0.40
   7  -9   0    0.65    0.38
  -7  -9   0    0.13    0.45
   7  -9   0    0.59    0.41
  -7  -9   0    0.02    0.32
  -7   9  -1    1.66    0.53
  -7  -9  -1    0.88    0.53
  -7  -9  -1    1.38    0.49
   7  -9   1    0.98    0.45
  -7   9  -2    0.69    0.45
  -7  -9  -2    0.92    0.53
  -7  -9  -2    0.54    0.43
  -7   9  -3    4.89    0.76
  -7  -9  -3    4.69    0.84
  -7  -9  -3    4.72    0.73
  -7   9  -4    6.21    0.89
  -7  -9  -4    5.73    0.81
  -7  -9  -4    5.34    0.89
  -7   9  -5    2.69    0.66
  -7  -9  -5    2.61    0.59
  -7  -9  -5    3.41    0.79
  -7   9  -6    2.44    0.69
  -7   9  -6    1.80    0.59
  -7  -9  -6    1.68    0.64
  -7  -9  -6    2.00    0.56
   7 -10  -9    0.52    0.58
   7 -10  -9    0.00    0.41
   7  10  -8    1.24    0.53
   7 -10  -8    3.41    0.70
   7 -10  -8    2.39    0.73
   7  10  -7    1.31    0.52
   7 -10  -7    1.43    0.53
   7 -10  -7    2.34    0.68
   7  10  -6   73.47    2.44
   7 -10  -6   73.50    2.55
   7 -10  -6   72.17    2.41
   7  10  -5    0.00    0.34
   7 -10  -5    0.50    0.48
   7 -10  -5    0.24    0.38
   7  10  -4    1.24    0.49
  -7 -10   4    1.83    0.55
   7 -10  -4    1.25    0.48
   7 -10  -4    0.55    0.45
   7  10  -3    7.95    0.93
  -7 -10   3   11.20    1.12
   7 -10  -3   10.35    1.07
   7 -10  -3    7.15    0.89
   7  10  -2    2.30    0.56
  -7  10   2    3.15    0.64
  -7  10   2    2.79    0.62
  -7 -10   2    2.78    0.62
   7 -10  -2    2.65    0.61
   7 -10  -2    2.64    0.63
  -7  10   1   46.50    1.82
  -7 -10   1   47.20    1.89
   7 -10  -1   49.24    1.95
   7 -10  -1   44.76    1.72
  -7 -10   1   45.97    2.12
  -7  10   0    3.22    0.66
  -7 -10   0    3.54    0.82
   7 -10   0    4.59    0.77
   7 -10   0    3.36    0.62
  -7 -10   0    3.03    0.67
  -7  10  -1   12.94    1.19
  -7 -10  -1   11.95    1.14
  -7 -10  -1   14.26    1.41
  -7  10  -2    0.88    0.49
  -7 -10  -2    1.62    0.65
  -7 -10  -2    0.97    0.47
  -7  10  -3    0.54    0.46
  -7 -10  -3    0.85    0.48
  -7 -10  -3    0.46    0.50
  -7  10  -4    9.85    1.12
  -7 -10  -4   10.81    1.12
  -7 -10  -4    8.76    1.16
   7  11  -6    6.04    0.91
   7 -11  -6    6.60    1.02
   7 -11  -6    6.09    0.92
   7  11  -5    0.72    0.44
   7 -11  -5    0.28    0.44
   7 -11  -5    0.30    0.49
   7  11  -4    9.45    1.06
   7 -11  -4    7.00    0.96
   7 -11  -4    8.52    1.05
  -7 -11   4    9.59    1.06
   7  11  -3    4.08    0.73
   7 -11  -3    5.74    0.86
   7 -11  -3    3.48    0.73
  -7 -11   3    3.99    0.76
   7 -11  -2    1.58    0.51
   7 -11  -2    0.54    0.50
  -7 -11   2    1.13    0.49
  -7  11   1   64.82    2.30
  -7 -11   1   56.64    2.20
  -7 -11   1   62.98    2.60
   7 -11  -1   63.52    2.15
   7 -11  -1   60.29    2.27
  -7  11   0    0.73    0.47
  -7 -11   0    0.23    0.42
  -7 -11   0   -0.44    0.49
   7 -11   0   -0.46    0.37
  -7  11  -1   11.23    1.16
  -7 -11  -1   11.47    1.35
  -7 -11  -1    9.67    1.09
  -7  11  -2   -0.30    0.37
  -7 -11  -2   -0.35    0.50
  -7 -11  -2    0.23    0.42
   8   0 -14    6.89    0.71
   8   0 -13   -0.09    0.20
   8   0 -12    0.29    0.28
   8   0 -11    0.17    0.25
   8   0 -10    1.97    0.41
   8   0  -9    0.12    0.25
   8   0  -8   26.53    1.09
  -8   0   7   -0.10    0.21
   8   0  -7    0.02    0.24
  -8   0   6   22.90    0.88
   8   0  -6   24.01    1.01
  -8   0   5    0.03    0.21
   8   0  -5   -0.16    0.18
   8   0  -4   15.28    0.79
  -8   0   4   17.27    0.80
   8   0  -3   -0.07    0.18
  -8   0   3    0.14    0.22
  -8   0   2   10.69    0.66
   8   0  -2   12.09    0.69
   8   0  -1    0.16    0.22
  -8   0   1    0.11    0.24
  -8   0   0    0.04    0.22
   8   0   0    0.24    0.22
   8   0   1   -0.02    0.19
  -8   0  -1   -0.07    0.23
  -8   0  -1    0.08    0.14
   8   0   2    0.41    0.23
  -8   0  -2    0.28    0.26
  -8   0  -3    0.20    0.28
  -8   0  -3   -0.02    0.26
  -8   0  -4    6.45    0.64
  -8   0  -4    6.52    0.74
  -8   0  -5   -0.12    0.30
  -8   0  -5   -0.15    0.26
  -8   0  -6    3.07    0.60
  -8   0  -6    3.54    0.52
  -8   0  -7    0.04    0.26
  -8   0  -7   -0.18    0.36
  -8   0  -8    5.29    0.63
  -8   0  -8    4.60    0.80
  -8   0  -9   -0.37    0.25
  -8   0  -9    0.34    0.45
   8   1 -14    1.09    0.38
   8  -1 -14    2.48    0.74
   8  -1 -14    1.44    0.39
   8   1 -13    2.31    0.44
   8  -1 -13    2.77    0.50
   8  -1 -13    2.20    0.63
   8   1 -12    2.22    0.44
   8  -1 -12    2.18    0.64
   8  -1 -12    3.12    0.51
   8   1 -11   -0.31    0.20
   8  -1 -11   -0.37    0.30
   8  -1 -11   -0.03    0.24
   8   1 -10   38.12    1.33
   8  -1 -10   37.98    1.68
   8  -1 -10   37.24    1.29
   8   1  -9   -0.08    0.23
   8  -1  -9    0.08    0.33
   8  -1  -9   -0.09    0.23
   8   1  -8   14.69    0.81
   8  -1  -8   13.20    0.97
   8  -1  -8   12.09    0.76
   8   1  -7   16.84    0.85
  -8   1   7   15.46    0.69
   8  -1  -7   13.06    0.78
   8  -1  -7   14.37    0.93
  -8  -1   7   14.48    0.70
   8   1  -6   12.21    0.73
  -8   1   6   12.84    0.68
   8  -1  -6   13.03    0.81
  -8  -1   6   11.46    0.67
   8  -1  -6   13.87    0.78
  -8   1   5    0.96    0.29
   8   1  -5    0.94    0.29
  -8  -1   5    0.29    0.23
   8  -1  -5    0.41    0.26
   8  -1  -5    0.73    0.29
   8   1  -4    1.33    0.32
  -8   1   4    1.20    0.29
  -8  -1   4    1.72    0.33
   8  -1  -4    1.46    0.34
  -8   1   3    1.05    0.30
   8   1  -3    0.84    0.28
   8  -1  -3    0.18    0.23
  -8  -1   3    0.72    0.28
  -8   1   2    6.16    0.57
   8   1  -2    7.94    0.58
  -8  -1   2    8.17    0.60
   8  -1  -2    8.68    0.63
  -8   1   1    4.01    0.50
   8   1  -1    4.10    0.48
   8  -1  -1    4.28    0.50
  -8  -1   1    4.69    0.54
   8   1   0    2.46    0.38
  -8   1   0    3.04    0.45
  -8  -1   0    1.79    0.36
   8  -1   0    2.36    0.39
   8   1   1   23.38    0.91
  -8   1  -1   24.62    1.02
  -8  -1  -1   23.81    0.99
  -8  -1  -1   24.46    0.74
   8  -1   1   24.39    0.95
   8   1   2   28.83    0.98
  -8   1  -2   27.63    1.08
   8  -1   2   27.81    0.99
  -8  -1  -2   27.35    0.78
  -8  -1  -2   27.70    1.08
  -8  -1  -2   26.83    1.05
  -8   1  -3    7.84    0.69
  -8   1  -3    8.55    0.80
  -8  -1  -3    6.64    0.63
  -8  -1  -3    7.22    0.43
  -8  -1  -3    7.65    0.71
  -8   1  -4    3.85    0.61
  -8  -1  -4    5.22    0.66
  -8  -1  -4    5.24    0.39
  -8  -1  -4    5.72    0.62
  -8   1  -5  188.22    3.49
  -8   1  -5  196.25    3.96
  -8  -1  -5  197.49    3.50
  -8  -1  -5  193.18    3.81
  -8   1  -6    7.81    0.94
  -8   1  -6    8.14    0.74
  -8  -1  -6    9.46    0.96
  -8  -1  -6    7.57    0.71
  -8   1  -7    7.28    0.71
  -8   1  -7    7.91    0.95
  -8  -1  -7    7.46    0.90
  -8  -1  -7    7.79    0.73
  -8   1  -8    1.83    0.59
  -8   1  -8    0.94    0.36
  -8  -1  -8    1.18    0.37
  -8  -1  -8    0.39    0.42
  -8   1  -9    2.78    0.51
  -8   1  -9    2.53    0.66
  -8  -1  -9    3.83    0.56
  -8  -1  -9    3.63    0.76
   8   2 -14    0.99    0.37
   8  -2 -14    0.55    0.53
   8  -2 -14    0.45    0.31
   8   2 -13    2.38    0.47
   8  -2 -13    2.08    0.43
   8  -2 -13    1.29    0.55
   8   2 -12   15.64    0.93
   8  -2 -12   16.42    0.89
   8  -2 -12   16.34    1.27
   8   2 -11    0.03    0.24
   8  -2 -11    0.56    0.30
   8  -2 -11    0.18    0.38
   8   2 -10   10.56    0.75
   8  -2 -10    8.31    0.94
   8  -2 -10   10.92    0.75
   8   2  -9    7.18    0.71
   8  -2  -9    8.01    0.90
   8  -2  -9    7.98    0.71
   8   2  -8   26.24    1.10
   8  -2  -8   27.79    1.31
   8  -2  -8   28.12    1.12
  -8   2   7   33.06    1.18
   8   2  -7   34.33    1.23
   8  -2  -7   33.73    1.36
   8  -2  -7   31.33    1.18
  -8  -2   7   30.92    1.05
  -8   2   6    3.57    0.43
   8   2  -6    2.84    0.45
  -8  -2   6    3.15    0.43
   8  -2  -6    3.04    0.50
   8  -2  -6    2.47    0.42
   8   2  -5   94.24    2.16
  -8   2   5   96.22    2.00
   8  -2  -5   94.93    2.13
  -8  -2   5   96.69    2.09
   8  -2  -5   94.52    2.15
  -8   2   4    0.57    0.26
   8   2  -4    0.60    0.27
  -8  -2   4    0.09    0.22
   8  -2  -4    0.12    0.20
   8  -2  -4    0.27    0.24
   8   2  -3    6.85    0.64
  -8   2   3    6.48    0.58
   8  -2  -3    6.38    0.47
  -8  -2   3    6.51    0.59
   8  -2  -3    5.05    0.54
   8   2  -2    0.73    0.28
  -8   2   2    0.30    0.25
  -8  -2   2    0.95    0.31
   8  -2  -2    0.87    0.28
   8   2  -1    6.88    0.62
  -8   2   1    6.69    0.62
   8  -2  -1    6.57    0.62
  -8  -2   1    6.55    0.64
   8   2   0    2.43    0.38
  -8   2   0    2.83    0.46
  -8  -2   0    2.68    0.42
   8  -2   0    3.58    0.47
  -8   2  -1   22.10    0.99
   8   2   1   21.43    0.88
  -8  -2  -1   19.75    0.79
   8  -2   1   20.79    0.92
  -8  -2  -1   21.76    0.84
  -8  -2  -1   20.86    0.95
  -8   2  -2   12.48    0.79
   8   2   2   13.00    0.68
  -8  -2  -2   13.16    0.76
  -8  -2  -2   12.72    0.72
  -8  -2  -2   11.68    0.62
   8  -2   2   12.87    0.71
  -8   2  -3   14.51    0.87
  -8  -2  -3   15.06    0.84
  -8  -2  -3   14.72    0.82
  -8  -2  -3   17.08    0.73
  -8   2  -4   17.02    0.95
  -8   2  -4   18.30    1.09
  -8  -2  -4   19.20    0.94
  -8  -2  -4   15.68    0.92
  -8  -2  -4   18.02    0.77
  -8   2  -5   56.17    1.95
  -8   2  -5   54.96    1.66
  -8  -2  -5   50.36    1.71
  -8  -2  -5   52.29    1.36
  -8  -2  -5   54.77    1.59
  -8   2  -6    1.17    0.50
  -8   2  -6    1.84    0.43
  -8  -2  -6    0.89    0.40
  -8  -2  -6    2.03    0.43
  -8   2  -7   24.50    1.44
  -8   2  -7   22.54    1.11
  -8  -2  -7   25.29    1.36
  -8  -2  -7   23.19    1.07
  -8   2  -8   -0.09    0.38
  -8   2  -8    0.52    0.33
  -8  -2  -8    0.19    0.30
  -8  -2  -8    0.37    0.42
  -8   2  -9    0.18    0.32
  -8   2  -9    0.49    0.49
  -8  -2  -9    0.70    0.49
  -8  -2  -9   -0.21    0.24
   8   3 -14    0.36    0.33
   8  -3 -14    0.33    0.49
   8  -3 -14    0.31    0.30
   8   3 -13    6.25    0.72
   8  -3 -13    5.58    0.66
   8  -3 -13    7.81    1.09
   8   3 -12    7.06    0.76
   8  -3 -12    5.94    0.93
   8  -3 -12    5.70    0.64
   8   3 -11    6.28    0.72
   8  -3 -11    5.52    0.61
   8  -3 -11    4.21    0.75
   8   3 -10   22.64    1.08
   8  -3 -10   21.34    1.31
   8  -3 -10   20.19    0.99
   8   3  -9   11.67    0.80
   8  -3  -9   14.25    1.05
   8  -3  -9   13.17    0.82
   8   3  -8   11.66    0.79
   8  -3  -8    8.91    0.91
   8  -3  -8   12.22    0.78
   8   3  -7    0.09    0.25
   8  -3  -7    0.45    0.30
   8  -3  -7    0.81    0.38
  -8  -3   7    0.82    0.30
  -8   3   6    2.43    0.38
   8   3  -6    2.26    0.41
   8  -3  -6    2.21    0.45
  -8  -3   6    2.41    0.41
   8  -3  -6    2.80    0.46
  -8   3   5   28.10    1.02
   8   3  -5   27.99    1.13
  -8  -3   5   28.04    1.07
   8  -3  -5   28.50    1.13
   8  -3  -5   29.36    1.14
  -8   3   4   29.08    1.06
   8   3  -4   29.07    1.13
   8  -3  -4   28.10    1.03
   8  -3  -4   27.03    1.11
  -8  -3   4   30.03    1.12
   8   3  -3    0.03    0.22
  -8   3   3   -0.08    0.22
   8  -3  -3    0.17    0.24
  -8  -3   3    0.17    0.25
   8  -3  -3   -0.11    0.16
   8   3  -2    1.79    0.39
  -8   3   2    1.43    0.35
   8  -3  -2    2.07    0.41
   8  -3  -2    1.45    0.26
  -8  -3   2    1.72    0.38
  -8   3   1    6.18    0.61
   8   3  -1    5.76    0.57
   8  -3  -1    5.74    0.35
   8  -3  -1    5.30    0.57
  -8  -3   1    6.03    0.61
  -8  -3   1    4.95    0.36
   8   3   0   36.54    1.20
  -8   3   0   35.59    1.26
   8  -3   0   36.63    1.26
  -8  -3   0   37.24    1.28
  -8  -3   0   36.17    0.97
   8   3   1   11.11    0.66
  -8   3  -1   10.35    0.74
  -8  -3  -1   11.71    0.60
   8  -3   1    9.95    0.68
  -8  -3  -1   10.39    0.73
  -8  -3  -1   10.63    0.69
  -8   3  -2    3.14    0.51
   8   3   2    2.97    0.41
  -8  -3  -2    3.18    0.51
  -8  -3  -2    3.63    0.48
   8  -3   2    3.18    0.45
  -8  -3  -2    2.79    0.40
  -8   3  -3   33.12    1.29
  -8  -3  -3   32.51    1.22
  -8  -3  -3   35.16    1.21
  -8  -3  -3   36.26    1.19
  -8   3  -4   28.03    1.36
  -8   3  -4   28.30    1.20
  -8  -3  -4   28.84    1.09
  -8  -3  -4   26.42    1.14
  -8  -3  -4   25.60    1.11
  -8   3  -5   13.61    0.89
  -8   3  -5   14.61    1.06
  -8  -3  -5   14.58    0.92
  -8  -3  -5   14.17    0.85
  -8  -3  -5   14.00    0.80
  -8   3  -6    2.83    0.65
  -8   3  -6    2.52    0.49
  -8  -3  -6    2.14    0.44
  -8  -3  -6    2.84    0.57
  -8  -3  -6    2.69    0.47
  -8   3  -7   30.09    1.31
  -8   3  -7   31.79    1.63
  -8  -3  -7   29.11    1.21
  -8  -3  -7   27.40    1.41
  -8   3  -8   10.83    1.18
  -8   3  -8   10.93    0.87
  -8  -3  -8   11.45    0.83
  -8  -3  -8   12.98    1.20
  -8   3  -9    1.33    0.57
  -8   3  -9    1.32    0.44
  -8  -3  -9    1.03    0.55
  -8  -3  -9    1.27    0.40
   8   4 -14    0.80    0.37
   8  -4 -14    0.42    0.51
   8  -4 -14    0.22    0.28
   8   4 -13   15.51    1.01
   8  -4 -13   16.17    1.36
   8  -4 -13   16.99    0.96
   8   4 -12    2.59    0.53
   8  -4 -12    2.51    0.71
   8  -4 -12    1.50    0.42
   8   4 -11    2.92    0.52
   8  -4 -11    3.67    0.78
   8  -4 -11    3.74    0.56
   8   4 -10   20.04    1.06
   8  -4 -10   20.03    1.31
   8  -4 -10   19.64    1.01
   8   4  -9    1.21    0.39
   8  -4  -9    0.90    0.35
   8  -4  -9    1.43    0.50
   8   4  -8   17.68    0.98
   8  -4  -8   17.16    1.09
   8  -4  -8   16.51    0.93
   8   4  -7    4.38    0.58
   8  -4  -7    6.40    0.67
  -8  -4   7    7.56    0.67
   8  -4  -7    5.80    0.73
  -8   4   6    3.24    0.44
   8   4  -6    2.48    0.46
  -8  -4   6    2.46    0.44
   8  -4  -6    2.28    0.44
   8  -4  -6    2.78    0.51
  -8   4   5   17.76    0.85
   8   4  -5   18.09    0.94
   8  -4  -5   17.25    0.92
  -8  -4   5   16.62    0.88
   8  -4  -5   15.41    0.90
   8   4  -4    0.08    0.24
  -8   4   4    0.33    0.26
   8  -4  -4    0.18    0.26
  -8  -4   4    0.04    0.26
   8  -4  -4   -0.05    0.25
  -8   4   3   17.23    0.88
   8   4  -3   17.61    0.91
   8  -4  -3   16.64    0.90
   8  -4  -3   16.05    0.77
  -8  -4   3   16.88    0.92
  -8   4   2   11.88    0.75
   8   4  -2   11.41    0.75
   8  -4  -2   11.43    0.59
   8  -4  -2   10.69    0.75
  -8  -4   2   11.34    0.77
   8   4  -1   15.95    0.84
  -8   4   1   14.66    0.86
   8  -4  -1   14.07    0.57
  -8  -4   1   15.31    0.87
   8  -4  -1   15.25    0.86
  -8  -4   1   15.18    0.48
  -8   4   0   12.14    0.81
   8   4   0   11.94    0.73
  -8  -4   0   13.17    0.53
  -8  -4   0   11.69    0.80
   8  -4   0   12.12    0.79
   8  -4   0   12.01    0.41
   8   4   1    3.90    0.49
  -8   4  -1    3.30    0.52
  -8  -4  -1    4.03    0.41
   8  -4   1    4.29    0.54
  -8  -4  -1    3.68    0.54
  -8  -4  -1    3.80    0.55
  -8   4  -2   62.24    1.81
  -8  -4  -2   65.74    1.77
  -8  -4  -2   65.06    1.54
   8  -4   2   65.84    1.76
  -8  -4  -2   66.80    1.84
  -8   4  -3   21.59    1.08
  -8   4  -3   22.31    1.09
  -8  -4  -3   22.21    1.04
  -8  -4  -3   21.66    1.05
  -8  -4  -3   22.05    0.94
  -8   4  -4    3.57    0.58
  -8   4  -4    2.97    0.54
  -8  -4  -4    2.83    0.50
  -8  -4  -4    2.65    0.47
  -8  -4  -4    3.21    0.51
  -8   4  -5   61.29    1.87
  -8   4  -5   60.62    1.85
  -8   4  -5   57.97    2.09
  -8  -4  -5   58.03    1.75
  -8  -4  -5   61.07    1.78
  -8  -4  -5   59.40    1.82
  -8   4  -6   -0.31    0.30
  -8   4  -6    0.16    0.31
  -8   4  -6    0.25    0.31
  -8  -4  -6    0.13    0.32
  -8  -4  -6    0.10    0.27
  -8  -4  -6    0.40    0.34
  -8   4  -7   24.83    1.23
  -8   4  -7   20.73    1.16
  -8   4  -7   21.90    1.42
  -8  -4  -7   21.73    1.10
  -8  -4  -7   20.86    1.14
  -8  -4  -7   20.56    1.22
  -8   4  -8   11.32    1.24
  -8   4  -8   12.54    0.95
  -8   4  -8   13.45    1.00
  -8  -4  -8   12.58    0.87
  -8   4  -9    3.34    0.63
  -8   4  -9    2.70    0.74
  -8  -4  -9    3.45    0.57
   8   5 -13   -0.21    0.29
   8  -5 -13   -0.28    0.45
   8  -5 -13   -0.01    0.31
   8   5 -12   39.02    1.59
   8  -5 -12   40.86    1.51
   8  -5 -12   44.73    2.11
   8   5 -11   15.18    1.00
   8  -5 -11   16.41    1.29
   8  -5 -11   15.33    0.95
   8   5 -10   13.06    0.93
   8  -5 -10   14.16    1.32
   8  -5 -10   13.30    0.88
   8   5  -9   45.71    1.63
   8  -5  -9   45.75    1.57
   8  -5  -9   42.89    1.83
   8   5  -8   18.13    1.04
   8  -5  -8   18.11    1.00
   8  -5  -8   18.23    1.15
   8   5  -7    0.10    0.28
   8  -5  -7   -0.13    0.30
   8  -5  -7    0.08    0.26
   8   5  -6   14.49    0.91
   8  -5  -6   14.62    0.90
  -8  -5   6   12.06    0.81
   8  -5  -6   13.36    0.93
   8   5  -5   58.10    1.75
  -8   5   5   54.44    1.54
   8  -5  -5   56.20    1.72
  -8  -5   5   54.42    1.66
   8  -5  -5   56.11    1.72
   8   5  -4  108.70    2.49
  -8   5   4  106.08    2.33
  -8  -5   4  104.64    2.43
   8  -5  -4  108.29    2.36
   8  -5  -4  106.03    2.50
   8   5  -3   46.60    1.54
  -8   5   3   45.14    1.47
   8  -5  -3   49.27    1.61
   8  -5  -3   48.02    1.38
  -8  -5   3   46.58    1.54
   8   5  -2   19.11    0.97
  -8   5   2   16.80    0.94
   8  -5  -2   18.57    0.79
  -8  -5   2   16.96    0.94
   8  -5  -2   17.68    0.97
  -8   5   1   31.25    1.26
   8   5  -1   32.40    1.24
   8  -5  -1   33.24    0.96
   8  -5  -1   33.51    1.32
  -8  -5   1   31.63    1.29
   8   5   0   40.39    1.37
  -8   5   0   41.43    1.45
   8  -5   0   40.09    0.95
   8  -5   0   41.26    1.44
  -8  -5   0   38.87    1.45
  -8   5  -1    1.04    0.40
   8   5   1    0.99    0.32
  -8   5  -1    1.45    0.41
   8  -5   1    0.68    0.35
  -8  -5  -1    1.02    0.38
  -8  -5  -1    1.15    0.43
  -8   5  -2    7.64    0.81
  -8   5  -2    6.99    0.76
   8  -5   2    7.46    0.74
  -8  -5  -2    6.38    0.73
  -8  -5  -2    5.39    0.66
  -8   5  -3    0.33    0.32
  -8   5  -3    0.30    0.32
  -8  -5  -3    0.00    0.32
  -8  -5  -3    0.05    0.29
  -8   5  -4   33.71    1.41
  -8   5  -4   32.93    1.40
  -8  -5  -4   32.76    1.32
  -8  -5  -4   32.00    1.35
  -8   5  -5    5.34    0.69
  -8   5  -5    5.40    0.83
  -8   5  -5    5.54    0.70
  -8  -5  -5    4.86    0.69
  -8  -5  -5    5.79    0.70
  -8   5  -6   12.78    0.96
  -8   5  -6   11.11    1.00
  -8   5  -6   13.64    1.30
  -8  -5  -6   13.19    0.91
  -8  -5  -6   14.00    0.98
  -8   5  -7   29.21    1.67
  -8   5  -7   30.28    1.42
  -8   5  -7   27.58    1.37
  -8  -5  -7   30.30    1.42
  -8  -5  -7   30.07    1.32
  -8   5  -8   12.68    1.01
  -8   5  -8   12.19    1.09
  -8   5  -8   10.95    1.22
  -8  -5  -8   14.68    0.98
   8   6 -12   11.70    1.07
   8  -6 -12    8.88    1.16
   8  -6 -12    9.04    0.90
   8   6 -11    1.98    0.52
   8  -6 -11    1.70    0.63
   8  -6 -11    1.46    0.43
   8   6 -10   14.12    1.00
   8  -6 -10   14.59    1.20
   8  -6 -10   14.41    0.96
   8   6  -9    5.01    0.70
   8  -6  -9    5.23    0.84
   8  -6  -9    6.14    0.72
   8   6  -8    1.50    0.44
   8  -6  -8    1.40    0.48
   8  -6  -8    1.73    0.44
   8   6  -7    1.06    0.40
   8  -6  -7    0.09    0.30
   8  -6  -7    0.63    0.40
   8   6  -6   14.27    0.96
   8  -6  -6   14.30    0.95
  -8  -6   6   13.44    0.87
   8  -6  -6   12.85    0.95
  -8   6   5    0.23    0.27
   8   6  -5   -0.27    0.25
   8  -6  -5   -0.33    0.27
  -8  -6   5    0.10    0.30
   8  -6  -5    0.10    0.31
   8   6  -4    0.37    0.32
  -8   6   4    0.21    0.29
   8  -6  -4   -0.08    0.29
  -8  -6   4   -0.06    0.29
   8  -6  -4   -0.01    0.29
   8   6  -3    2.04    0.46
  -8   6   3    1.88    0.45
  -8  -6   3    2.89    0.53
   8  -6  -3    1.65    0.44
   8  -6  -3    1.79    0.43
   8   6  -2    1.23    0.39
  -8   6   2    1.31    0.42
  -8  -6   2    1.64    0.44
   8  -6  -2    0.80    0.32
   8  -6  -2    1.23    0.42
   8   6  -1   79.35    2.07
  -8   6   1   82.20    2.15
   8  -6  -1   80.95    2.20
  -8  -6   1   79.60    2.16
   8  -6  -1   80.76    1.75
  -8   6   0    0.99    0.40
  -8   6   0    0.77    0.38
   8   6   0    1.06    0.36
   8  -6   0    0.53    0.24
  -8  -6   0    0.44    0.36
   8  -6   0    0.59    0.37
  -8   6  -1   -0.07    0.28
  -8   6  -1    0.36    0.35
  -8  -6  -1   -0.44    0.31
   8  -6   1    0.02    0.29
  -8  -6  -1   -0.15    0.26
  -8   6  -2   15.28    0.99
  -8   6  -2   14.97    0.99
   8  -6   2   15.15    0.96
  -8  -6  -2   16.33    1.01
  -8  -6  -2   13.37    1.00
  -8   6  -3   -0.08    0.28
  -8   6  -3    0.00    0.32
  -8  -6  -3    0.01    0.37
  -8  -6  -3    0.17    0.30
  -8   6  -4    3.62    0.63
  -8  -6  -4    3.83    0.61
  -8  -6  -4    6.03    0.78
  -8   6  -5    7.91    0.85
  -8   6  -5    4.09    0.74
  -8  -6  -5    6.71    0.83
  -8  -6  -5    7.68    0.81
  -8   6  -6    8.48    0.92
  -8   6  -6   10.42    1.17
  -8  -6  -6   13.02    0.95
  -8  -6  -6   12.50    1.01
  -8   6  -7    8.79    1.12
  -8   6  -7    9.34    0.97
  -8  -6  -7    7.45    0.91
  -8  -6  -7    9.31    0.92
  -8   6  -8    1.01    0.48
  -8   6  -8    1.27    0.61
  -8   6  -8    0.67    0.45
  -8  -6  -8   -0.04    0.34
  -8  -6  -8    0.58    0.46
   8   7 -12    2.35    0.57
   8  -7 -12    2.81    0.58
   8  -7 -12    1.56    0.71
   8   7 -11    1.75    0.54
   8  -7 -11    0.91    0.59
   8  -7 -11    2.26    0.55
   8   7 -10   58.07    2.04
   8  -7 -10   58.77    1.96
   8  -7 -10   54.81    2.29
   8   7  -9    2.26    0.54
   8  -7  -9    1.88    0.49
   8  -7  -9    3.16    0.69
   8   7  -8   10.08    0.99
   8  -7  -8    8.11    0.96
   8  -7  -8    8.54    0.88
   8   7  -7    1.86    0.50
   8  -7  -7    1.14    0.46
   8  -7  -7    0.76    0.37
   8   7  -6   31.94    1.44
   8  -7  -6   31.24    1.40
   8  -7  -6   31.40    1.46
  -8  -7   6   29.69    1.32
   8   7  -5  104.19    2.65
   8  -7  -5   98.96    2.57
   8  -7  -5  103.21    2.64
  -8  -7   5  103.56    2.56
   8   7  -4   71.27    2.12
  -8   7   4   75.45    2.03
   8  -7  -4   73.08    2.05
   8  -7  -4   70.50    2.14
  -8  -7   4   72.76    2.11
   8   7  -3    8.74    0.85
  -8   7   3    8.95    0.83
   8  -7  -3   10.63    0.98
   8  -7  -3   10.08    0.76
  -8  -7   3   10.61    0.95
   8   7  -2   82.25    2.21
  -8   7   2   82.62    2.20
   8  -7  -2   81.72    1.98
  -8  -7   2   80.85    2.27
   8  -7  -2   75.29    2.21
  -8   7   1    1.35    0.44
  -8   7   1    1.33    0.44
   8   7  -1    1.32    0.40
   8  -7  -1    0.89    0.42
  -8  -7   1    1.56    0.48
   8  -7  -1    1.29    0.34
  -8   7   0    0.24    0.32
   8   7   0    0.51    0.33
  -8   7   0    0.09    0.33
   8  -7   0    0.12    0.24
  -8  -7   0    0.07    0.32
   8  -7   0    0.02    0.32
  -8   7  -1    0.34    0.35
  -8   7  -1   -0.32    0.30
   8  -7   1   -0.20    0.30
  -8  -7  -1    0.75    0.47
  -8  -7  -1   -0.03    0.29
  -8   7  -2   36.61    1.53
  -8  -7  -2   33.83    1.58
  -8  -7  -2   37.18    1.52
  -8   7  -3    2.65    0.59
  -8  -7  -3    1.43    0.43
  -8  -7  -3    1.99    0.55
  -8   7  -4    9.86    0.98
  -8  -7  -4    9.52    0.93
  -8  -7  -4   10.43    1.05
  -8   7  -5    0.25    0.40
  -8  -7  -5   -0.21    0.29
  -8  -7  -5    0.55    0.44
  -8   7  -6   35.39    1.84
  -8   7  -6   37.51    1.69
  -8  -7  -6   36.82    1.73
  -8  -7  -6   37.65    1.57
  -8   7  -7    6.85    0.90
  -8   7  -7    7.45    1.07
  -8  -7  -7    6.96    0.92
  -8  -7  -7    6.66    0.82
   8   8 -11   16.73    1.20
   8  -8 -11   15.32    1.11
   8  -8 -11   14.84    1.50
   8   8 -10    7.14    0.92
   8  -8 -10    4.60    0.89
   8  -8 -10    5.50    0.77
   8   8  -9    1.11    0.49
   8  -8  -9    0.81    0.53
   8  -8  -9    0.03    0.36
   8   8  -8    0.13    0.35
   8  -8  -8   -0.21    0.38
   8  -8  -8    0.23    0.35
   8   8  -7   15.06    1.08
   8  -8  -7   14.11    1.04
   8  -8  -7   11.65    1.16
   8   8  -6    8.89    0.97
   8  -8  -6    9.05    0.99
   8  -8  -6    8.70    0.93
   8   8  -5    5.75    0.77
   8  -8  -5    6.20    0.81
  -8  -8   5    7.51    0.86
   8  -8  -5    5.80    0.79
   8   8  -4    0.14    0.33
   8  -8  -4    0.22    0.37
   8  -8  -4   -0.02    0.33
  -8  -8   4    0.03    0.33
  -8   8   3   27.35    1.30
   8   8  -3   27.42    1.33
   8  -8  -3   28.34    1.28
  -8  -8   3   28.08    1.37
   8  -8  -3   28.97    1.42
  -8   8   2    0.36    0.37
  -8   8   2    0.48    0.38
   8   8  -2    0.06    0.31
   8  -8  -2    0.30    0.36
  -8  -8   2   -0.17    0.33
   8  -8  -2    0.31    0.32
   8   8  -1   21.53    1.16
  -8   8   1   20.24    1.19
  -8   8   1   21.80    1.21
   8  -8  -1   21.84    1.01
  -8  -8   1   20.61    1.21
   8  -8  -1   23.04    1.27
  -8   8   0    1.09    0.46
  -8   8   0    1.28    0.47
  -8  -8   0    1.82    0.59
  -8  -8   0    0.62    0.39
   8  -8   0    0.90    0.42
  -8   8  -1    2.07    0.56
  -8  -8  -1    2.59    0.67
   8  -8   1    3.37    0.62
  -8  -8  -1    2.25    0.55
  -8   8  -2    0.62    0.42
  -8  -8  -2    1.17    0.46
  -8  -8  -2    0.53    0.50
  -8   8  -3   11.44    1.09
  -8  -8  -3   13.43    1.11
  -8  -8  -3   12.09    1.12
  -8   8  -4    0.22    0.42
  -8  -8  -4    0.53    0.38
  -8  -8  -4    0.37    0.49
  -8   8  -5    1.00    0.48
  -8  -8  -5    0.71    0.52
  -8  -8  -5    1.02    0.47
  -8   8  -6    3.41    0.80
  -8   8  -6    4.78    0.82
  -8  -8  -6    5.54    0.80
  -8  -8  -6    5.71    0.91
   8   9 -10   11.85    1.20
   8  -9 -10   13.90    1.48
   8  -9 -10   15.07    1.16
   8   9  -9    0.34    0.45
   8  -9  -9    0.43    0.40
   8  -9  -9    1.04    0.57
   8   9  -8   -0.07    0.36
   8  -9  -8    1.04    0.47
   8  -9  -8    0.17    0.45
   8   9  -7    1.56    0.52
   8  -9  -7    1.66    0.50
   8  -9  -7    1.23    0.56
   8   9  -6    1.68    0.55
   8  -9  -6    1.46    0.53
   8  -9  -6    1.51    0.51
   8   9  -5    0.12    0.35
  -8  -9   5   -0.23    0.37
   8  -9  -5    0.19    0.39
   8  -9  -5    0.40    0.40
   8   9  -4   45.66    1.83
   8  -9  -4   48.68    1.91
  -8  -9   4   48.76    1.86
   8  -9  -4   47.37    1.82
  -8   9   3   11.47    1.12
   8   9  -3    9.78    0.98
  -8  -9   3   10.07    1.02
   8  -9  -3   10.21    0.98
   8  -9  -3    9.17    0.98
  -8   9   2   50.81    1.85
   8   9  -2   51.24    1.87
  -8   9   2   48.25    1.79
   8  -9  -2   49.53    1.93
  -8  -9   2   48.46    1.88
   8  -9  -2   48.00    1.68
  -8   9   1    0.97    0.47
  -8   9   1    0.58    0.44
   8  -9  -1    0.93    0.39
   8  -9  -1    0.76    0.45
  -8  -9   1    1.35    0.48
  -8   9   0   11.36    1.09
  -8   9   0   11.97    1.09
  -8  -9   0   13.98    1.08
   8  -9   0   13.28    1.04
  -8  -9   0   10.84    1.18
  -8   9  -1    0.58    0.45
  -8  -9  -1    0.37    0.52
  -8  -9  -1    0.77    0.44
  -8   9  -2    0.69    0.45
  -8  -9  -2   -0.09    0.45
  -8  -9  -2    1.26    0.49
  -8   9  -3    1.19    0.50
  -8  -9  -3    0.97    0.45
  -8  -9  -3    1.20    0.57
  -8   9  -4   -0.13    0.38
  -8  -9  -4    0.14    0.48
  -8  -9  -4    0.34    0.39
  -8   9  -5    1.89    0.60
  -8  -9  -5    1.93    0.58
  -8  -9  -5    2.47    0.73
   8  10  -8    2.51    0.65
   8 -10  -8    1.86    0.58
   8 -10  -8    2.09    0.73
   8  10  -7    0.32    0.42
   8 -10  -7   -0.18    0.37
   8 -10  -7    0.15    0.50
   8  10  -6   -0.11    0.37
   8 -10  -6   -0.05    0.36
   8 -10  -6   -0.20    0.37
   8  10  -5    8.43    0.97
   8 -10  -5    8.76    1.03
   8 -10  -5    8.81    1.01
   8  10  -4   30.54    1.56
   8 -10  -4   27.20    1.51
   8 -10  -4   30.31    1.53
  -8 -10   4   28.85    1.55
   8  10  -3   24.40    1.41
   8 -10  -3   27.39    1.41
  -8 -10   3   24.84    1.45
   8 -10  -3   25.51    1.47
  -8  10   2    7.27    0.93
  -8  10   2    7.51    0.94
  -8 -10   2    7.68    0.96
   8 -10  -2    7.48    0.98
   8 -10  -2    9.00    0.96
  -8  10   1    6.46    0.87
  -8  10   1    5.70    0.83
  -8 -10   1    5.19    0.81
  -8 -10   1    5.23    1.00
   8 -10  -1    5.24    0.82
  -8  10   0    0.03    0.41
  -8  10   0   -0.21    0.41
   8 -10   0   -0.09    0.42
  -8 -10   0    0.28    0.50
  -8 -10   0   -0.23    0.37
  -8  10  -1    7.87    1.00
  -8 -10  -1    7.67    1.11
  -8 -10  -1    6.40    0.89
  -8  10  -2    2.75    0.66
  -8 -10  -2    2.34    0.61
  -8 -10  -2    1.29    0.62
  -8  10  -3    1.10    0.54
  -8 -10  -3    1.33    0.55
  -8 -10  -3    1.71    0.70
   8  11  -5   24.48    1.52
   8 -11  -5   28.51    1.64
   8 -11  -5   24.67    1.52
   8  11  -4    4.04    0.77
   8 -11  -4    2.06    0.63
   8 -11  -4    2.65    0.68
  -8 -11   4    2.10    0.63
   8 -11  -3    5.11    0.83
   8 -11  -3    5.28    0.88
  -8 -11   3    5.14    0.83
   8 -11  -2   30.43    1.69
   8 -11  -2   31.32    1.56
  -8 -11   2   32.09    1.71
  -8  11   1   12.03    1.49
  -8  11   1   13.28    1.56
  -8 -11   1   14.48    1.53
  -8 -11   1   10.97    1.19
   8 -11  -1   11.95    1.25
  -8  11   0    1.71    0.62
  -8  11   0    2.39    0.66
  -8 -11   0    0.04    0.58
  -8 -11   0    1.47    0.59
   9   0 -14   25.78    1.21
   9   0 -13   -0.26    0.23
   9   0 -12    0.79    0.34
   9   0 -11   -0.10    0.23
   9   0 -10   30.05    1.24
   9   0  -9   -0.14    0.23
   9   0  -8  309.24    5.03
   9   0  -7   -0.12    0.27
  -9   0   7   -0.10    0.25
  -9   0   6   61.63    1.63
   9   0  -6   69.37    1.85
   9   0  -5    0.02    0.24
  -9   0   5   -0.29    0.22
   9   0  -4    5.95    0.62
  -9   0   4    7.27    0.68
  -9   0   3   -0.25    0.22
   9   0  -3   -0.14    0.21
  -9   0   2   21.35    0.96
   9   0  -2   21.74    0.97
   9   0  -1    0.13    0.24
  -9   0   1   -0.19    0.24
  -9   0   0    2.43    0.46
   9   0   0    3.20    0.47
  -9   0  -1    0.00    0.25
  -9   0  -1    0.03    0.14
   9   0   1   -0.27    0.20
  -9   0  -2  124.76    2.65
  -9   0  -2  124.78    2.70
   9   0   2  122.72    2.57
  -9   0  -3    0.02    0.28
  -9   0  -3    0.11    0.31
  -9   0  -4   94.23    2.28
  -9   0  -4   96.89    2.51
  -9   0  -5    0.37    0.31
  -9   0  -5    0.32    0.36
  -9   0  -6   34.62    1.60
  -9   0  -6   37.15    1.41
  -9   0  -7   -0.12    0.27
  -9   0  -7   -0.24    0.30
  -9   0  -8    5.21    0.88
  -9   0  -8    3.62    0.60
  -9   0  -9    0.76    0.40
  -9   0  -9    0.01    0.44
   9   1 -14   -0.19    0.27
   9  -1 -14   -0.02    0.28
   9   1 -13   11.75    0.86
   9  -1 -13   12.76    1.37
   9  -1 -13   12.62    0.88
   9   1 -12    0.00    0.26
   9  -1 -12   -0.12    0.27
   9  -1 -12    0.16    0.42
   9   1 -11   25.81    1.16
   9  -1 -11   23.94    1.44
   9  -1 -11   26.13    1.17
   9   1 -10    0.16    0.27
   9  -1 -10    0.55    0.39
   9  -1 -10    0.33    0.29
   9   1  -9   34.40    1.32
   9  -1  -9   34.40    1.31
   9  -1  -9   35.43    1.57
   9   1  -8   16.44    0.93
   9  -1  -8   16.61    1.06
   9  -1  -8   16.45    0.93
  -9   1   7  282.58    4.57
   9   1  -7  292.35    4.82
   9  -1  -7  297.56    4.82
  -9  -1   7  293.53    4.54
   9  -1  -7  303.86    5.07
  -9   1   6    8.35    0.64
   9   1  -6   10.59    0.75
  -9  -1   6   10.91    0.72
   9  -1  -6   10.75    0.78
  -9   1   5   59.30    1.59
   9   1  -5   58.33    1.68
  -9  -1   5   59.21    1.63
   9  -1  -5   58.82    1.70
  -9   1   4   21.16    0.93
   9   1  -4   19.65    0.95
  -9  -1   4   20.47    0.95
   9  -1  -4   20.19    0.99
   9   1  -3    0.99    0.32
  -9   1   3    1.01    0.30
  -9  -1   3    0.53    0.31
   9  -1  -3    0.61    0.29
  -9   1   2    1.49    0.37
   9   1  -2    2.08    0.42
  -9  -1   2    1.13    0.36
   9  -1  -2    1.35    0.36
  -9   1   1    9.45    0.72
   9   1  -1   10.00    0.69
   9  -1  -1    9.61    0.70
  -9  -1   1    9.91    0.72
   9   1   0   16.69    0.87
  -9   1   0   19.80    0.97
  -9  -1   0   18.46    0.93
   9  -1   0   16.33    0.85
  -9   1  -1    0.48    0.31
   9   1   1    0.46    0.25
  -9  -1  -1    0.81    0.24
  -9  -1  -1   -0.19    0.25
   9  -1   1    0.32    0.26
  -9  -1  -1    0.78    0.29
  -9   1  -2    0.07    0.30
   9  -1   2    0.41    0.29
  -9  -1  -2    0.55    0.32
  -9  -1  -2    0.66    0.33
  -9  -1  -2    0.41    0.20
  -9   1  -3  112.18    2.54
  -9   1  -3  114.79    2.75
  -9  -1  -3  116.38    2.62
  -9  -1  -3  114.69    2.53
  -9   1  -4   29.34    1.24
  -9   1  -4   28.68    1.38
  -9  -1  -4   32.36    1.27
  -9  -1  -4   30.50    1.34
  -9   1  -5   18.89    1.17
  -9   1  -5   18.73    1.03
  -9  -1  -5   20.37    1.04
  -9  -1  -5   19.90    1.13
  -9   1  -6   12.03    1.15
  -9   1  -6    9.53    0.87
  -9  -1  -6   10.12    0.78
  -9  -1  -6   12.36    1.14
  -9   1  -7    1.11    0.40
  -9   1  -7    1.13    0.50
  -9  -1  -7    0.94    0.37
  -9  -1  -7    0.57    0.43
  -9   1  -8   14.18    1.40
  -9   1  -8   10.83    0.86
  -9  -1  -8   10.06    1.15
  -9  -1  -8   10.21    0.90
   9   2 -14   41.69    1.60
   9  -2 -14   41.90    2.14
   9  -2 -14   44.60    1.58
   9   2 -13    0.01    0.29
   9  -2 -13   -0.20    0.38
   9  -2 -13    0.28    0.31
   9   2 -12    7.97    0.81
   9  -2 -12   10.08    0.78
   9  -2 -12    7.94    1.03
   9   2 -11   12.50    0.87
   9  -2 -11   10.57    1.11
   9  -2 -11   11.66    0.83
   9   2 -10   47.46    1.61
   9  -2 -10   44.52    1.85
   9  -2 -10   46.43    1.54
   9   2  -9   43.20    1.51
   9  -2  -9   42.81    1.72
   9  -2  -9   39.28    1.42
   9   2  -8   38.82    1.40
   9  -2  -8   37.69    1.38
   9  -2  -8   36.59    1.52
   9   2  -7    4.29    0.58
   9  -2  -7    3.85    0.56
  -9  -2   7    4.18    0.50
   9  -2  -7    2.88    0.53
  -9   2   6  186.47    3.26
   9   2  -6  189.65    3.54
  -9  -2   6  188.61    3.37
   9  -2  -6  188.85    3.55
   9  -2  -6  189.28    3.53
  -9   2   5   -0.18    0.22
   9   2  -5   -0.15    0.22
   9  -2  -5    0.33    0.27
   9  -2  -5    0.35    0.28
  -9  -2   5    0.15    0.26
   9   2  -4   24.19    1.08
  -9   2   4   24.53    1.02
   9  -2  -4   25.13    0.97
   9  -2  -4   25.88    1.12
  -9  -2   4   25.18    1.07
  -9   2   3   25.32    1.04
   9   2  -3   25.70    1.10
   9  -2  -3   26.04    1.10
  -9  -2   3   24.73    1.08
  -9   2   2   46.45    1.45
   9   2  -2   46.17    1.47
   9  -2  -2   47.00    1.49
  -9  -2   2   44.79    1.46
  -9   2   1   34.62    1.26
   9   2  -1   36.53    1.27
  -9  -2   1   33.65    1.27
   9  -2  -1   34.56    1.27
  -9   2   0   18.75    0.96
   9   2   0   17.57    0.88
  -9  -2   0   18.33    0.78
   9  -2   0   18.63    0.95
  -9  -2   0   18.52    0.95
  -9   2  -1    6.71    0.71
   9   2   1    6.33    0.61
  -9  -2  -1    6.76    0.54
   9  -2   1    5.82    0.62
  -9  -2  -1    6.53    0.71
  -9  -2  -1    5.93    0.58
  -9   2  -2   38.63    1.40
  -9  -2  -2   40.26    1.41
   9  -2   2   40.07    1.31
  -9  -2  -2   38.43    1.30
  -9  -2  -2   39.72    1.12
  -9   2  -3   85.17    2.17
  -9  -2  -3   83.64    1.74
  -9  -2  -3   86.36    2.14
  -9  -2  -3   82.50    2.10
  -9   2  -4   13.31    0.90
  -9   2  -4   15.49    1.09
  -9  -2  -4   13.62    0.91
  -9  -2  -4   13.84    0.88
  -9   2  -5   -0.11    0.27
  -9   2  -5    0.12    0.36
  -9  -2  -5   -0.02    0.29
  -9  -2  -5    0.36    0.30
  -9   2  -6    6.78    0.90
  -9   2  -6    6.49    0.75
  -9  -2  -6    7.37    0.88
  -9  -2  -6    6.73    0.74
  -9   2  -7   11.98    0.91
  -9   2  -7   14.40    1.35
  -9  -2  -7   11.81    1.13
  -9  -2  -7   11.40    0.85
  -9   2  -8    5.13    0.71
  -9   2  -8    4.79    0.86
  -9  -2  -8    5.59    0.69
  -9  -2  -8    6.10    0.93
   9   3 -14    1.50    0.44
   9  -3 -14    1.13    0.43
   9  -3 -14    1.01    0.61
   9   3 -13    6.41    0.76
   9  -3 -13    6.22    0.99
   9  -3 -13    6.85    0.75
   9   3 -12    1.98    0.48
   9  -3 -12    2.33    0.49
   9  -3 -12    1.26    0.56
   9   3 -11    2.67    0.51
   9  -3 -11    1.80    0.57
   9  -3 -11    2.16    0.50
   9   3 -10   55.86    1.78
   9  -3 -10   51.63    2.03
   9  -3 -10   53.24    1.70
   9   3  -9   73.66    2.06
   9  -3  -9   73.00    2.01
   9  -3  -9   75.02    2.33
   9   3  -8    3.29    0.55
   9  -3  -8    2.87    0.51
   9  -3  -8    2.90    0.58
   9   3  -7    6.67    0.73
   9  -3  -7    6.38    0.70
   9  -3  -7    6.78    0.77
  -9  -3   7    7.05    0.66
   9   3  -6    3.73    0.55
  -9   3   6    4.10    0.52
   9  -3  -6    3.45    0.55
   9  -3  -6    3.51    0.54
  -9  -3   6    3.74    0.52
  -9   3   5   67.72    1.72
   9   3  -5   64.06    1.84
   9  -3  -5   64.95    1.86
  -9  -3   5   66.73    1.82
   9  -3  -5   66.30    1.77
   9   3  -4   26.08    1.14
  -9   3   4   28.72    1.13
   9  -3  -4   28.39    1.04
   9  -3  -4   27.65    1.20
  -9  -3   4   28.10    1.17
   9   3  -3    5.67    0.62
  -9   3   3    6.23    0.64
  -9  -3   3    6.86    0.68
   9  -3  -3    5.76    0.64
   9  -3  -3    6.67    0.51
   9   3  -2   41.53    1.41
  -9   3   2   39.41    1.39
   9  -3  -2   41.50    1.44
  -9  -3   2   42.25    1.44
   9  -3  -2   43.64    1.08
  -9   3   1   -0.22    0.23
   9   3  -1    0.21    0.24
  -9  -3   1   -0.22    0.24
  -9  -3   1    0.35    0.20
   9  -3  -1   -0.25    0.22
  -9   3   0   23.33    1.09
   9   3   0   21.57    0.98
   9  -3   0   22.57    1.05
  -9  -3   0   22.40    0.81
  -9  -3   0   24.38    1.12
   9   3   1   16.82    0.85
  -9   3  -1   17.71    0.99
  -9  -3  -1   15.17    0.81
  -9  -3  -1   16.79    0.97
  -9  -3  -1   16.56    0.77
   9  -3   1   16.78    0.91
  -9   3  -2   61.63    1.85
  -9  -3  -2   62.80    1.61
   9  -3   2   58.60    1.83
  -9  -3  -2   66.99    1.88
  -9  -3  -2   64.05    1.64
  -9   3  -3   12.78    0.90
  -9  -3  -3   15.32    0.91
  -9  -3  -3   15.37    0.86
  -9  -3  -3   15.60    0.81
  -9   3  -4   11.42    0.87
  -9   3  -4   14.20    1.04
  -9  -3  -4   11.29    0.82
  -9  -3  -4   11.50    0.83
  -9  -3  -4   13.28    0.77
  -9   3  -5    0.92    0.40
  -9   3  -5    1.15    0.48
  -9  -3  -5    1.82    0.47
  -9  -3  -5    1.29    0.39
  -9   3  -6   13.38    0.95
  -9   3  -6   11.89    1.22
  -9  -3  -6   13.07    0.98
  -9  -3  -6   12.52    0.88
  -9   3  -7    2.15    0.63
  -9   3  -7    1.15    0.43
  -9  -3  -7    1.05    0.41
  -9  -3  -7    1.61    0.53
  -9   3  -8   19.84    1.46
  -9   3  -8   23.46    1.26
  -9  -3  -8   21.49    1.14
  -9  -3  -8   19.33    1.33
   9   4 -13    1.16    0.44
   9  -4 -13    1.05    0.39
   9  -4 -13    1.25    0.63
   9   4 -12    7.92    0.86
   9  -4 -12    8.10    0.81
   9  -4 -12    5.78    0.90
   9   4 -11   13.05    0.94
   9  -4 -11   15.48    0.97
   9  -4 -11   13.07    1.26
   9   4 -10   44.74    1.64
   9  -4 -10   43.74    1.57
   9  -4 -10   44.57    1.91
   9   4  -9   28.73    1.30
   9  -4  -9   28.10    1.47
   9  -4  -9   27.49    1.24
   9   4  -8    4.26    0.61
   9  -4  -8    3.57    0.56
   9  -4  -8    3.88    0.66
   9   4  -7    0.30    0.31
   9  -4  -7    0.65    0.35
   9  -4  -7    0.84    0.39
  -9  -4   7    1.06    0.47
   9   4  -6   13.84    0.91
  -9   4   6   11.90    0.74
  -9  -4   6   13.72    0.86
   9  -4  -6   13.21    0.89
   9  -4  -6   13.67    0.91
   9   4  -5    0.83    0.34
  -9   4   5    0.85    0.35
   9  -4  -5    1.01    0.38
   9  -4  -5    0.42    0.34
  -9  -4   5    0.77    0.35
   9   4  -4  240.84    4.28
  -9   4   4  248.29    4.14
  -9  -4   4  240.25    4.22
   9  -4  -4  246.93    4.33
   9  -4  -4  242.67    4.01
   9   4  -3    0.08    0.27
  -9   4   3    0.40    0.33
  -9  -4   3    0.82    0.37
   9  -4  -3   -0.16    0.22
   9  -4  -3    0.56    0.33
   9   4  -2   14.69    0.86
  -9   4   2   13.60    0.87
  -9  -4   2   13.92    0.47
   9  -4  -2   14.61    0.92
   9  -4  -2   14.36    0.65
  -9  -4   2   13.08    0.87
   9   4  -1   53.18    1.59
  -9   4   1   52.77    1.66
  -9  -4   1   50.07    1.07
   9  -4  -1   51.56    1.08
  -9  -4   1   50.23    1.64
   9  -4  -1   49.43    1.62
  -9   4   0   18.11    1.01
   9   4   0   19.08    0.95
  -9  -4   0   18.30    0.68
   9  -4   0   19.46    1.02
  -9  -4   0   20.49    1.06
   9   4   1  257.34    4.51
  -9   4  -1  274.10    4.66
  -9  -4  -1  270.95    4.63
  -9  -4  -1  258.99    3.97
   9  -4   1  264.25    4.50
  -9  -4  -1  267.57    4.42
  -9   4  -2    3.85    0.61
  -9  -4  -2    4.50    0.60
  -9  -4  -2    5.29    0.54
  -9  -4  -2    4.46    0.62
  -9   4  -3    2.15    0.49
  -9  -4  -3    2.92    0.48
  -9  -4  -3    2.76    0.52
  -9  -4  -3    2.26    0.45
  -9   4  -4    0.52    0.36
  -9  -4  -4    0.52    0.33
  -9  -4  -4    0.16    0.30
  -9  -4  -4    0.38    0.32
  -9   4  -5   15.09    1.16
  -9   4  -5   13.27    0.97
  -9  -4  -5   14.07    0.93
  -9  -4  -5   12.32    0.90
  -9  -4  -5   13.71    0.88
  -9   4  -6   14.96    1.21
  -9   4  -6   14.98    1.04
  -9  -4  -6   15.70    1.05
  -9  -4  -6   17.35    1.02
  -9   4  -7   11.07    1.02
  -9   4  -7   10.90    1.18
  -9  -4  -7   11.22    0.89
  -9  -4  -7   12.16    1.14
  -9   4  -8   10.71    1.24
  -9   4  -8   12.72    1.12
  -9  -4  -8   12.87    0.94
   9   5 -13    1.81    0.54
   9  -5 -13    1.88    0.49
   9  -5 -13    2.26    0.74
   9   5 -12    0.44    0.34
   9  -5 -12    0.08    0.32
   9  -5 -12    0.17    0.51
   9   5 -11    5.30    0.74
   9  -5 -11    4.51    0.86
   9  -5 -11    3.24    0.59
   9   5 -10    9.24    0.94
   9  -5 -10    8.32    0.86
   9  -5 -10    9.92    1.15
   9   5  -9    0.56    0.38
   9  -5  -9    0.40    0.41
   9  -5  -9   -0.13    0.25
   9   5  -8   42.33    1.61
   9  -5  -8   39.94    1.53
   9  -5  -8   44.21    1.76
   9   5  -7   20.24    1.10
   9  -5  -7   19.77    1.08
   9  -5  -7   18.98    1.12
   9   5  -6    3.16    0.56
   9  -5  -6    1.67    0.45
   9  -5  -6    1.61    0.45
  -9  -5   6    2.20    0.47
   9   5  -5    9.02    0.87
  -9   5   5    9.61    0.83
   9  -5  -5    8.38    0.80
   9  -5  -5    7.62    0.81
  -9  -5   5    7.49    0.77
  -9   5   4    5.50    0.66
   9   5  -4    4.80    0.63
  -9  -5   4    3.85    0.59
   9  -5  -4    4.95    0.66
   9  -5  -4    4.97    0.59
   9   5  -3    2.47    0.48
  -9   5   3    1.41    0.41
   9  -5  -3    2.71    0.52
   9  -5  -3    2.01    0.40
  -9  -5   3    3.53    0.58
  -9   5   2   47.04    1.58
   9   5  -2   44.47    1.53
  -9  -5   2   43.09    1.58
   9  -5  -2   42.61    1.55
   9  -5  -2   44.06    1.21
  -9   5   1    3.39    0.55
   9   5  -1    3.56    0.57
   9  -5  -1    3.31    0.37
  -9  -5   1    3.99    0.62
   9  -5  -1    3.47    0.55
  -9   5   0   40.44    1.51
   9   5   0   38.35    1.38
   9  -5   0   38.46    1.48
  -9  -5   0   39.81    1.52
  -9   5  -1   61.84    1.92
  -9  -5  -1   59.21    1.84
  -9  -5  -1   62.70    1.90
  -9  -5  -1   62.76    1.66
   9  -5   1   57.55    1.81
  -9   5  -2   42.37    1.59
  -9  -5  -2   40.04    1.49
  -9  -5  -2   39.94    1.19
  -9  -5  -2   40.62    1.54
  -9   5  -3    1.37    0.44
  -9  -5  -3    0.82    0.33
  -9  -5  -3    0.10    0.35
  -9  -5  -3    1.15    0.40
  -9   5  -4   29.75    1.40
  -9   5  -4   31.20    1.41
  -9  -5  -4   27.18    1.30
  -9  -5  -4   30.08    1.33
  -9   5  -5    0.70    0.50
  -9   5  -5    0.71    0.45
  -9   5  -5    0.51    0.38
  -9  -5  -5    1.33    0.45
  -9  -5  -5    0.78    0.39
  -9   5  -6    0.63    0.40
  -9   5  -6    0.24    0.36
  -9   5  -6    0.34    0.47
  -9  -5  -6    0.21    0.33
  -9  -5  -6   -0.12    0.35
  -9   5  -7   36.28    1.62
  -9   5  -7   38.79    1.96
  -9  -5  -7   36.34    1.54
   9   6 -12   27.46    1.43
   9  -6 -12   27.51    1.79
   9  -6 -12   27.19    1.36
   9   6 -11    1.75    0.49
   9  -6 -11    2.47    0.69
   9  -6 -11    1.30    0.47
   9   6 -10    0.04    0.31
   9  -6 -10    0.38    0.44
   9  -6 -10   -0.16    0.29
   9   6  -9    3.97    0.65
   9  -6  -9    3.28    0.61
   9  -6  -9    4.60    0.78
   9   6  -8    1.01    0.44
   9  -6  -8    0.71    0.40
   9  -6  -8    1.56    0.52
   9   6  -7    7.45    0.82
   9  -6  -7    5.69    0.72
   9  -6  -7    7.76    0.89
   9   6  -6    1.33    0.46
   9  -6  -6    1.23    0.47
  -9  -6   6    1.32    0.44
   9  -6  -6    1.09    0.40
   9   6  -5   16.81    1.06
  -9   6   5   18.77    1.02
   9  -6  -5   19.98    1.07
  -9  -6   5   16.82    1.03
   9  -6  -5   18.06    1.10
   9   6  -4   26.62    1.26
  -9   6   4   27.63    1.22
   9  -6  -4   28.58    1.34
  -9  -6   4   27.48    1.28
   9  -6  -4   27.36    1.17
   9   6  -3    0.97    0.37
  -9   6   3    0.79    0.40
   9  -6  -3    0.58    0.37
  -9  -6   3    1.11    0.42
   9  -6  -3    0.78    0.33
  -9   6   2    0.34    0.36
   9   6  -2   -0.08    0.31
  -9  -6   2    0.16    0.35
   9  -6  -2    0.14    0.25
   9  -6  -2   -0.01    0.31
   9   6  -1  119.62    2.77
  -9   6   1  131.64    2.93
  -9  -6   1  124.30    2.92
   9  -6  -1  127.32    2.94
   9   6   0    5.71    0.72
  -9   6   0    4.29    0.65
   9  -6   0    5.42    0.69
  -9  -6   0    5.65    0.70
  -9   6  -1   86.51    2.36
  -9  -6  -1   83.44    2.38
  -9  -6  -1   84.83    2.36
   9  -6   1   82.65    2.26
  -9   6  -2    0.23    0.35
  -9   6  -2   -0.09    0.33
  -9  -6  -2    0.31    0.38
  -9  -6  -2    0.29    0.36
  -9   6  -3   27.09    1.33
  -9   6  -3   24.75    1.31
  -9  -6  -3   23.65    1.25
  -9  -6  -3   25.72    1.33
  -9   6  -4    3.28    0.62
  -9   6  -4    3.66    0.66
  -9  -6  -4    3.00    0.57
  -9  -6  -4    2.91    0.61
  -9   6  -5   12.83    1.27
  -9   6  -5   14.54    1.08
  -9   6  -5   14.38    1.08
  -9  -6  -5   12.95    1.04
  -9  -6  -5   13.99    1.01
  -9   6  -6    0.40    0.52
  -9   6  -6    0.25    0.41
  -9   6  -6    1.01    0.46
  -9  -6  -6    0.73    0.45
  -9  -6  -6    0.54    0.39
  -9   6  -7   43.70    2.11
  -9   6  -7   45.64    1.90
  -9   6  -7   45.91    1.89
  -9  -6  -7   48.92    1.84
   9   7 -11    3.08    0.67
   9  -7 -11    1.92    0.69
   9  -7 -11    2.82    0.59
   9   7 -10   13.64    1.20
   9  -7 -10   10.52    1.22
   9  -7 -10   10.99    1.05
   9   7  -9    2.79    0.60
   9  -7  -9    1.92    0.63
   9  -7  -9    1.44    0.47
   9   7  -8   23.16    1.31
   9  -7  -8   25.48    1.44
   9  -7  -8   21.29    1.24
   9   7  -7    1.36    0.47
   9  -7  -7    1.67    0.56
   9  -7  -7    1.39    0.46
   9   7  -6   13.91    1.01
  -9  -7   6   12.13    0.95
   9  -7  -6   12.19    1.09
   9  -7  -6   12.89    0.98
   9   7  -5    6.31    0.80
   9  -7  -5    7.28    0.82
  -9  -7   5    6.31    0.78
   9  -7  -5    7.18    0.85
   9   7  -4   11.01    1.01
  -9   7   4   11.36    0.87
  -9  -7   4   10.62    0.96
   9  -7  -4   11.20    1.01
   9  -7  -4   11.72    0.85
   9   7  -3    0.92    0.38
  -9   7   3    0.12    0.35
   9  -7  -3    0.62    0.33
  -9  -7   3    0.28    0.37
   9  -7  -3    1.26    0.46
   9   7  -2    0.14    0.30
  -9   7   2    0.40    0.36
  -9  -7   2    0.20    0.33
   9  -7  -2    0.20    0.35
   9  -7  -2   -0.03    0.25
   9   7  -1    9.96    0.93
  -9   7   1   11.40    1.03
   9  -7  -1   12.59    0.98
  -9  -7   1   10.98    1.03
  -9   7   0   46.55    1.73
   9  -7   0   40.41    1.64
  -9  -7   0   44.18    1.72
  -9   7  -1   -0.30    0.32
  -9   7  -1    0.27    0.38
   9  -7   1    0.33    0.38
  -9  -7  -1    0.83    0.40
  -9  -7  -1    0.52    0.43
  -9   7  -2   17.63    1.14
  -9   7  -2   17.93    1.14
  -9  -7  -2   17.48    1.13
  -9  -7  -2   16.09    1.16
  -9   7  -3    0.58    0.40
  -9   7  -3   -0.09    0.33
  -9  -7  -3    0.30    0.43
  -9  -7  -3    0.05    0.30
  -9   7  -4   25.06    1.38
  -9   7  -4   24.05    1.36
  -9  -7  -4   24.93    1.32
  -9  -7  -4   22.87    1.36
  -9   7  -5    0.06    0.38
  -9   7  -5    0.05    0.41
  -9  -7  -5    0.41    0.47
  -9  -7  -5    0.51    0.39
  -9   7  -6   24.85    1.64
  -9   7  -6   22.37    1.39
  -9   7  -6   20.03    1.34
  -9  -7  -6   19.94    1.25
  -9  -7  -6   21.62    1.37
   9   8 -10    6.00    0.89
   9  -8 -10    4.77    0.78
   9  -8 -10    6.55    1.04
   9   8  -9    4.32    0.75
   9  -8  -9    3.34    0.66
   9  -8  -9    4.60    0.83
   9   8  -8   19.90    1.29
   9  -8  -8   23.32    1.46
   9  -8  -8   21.07    1.29
   9   8  -7   21.35    1.30
   9  -8  -7   20.22    1.32
   9  -8  -7   22.34    1.31
   9   8  -6    6.54    0.84
   9  -8  -6    7.96    0.95
   9  -8  -6    7.38    0.89
   9   8  -5   21.76    1.28
   9  -8  -5   24.49    1.35
   9  -8  -5   20.51    1.20
  -9  -8   5   21.47    1.26
   9   8  -4   10.45    1.05
   9  -8  -4    8.54    0.96
  -9  -8   4    9.98    0.99
   9  -8  -4    8.85    0.86
  -9   8   3   18.60    1.14
   9   8  -3   18.64    1.15
   9  -8  -3   17.83    1.03
  -9  -8   3   17.51    1.17
   9  -8  -3   18.81    1.19
   9   8  -2    1.42    0.48
  -9   8   2    2.23    0.53
   9  -8  -2    0.97    0.49
   9  -8  -2    1.50    0.42
  -9  -8   2    2.59    0.60
  -9   8   1   28.12    1.40
  -9  -8   1   25.57    1.39
   9  -8  -1   26.25    1.40
  -9   8   0   10.69    1.01
  -9   8   0   11.23    1.05
   9  -8   0    9.51    1.01
  -9  -8   0   10.95    1.16
  -9  -8   0    8.50    0.94
  -9   8  -1   22.55    1.30
  -9   8  -1   23.48    1.32
  -9  -8  -1   18.87    1.22
  -9  -8  -1   23.28    1.42
  -9   8  -2    2.28    0.59
  -9   8  -2    1.89    0.55
  -9  -8  -2    3.31    0.70
  -9  -8  -2    3.58    0.69
  -9   8  -3   19.55    1.29
  -9   8  -3   20.58    1.32
  -9  -8  -3   18.84    1.24
  -9  -8  -3   17.88    1.30
  -9   8  -4   12.19    1.14
  -9   8  -4    9.36    1.04
  -9  -8  -4   11.28    1.18
  -9  -8  -4   13.51    1.24
  -9   8  -5   27.41    1.53
  -9   8  -5   26.16    1.53
  -9  -8  -5   28.06    1.59
  -9  -8  -5   27.27    1.48
   9   9  -9    0.55    0.43
   9  -9  -9    0.16    0.40
   9  -9  -9    0.12    0.48
   9   9  -8   13.51    1.25
   9  -9  -8   11.61    1.26
   9  -9  -8   11.91    1.17
   9   9  -7    8.75    1.06
   9  -9  -7    6.07    0.86
   9  -9  -7    7.60    1.00
   9   9  -6   11.45    1.14
   9  -9  -6   10.79    1.10
   9  -9  -6   11.89    1.16
   9   9  -5    8.72    1.00
   9  -9  -5    9.30    0.99
   9  -9  -5    7.97    0.98
  -9  -9   5    7.56    0.93
   9   9  -4   11.84    1.13
   9  -9  -4   10.99    1.11
   9  -9  -4   11.55    0.96
  -9  -9   4   10.50    1.08
   9   9  -3    2.48    0.60
  -9  -9   3    2.86    0.64
   9  -9  -3    1.88    0.58
   9  -9  -3    1.71    0.50
  -9   9   2   66.71    2.20
  -9  -9   2   70.02    2.33
   9  -9  -2   70.58    2.36
  -9   9   1    2.33    0.60
  -9   9   1    2.07    0.60
   9  -9  -1    2.07    0.59
  -9  -9   1    1.81    0.57
  -9   9   0    6.14    0.87
  -9   9   0    5.56    0.82
   9  -9   0    5.37    0.81
  -9  -9   0    4.50    0.88
  -9  -9   0    7.80    0.97
  -9   9  -1    4.65    0.76
  -9   9  -1    4.68    0.79
  -9  -9  -1    4.78    0.87
  -9  -9  -1    4.62    0.78
  -9   9  -2   24.71    1.48
  -9   9  -2   24.72    1.47
  -9  -9  -2   24.31    1.58
  -9  -9  -2   26.11    1.49
  -9   9  -3    5.91    0.90
  -9   9  -3    8.01    1.03
  -9  -9  -3    7.06    0.94
  -9  -9  -3    7.47    1.05
   9  10  -7    3.09    0.72
   9 -10  -7    2.25    0.66
   9 -10  -7    3.17    0.69
   9  10  -6   24.61    1.50
   9 -10  -6   21.27    1.44
   9 -10  -6   23.46    1.44
   9  10  -5    1.08    0.55
   9 -10  -5    0.73    0.50
   9 -10  -5    1.33    0.53
   9  10  -4    3.66    0.72
   9 -10  -4    1.46    0.52
   9 -10  -4    2.26    0.64
  -9 -10   4    2.36    0.65
   9 -10  -3   14.24    1.30
   9 -10  -3   15.55    1.11
  -9 -10   3   16.96    1.26
   9 -10  -2   11.80    1.22
  -9 -10   2   13.60    1.27
  -9  10   1    3.71    0.77
  -9  10   1    3.50    0.70
  -9 -10   1    4.74    0.92
  -9 -10   1    4.82    0.81
   9 -10  -1    4.04    0.78
  -9  10   0    0.48    0.45
  -9  10   0   -0.01    0.41
  -9 -10   0    0.41    0.41
  -9 -10   0    0.51    0.55
  -9  10  -1   16.64    1.47
  -9  10  -1   16.29    1.44
  -9 -10  -1   16.34    1.28
  -9 -10  -1   14.16    1.41
  10   0 -14   32.13    1.43
  10   0 -13    0.11    0.30
  10   0 -12   26.72    1.25
  10   0 -11   -0.30    0.26
  10   0 -10  140.10    3.06
  10   0  -9    0.20    0.27
  10   0  -8    0.16    0.30
 -10   0   7    0.63    0.42
  10   0  -7   -0.07    0.28
 -10   0   6  192.36    3.48
  10   0  -6  198.14    3.74
  10   0  -5   -0.13    0.25
 -10   0   5   -0.28    0.28
  10   0  -4   13.28    0.86
 -10   0   4   12.63    0.81
 -10   0   3    0.07    0.27
  10   0  -3    0.21    0.28
 -10   0   2  175.85    3.35
  10   0  -2  176.47    3.39
  10   0  -1    0.15    0.27
 -10   0   1    0.07    0.29
 -10   0   0   26.08    1.15
  10   0   0   24.84    1.09
  10   0   1    0.20    0.27
 -10   0  -1    0.00    0.29
 -10   0  -2   50.27    1.64
 -10   0  -2   53.16    1.73
 -10   0  -3    0.34    0.34
 -10   0  -3   -0.09    0.28
 -10   0  -4    4.88    0.73
 -10   0  -4    3.72    0.59
 -10   0  -5    0.52    0.34
 -10   0  -5   -0.28    0.29
 -10   0  -6   71.55    2.39
 -10   0  -6   70.51    2.10
 -10   0  -7   -0.32    0.37
 -10   0  -7    0.13    0.35
 -10   0  -8    1.01    0.57
 -10   0  -8    1.48    0.48
  10   1 -14    2.43    0.55
  10  -1 -14    1.59    0.48
  10   1 -13    8.35    0.86
  10  -1 -13    7.15    0.81
  10   1 -12    0.71    0.35
  10  -1 -12    0.46    0.36
  10   1 -11   65.45    1.99
  10  -1 -11   67.61    2.03
  10   1 -10   -0.19    0.24
  10  -1 -10    0.10    0.28
  10   1  -9    3.61    0.57
  10  -1  -9    3.70    0.57
  10   1  -8    4.51    0.64
  10  -1  -8    4.59    0.63
  10   1  -7   19.95    1.06
 -10  -1   7   17.78    0.99
  10  -1  -7   20.38    1.08
 -10   1   6    1.85    0.42
  10   1  -6    0.63    0.34
 -10  -1   6    0.70    0.34
  10  -1  -6    0.97    0.39
  10   1  -5   94.58    2.35
 -10   1   5   93.13    2.20
  10  -1  -5   99.14    2.41
 -10  -1   5   97.34    2.27
  10   1  -4    3.34    0.52
 -10   1   4    3.13    0.48
  10  -1  -4    3.96    0.60
 -10  -1   4    3.76    0.55
 -10   1   3    6.17    0.65
  10   1  -3    5.69    0.66
 -10  -1   3    6.06    0.65
  10  -1  -3    6.67    0.72
 -10   1   2    0.20    0.30
  10   1  -2    0.24    0.28
  10  -1  -2   -0.17    0.26
 -10  -1   2   -0.06    0.28
  10   1  -1   39.34    1.39
 -10   1   1   42.90    1.46
 -10  -1   1   39.13    1.42
  10  -1  -1   41.81    1.44
  10   1   0    7.88    0.74
 -10   1   0    6.13    0.68
  10  -1   0    6.44    0.69
 -10  -1   0    7.18    0.73
 -10   1  -1   28.29    1.23
  10   1   1   24.58    1.08
 -10  -1  -1   26.66    1.19
 -10  -1  -1   28.84    1.16
 -10  -1  -1   27.27    0.82
  10  -1   1   28.42    1.14
 -10   1  -2   28.42    1.25
 -10  -1  -2   27.16    1.18
 -10  -1  -2   25.92    1.20
 -10   1  -3   38.49    1.58
 -10   1  -3   39.94    1.49
 -10  -1  -3   38.27    1.45
 -10  -1  -3   40.34    1.51
 -10   1  -4   11.93    0.98
 -10   1  -4   12.30    0.89
 -10  -1  -4   11.57    0.92
 -10  -1  -4   10.76    0.84
 -10   1  -5   30.74    1.35
 -10   1  -5   31.46    1.54
 -10  -1  -5   31.26    1.47
 -10  -1  -5   31.46    1.35
 -10   1  -6    0.08    0.36
 -10   1  -6   -0.02    0.31
 -10  -1  -6    0.28    0.34
 -10  -1  -6    0.24    0.38
 -10   1  -7   35.26    1.51
 -10   1  -7   37.56    1.82
 -10  -1  -7   33.43    1.44
 -10  -1  -7   37.05    1.76
 -10   1  -8    6.66    1.00
 -10  -1  -8    8.47    1.10
  10   2 -14   39.10    1.61
  10  -2 -14   36.52    1.54
  10  -2 -14   41.99    2.17
  10   2 -13    0.36    0.36
  10  -2 -13    0.48    0.35
  10  -2 -13   -0.04    0.43
  10   2 -12   48.57    1.76
  10  -2 -12   48.98    1.72
  10  -2 -12   50.96    2.19
  10   2 -11   28.90    1.32
  10  -2 -11   27.49    1.29
  10  -2 -11   27.36    1.56
  10   2 -10   15.45    0.99
  10  -2 -10   14.13    1.12
  10  -2 -10   14.29    0.94
  10   2  -9   54.24    1.80
  10  -2  -9   58.44    2.05
  10  -2  -9   57.10    1.81
  10   2  -8   35.83    1.43
  10  -2  -8   32.98    1.49
  10  -2  -8   36.11    1.42
  10   2  -7    7.06    0.73
  10  -2  -7    5.17    0.66
 -10  -2   7    4.33    0.60
  10  -2  -7    6.22    0.74
 -10   2   6    1.99    0.41
  10   2  -6    1.54    0.42
 -10  -2   6    1.69    0.43
  10  -2  -6    2.25    0.48
  10  -2  -6    1.29    0.42
 -10   2   5    7.25    0.71
  10   2  -5    6.78    0.73
  10  -2  -5    6.19    0.70
 -10  -2   5    7.02    0.71
 -10   2   4   68.79    1.85
  10   2  -4   68.57    1.95
  10  -2  -4   67.75    1.95
 -10  -2   4   67.96    1.90
  10   2  -3    0.47    0.32
 -10   2   3    0.30    0.32
 -10  -2   3    0.25    0.30
  10  -2  -3    0.10    0.29
 -10   2   2  127.36    2.77
  10   2  -2  126.10    2.74
 -10  -2   2  130.69    2.82
  10  -2  -2  129.19    2.82
  10   2  -1    0.95    0.35
 -10   2   1    1.03    0.42
 -10  -2   1    1.09    0.41
  10  -2  -1    1.09    0.37
  10   2   0   32.16    1.23
 -10   2   0   30.49    1.28
 -10  -2   0   31.63    1.11
 -10  -2   0   29.76    1.27
  10  -2   0   33.81    1.30
 -10   2  -1    8.87    0.85
  10  -2   1    7.24    0.72
 -10  -2  -1    7.57    0.57
 -10  -2  -1    7.99    0.79
 -10  -2  -1    7.40    0.60
 -10   2  -2    0.07    0.29
 -10  -2  -2    0.52    0.30
 -10  -2  -2    0.05    0.21
 -10  -2  -2    0.34    0.30
 -10   2  -3    1.07    0.40
 -10  -2  -3    0.75    0.38
 -10   2  -4   23.33    1.19
 -10   2  -4   19.84    1.25
 -10  -2  -4   24.52    1.20
 -10  -2  -4   20.99    1.14
 -10   2  -5    2.05    0.58
 -10   2  -5    2.65    0.53
 -10  -2  -5    2.45    0.52
 -10  -2  -5    2.61    0.56
 -10   2  -6    3.07    0.62
 -10   2  -6    3.48    0.70
 -10  -2  -6    3.33    0.66
 -10  -2  -6    3.31    0.60
 -10   2  -7    3.82    0.67
 -10   2  -7    3.31    0.78
 -10  -2  -7    4.71    0.70
 -10  -2  -7    4.00    0.73
  10   3 -13   18.58    1.15
  10  -3 -13   18.41    1.45
  10  -3 -13   17.77    1.09
  10   3 -12    2.91    0.58
  10  -3 -12    4.06    0.64
  10  -3 -12    4.03    0.86
  10   3 -11    0.65    0.36
  10  -3 -11    0.88    0.51
  10  -3 -11    0.14    0.31
  10   3 -10    9.30    0.93
  10  -3 -10   10.84    1.11
  10  -3 -10    9.69    0.92
  10   3  -9   25.69    1.25
  10  -3  -9   23.39    1.19
  10  -3  -9   22.38    1.30
  10   3  -8    0.63    0.35
  10  -3  -8    1.15    0.41
  10  -3  -8    1.00    0.43
  10   3  -7    0.46    0.31
  10  -3  -7    0.22    0.31
 -10  -3   7    0.84    0.50
  10  -3  -7   -0.12    0.28
  10   3  -6    0.52    0.34
 -10   3   6    0.42    0.30
  10  -3  -6    0.48    0.35
 -10  -3   6    0.36    0.33
  10  -3  -6   -0.06    0.27
  10   3  -5   95.31    2.41
 -10   3   5   91.19    2.19
  10  -3  -5   95.72    2.42
 -10  -3   5   94.13    2.33
  10  -3  -5   94.60    2.21
 -10   3   4   27.32    1.16
  10   3  -4   24.35    1.18
 -10  -3   4   23.96    1.14
  10  -3  -4   24.17    0.99
  10  -3  -4   22.72    1.17
  10   3  -3   74.25    2.02
 -10   3   3   69.49    1.93
 -10  -3   3   66.94    1.94
  10  -3  -3   69.41    2.00
 -10   3   2   17.53    0.98
  10   3  -2   18.27    0.98
  10  -3  -2   17.20    0.99
 -10  -3   2   16.63    1.00
  10   3  -1    8.10    0.77
 -10   3   1    8.21    0.82
  10  -3  -1    8.30    0.79
 -10  -3   1    7.82    0.80
 -10  -3   1    8.19    0.53
 -10   3   0    1.08    0.39
  10   3   0    1.29    0.38
 -10  -3   0    0.70    0.37
  10  -3   0    1.06    0.38
 -10  -3   0    0.40    0.25
 -10   3  -1   24.33    1.20
 -10  -3  -1   24.64    0.97
 -10  -3  -1   24.24    1.19
 -10  -3  -1   24.94    1.03
  10  -3   1   23.06    1.11
 -10   3  -2   31.55    1.36
 -10  -3  -2   31.42    1.17
 -10  -3  -2   31.45    1.13
 -10  -3  -2   30.90    1.34
 -10   3  -3   32.74    1.40
 -10  -3  -3   30.75    1.12
 -10  -3  -3   27.76    1.19
 -10  -3  -3   30.36    1.33
 -10   3  -4   17.94    1.09
 -10   3  -4   14.85    1.14
 -10  -3  -4   20.02    1.09
 -10  -3  -4   17.75    1.02
 -10   3  -5   19.13    1.14
 -10   3  -5   19.03    1.29
 -10  -3  -5   19.23    1.09
 -10  -3  -5   21.52    1.17
 -10   3  -6    0.09    0.32
 -10   3  -6   -0.13    0.40
 -10  -3  -6   -0.15    0.30
 -10  -3  -6    0.04    0.33
 -10   3  -7   40.45    1.70
 -10   3  -7   43.23    2.05
 -10  -3  -7   46.21    1.89
 -10  -3  -7   40.65    1.61
  10   4 -13    1.70    0.49
  10  -4 -13    1.35    0.47
  10  -4 -13    1.30    0.61
  10   4 -12    7.28    0.86
  10  -4 -12    8.50    0.89
  10  -4 -12    7.36    1.04
  10   4 -11   30.64    1.44
  10  -4 -11   29.40    1.65
  10  -4 -11   30.01    1.38
  10   4 -10    2.66    0.55
  10  -4 -10    2.06    0.58
  10  -4 -10    2.65    0.54
  10   4  -9    3.47    0.59
  10  -4  -9    5.23    0.71
  10  -4  -9    5.19    0.79
  10   4  -8    3.75    0.60
  10  -4  -8    4.86    0.74
  10  -4  -8    4.81    0.67
  10   4  -7   18.23    1.08
  10  -4  -7   19.40    1.10
  10  -4  -7   18.53    1.08
  10   4  -6    0.97    0.39
 -10  -4   6    0.23    0.30
  10  -4  -6    1.10    0.41
  10  -4  -6    1.20    0.39
 -10   4   5   34.93    1.32
  10   4  -5   36.72    1.46
  10  -4  -5   36.29    1.32
  10  -4  -5   38.57    1.50
 -10  -4   5   39.18    1.47
  10   4  -4   34.82    1.41
 -10   4   4   34.99    1.36
  10  -4  -4   35.77    1.46
  10  -4  -4   33.78    1.19
 -10  -4   4   35.45    1.41
 -10   4   3   27.75    1.22
  10   4  -3   27.53    1.25
 -10  -4   3   29.40    1.30
  10  -4  -3   28.69    1.32
  10  -4  -3   31.22    1.03
  10   4  -2   24.80    1.16
 -10   4   2   26.23    1.20
  10  -4  -2   24.77    1.20
 -10  -4   2   24.76    1.20
  10  -4  -2   22.70    0.79
  10   4  -1   14.47    0.88
 -10   4   1   16.41    1.01
 -10  -4   1   13.02    0.63
  10  -4  -1   16.34    1.00
 -10  -4   1   13.14    0.94
  10   4   0    4.06    0.58
 -10   4   0    3.77    0.61
 -10  -4   0    2.79    0.37
  10  -4   0    3.41    0.56
 -10  -4   0    3.25    0.56
 -10   4  -1    5.25    0.71
 -10  -4  -1    5.39    0.55
  10  -4   1    4.78    0.65
 -10  -4  -1    5.31    0.65
 -10  -4  -1    5.33    0.69
 -10   4  -2    0.05    0.31
 -10  -4  -2    0.34    0.37
 -10  -4  -2    0.36    0.26
 -10  -4  -2   -0.20    0.28
 -10   4  -3    7.29    0.83
 -10  -4  -3    8.46    0.79
 -10  -4  -3    8.59    0.68
 -10  -4  -3    8.09    0.84
 -10   4  -4   -0.04    0.34
 -10  -4  -4   -0.05    0.31
 -10  -4  -4    0.33    0.42
 -10  -4  -4    0.09    0.28
 -10   4  -5    0.46    0.40
 -10   4  -5    1.02    0.54
 -10  -4  -5    0.79    0.43
 -10  -4  -5    1.05    0.42
 -10   4  -6    5.69    0.94
 -10   4  -6    4.78    0.74
 -10  -4  -6    4.26    0.67
 -10  -4  -6    4.85    0.75
 -10   4  -7    0.11    0.44
 -10   4  -7    1.22    0.50
 -10  -4  -7    0.23    0.36
 -10  -4  -7    0.61    0.46
  10   5 -12   31.71    1.53
  10  -5 -12   32.43    1.49
  10  -5 -12   31.60    1.85
  10   5 -11    2.34    0.57
  10  -5 -11    3.04    0.58
  10  -5 -11    2.41    0.67
  10   5 -10   17.20    1.15
  10  -5 -10   18.59    1.13
  10  -5 -10   18.40    1.32
  10   5  -9    0.95    0.39
  10  -5  -9    0.21    0.33
  10  -5  -9    0.36    0.43
  10   5  -8    0.22    0.34
  10  -5  -8    0.04    0.36
  10  -5  -8    0.72    0.38
  10   5  -7   35.68    1.53
  10  -5  -7   37.59    1.54
  10  -5  -7   37.53    1.55
  10   5  -6   16.59    1.07
  10  -5  -6   17.55    1.05
  10  -5  -6   16.06    1.05
 -10  -5   6   17.24    1.03
 -10   5   5   28.67    1.24
  10   5  -5   28.83    1.35
  10  -5  -5   28.15    1.34
 -10  -5   5   28.87    1.33
  10  -5  -5   28.83    1.24
 -10   5   4    0.31    0.34
  10   5  -4    0.43    0.32
  10  -5  -4    0.12    0.33
 -10  -5   4   -0.03    0.32
  10  -5  -4   -0.01    0.24
  10   5  -3   43.33    1.58
 -10   5   3   41.99    1.54
 -10  -5   3   45.90    1.65
  10  -5  -3   44.28    1.65
  10  -5  -3   42.95    1.29
 -10   5   2    8.57    0.81
  10   5  -2   10.47    0.83
 -10  -5   2    9.97    0.95
  10  -5  -2   10.19    0.95
 -10   5   1    1.07    0.43
  10   5  -1    1.06    0.38
 -10  -5   1    1.11    0.44
  10  -5  -1    0.49    0.34
 -10   5   0   12.58    0.97
  10  -5   0   15.52    1.02
 -10  -5   0   14.32    0.98
 -10   5  -1   -0.25    0.30
 -10  -5  -1   -0.14    0.28
 -10  -5  -1   -0.21    0.32
 -10   5  -2    2.06    0.52
 -10  -5  -2    0.94    0.43
 -10  -5  -2    2.51    0.55
 -10   5  -3    4.68    0.72
 -10  -5  -3    4.07    0.66
 -10  -5  -3    3.91    0.61
 -10   5  -4    1.93    0.54
 -10  -5  -4    3.35    0.60
 -10  -5  -4    2.77    0.59
 -10   5  -5   77.04    2.39
 -10   5  -5   76.26    2.66
 -10  -5  -5   75.10    2.29
 -10   5  -6    0.27    0.39
 -10   5  -6   -0.40    0.39
 -10  -5  -6    0.09    0.36
  10   6 -12    0.54    0.41
  10  -6 -12    0.14    0.36
  10  -6 -12    0.85    0.63
  10   6 -11    2.57    0.60
  10  -6 -11    3.38    0.64
  10  -6 -11    3.06    0.77
  10   6 -10    1.20    0.47
  10  -6 -10    2.41    0.70
  10  -6 -10    1.03    0.45
  10   6  -9    3.90    0.69
  10  -6  -9    4.76    0.72
  10  -6  -9    5.03    0.82
  10   6  -8   10.43    1.02
  10  -6  -8   12.81    1.00
  10  -6  -8   10.96    1.08
  10   6  -7    1.24    0.45
  10  -6  -7    1.19    0.44
  10  -6  -7    0.81    0.44
  10   6  -6    1.11    0.43
  10  -6  -6    0.78    0.40
  10  -6  -6    0.99    0.42
 -10  -6   6    0.33    0.35
  10   6  -5   -0.09    0.30
  10  -6  -5   -0.21    0.31
 -10  -6   5   -0.03    0.30
  10  -6  -5   -0.01    0.31
  10   6  -4    0.10    0.31
 -10   6   4    0.15    0.33
  10  -6  -4    1.10    0.43
 -10  -6   4    0.66    0.40
  10  -6  -4    0.40    0.31
 -10   6   3    4.53    0.67
  10   6  -3    6.13    0.76
 -10  -6   3    4.63    0.69
  10  -6  -3    5.71    0.60
  10  -6  -3    5.82    0.76
 -10   6   2    1.95    0.53
  10   6  -2    1.86    0.48
 -10  -6   2    1.91    0.50
  10  -6  -2    1.35    0.46
  10   6  -1   19.87    1.12
 -10   6   1   20.59    1.18
  10  -6  -1   19.31    1.15
 -10  -6   1   19.98    1.19
 -10   6   0    7.36    0.88
  10  -6   0    6.27    0.78
 -10  -6   0    4.68    0.73
 -10   6  -1   32.26    1.49
 -10  -6  -1   31.43    1.46
 -10  -6  -1   32.94    1.50
 -10   6  -2   10.89    1.05
 -10  -6  -2    8.81    0.95
 -10  -6  -2   10.09    1.00
 -10   6  -3    0.57    0.43
 -10  -6  -3    1.26    0.48
 -10  -6  -3    2.01    0.55
 -10   6  -4    2.97    0.65
 -10  -6  -4    3.50    0.64
 -10  -6  -4    3.43    0.64
 -10   6  -5    0.02    0.46
 -10   6  -5    0.63    0.44
 -10  -6  -5    1.12    0.45
 -10  -6  -5    0.71    0.47
  10   7 -11   15.44    1.21
  10  -7 -11   17.80    1.44
  10  -7 -11   15.59    1.15
  10   7 -10   51.59    2.05
  10  -7 -10   50.46    2.22
  10  -7 -10   48.56    1.92
  10   7  -9   12.20    1.14
  10  -7  -9   13.50    1.29
  10  -7  -9   11.90    1.11
  10   7  -8    8.24    0.96
  10  -7  -8    8.51    0.94
  10  -7  -8    8.98    1.01
  10   7  -7    4.60    0.75
  10  -7  -7    4.19    0.71
  10  -7  -7    3.51    0.67
  10   7  -6    0.40    0.39
  10  -7  -6    1.30    0.48
 -10  -7   6    0.78    0.66
  10  -7  -6    1.20    0.46
  10   7  -5    0.94    0.43
 -10  -7   5   -0.12    0.37
  10  -7  -5    1.11    0.41
  10  -7  -5    0.16    0.36
 -10   7   4    1.77    0.50
  10   7  -4    2.88    0.59
  10  -7  -4    1.90    0.54
 -10  -7   4    0.98    0.46
  10  -7  -4    2.28    0.50
  10   7  -3   -0.38    0.26
 -10   7   3   -0.30    0.30
  10  -7  -3   -0.27    0.32
 -10  -7   3   -0.02    0.36
  10  -7  -3    0.14    0.30
  10   7  -2   29.22    1.38
 -10   7   2   28.37    1.41
 -10  -7   2   26.48    1.39
  10  -7  -2   26.35    1.37
 -10   7   1    0.22    0.39
  10  -7  -1   -0.06    0.33
 -10  -7   1   -0.12    0.33
 -10   7   0    3.42    0.65
 -10  -7   0    3.54    0.71
  10  -7   0    3.56    0.65
 -10  -7   0    4.42    0.72
 -10   7  -1   27.61    1.44
 -10  -7  -1   28.62    1.49
 -10  -7  -1   27.15    1.41
 -10   7  -2    0.89    0.49
 -10  -7  -2    1.26    0.49
 -10  -7  -2    1.76    0.56
 -10   7  -3    0.61    0.44
 -10  -7  -3    1.22    0.52
 -10  -7  -3    0.98    0.47
 -10   7  -4   14.15    1.27
 -10   7  -4    9.05    1.06
 -10  -7  -4   11.03    1.10
 -10  -7  -4   11.57    1.12
 -10   7  -5    5.70    0.92
 -10   7  -5    5.51    0.85
 -10   7  -5    5.74    0.88
 -10  -7  -5    6.78    0.92
 -10  -7  -5    5.70    0.84
  10   8 -10    3.42    0.69
  10  -8 -10    3.91    0.88
  10  -8 -10    3.33    0.70
  10   8  -9   -0.29    0.33
  10  -8  -9    0.04    0.38
  10  -8  -9    0.52    0.48
  10   8  -8    0.69    0.46
  10  -8  -8    0.36    0.42
  10  -8  -8    0.06    0.40
  10   8  -7    0.30    0.40
  10  -8  -7    0.24    0.40
  10  -8  -7    0.07    0.36
  10   8  -6    2.49    0.60
  10  -8  -6    3.24    0.65
  10  -8  -6    4.21    0.73
  10   8  -5    0.94    0.40
 -10  -8   5   -0.16    0.38
  10  -8  -5    0.46    0.40
  10  -8  -5   -0.02    0.36
  10   8  -4   -0.28    0.34
  10  -8  -4    0.16    0.33
  10  -8  -4   -0.05    0.38
 -10  -8   4   -0.01    0.38
  10   8  -3    0.81    0.44
 -10   8   3   -0.03    0.37
  10  -8  -3    0.28    0.38
 -10  -8   3    0.11    0.38
 -10   8   2    5.60    0.79
 -10  -8   2    5.89    0.83
  10  -8  -2    5.20    0.81
 -10   8   1   11.02    1.10
  10  -8  -1    8.30    0.95
 -10  -8   1    9.37    1.03
 -10   8   0   14.23    1.12
 -10  -8   0   12.53    1.16
 -10  -8   0   11.49    1.17
 -10   8  -1    1.59    0.54
 -10  -8  -1    2.08    0.56
 -10  -8  -1    1.22    0.58
 -10   8  -2    3.30    0.68
 -10   8  -2    1.66    0.56
 -10  -8  -2    3.46    0.71
 -10  -8  -2    3.84    0.77
 -10   8  -3   19.12    1.35
 -10   8  -3   19.90    1.35
 -10  -8  -3   18.71    1.27
 -10  -8  -3   17.61    1.34
  10   9  -8    4.34    0.83
  10  -9  -8    4.95    0.83
  10  -9  -8    5.26    0.89
  10   9  -7   10.04    1.14
  10  -9  -7    8.68    1.05
  10  -9  -7    7.16    0.97
  10   9  -6    0.10    0.39
  10  -9  -6   -0.62    0.34
  10  -9  -6    0.05    0.39
  10   9  -5    6.07    0.87
  10  -9  -5    7.44    0.91
  10  -9  -5    4.51    0.80
 -10  -9   5    7.47    1.03
  10   9  -4   19.55    1.29
 -10  -9   4   21.41    1.36
  10  -9  -4   23.30    1.26
  10  -9  -4   20.28    1.38
  10   9  -3   10.29    1.13
  10  -9  -3    9.71    1.07
 -10  -9   3    6.12    0.88
 -10   9   2    2.67    0.66
 -10  -9   2    1.11    0.50
  10  -9  -2    1.53    0.55
 -10   9   1    7.12    0.93
 -10  -9   1    6.53    0.90
  10  -9  -1    6.84    0.93
 -10   9   0    8.74    1.03
 -10  -9   0    8.97    1.15
 -10  -9   0    9.01    1.07
 -10   9  -1    0.66    0.52
 -10   9  -1    0.37    0.46
 -10  -9  -1    0.58    0.46
 -10  -9  -1    0.13    0.50
 -10   9  -2   12.24    1.24
 -10   9  -2   11.35    1.18
 -10  -9  -2   10.70    1.17
 -10  -9  -2   13.35    1.35
  10  10  -5    0.64    0.50
  10 -10  -5    0.90    0.50
  10 -10  -5    0.86    0.48
  10  10  -4    4.93    0.84
  10 -10  -4    7.30    1.05
 -10 -10   4    5.42    0.89
 -10 -10   3    1.90    0.61
  10 -10  -3    2.13    0.67
  10 -10  -2    1.94    0.64
 -10 -10   2    2.17    0.64
 -10  10   1   11.30    1.22
 -10 -10   1    7.83    1.14
 -10 -10   1    9.84    1.16
  11   0 -13   -0.17    0.30
  11   0 -12   30.15    1.42
  11   0 -11    0.24    0.31
  11   0 -10    0.78    0.38
  11   0  -9   -0.28    0.22
  11   0  -8    1.74    0.46
  11   0  -7    0.29    0.30
  11   0  -6   10.64    0.84
 -11   0   6   10.25    0.79
 -11   0   5   -0.02    0.29
  11   0  -5    0.00    0.27
  11   0  -4  134.56    3.00
 -11   0   4  134.10    2.89
  11   0  -3    0.08    0.31
 -11   0   3   -0.07    0.31
 -11   0   2   -0.34    0.25
  11   0  -2    0.46    0.33
 -11   0   1   -0.16    0.29
  11   0  -1   -0.02    0.27
 -11   0   0    3.90    0.60
  11   0   0    5.72    0.67
 -11   0  -1    0.22    0.31
 -11   0  -2    2.32    0.52
 -11   0  -2    4.42    0.66
 -11   0  -3   -0.07    0.31
 -11   0  -3   -0.31    0.26
 -11   0  -4   21.11    1.26
 -11   0  -4   21.33    1.18
 -11   0  -5    0.29    0.39
 -11   0  -5    0.17    0.33
 -11   0  -6    2.32    0.62
 -11   0  -6    1.71    0.51
  11   1 -13    2.97    0.60
  11  -1 -13    1.58    0.49
  11   1 -12    3.93    0.66
  11  -1 -12    4.31    0.68
  11   1 -11    0.76    0.37
  11  -1 -11    0.21    0.35
  11   1 -10    1.57    0.46
  11  -1 -10    1.84    0.50
  11   1  -9   11.95    0.92
  11  -1  -9   10.99    1.00
  11   1  -8   62.12    1.96
  11  -1  -8   60.57    1.97
  11   1  -7   45.77    1.66
  11  -1  -7   47.04    1.71
 -11   1   6   13.01    0.86
  11   1  -6   17.24    1.02
 -11  -1   6   16.44    0.96
  11  -1  -6   17.25    1.05
  11   1  -5    9.64    0.92
 -11   1   5    9.69    0.84
 -11  -1   5    8.61    0.81
  11  -1  -5   11.15    0.86
  11   1  -4   21.46    1.12
 -11   1   4   19.36    1.04
  11  -1  -4   19.67    1.08
 -11  -1   4   19.79    1.08
  11   1  -3   43.85    1.58
 -11   1   3   45.02    1.57
 -11  -1   3   45.29    1.58
  11  -1  -3   43.40    1.58
  11   1  -2    1.92    0.45
 -11   1   2    1.95    0.46
  11  -1  -2    0.78    0.37
 -11  -1   2    1.21    0.43
 -11   1   1    4.75    0.64
  11   1  -1    3.57    0.57
 -11  -1   1    3.36    0.56
  11  -1  -1    3.93    0.59
  11   1   0    1.12    0.37
 -11   1   0    1.01    0.39
 -11  -1   0    1.40    0.43
  11  -1   0    1.33    0.41
 -11   1  -1   18.02    1.06
 -11  -1  -1   18.11    1.06
 -11  -1  -1   17.92    0.98
 -11   1  -2   18.99    1.10
 -11  -1  -2   19.48    1.06
 -11  -1  -2   19.63    1.12
 -11   1  -3    1.52    0.46
 -11   1  -3    1.79    0.52
 -11  -1  -3    1.52    0.46
 -11  -1  -3    2.04    0.48
 -11   1  -4    1.96    0.56
 -11   1  -4    1.63    0.50
 -11  -1  -4    2.52    0.54
 -11  -1  -4    2.52    0.55
 -11   1  -5   10.39    1.00
 -11   1  -5   10.39    1.12
 -11  -1  -5    9.03    1.01
 -11  -1  -5   10.48    0.99
 -11   1  -6    0.89    0.49
 -11   1  -6    0.06    0.35
 -11  -1  -6    0.07    0.40
 -11  -1  -6   -0.35    0.28
  11   2 -13   -0.39    0.28
  11  -2 -13   -0.61    0.42
  11  -2 -13   -0.07    0.33
  11   2 -12    0.26    0.32
  11  -2 -12   -0.07    0.31
  11  -2 -12    0.08    0.41
  11   2 -11    3.95    0.66
  11  -2 -11    4.66    0.68
  11  -2 -11    4.38    0.79
  11   2 -10    0.31    0.32
  11  -2 -10    0.05    0.37
  11  -2 -10    0.07    0.31
  11   2  -9    4.80    0.71
  11  -2  -9    4.77    0.69
  11  -2  -9    3.82    0.70
  11   2  -8    3.44    0.60
  11  -2  -8    3.57    0.61
  11  -2  -8    3.05    0.60
  11   2  -7    5.61    0.71
  11  -2  -7    5.24    0.68
 -11   2   6   19.74    1.02
 -11  -2   6   20.06    1.07
  11  -2  -6   20.31    1.13
  11   2  -5   66.09    2.02
 -11   2   5   68.32    1.91
 -11  -2   5   69.38    1.98
  11  -2  -5   70.49    2.09
 -11   2   4   59.57    1.78
  11   2  -4   59.30    1.89
 -11  -2   4   53.81    1.78
  11  -2  -4   57.05    1.86
  11   2  -3   -0.19    0.28
 -11   2   3    0.34    0.33
  11  -2  -3    0.17    0.33
 -11  -2   3    0.09    0.32
  11   2  -2   -0.09    0.26
 -11   2   2   -0.19    0.28
 -11  -2   2    0.27    0.34
  11  -2  -2    0.08    0.32
  11   2  -1    3.90    0.58
 -11   2   1    4.99    0.66
  11  -2  -1    5.96    0.73
 -11  -2   1    5.16    0.70
 -11   2   0    4.03    0.62
  11   2   0    4.22    0.59
 -11  -2   0    4.62    0.57
 -11  -2   0    4.25    0.62
  11  -2   0    4.54    0.63
 -11   2  -1   40.48    1.57
 -11  -2  -1   39.72    1.55
 -11  -2  -1   38.88    1.36
 -11   2  -2    4.62    0.67
 -11  -2  -2    5.63    0.73
 -11  -2  -2    4.12    0.60
 -11   2  -3    7.22    0.89
 -11   2  -3    6.06    0.77
 -11  -2  -3    6.48    0.76
 -11  -2  -3    5.36    0.72
 -11   2  -4    8.36    0.99
 -11   2  -4   10.63    1.01
 -11  -2  -4   11.31    0.91
 -11  -2  -4   11.55    1.03
 -11   2  -5    1.72    0.60
 -11   2  -5    1.21    0.45
 -11  -2  -5    1.29    0.46
 -11  -2  -5    1.42    0.46
 -11   2  -6    1.91    0.52
 -11   2  -6    1.85    0.63
 -11  -2  -6    0.95    0.44
 -11  -2  -6    0.78    0.45
  11   3 -13   14.89    1.10
  11  -3 -13   14.79    1.56
  11  -3 -13   12.40    1.12
  11   3 -12   15.91    1.11
  11  -3 -12   14.81    1.05
  11  -3 -12   11.05    1.24
  11   3 -11    2.20    0.52
  11  -3 -11    1.68    0.60
  11  -3 -11    1.48    0.49
  11   3 -10    4.29    0.70
  11  -3 -10    4.08    0.74
  11  -3 -10    2.70    0.57
  11   3  -9    0.17    0.31
  11  -3  -9    0.02    0.33
  11  -3  -9   -0.15    0.29
  11   3  -8   10.58    0.97
  11  -3  -8   11.72    1.07
  11  -3  -8   12.03    0.92
  11   3  -7   12.68    0.92
  11  -3  -7   12.86    0.94
  11  -3  -7   11.71    0.93
 -11   3   6   18.18    1.12
  11   3  -6   16.86    1.06
  11  -3  -6   16.86    1.05
  11  -3  -6   16.82    0.98
 -11  -3   6   17.18    1.04
 -11   3   5   15.60    0.95
  11   3  -5   15.94    1.03
  11  -3  -5   13.36    0.96
 -11  -3   5   15.71    1.00
  11  -3  -5   16.48    0.92
  11   3  -4    0.14    0.33
 -11   3   4   -0.31    0.27
 -11  -3   4    0.15    0.34
  11  -3  -4   -0.04    0.31
  11   3  -3    9.94    0.91
 -11   3   3    9.09    0.88
 -11  -3   3   10.38    0.95
  11  -3  -3    8.74    0.88
 -11   3   2   31.36    1.35
  11   3  -2   31.65    1.33
 -11  -3   2   27.77    1.30
  11  -3  -2   27.91    1.30
  11   3  -1    8.68    0.85
 -11   3   1    8.25    0.85
  11  -3  -1    7.31    0.80
 -11  -3   1    7.64    0.55
 -11  -3   1    8.47    0.86
 -11   3   0    4.74    0.68
  11  -3   0    3.81    0.59
 -11  -3   0    4.63    0.52
 -11  -3   0    4.86    0.68
 -11   3  -1   19.75    1.15
 -11  -3  -1   19.81    1.15
 -11  -3  -1   18.88    0.92
 -11  -3  -1   17.97    0.91
 -11   3  -2   20.40    1.18
 -11  -3  -2   19.67    0.99
 -11  -3  -2   20.54    1.17
 -11   3  -3    6.53    0.80
 -11  -3  -3    7.03    0.83
 -11  -3  -3    6.83    0.75
 -11   3  -4   -0.27    0.30
 -11   3  -4   -0.23    0.33
 -11  -3  -4   -0.11    0.30
 -11  -3  -4   -0.03    0.34
 -11   3  -5    0.13    0.36
 -11   3  -5    0.00    0.40
 -11  -3  -5   -0.04    0.34
 -11  -3  -5    0.19    0.33
 -11   3  -6   11.88    1.31
 -11   3  -6   10.36    1.05
 -11  -3  -6   13.47    1.23
 -11  -3  -6   11.67    1.06
  11   4 -12    0.86    0.45
  11  -4 -12    1.61    0.51
  11  -4 -12    1.21    0.63
  11   4 -11    3.39    0.66
  11  -4 -11    3.22    0.73
  11  -4 -11    2.40    0.57
  11   4 -10    6.42    0.83
  11  -4 -10    5.85    0.78
  11  -4 -10    5.36    0.83
  11   4  -9    2.65    0.58
  11  -4  -9    2.96    0.60
  11  -4  -9    2.16    0.56
  11   4  -8    0.35    0.36
  11  -4  -8    0.95    0.42
  11  -4  -8    0.71    0.42
  11   4  -7   13.12    1.00
  11  -4  -7   15.57    1.06
  11  -4  -7   14.26    0.99
  11   4  -6   11.48    0.91
 -11  -4   6    9.59    0.90
  11  -4  -6   10.87    1.02
  11  -4  -6   11.34    0.83
  11   4  -5    8.64    0.89
 -11   4   5    8.97    0.84
  11  -4  -5    8.56    0.72
 -11  -4   5    7.25    0.79
  11  -4  -5    9.43    0.96
 -11   4   4   15.80    1.00
  11   4  -4   13.93    0.96
  11  -4  -4   14.54    0.81
 -11  -4   4   13.59    0.96
  11  -4  -4   15.46    1.04
  11   4  -3    5.87    0.72
 -11   4   3    7.89    0.83
  11  -4  -3    6.42    0.77
 -11  -4   3    7.36    0.83
 -11   4   2    3.90    0.64
  11   4  -2    3.48    0.58
  11  -4  -2    3.34    0.61
 -11  -4   2    2.56    0.54
  11   4  -1   26.92    1.23
 -11   4   1   31.23    1.39
 -11  -4   1   26.18    1.33
  11  -4  -1   30.70    1.38
 -11   4   0    2.64    0.56
  11  -4   0    3.27    0.61
 -11  -4   0    2.84    0.61
 -11   4  -1   39.08    1.61
 -11  -4  -1   38.53    1.41
 -11  -4  -1   36.70    1.57
 -11   4  -2    0.90    0.42
 -11  -4  -2    0.72    0.37
 -11  -4  -2    0.47    0.39
 -11  -4  -2    0.56    0.41
 -11   4  -3    8.38    0.91
 -11  -4  -3    8.98    0.82
 -11  -4  -3    8.77    0.91
 -11   4  -4   -0.23    0.39
 -11   4  -4    0.03    0.33
 -11  -4  -4    0.09    0.35
 -11  -4  -4    0.16    0.31
 -11   4  -5    9.72    1.17
 -11   4  -5    8.34    0.94
 -11  -4  -5   11.91    0.95
 -11  -4  -5    9.69    1.00
 -11   4  -6    2.11    0.69
 -11   4  -6    1.20    0.48
 -11  -4  -6    2.09    0.55
 -11  -4  -6    0.78    0.47
  11   5 -12    7.23    0.93
  11  -5 -12    7.15    1.10
  11  -5 -12    6.30    0.83
  11   5 -11    6.97    0.89
  11  -5 -11    7.30    0.88
  11  -5 -11    7.49    1.04
  11   5 -10   24.15    1.38
  11  -5 -10   22.78    1.44
  11  -5 -10   24.31    1.34
  11   5  -9   10.25    1.03
  11  -5  -9    9.82    1.08
  11  -5  -9    8.23    0.93
  11   5  -8    2.11    0.53
  11  -5  -8    1.83    0.53
  11  -5  -8    1.41    0.48
  11   5  -7    0.47    0.39
  11  -5  -7    0.90    0.41
  11  -5  -7    0.45    0.37
  11   5  -6    9.52    0.95
  11  -5  -6    8.41    0.91
  11  -5  -6   10.74    0.85
 -11  -5   6   10.58    0.97
 -11   5   5    0.09    0.35
  11   5  -5    0.60    0.38
  11  -5  -5    0.69    0.34
  11  -5  -5   -0.17    0.31
 -11  -5   5    0.39    0.36
 -11   5   4    0.00    0.33
  11   5  -4    0.12    0.29
  11  -5  -4   -0.39    0.32
 -11  -5   4   -0.20    0.33
  11  -5  -4    0.19    0.27
  11   5  -3   28.86    1.35
 -11   5   3   26.04    1.28
  11  -5  -3   30.62    1.44
 -11  -5   3   28.50    1.39
 -11   5   2   13.21    0.98
  11   5  -2   11.61    0.91
 -11  -5   2   10.97    1.01
  11  -5  -2    9.96    0.97
 -11   5   1    2.08    0.55
  11   5  -1    2.41    0.67
  11  -5  -1    1.74    0.49
 -11  -5   1    1.63    0.50
 -11   5   0   29.74    1.42
 -11  -5   0   29.48    1.44
  11  -5   0   30.89    1.42
 -11   5  -1    0.73    0.41
 -11  -5  -1    1.33    0.44
 -11  -5  -1   -0.02    0.32
 -11   5  -2    6.04    0.81
 -11  -5  -2    7.21    0.79
 -11  -5  -2    6.14    0.80
 -11   5  -3    1.76    0.56
 -11  -5  -3    2.95    0.65
 -11  -5  -3    1.55    0.51
 -11   5  -4    1.82    0.55
 -11  -5  -4    1.48    0.50
 -11   5  -5    3.11    0.78
 -11   5  -5    3.32    0.71
 -11  -5  -5    3.04    0.64
  11   6 -11    6.22    0.92
  11  -6 -11    5.60    0.98
  11  -6 -11    6.04    0.84
  11   6 -10    0.07    0.38
  11  -6 -10    0.40    0.41
  11  -6 -10   -0.24    0.41
  11   6  -9   10.72    1.12
  11  -6  -9    8.30    0.95
  11  -6  -9    9.68    1.09
  11   6  -8    1.58    0.52
  11  -6  -8    0.54    0.43
  11  -6  -8    1.27    0.50
  11   6  -7   17.68    1.19
  11  -6  -7   15.52    1.11
  11  -6  -7   18.54    1.16
  11   6  -6   -0.21    0.31
  11  -6  -6    0.41    0.41
 -11  -6   6   -0.16    0.36
  11  -6  -6    0.46    0.35
  11   6  -5   39.08    1.64
  11  -6  -5   33.38    1.37
  11  -6  -5   34.05    1.58
 -11  -6   5   33.94    1.55
  11   6  -4    1.26    0.47
 -11   6   4    1.09    0.42
 -11  -6   4    1.03    0.46
  11  -6  -4    1.33    0.49
  11  -6  -4    1.59    0.42
  11   6  -3   -0.11    0.32
 -11   6   3    0.01    0.36
  11  -6  -3    0.42    0.39
 -11  -6   3    0.57    0.40
  11   6  -2   33.66    1.49
 -11   6   2   35.84    1.55
 -11  -6   2   33.18    1.53
  11  -6  -2   32.63    1.55
 -11   6   1   28.35    1.44
  11  -6  -1   28.30    1.44
 -11  -6   1   27.60    1.43
 -11   6   0    4.79    0.73
 -11  -6   0    4.30    0.74
 -11  -6   0    5.78    0.82
 -11   6  -1   21.34    1.32
 -11  -6  -1   23.67    1.31
 -11  -6  -1   22.25    1.33
 -11   6  -2    2.80    0.62
 -11  -6  -2    2.92    0.62
 -11  -6  -2    1.85    0.54
 -11   6  -3   25.90    1.46
 -11  -6  -3   25.22    1.42
 -11  -6  -3   26.32    1.35
 -11   6  -4    0.61    0.45
 -11  -6  -4    0.20    0.37
  11   7 -10    4.56    0.82
  11  -7 -10    6.28    0.87
  11  -7 -10    6.54    1.00
  11   7  -9    1.47    0.55
  11  -7  -9    0.42    0.41
  11  -7  -9    1.23    0.55
  11   7  -8   57.96    2.19
  11  -7  -8   60.62    2.21
  11  -7  -8   62.53    2.25
  11   7  -7    7.36    0.93
  11  -7  -7    9.87    1.05
  11  -7  -7    7.62    0.94
  11   7  -6    1.11    0.46
  11  -7  -6    1.77    0.54
  11  -7  -6    1.55    0.49
  11   7  -5    0.36    0.38
 -11  -7   5    0.72    0.45
  11  -7  -5   -0.24    0.37
  11  -7  -5    0.08    0.33
  11   7  -4    1.89    0.52
  11  -7  -4    1.55    0.53
 -11  -7   4    2.57    0.61
  11   7  -3    1.20    0.48
 -11   7   3    1.77    0.53
 -11  -7   3    0.02    0.39
  11  -7  -3    0.43    0.42
 -11   7   2   -0.31    0.34
 -11  -7   2   -0.19    0.35
  11  -7  -2    0.06    0.37
 -11   7   1   -0.30    0.33
  11  -7  -1    0.26    0.41
 -11  -7   1   -0.32    0.35
 -11   7   0   24.51    1.39
 -11  -7   0   25.75    1.43
 -11  -7   0   26.39    1.47
 -11   7  -1    9.11    1.03
 -11  -7  -1    9.12    1.01
 -11  -7  -1    9.15    1.07
 -11   7  -2   34.18    1.66
 -11  -7  -2   34.16    1.64
 -11  -7  -2   32.01    1.62
 -11   7  -3    2.42    0.63
 -11  -7  -3    3.76    0.72
 -11  -7  -3    3.24    0.69
  11   8  -9    8.05    1.06
  11  -8  -9    8.17    1.04
  11  -8  -9    7.45    1.04
  11   8  -8    6.12    0.90
  11  -8  -8    5.93    0.89
  11  -8  -8    7.28    1.02
  11   8  -7   10.84    1.16
  11  -8  -7    9.57    1.08
  11  -8  -7   13.29    1.24
  11   8  -6    0.56    0.46
  11  -8  -6    1.25    0.53
  11  -8  -6    1.02    0.51
  11   8  -5   21.32    1.33
 -11  -8   5   21.34    1.35
  11  -8  -5   21.69    1.22
  11  -8  -5   20.63    1.35
  11   8  -4    8.30    0.98
  11  -8  -4    6.16    0.87
 -11  -8   4    6.68    0.92
 -11   8   3    3.26    0.68
  11   8  -3    3.76    0.73
  11  -8  -3    2.46    0.65
 -11  -8   3    2.00    0.56
 -11   8   2    4.13    0.74
 -11  -8   2    3.42    0.71
  11  -8  -2    3.18    0.68
 -11   8   1    0.40    0.44
  11  -8  -1    0.71    0.48
 -11  -8   1    0.87    0.48
 -11   8   0    2.73    0.63
 -11  -8   0    2.79    0.67
 -11  -8   0    2.57    0.71
 -11   8  -1   25.98    1.50
 -11  -8  -1   28.35    1.62
 -11  -8  -1   28.07    1.57
 -11   8  -2    2.81    0.69
 -11  -8  -2    2.94    0.70
 -11  -8  -2    3.72    0.76
  11   9  -6   13.48    1.31
  11  -9  -6   12.64    1.19
  11  -9  -6   11.96    1.23
  11   9  -5    1.87    0.60
  11  -9  -5    1.94    0.62
  11   9  -4   16.41    1.25
  11  -9  -4   16.31    1.30
 -11  -9   4   14.69    1.33
 -11  -9   3    3.97    0.79
  11  -9  -3    4.83    0.82
 -11   9   2    6.95    0.93
 -11  -9   2    6.28    0.93
  11  -9  -2    5.17    0.87
 -11   9   1    0.48    0.49
 -11  -9   1   -0.35    0.50
 -11  -9   1    0.82    0.55
 -11   9   0   -0.05    0.44
 -11  -9   0    0.36    0.45
 -11  -9   0    0.07    0.50
  12   0 -13   -0.23    0.33
  12   0 -12   77.45    2.40
  12   0 -11    0.23    0.33
  12   0 -10   62.42    2.08
  12   0  -9    0.53    0.37
  12   0  -8   44.74    1.71
  12   0  -7   -0.29    0.27
 -12   0   6   -0.01    0.29
  12   0  -6    0.05    0.31
 -12   0   5    0.19    0.33
  12   0  -5   -0.27    0.28
 -12   0   4   77.55    2.17
  12   0  -4   73.92    2.20
 -12   0   3   -0.06    0.31
  12   0  -3   -0.08    0.33
 -12   0   2  259.66    4.72
  12   0  -2  259.02    4.70
  12   0  -1    0.33    0.35
 -12   0   1    0.19    0.33
 -12   0   0   34.33    1.47
 -12   0  -1   -0.17    0.33
 -12   0  -2    3.08    0.60
 -12   0  -2    4.90    0.72
 -12   0  -3   -0.02    0.33
 -12   0  -3    0.14    0.34
 -12   0  -4   14.85    1.07
 -12   0  -4   14.69    1.13
 -12   0  -5   -0.04    0.37
 -12   0  -5   -0.02    0.35
  12   1 -13   38.94    1.70
  12  -1 -13   37.31    1.66
  12   1 -12    2.01    0.54
  12  -1 -12    1.43    0.49
  12   1 -11   12.89    1.02
  12  -1 -11   10.76    1.03
  12   1 -10   10.52    1.01
  12  -1 -10   15.16    1.08
  12   1  -9   20.63    1.21
  12  -1  -9   19.62    1.18
  12   1  -8   -0.22    0.27
  12  -1  -8   -0.33    0.26
  12   1  -7   12.62    0.95
  12  -1  -7   15.61    1.07
  12   1  -6    0.10    0.29
 -12   1   6    0.71    0.40
  12  -1  -6    0.79    0.40
 -12  -1   6   -0.06    0.31
 -12   1   5   49.93    1.69
  12   1  -5   45.16    1.72
  12  -1  -5   44.57    1.71
 -12  -1   5   45.66    1.65
 -12   1   4    0.51    0.39
  12   1  -4    0.33    0.37
 -12  -1   4    1.35    0.45
  12  -1  -4    0.83    0.41
  12   1  -3   15.64    1.03
 -12   1   3   15.77    1.03
  12  -1  -3   15.51    1.01
 -12  -1   3   17.20    1.06
  12   1  -2    5.67    0.73
 -12   1   2    4.80    0.68
 -12  -1   2    6.82    0.81
  12  -1  -2    5.70    0.72
  12   1  -1   46.63    1.67
 -12   1   1   52.76    1.80
  12  -1  -1   45.29    1.67
 -12  -1   1   49.74    1.76
 -12   1   0   14.92    1.04
 -12  -1   0   14.44    1.01
 -12   1  -1  133.67    3.13
 -12  -1  -1  130.40    3.10
 -12  -1  -1  131.18    2.97
 -12   1  -2    5.33    0.77
 -12   1  -2    3.96    0.63
 -12  -1  -2    5.04    0.72
 -12  -1  -2    4.76    0.69
 -12   1  -3   20.40    1.27
 -12   1  -3   20.24    1.20
 -12  -1  -3   19.52    1.20
 -12  -1  -3   22.55    1.25
 -12   1  -4    0.35    0.43
 -12   1  -4    0.82    0.44
 -12  -1  -4    1.59    0.52
 -12  -1  -4    0.77    0.43
 -12   1  -5   22.40    1.33
 -12   1  -5   24.57    1.52
 -12  -1  -5   23.18    1.39
 -12  -1  -5   24.06    1.34
  12   2 -12   39.40    1.74
  12  -2 -12   38.02    1.70
  12   2 -11    0.27    0.37
  12  -2 -11    0.00    0.34
  12   2 -10   50.88    1.92
  12  -2 -10   54.64    1.98
  12   2  -9   20.50    1.23
  12  -2  -9   21.67    1.26
  12   2  -8   24.38    1.30
  12  -2  -8   23.22    1.30
  12   2  -7    8.35    0.89
  12  -2  -7    7.66    0.87
  12   2  -6    0.33    0.31
 -12   2   6   -0.36    0.32
  12  -2  -6   -0.01    0.32
 -12  -2   6   -0.28    0.33
 -12   2   5   -0.10    0.31
  12   2  -5   -0.25    0.31
  12  -2  -5    0.97    0.43
 -12  -2   5    0.40    0.35
 -12   2   4  157.18    3.36
  12   2  -4  167.45    3.58
  12  -2  -4  163.18    3.57
 -12  -2   4  161.19    3.46
  12   2  -3   41.71    1.61
 -12   2   3   44.36    1.63
  12  -2  -3   38.77    1.60
 -12  -2   3   43.73    1.64
  12   2  -2   67.10    2.04
 -12   2   2   64.63    2.02
 -12  -2   2   65.14    2.07
  12  -2  -2   63.36    2.03
  12   2  -1    0.05    0.28
 -12   2   1   -0.20    0.32
 -12  -2   1    0.08    0.35
  12  -2  -1    0.24    0.34
 -12   2   0   35.87    1.54
 -12  -2   0   35.62    1.32
 -12  -2   0   34.55    1.52
 -12   2  -1    2.67    0.60
 -12  -2  -1    3.29    0.61
 -12  -2  -1    3.21    0.54
 -12   2  -2    3.14    0.62
 -12  -2  -2    3.25    0.63
 -12  -2  -2    3.12    0.57
 -12   2  -3   -0.08    0.36
 -12   2  -3    0.14    0.43
 -12  -2  -3   -0.42    0.29
 -12  -2  -3    0.20    0.35
 -12   2  -4    9.76    1.12
 -12   2  -4    8.78    0.94
 -12  -2  -4    9.45    0.99
 -12  -2  -4    9.70    1.00
 -12   2  -5    6.80    0.90
 -12   2  -5    8.60    1.10
 -12  -2  -5    7.59    0.94
 -12  -2  -5    7.30    0.90
  12   3 -12    2.32    0.60
  12  -3 -12    3.34    0.82
  12  -3 -12    2.18    0.58
  12   3 -11   13.61    1.08
  12  -3 -11   14.33    1.09
  12  -3 -11   13.59    1.34
  12   3 -10   26.29    1.41
  12  -3 -10   29.14    1.47
  12  -3 -10   26.69    1.56
  12   3  -9    0.29    0.34
  12  -3  -9    0.01    0.36
  12  -3  -9    0.72    0.42
  12   3  -8    4.34    0.69
  12  -3  -8    5.20    0.75
  12  -3  -8    3.66    0.67
  12   3  -7   21.50    1.24
  12  -3  -7   20.39    1.22
  12   3  -6    0.40    0.37
  12  -3  -6   -0.13    0.33
 -12  -3   6    0.67    0.39
  12   3  -5   38.20    1.60
 -12   3   5   39.32    1.51
 -12  -3   5   35.62    1.51
  12  -3  -5   36.82    1.60
  12   3  -4    1.16    0.45
 -12   3   4    0.44    0.37
  12  -3  -4    0.40    0.39
 -12  -3   4    0.55    0.38
 -12   3   3   38.87    1.57
  12   3  -3   41.59    1.62
  12  -3  -3   42.30    1.68
 -12  -3   3   40.79    1.65
 -12   3   2    3.47    0.62
  12   3  -2    5.39    0.72
 -12  -3   2    4.28    0.70
  12  -3  -2    4.04    0.67
  12   3  -1   32.67    1.80
 -12   3   1   27.70    1.37
 -12  -3   1   30.75    1.45
 -12  -3   1   30.24    1.45
  12  -3  -1   30.54    1.41
 -12   3   0    9.68    0.96
 -12  -3   0   12.77    1.01
 -12  -3   0   12.44    0.77
 -12  -3   0   13.12    0.86
 -12   3  -1    8.08    0.93
 -12  -3  -1    8.63    0.78
 -12  -3  -1    8.19    0.91
 -12   3  -2    3.07    0.63
 -12  -3  -2    5.05    0.66
 -12  -3  -2    5.49    0.78
 -12   3  -3   14.23    1.10
 -12  -3  -3   13.31    1.05
 -12  -3  -3   15.04    0.98
 -12   3  -4    0.01    0.39
 -12   3  -4   -0.28    0.37
 -12  -3  -4    0.19    0.40
 -12  -3  -4    0.75    0.40
 -12   3  -5   12.25    1.28
 -12   3  -5   11.75    1.16
 -12  -3  -5   14.40    1.07
 -12  -3  -5   12.95    1.16
  12   4 -12    7.11    0.90
  12  -4 -12    6.28    1.05
  12  -4 -12    5.20    0.80
  12   4 -11   20.50    1.31
  12  -4 -11   21.10    1.49
  12  -4 -11   19.99    1.28
  12   4 -10   13.65    1.21
  12  -4 -10   14.62    1.19
  12  -4 -10   15.15    1.12
  12   4  -9    4.88    0.74
  12  -4  -9    5.31    0.83
  12  -4  -9    4.83    0.75
  12   4  -8    7.66    0.89
  12  -4  -8    6.39    0.85
  12  -4  -8    6.99    0.87
  12   4  -7   21.10    1.25
  12  -4  -7   19.58    1.23
  12  -4  -7   21.88    1.21
  12   4  -6   26.17    1.37
  12  -4  -6   27.36    1.26
  12  -4  -6   25.82    1.37
 -12  -4   6   24.01    1.29
  12   4  -5    8.34    0.91
 -12   4   5    8.86    0.87
 -12  -4   5    8.46    0.91
  12  -4  -5    9.11    0.75
  12  -4  -5    8.35    0.93
  12   4  -4    1.99    0.51
 -12   4   4    1.74    0.50
 -12  -4   4    3.22    0.64
  12  -4  -4    3.38    0.63
  12   4  -3   18.77    1.14
 -12   4   3   19.47    1.19
 -12  -4   3   19.15    1.17
  12  -4  -3   17.19    1.13
  12   4  -2   38.45    1.57
 -12   4   2   37.41    1.58
 -12  -4   2   42.42    1.70
  12  -4  -2   39.54    1.66
 -12   4   1    0.54    0.42
 -12  -4   1    0.13    0.37
  12  -4  -1    0.34    0.39
 -12   4   0    9.45    0.97
 -12  -4   0   10.59    0.86
 -12  -4   0   10.37    1.05
 -12   4  -1    0.17    0.35
 -12  -4  -1    0.81    0.46
 -12   4  -2    6.53    0.87
 -12  -4  -2    8.02    0.91
 -12   4  -3   -0.19    0.33
 -12  -4  -3    0.02    0.36
 -12   4  -4    6.74    0.91
 -12   4  -4    6.38    0.98
 -12  -4  -4    4.93    0.79
  12   5 -11   12.82    1.25
  12  -5 -11    9.86    1.19
  12  -5 -11    8.80    1.03
  12   5 -10    9.21    1.07
  12  -5 -10   10.18    1.17
  12  -5 -10    9.06    1.02
  12   5  -9    2.97    0.65
  12  -5  -9    3.74    0.72
  12  -5  -9    3.54    0.66
  12   5  -8   27.31    1.48
  12  -5  -8   30.92    1.54
  12  -5  -8   30.06    1.49
  12   5  -7    5.53    0.80
  12  -5  -7    5.62    0.80
  12  -5  -7    5.92    0.78
  12   5  -6    1.79    0.52
  12  -5  -6    1.93    0.49
  12  -5  -6    1.72    0.56
 -12  -5   6    1.83    0.56
  12   5  -5   12.10    1.12
 -12  -5   5   12.82    1.14
  12  -5  -5   11.49    0.82
  12  -5  -5   11.61    1.10
 -12   5   4    0.41    0.42
  12   5  -4    0.11    0.31
  12  -5  -4    0.69    0.42
 -12  -5   4    0.07    0.38
 -12   5   3    0.93    0.45
  12   5  -3    0.92    0.42
 -12  -5   3    0.54    0.40
  12  -5  -3    0.92    0.46
 -12   5   2    9.76    1.00
  12   5  -2    9.59    0.98
  12  -5  -2   11.49    1.10
 -12  -5   2   11.33    1.10
 -12   5   1    3.12    0.64
 -12  -5   1    3.32    0.65
  12  -5  -1    2.23    0.58
 -12   5   0   22.12    1.32
 -12  -5   0   23.07    1.25
 -12  -5   0   24.92    1.37
 -12   5  -1    0.69    0.45
 -12  -5  -1    1.03    0.49
 -12  -5  -1    0.87    0.45
 -12   5  -2    0.92    0.50
 -12  -5  -2    0.67    0.44
 -12   5  -3    1.77    0.55
 -12  -5  -3    2.08    0.59
 -12   5  -4    4.17    0.80
 -12   5  -4    2.82    0.74
 -12  -5  -4    2.48    0.63
  12   6 -10    0.10    0.39
  12  -6 -10    1.46    0.54
  12  -6 -10    0.02    0.48
  12   6  -9   15.81    1.22
  12  -6  -9   18.29    1.31
  12  -6  -9   18.61    1.29
  12   6  -8    0.17    0.35
  12  -6  -8    0.13    0.39
  12  -6  -8    0.37    0.39
  12   6  -7    0.23    0.35
  12  -6  -7    0.18    0.39
  12  -6  -7   -0.07    0.35
  12   6  -6    6.85    0.89
  12  -6  -6    8.82    0.89
  12  -6  -6    5.71    0.81
  12   6  -5    1.22    0.47
  12  -6  -5    1.53    0.53
 -12  -6   5    0.79    0.48
 -12   6   4    7.17    0.84
  12   6  -4    6.63    0.85
 -12  -6   4    7.67    0.95
  12  -6  -4    7.85    0.98
 -12   6   3    0.55    0.43
  12   6  -3    0.34    0.39
  12  -6  -3    0.40    0.43
 -12  -6   3    0.33    0.41
 -12   6   2    8.45    0.95
 -12  -6   2    8.01    0.94
  12  -6  -2    9.34    1.03
 -12   6   1    3.65    0.71
 -12  -6   1    1.93    0.58
  12  -6  -1    3.91    0.75
 -12   6   0    1.74    0.56
 -12  -6   0    2.59    0.64
 -12  -6   0    2.54    0.63
 -12   6  -1    2.90    0.66
 -12  -6  -1    1.67    0.56
 -12  -6  -1    1.97    0.61
 -12   6  -2    6.19    0.91
 -12  -6  -2    4.42    0.91
 -12  -6  -2    5.11    0.83
 -12   6  -3    0.06    0.41
 -12  -6  -3    0.18    0.36
  12   7  -9    1.99    0.61
  12  -7  -9    2.97    0.70
  12  -7  -9    1.56    0.59
  12   7  -8    0.29    0.44
  12  -7  -8    0.43    0.45
  12  -7  -8    0.58    0.47
  12   7  -7    0.68    0.45
  12  -7  -7    1.55    0.51
  12  -7  -7    1.31    0.55
  12   7  -6    0.28    0.41
  12  -7  -6    0.21    0.38
  12  -7  -6    0.38    0.40
  12   7  -5    0.17    0.40
 -12  -7   5    0.39    0.47
  12  -7  -5    0.78    0.45
  12   7  -4   -0.03    0.39
  12  -7  -4    0.22    0.39
 -12  -7   4   -0.49    0.34
 -12   7   3    6.27    0.84
 -12  -7   3    8.58    1.05
  12  -7  -3    7.60    0.96
 -12   7   2    1.18    0.52
  12  -7  -2    0.81    0.50
 -12  -7   2    1.08    0.49
 -12   7   1    1.69    0.56
 -12  -7   1    1.61    0.55
 -12   7   0    4.67    0.81
 -12  -7   0    5.18    0.87
 -12  -7   0    5.82    0.88
 -12   7  -1    1.55    0.58
 -12  -7  -1    2.13    0.62
 -12  -7  -1    0.42    0.45
 -12  -7  -2    4.74    0.79
  12   8  -7    1.89    0.62
  12  -8  -7    1.16    0.53
  12  -8  -7    1.62    0.60
  12   8  -6    0.25    0.46
  12  -8  -6    1.10    0.54
  12   8  -5    1.51    0.56
  12  -8  -5    2.36    0.66
 -12  -8   5    2.23    0.79
  12   8  -4    2.26    0.64
  12  -8  -4    2.48    0.65
 -12  -8   4    2.90    0.69
 -12  -8   3    0.26    0.46
  12  -8  -3    1.55    0.58
 -12   8   2    0.55    0.50
 -12  -8   2   -0.39    0.38
  12  -8  -2   -0.42    0.36
 -12   8   1   -0.10    0.40
 -12  -8   1   -0.18    0.49
 -12  -8   1   -0.16    0.41
 -12   8   0    0.49    0.49
 -12  -8   0   -0.29    0.44
 -12  -8   0    0.38    0.47
  13   0 -12    2.87    0.63
  13   0 -11    0.38    0.39
  13   0 -10    0.66    0.43
  13   0  -9    0.03    0.31
  13   0  -8   29.98    1.50
  13   0  -7   -0.31    0.31
  13   0  -6    4.22    0.69
 -13   0   6    4.87    0.76
 -13   0   5    0.24    0.39
  13   0  -5    0.02    0.34
  13   0  -4    0.22    0.38
 -13   0   4    0.21    0.34
 -13   0   3   -0.48    0.30
  13   0  -3    0.29    0.34
  13   0  -2    6.12    0.79
 -13   0   2    7.74    0.91
 -13   0   1   -0.30    0.33
 -13   0   0   22.23    1.28
 -13   0  -1   -0.37    0.33
 -13   0  -1    0.19    0.34
 -13   0  -2    0.48    0.41
 -13   0  -2    0.13    0.36
 -13   0  -3    0.31    0.37
 -13   0  -3   -0.27    0.34
 -13   0  -4   13.22    1.19
 -13   0  -4   10.63    1.15
  13   1 -12    3.26    0.66
  13  -1 -12    5.79    0.84
  13   1 -11   -0.30    0.32
  13  -1 -11    0.13    0.33
  13   1 -10   18.77    1.24
  13  -1 -10   17.27    1.19
  13   1  -9    2.04    0.55
  13  -1  -9    3.70    0.67
  13   1  -8   -0.41    0.28
  13  -1  -8    0.13    0.36
  13   1  -7   14.65    1.08
  13  -1  -7   11.15    1.11
  13   1  -6    0.11    0.34
 -13  -1   6    0.19    0.38
  13  -1  -6    0.56    0.41
 -13   1   5   79.11    2.26
  13   1  -5   75.24    2.34
 -13  -1   5   72.42    2.21
  13  -1  -5   76.38    2.34
  13   1  -4    0.13    0.32
 -13   1   4   -0.11    0.38
  13  -1  -4    0.33    0.38
 -13  -1   4   -0.17    0.33
 -13   1   3   20.98    1.22
  13   1  -3   19.18    1.19
  13  -1  -3   20.70    1.23
 -13  -1   3   20.86    1.24
  13   1  -2    1.34    0.45
 -13   1   2    1.76    0.53
 -13  -1   2    0.97    0.45
  13  -1  -2    2.41    0.55
 -13   1   1   12.79    1.01
 -13  -1   1   11.72    1.08
 -13   1   0   30.07    1.47
 -13  -1   0   29.74    1.48
 -13  -1   0   27.36    1.27
 -13   1  -1   25.82    1.39
 -13  -1  -1   23.12    1.35
 -13  -1  -1   26.14    1.30
 -13   1  -2    2.07    0.59
 -13   1  -2    0.86    0.47
 -13  -1  -2    2.03    0.54
 -13  -1  -2    1.43    0.49
 -13   1  -3    4.91    0.80
 -13   1  -3    5.62    0.81
 -13  -1  -3    5.33    0.80
 -13  -1  -3    4.04    0.71
 -13   1  -4    2.14    0.61
 -13   1  -4    2.36    0.64
 -13  -1  -4    2.88    0.65
 -13  -1  -4    2.66    0.65
  13   2 -12    1.80    0.56
  13  -2 -12    2.27    0.61
  13   2 -11   11.62    1.15
  13  -2 -11   11.73    1.13
  13   2 -10    0.72    0.41
  13  -2 -10    0.18    0.39
  13   2  -9    4.69    0.75
  13  -2  -9    5.00    0.77
  13   2  -8    4.61    0.72
  13  -2  -8    5.31    0.81
  13   2  -7   13.79    1.06
  13  -2  -7    8.67    0.96
  13   2  -6    2.68    0.61
 -13  -2   6    2.69    0.60
  13  -2  -6    2.35    0.59
  13   2  -5   54.54    1.99
 -13   2   5   54.14    1.88
 -13  -2   5   52.72    1.90
  13  -2  -5   52.81    1.99
  13   2  -4    0.04    0.34
 -13   2   4    0.13    0.35
 -13  -2   4    0.31    0.41
  13  -2  -4    0.15    0.36
  13   2  -3    3.88    0.65
 -13   2   3    3.63    0.66
  13  -2  -3    4.20    0.71
 -13  -2   3    4.54    0.71
  13   2  -2   12.33    1.10
 -13   2   2   11.05    1.05
 -13  -2   2   10.39    1.01
  13  -2  -2   10.30    0.99
 -13   2   1    2.58    0.62
 -13  -2   1    1.73    0.54
 -13  -2   1    1.88    0.44
 -13   2   0   37.14    1.64
 -13  -2   0   33.17    1.33
 -13  -2   0   33.13    1.57
 -13   2  -1   32.22    1.55
 -13  -2  -1   30.34    1.52
 -13  -2  -1   31.86    1.35
 -13   2  -2    0.07    0.37
 -13  -2  -2    0.49    0.41
 -13  -2  -2    0.42    0.38
 -13   2  -3   -0.26    0.40
 -13   2  -3    0.05    0.37
 -13  -2  -3    0.16    0.33
 -13  -2  -3   -0.07    0.36
 -13   2  -4    8.33    1.09
 -13   2  -4   10.20    1.10
 -13  -2  -4    7.35    0.92
 -13  -2  -4    8.69    0.98
  13   3 -11    0.58    0.43
  13  -3 -11   -0.01    0.38
  13   3 -10   48.78    1.98
  13  -3 -10   49.10    1.98
  13   3  -9    0.34    0.40
  13  -3  -9   -0.58    0.30
  13   3  -8   15.72    1.16
  13  -3  -8   17.48    1.22
  13   3  -7    3.91    0.71
  13  -3  -7    3.18    0.69
  13   3  -6    2.49    0.60
 -13  -3   6    2.85    0.62
  13  -3  -6    2.94    0.63
  13   3  -5    4.73    0.75
 -13   3   5    4.73    0.71
  13  -3  -5    4.82    0.77
 -13  -3   5    4.00    0.70
  13   3  -4    0.27    0.39
 -13   3   4    0.35    0.38
 -13  -3   4    0.25    0.39
  13  -3  -4   -0.40    0.34
 -13   3   3   29.49    1.43
  13   3  -3   27.64    1.41
 -13  -3   3   30.32    1.50
  13  -3  -3   28.69    1.49
 -13   3   2   11.20    1.06
  13   3  -2   10.79    1.06
 -13  -3   2   10.80    1.05
  13  -3  -2    9.01    0.99
 -13   3   1    7.34    0.89
 -13  -3   1    7.77    0.93
 -13   3   0   13.41    1.19
 -13  -3   0   16.89    1.16
 -13   3  -1    1.37    0.53
 -13  -3  -1    1.97    0.56
 -13   3  -2    0.36    0.42
 -13  -3  -2    0.27    0.42
 -13   3  -3   17.83    1.27
 -13   3  -3   15.60    1.29
 -13  -3  -3   17.22    1.24
  13   4 -11   19.75    1.35
  13  -4 -11   20.52    1.36
  13  -4 -11   23.45    1.57
  13   4 -10   19.78    1.34
  13  -4 -10   18.18    1.36
  13  -4 -10   17.05    1.24
  13   4  -9    0.46    0.42
  13  -4  -9    0.25    0.41
  13  -4  -9    0.04    0.40
  13   4  -8    2.43    0.63
  13  -4  -8    2.20    0.57
  13  -4  -8    2.52    0.63
  13   4  -7    7.24    0.94
  13  -4  -7    6.86    0.89
  13   4  -6    1.38    0.46
  13  -4  -6    1.49    0.53
 -13  -4   6    2.55    1.00
  13   4  -5   43.19    1.79
  13  -4  -5   42.67    1.82
 -13  -4   5   43.46    1.79
  13   4  -4    0.52    0.42
 -13   4   4    0.22    0.38
 -13  -4   4    0.32    0.42
  13  -4  -4   -0.06    0.35
  13   4  -3    0.63    0.41
 -13   4   3    1.04    0.48
 -13  -4   3    1.52    0.55
  13  -4  -3    0.43    0.44
 -13   4   2    6.24    0.84
 -13  -4   2    9.32    0.99
  13  -4  -2    7.49    0.93
 -13   4   1   20.77    1.30
 -13  -4   1   23.45    1.38
 -13   4   0    1.57    0.54
 -13  -4   0    1.55    0.56
 -13   4  -1    2.45    0.62
 -13  -4  -1    1.66    0.57
 -13   4  -2   18.68    1.31
 -13  -4  -2   17.75    1.27
 -13   4  -3    8.55    1.08
 -13  -4  -3   10.10    1.12
  13   5 -10   11.78    1.20
  13  -5 -10   14.10    1.37
  13  -5 -10   13.83    1.27
  13   5  -9   10.31    1.13
  13  -5  -9    8.32    1.01
  13  -5  -9    7.79    1.01
  13   5  -8   48.27    2.00
  13  -5  -8   47.24    1.89
  13  -5  -8   49.39    2.03
  13   5  -7   -0.22    0.37
  13  -5  -7   -0.48    0.29
  13  -5  -7    0.61    0.45
  13   5  -6   45.66    1.90
  13  -5  -6   48.17    1.98
  13   5  -5    0.80    0.46
  13  -5  -5    1.60    0.55
 -13  -5   5    1.43    0.55
 -13   5   4    6.93    0.84
  13   5  -4    6.83    0.85
 -13  -5   4    8.72    1.02
  13  -5  -4    7.83    0.97
  13   5  -3    1.01    0.46
 -13   5   3    0.58    0.46
 -13  -5   3    0.42    0.43
  13  -5  -3    0.70    0.45
 -13   5   2   23.38    1.37
  13  -5  -2   20.56    1.31
 -13  -5   2   23.75    1.41
 -13   5   1    0.61    0.43
 -13  -5   1    1.83    0.55
 -13   5   0    4.11    0.80
 -13  -5   0    5.62    0.85
 -13   5  -1   11.12    1.14
 -13  -5  -1   12.75    1.21
 -13   5  -2    2.40    0.66
 -13  -5  -2    2.61    0.67
  13   6  -9   11.99    1.22
  13  -6  -9   10.49    1.13
  13  -6  -9   13.62    1.30
  13   6  -8    4.93    0.82
  13  -6  -8    2.42    0.63
  13  -6  -8    2.82    0.72
  13   6  -7   11.79    1.17
  13  -6  -7   14.40    1.32
  13  -6  -7   12.65    1.02
  13   6  -6   -0.73    0.31
  13  -6  -6    0.32    0.44
  13   6  -5    2.87    0.64
  13  -6  -5    3.34    0.71
 -13  -6   5    4.06    0.74
  13   6  -4    5.57    0.86
  13  -6  -4    5.71    0.88
 -13  -6   4    5.17    0.82
 -13   6   3    1.59    0.56
 -13  -6   3    2.60    0.66
  13  -6  -3    2.25    0.61
 -13   6   2    1.76    0.58
 -13  -6   2    1.35    0.54
  13  -6  -2    2.26    0.65
 -13   6   1   13.73    1.31
 -13  -6   1   11.02    1.18
 -13   6   0    0.51    0.48
 -13  -6   0    1.46    0.55
 -13  -6   0    1.63    0.59
 -13   6  -1    4.35    0.80
 -13  -6  -1    4.34    0.82
  13   7  -7    6.83    0.98
  13  -7  -7    5.89    0.90
  13   7  -6   23.90    1.49
  13  -7  -6   22.87    1.49
  13   7  -5    1.37    0.53
  13  -7  -5    0.55    0.48
 -13  -7   5    1.36    0.58
  13   7  -4   12.86    1.77
 -13  -7   4   10.23    1.14
  13  -7  -4   10.75    1.17
 -13   7   3    1.52    0.59
  13  -7  -3    0.86    0.54
 -13  -7   3    1.40    0.56
 -13   7   2   30.27    1.62
 -13  -7   2   30.45    1.67
 -13   7   1    9.64    1.10
 -13  -7   1    6.58    0.96
 -13  -7   1    8.98    1.08
  14   0 -11   -0.32    0.35
  14   0 -10   10.73    1.11
  14   0  -9    0.17    0.39
  14   0  -8    4.41    0.75
  14   0  -7   -0.41    0.32
  14   0  -6   11.38    1.11
  14   0  -5   -0.03    0.37
 -14   0   5    0.40    0.44
  14   0  -4    0.69    0.43
 -14   0   4    0.68    0.45
  14   0  -3   -0.49    0.33
 -14   0   3   -0.56    0.30
 -14   0   2   36.56    1.65
 -14   0   1   -0.16    0.38
 -14   0   0    4.56    0.80
 -14   0  -1    0.24    0.39
 -14   0  -1   -0.03    0.32
 -14   0  -2   -0.10    0.36
 -14   0  -2   -0.14    0.34
  14   1 -11   11.97    1.19
  14  -1 -11   13.04    1.23
  14   1 -10    0.12    0.39
  14  -1 -10    0.31    0.42
  14   1  -9    0.25    0.37
  14  -1  -9    0.13    0.35
  14   1  -8    7.32    0.91
  14  -1  -8    6.19    0.86
  14   1  -7    6.30    0.86
  14  -1  -7    5.39    0.81
  14   1  -6    0.75    0.41
  14  -1  -6    0.31    0.41
  14   1  -5    0.46    0.43
 -14   1   5    1.14    0.49
  14  -1  -5    0.30    0.41
 -14  -1   5    1.32    0.50
 -14   1   4    6.08    0.85
  14   1  -4    5.16    0.78
 -14  -1   4    5.00    0.76
  14  -1  -4    4.24    0.72
  14   1  -3   26.19    1.44
 -14   1   3   28.53    1.48
  14  -1  -3   26.98    1.45
 -14  -1   3   28.66    1.49
 -14   1   2    0.46    0.43
 -14  -1   2    0.66    0.47
 -14   1   1   47.97    1.93
 -14  -1   1   50.88    1.96
 -14   1   0    2.05    0.61
 -14  -1   0    0.98    0.40
 -14  -1   0    0.51    0.45
 -14   1  -1    1.58    0.54
 -14  -1  -1    2.21    0.54
 -14  -1  -1    2.06    0.61
 -14   1  -2    0.94    0.48
 -14   1  -2    0.83    0.51
 -14  -1  -2    1.06    0.54
 -14  -1  -2    0.42    0.41
  14   2 -10    3.01    0.69
  14  -2 -10    4.39    0.79
  14   2  -9   16.78    1.24
  14  -2  -9   17.60    1.29
  14   2  -8   13.14    1.25
  14  -2  -8   12.33    1.20
  14   2  -7    8.46    1.00
  14  -2  -7    8.43    1.00
  14   2  -6   14.33    1.12
  14  -2  -6   10.75    1.09
  14   2  -5   14.65    1.13
 -14   2   5   14.35    1.07
  14  -2  -5   14.80    1.16
 -14  -2   5   15.09    1.14
  14   2  -4    6.58    0.84
 -14   2   4    5.96    0.80
  14  -2  -4    6.02    0.87
 -14  -2   4    7.88    0.95
  14   2  -3   14.85    1.14
 -14   2   3   15.65    1.16
  14  -2  -3   15.85    1.17
 -14  -2   3   14.43    1.27
 -14   2   2   19.71    1.26
 -14  -2   2   20.84    1.31
 -14   2   1    4.40    0.77
 -14  -2   1    4.46    0.76
 -14   2   0    1.00    0.50
 -14  -2   0    0.85    0.48
 -14   2  -1    1.50    0.59
 -14  -2  -1    2.11    0.63
 -14   2  -2    5.39    0.89
 -14   2  -2    5.49    0.86
 -14  -2  -2    5.39    0.87
  14   3 -10    0.17    0.41
  14  -3 -10    0.16    0.43
  14   3  -9    7.59    1.00
  14  -3  -9    7.15    0.97
  14   3  -8   -0.02    0.33
  14  -3  -8    0.07    0.37
  14   3  -7    7.08    0.93
  14  -3  -7    5.46    0.84
  14   3  -6    2.33    0.59
  14  -3  -6    2.63    0.65
  14   3  -5    4.54    0.77
  14  -3  -5    4.61    0.79
 -14  -3   5    5.69    0.85
 -14   3   4    0.51    0.42
  14   3  -4    0.55    0.42
 -14  -3   4    0.18    0.39
  14  -3  -4    1.00    0.48
 -14   3   3    4.26    0.73
  14   3  -3    3.68    0.70
  14  -3  -3    2.55    0.63
 -14  -3   3    3.98    0.75
 -14   3   2   -0.05    0.38
 -14  -3   2   -0.39    0.37
 -14   3   1    1.58    0.54
 -14  -3   1    2.19    0.57
 -14   3   0   -0.26    0.35
 -14  -3   0   -0.47    0.33
 -14   3  -1   20.91    1.40
 -14  -3  -1   21.86    1.39
  14   4  -9   -0.39    0.40
  14  -4  -9    0.48    0.48
  14   4  -8    7.28    0.98
  14  -4  -8    6.24    0.90
  14   4  -7   -0.06    0.36
  14  -4  -7   -0.12    0.39
  14   4  -6    0.38    0.40
  14  -4  -6   -0.21    0.37
  14   4  -5   14.51    1.14
  14  -4  -5   14.47    1.31
 -14  -4   5   13.57    1.22
  14   4  -4   54.19    2.06
 -14   4   4   52.34    1.99
 -14  -4   4   50.66    2.03
  14  -4  -4   52.98    2.12
 -14   4   3   15.88    1.19
 -14  -4   3   19.51    1.29
  14  -4  -3   16.00    1.23
 -14   4   2   12.73    1.21
 -14  -4   2   12.10    1.18
 -14   4   1    1.47    0.60
 -14  -4   1    3.21    0.72
 -14   4   0    0.24    0.49
 -14  -4   0    0.55    0.44
 -14   4  -1    6.09    0.94
 -14  -4  -1    5.04    0.86
  14   5  -8   -0.34    0.39
  14  -5  -8    0.64    0.44
  14  -5  -8    0.19    0.43
  14   5  -7    1.22    0.54
  14  -5  -7    0.37    0.46
  14   5  -6   19.59    1.33
  14  -5  -6   17.93    1.31
  14   5  -5    0.06    0.39
  14  -5  -5    0.24    0.42
 -14  -5   5    0.41    0.46
  14   5  -4   -0.41    0.32
  14  -5  -4    0.02    0.41
 -14  -5   4   -0.06    0.41
 -14   5   3   12.51    1.20
 -14  -5   3   14.34    1.38
  14  -5  -3   11.28    1.19
 -14   5   2    2.63    0.69
 -14  -5   2    2.91    0.69
 -14   5   1    4.73    0.83
 -14  -5   1    7.70    1.02
 -14   5   0    0.87    0.52
 -14  -5   0    0.20    0.45
  14   6  -6   -0.02    0.40
  14  -6  -6    0.60    0.47
  14   6  -5    2.32    0.64
 -14  -6   5    2.55    0.70
  14  -6  -5    2.93    0.70
  14  -6  -4    4.94    0.86
 -14  -6   4    7.12    0.99
 -14   6   3    1.40    0.57
 -14  -6   3    0.91    0.50
  14  -6  -3    2.27    0.68
 -14   6   2   -0.15    0.42
 -14  -6   2   -0.52    0.39
  15   0  -9    0.59    0.49
  15   0  -8   15.18    1.20
  15   0  -7   -0.45    0.30
  15   0  -6   84.04    2.69
 -15   0   5    0.01    0.41
  15   0  -5   -0.07    0.38
 -15   0   4    5.69    0.85
  15   0  -4    3.87    0.73
 -15   0   3   -0.10    0.41
 -15   0   2   10.72    1.12
 -15   0   1   -0.42    0.34
 -15   0   0   40.92    1.75
 -15   0   0   41.94    1.91
  15   1  -9    0.58    0.48
  15  -1  -9    1.16    0.55
  15   1  -8    1.00    0.50
  15  -1  -8    0.70    0.49
  15   1  -7    9.28    1.10
  15  -1  -7    7.57    0.98
  15   1  -6    0.28    0.47
  15  -1  -6    1.31    0.55
 -15   1   5   19.42    1.84
  15   1  -5   21.08    1.38
 -15  -1   5   19.99    1.31
  15  -1  -5   20.76    1.37
 -15   1   4    2.19    0.61
  15   1  -4    1.98    0.58
 -15  -1   4    3.33    0.69
  15  -1  -4    0.65    0.45
 -15   1   3   28.81    1.56
 -15  -1   3   30.07    1.60
 -15   1   2    1.26    0.55
 -15  -1   2    1.78    0.61
 -15   1   1   12.33    1.19
 -15  -1   1   11.96    1.58
 -15  -1   1   11.52    1.20
 -15   1   0   -0.08    0.41
 -15  -1   0    0.10    0.42
 -15  -1   0   -0.29    0.42
  15   2  -9    0.10    0.42
  15  -2  -9    0.85    0.50
  15   2  -8    1.33    0.54
  15  -2  -8    2.44    0.66
  15   2  -7    0.12    0.38
  15  -2  -7    0.34    0.45
  15   2  -6    2.40    0.64
  15  -2  -6    1.42    0.56
  15   2  -5    2.55    0.63
 -15  -2   5    3.60    0.76
  15  -2  -5    3.40    0.74
 -15   2   4   22.27    1.38
  15   2  -4   20.61    1.35
 -15  -2   4   21.47    1.41
  15  -2  -4   21.26    1.40
 -15   2   3   16.59    1.24
 -15  -2   3   13.97    1.26
 -15   2   2   17.80    1.29
 -15  -2   2   18.77    1.32
 -15   2   1    9.17    1.06
 -15  -2   1   13.12    1.28
  15   3  -8   20.86    1.45
  15  -3  -8   20.98    1.45
  15   3  -7   18.22    1.33
  15  -3  -7   20.08    1.40
  15   3  -6    0.06    0.37
  15  -3  -6   -0.13    0.34
  15   3  -5   25.97    1.51
 -15  -3   5   25.95    1.51
  15  -3  -5   26.85    1.57
 -15   3   4   21.69    1.36
  15   3  -4   19.98    1.44
 -15  -3   4   20.87    1.39
  15  -3  -4   22.59    1.46
 -15   3   3   22.27    1.41
 -15  -3   3   22.65    1.43
 -15   3   2    2.43    0.67
 -15  -3   2    2.78    0.71
 -15   3   1    1.76    0.61
 -15  -3   1    1.44    0.58
  15   4  -7    4.36    0.81
  15  -4  -7    3.08    0.77
  15   4  -6    2.70    0.69
  15  -4  -6    1.88    0.60
  15   4  -5    8.66    1.04
  15  -4  -5    7.84    1.05
 -15  -4   5    7.35    1.08
 -15  -4   4    0.86    0.53
  15  -4  -4    2.49    0.70
 -15   4   3   16.66    1.28
 -15  -4   3   15.86    1.39
 -15   4   2   10.11    1.14
 -15  -4   2   10.63    1.17
  16   0  -6    1.81    0.59
  16   0  -5   -0.42    0.38
 -16   0   4   24.22    1.52
  16   1  -5    6.24    0.94
  16  -1  -5    7.63    1.02
   0   0   0    0.00    0.00
;
_shelx_hkl_checksum              81609
#END Tags that were not found in dictionaries
loop_
_space_group_symop_operation_xyz
'x, y, z'
'-x, y+1/2, -z+1/2'
'-x, -y, -z'
'x, -y-1/2, z-1/2'
loop_
_atom_site_label
_atom_site_type_symbol
_atom_site_fract_x
_atom_site_fract_y
_atom_site_fract_z
_atom_site_U_iso_or_equiv
_atom_site_adp_type
_atom_site_occupancy
_atom_site_site_symmetry_order
_atom_site_calc_flag
_atom_site_refinement_flags_posn
_atom_site_refinement_flags_adp
S1 S 0.29544(3) 1.03592(3) 0.00874(3) 0.01399(10) Uani 1 1 d . .
O1 O 0.20359(8) 1.08186(10) -0.08852(8) 0.0189(2) Uani 1 1 d . .
O2 O 0.37683(8) 0.95692(10) -0.01744(9) 0.0192(2) Uani 1 1 d . .
N1 N 0.53576(10) 1.07834(11) 0.23060(10) 0.0138(2) Uani 1 1 d . .
H14 H 0.5615 1.0480 0.1766 0.017 Uiso 1 1 calc R U
C1 C 0.10615(14) 0.74118(16) 0.32930(15) 0.0272(4) Uani 1 1 d . .
H1 H 0.1318 0.7776 0.4086 0.041 Uiso 1 1 calc R U
H3 H 0.1302 0.6524 0.3325 0.041 Uiso 1 1 calc R U
H17 H 0.0255 0.7450 0.2981 0.041 Uiso 1 1 calc R U
C2 C 0.15362(12) 0.81583(14) 0.25068(12) 0.0176(3) Uani 1 1 d . .
C3 C 0.09117(12) 0.90760(15) 0.17356(13) 0.0185(3) Uani 1 1 d . .
H4 H 0.0172 0.9228 0.1699 0.022 Uiso 1 1 calc R U
C4 C 0.13580(12) 0.97691(14) 0.10215(12) 0.0169(3) Uani 1 1 d . .
H5 H 0.0934 1.0406 0.0512 0.020 Uiso 1 1 calc R U
C5 C 0.24316(11) 0.95233(13) 0.10589(12) 0.0138(3) Uani 1 1 d . .
C6 C 0.36461(12) 1.17311(14) 0.08783(12) 0.0169(3) Uani 1 1 d . .
H6 H 0.4077 1.2133 0.0426 0.020 Uiso 1 1 calc R U
H7 H 0.3085 1.2353 0.0929 0.020 Uiso 1 1 calc R U
C7 C 0.43976(11) 1.14575(13) 0.20857(12) 0.0149(3) Uani 1 1 d . .
C8 C 0.58591(12) 1.06546(13) 0.35049(12) 0.0147(3) Uani 1 1 d . .
C9 C 0.69239(12) 1.00116(13) 0.40173(12) 0.0151(3) Uani 1 1 d . .
C10 C 0.73134(12) 0.97027(14) 0.52157(13) 0.0184(3) Uani 1 1 d . .
H8 H 0.6889 0.9920 0.5702 0.022 Uiso 1 1 calc R U
C11 C 0.83123(13) 0.90836(15) 0.56978(13) 0.0225(3) Uani 1 1 d . .
H9 H 0.8563 0.8875 0.6510 0.027 Uiso 1 1 calc R U
C12 C 0.89489(13) 0.87652(16) 0.50083(15) 0.0256(4) Uani 1 1 d . .
H2 H 0.9632 0.8338 0.5343 0.031 Uiso 1 1 calc R U
C13 C 0.75747(13) 0.96904(15) 0.33320(13) 0.0215(3) Uani 1 1 d . .
H11 H 0.7328 0.9894 0.2518 0.026 Uiso 1 1 calc R U
C14 C 0.85776(14) 0.90770(17) 0.38244(15) 0.0277(4) Uani 1 1 d . .
H10 H 0.9013 0.8869 0.3347 0.033 Uiso 1 1 calc R U
C15 C 0.51969(12) 1.12596(14) 0.40355(12) 0.0180(3) Uani 1 1 d . .
H13 H 0.5334 1.1326 0.4858 0.022 Uiso 1 1 calc R U
C16 C 0.42776(12) 1.17657(14) 0.31442(12) 0.0177(3) Uani 1 1 d . .
H12 H 0.3687 1.2232 0.3257 0.021 Uiso 1 1 calc R U
C17 C 0.30777(12) 0.86186(14) 0.18229(13) 0.0170(3) Uani 1 1 d . .
H16 H 0.3812 0.8459 0.1846 0.020 Uiso 1 1 calc R U
C18 C 0.26252(12) 0.79549(14) 0.25493(13) 0.0186(3) Uani 1 1 d . .
H15 H 0.3064 0.7349 0.3087 0.022 Uiso 1 1 calc R U
loop_
_atom_site_aniso_label
_atom_site_aniso_U_11
_atom_site_aniso_U_22
_atom_site_aniso_U_33
_atom_site_aniso_U_23
_atom_site_aniso_U_13
_atom_site_aniso_U_12
S1 0.01379(18) 0.01620(18) 0.01201(17) -0.00087(13) 0.00427(13) -0.00060(13)
O1 0.0167(5) 0.0247(5) 0.0135(5) 0.0007(4) 0.0027(4) 0.0007(4)
O2 0.0175(5) 0.0230(6) 0.0197(5) -0.0017(4) 0.0098(4) 0.0013(4)
N1 0.0154(6) 0.0144(6) 0.0127(5) -0.0011(4) 0.0061(5) -0.0014(5)
C1 0.0265(9) 0.0271(9) 0.0327(9) 0.0098(7) 0.0161(7) 0.0042(7)
C2 0.0194(7) 0.0161(7) 0.0188(7) -0.0019(6) 0.0083(6) -0.0007(6)
C3 0.0140(7) 0.0234(8) 0.0190(7) -0.0004(6) 0.0066(6) 0.0016(6)
C4 0.0145(7) 0.0196(7) 0.0152(7) 0.0013(6) 0.0030(5) 0.0021(6)
C5 0.0146(7) 0.0140(7) 0.0133(6) -0.0031(5) 0.0053(5) -0.0017(5)
C6 0.0186(7) 0.0139(7) 0.0164(7) 0.0005(5) 0.0032(6) -0.0029(6)
C7 0.0150(7) 0.0125(7) 0.0164(7) 0.0006(5) 0.0042(5) -0.0025(5)
C8 0.0168(7) 0.0141(7) 0.0133(6) -0.0011(5) 0.0050(5) -0.0041(5)
C9 0.0161(7) 0.0121(6) 0.0166(7) -0.0017(5) 0.0047(5) -0.0025(5)
C10 0.0210(7) 0.0175(7) 0.0164(7) -0.0038(6) 0.0058(6) -0.0022(6)
C11 0.0242(8) 0.0212(8) 0.0166(7) -0.0009(6) -0.0008(6) -0.0012(6)
C12 0.0183(8) 0.0242(8) 0.0307(8) 0.0036(7) 0.0031(6) 0.0034(6)
C13 0.0224(8) 0.0246(8) 0.0194(7) 0.0047(6) 0.0095(6) 0.0037(6)
C14 0.0247(8) 0.0309(9) 0.0322(9) 0.0052(7) 0.0158(7) 0.0080(7)
C15 0.0205(7) 0.0204(7) 0.0136(6) -0.0012(6) 0.0065(6) 0.0008(6)
C16 0.0181(7) 0.0180(7) 0.0180(7) -0.0011(6) 0.0073(6) 0.0010(6)
C17 0.0154(7) 0.0159(7) 0.0203(7) -0.0024(6) 0.0066(6) 0.0014(5)
C18 0.0201(7) 0.0145(7) 0.0220(7) 0.0014(6) 0.0079(6) 0.0035(6)
loop_
_atom_type_symbol
_atom_type_description
_atom_type_scat_dispersion_real
_atom_type_scat_dispersion_imag
_atom_type_scat_source
C C 0.0033 0.0016 'International Tables Vol C Tables 4.2.6.8 and 6.1.1.4'
H H 0.0000 0.0000 'International Tables Vol C Tables 4.2.6.8 and 6.1.1.4'
N N 0.0061 0.0033 'International Tables Vol C Tables 4.2.6.8 and 6.1.1.4'
O O 0.0106 0.0060 'International Tables Vol C Tables 4.2.6.8 and 6.1.1.4'
S S 0.1246 0.1234 'International Tables Vol C Tables 4.2.6.8 and 6.1.1.4'
loop_
_geom_angle_atom_site_label_1
_geom_angle_atom_site_label_2
_geom_angle_atom_site_label_3
_geom_angle
O1 S1 O2 118.08(6)
O1 S1 C5 108.45(6)
O2 S1 C5 108.57(6)
O1 S1 C6 106.97(6)
O2 S1 C6 108.00(7)
C5 S1 C6 106.17(7)
C7 N1 C8 109.52(12)
C7 N1 H14 125.2
C8 N1 H14 125.2
C2 C1 H1 109.5
C2 C1 H3 109.5
H1 C1 H3 109.5
C2 C1 H17 109.5
H1 C1 H17 109.5
H3 C1 H17 109.5
C3 C2 C18 118.63(13)
C3 C2 C1 121.06(14)
C18 C2 C1 120.29(13)
C4 C3 C2 120.75(14)
C4 C3 H4 119.6
C2 C3 H4 119.6
C3 C4 C5 119.39(13)
C3 C4 H5 120.3
C5 C4 H5 120.3
C4 C5 C17 121.22(13)
C4 C5 S1 118.46(11)
C17 C5 S1 120.30(11)
C7 C6 S1 114.41(10)
C7 C6 H6 108.7
S1 C6 H6 108.7
C7 C6 H7 108.7
S1 C6 H7 108.7
H6 C6 H7 107.6
N1 C7 C16 108.12(12)
N1 C7 C6 122.93(13)
C16 C7 C6 128.92(13)
C15 C8 N1 107.03(12)
C15 C8 C9 130.59(13)
N1 C8 C9 122.34(13)
C13 C9 C10 118.18(13)
C13 C9 C8 121.31(13)
C10 C9 C8 120.51(13)
C11 C10 C9 120.58(14)
C11 C10 H8 119.7
C9 C10 H8 119.7
C12 C11 C10 120.73(14)
C12 C11 H9 119.6
C10 C11 H9 119.6
C11 C12 C14 119.22(15)
C11 C12 H2 120.4
C14 C12 H2 120.4
C14 C13 C9 120.83(14)
C14 C13 H11 119.6
C9 C13 H11 119.6
C12 C14 C13 120.46(15)
C12 C14 H10 119.8
C13 C14 H10 119.8
C8 C15 C16 108.14(12)
C8 C15 H13 125.9
C16 C15 H13 125.9
C7 C16 C15 107.20(13)
C7 C16 H12 126.4
C15 C16 H12 126.4
C18 C17 C5 118.55(13)
C18 C17 H16 120.7
C5 C17 H16 120.7
C17 C18 C2 121.42(14)
C17 C18 H15 119.3
C2 C18 H15 119.3
loop_
_geom_bond_atom_site_label_1
_geom_bond_atom_site_label_2
_geom_bond_distance
S1 O1 1.4456(10)
S1 O2 1.4491(11)
S1 C5 1.7631(14)
S1 C6 1.7945(14)
N1 C7 1.3708(18)
N1 C8 1.3810(17)
N1 H14 0.8800
C1 C2 1.505(2)
C1 H1 0.9800
C1 H3 0.9800
C1 H17 0.9800
C2 C3 1.396(2)
C2 C18 1.400(2)
C3 C4 1.387(2)
C3 H4 0.9500
C4 C5 1.390(2)
C4 H5 0.9500
C5 C17 1.392(2)
C6 C7 1.4857(19)
C6 H6 0.9900
C6 H7 0.9900
C7 C16 1.372(2)
C8 C15 1.376(2)
C8 C9 1.468(2)
C9 C13 1.396(2)
C9 C10 1.401(2)
C10 C11 1.385(2)
C10 H8 0.9500
C11 C12 1.385(2)
C11 H9 0.9500
C12 C14 1.386(2)
C12 H2 0.9500
C13 C14 1.388(2)
C13 H11 0.9500
C14 H10 0.9500
C15 C16 1.413(2)
C15 H13 0.9500
C16 H12 0.9500
C17 C18 1.387(2)
C17 H16 0.9500
C18 H15 0.9500
