#------------------------------------------------------------------------------
#$Date: 2016-02-18 17:37:37 +0200 (Thu, 18 Feb 2016) $
#$Revision: 176729 $
#$URL: svn://www.crystallography.net/cod/cif/1/51/84/1518484.cif $
#------------------------------------------------------------------------------
#
# This file is available in the Crystallography Open Database (COD),
# http://www.crystallography.net/
#
# All data on this site have been placed in the public domain by the
# contributors.
#
data_1518484
loop_
_publ_author_name
'Ganesh Kumar, Mothukuri'
'Mali, Sachitanand M.'
'Raja, K. Muruga Poopathi'
'Gopi, Hosahudya N.'
_publ_section_title
;
 Design of Stable \b-Hairpin Mimetics through Backbone Disulfide Bonds.
;
_journal_issue                   2
_journal_name_full               'Organic letters'
_journal_page_first              230
_journal_page_last               233
_journal_paper_doi               10.1021/ol503310r
_journal_volume                  17
_journal_year                    2015
_chemical_compound_source        synthesis
_chemical_formula_moiety         'C54 H75 N8 O10 S, 6(O)'
_chemical_formula_sum            'C54 H75 N8 O16 S'
_chemical_formula_weight         1124.28
_chemical_name_common            Ac-UgF(D)A-(S,S)gTS-UgFU-CONH2
_chemical_name_systematic        Ac-UgF(D)A-(S,S)gTS-UgFU-CONH2
_space_group_crystal_system      triclinic
_space_group_IT_number           1
_space_group_name_Hall           'P 1'
_space_group_name_H-M_alt        'P 1'
_symmetry_space_group_name_Hall  'P 1'
_symmetry_space_group_name_H-M   'P 1'
_atom_sites_solution_hydrogens   geom
_audit_creation_method           SHELXL-2014
_cell_angle_alpha                79.379(3)
_cell_angle_beta                 77.830(3)
_cell_angle_gamma                78.547(3)
_cell_formula_units_Z            1
_cell_length_a                   9.1948(11)
_cell_length_b                   12.5947(14)
_cell_length_c                   13.6680(16)
_cell_measurement_temperature    100(2)
_cell_volume                     1499.6(3)
_computing_structure_refinement  'SHELXL-2014 (Sheldrick, 2014)'
_diffrn_ambient_temperature      100(2)
_diffrn_measured_fraction_theta_full 1.000
_diffrn_measured_fraction_theta_max 0.995
_diffrn_radiation_type           MoK\a
_diffrn_radiation_wavelength     0.71073
_diffrn_reflns_av_R_equivalents  0.0338
_diffrn_reflns_av_unetI/netI     0.0551
_diffrn_reflns_Laue_measured_fraction_full 1.000
_diffrn_reflns_Laue_measured_fraction_max 0.995
_diffrn_reflns_limit_h_max       12
_diffrn_reflns_limit_h_min       -12
_diffrn_reflns_limit_k_max       16
_diffrn_reflns_limit_k_min       -16
_diffrn_reflns_limit_l_max       18
_diffrn_reflns_limit_l_min       -18
_diffrn_reflns_number            20903
_diffrn_reflns_point_group_measured_fraction_full 0.778
_diffrn_reflns_point_group_measured_fraction_max 0.742
_diffrn_reflns_theta_full        25.242
_diffrn_reflns_theta_max         28.453
_diffrn_reflns_theta_min         1.668
_exptl_absorpt_coefficient_mu    0.125
_exptl_crystal_colour            colorless
_exptl_crystal_density_diffrn    1.245
_exptl_crystal_description       rodshape
_exptl_crystal_F_000             552
_exptl_crystal_recrystallization_method 'methanol '
_refine_diff_density_max         0.641
_refine_diff_density_min         -0.478
_refine_diff_density_rms         0.058
_refine_ls_abs_structure_details
;
 Flack x determined using 2988 quotients [(I+)-(I-)]/[(I+)+(I-)]
 (Parsons, Flack and Wagner, Acta Cryst. B69 (2013) 249-259).
;
_refine_ls_abs_structure_Flack   -0.07(6)
_refine_ls_extinction_method     none
_refine_ls_goodness_of_fit_ref   0.967
_refine_ls_hydrogen_treatment    constr
_refine_ls_matrix_type           full
_refine_ls_number_parameters     722
_refine_ls_number_reflns         11235
_refine_ls_number_restraints     3
_refine_ls_restrained_S_all      0.967
_refine_ls_R_factor_all          0.0586
_refine_ls_R_factor_gt           0.0492
_refine_ls_shift/su_max          0.000
_refine_ls_shift/su_mean         0.000
_refine_ls_structure_factor_coef Fsqd
_refine_ls_weighting_details
'w=1/[\s^2^(Fo^2^)+(0.1000P)^2^] where P=(Fo^2^+2Fc^2^)/3'
_refine_ls_weighting_scheme      calc
_refine_ls_wR_factor_gt          0.1307
_refine_ls_wR_factor_ref         0.1388
_reflns_Friedel_coverage         0.491
_reflns_Friedel_fraction_full    0.556
_reflns_Friedel_fraction_max     0.488
_reflns_number_gt                9878
_reflns_number_total             11235
_reflns_threshold_expression     'I > 2\s(I)'
_cod_data_source_file            ol503310r_si_002.cif
_cod_data_source_block           Ac-UgF(D)A-(S,S)gTS-UgFU-CONH2
_cod_depositor_comments          'Adding full bibliography for 1518484.cif.'
_cod_database_code               1518484
#BEGIN Tags that were not found in dictionaries:
_shelx_space_group_comment
;
The symmetry employed for this shelxl refinement is uniquely defined
by the following loop, which should always be used as a source of
symmetry information in preference to the above space-group names.
They are only intended as comments.
;
_shelxl_version_number           2014-3
_shelx_res_file
;
TITL TS in P1
CELL  0.71073   9.1948  12.5947  13.6680   79.379   77.830   78.547
ZERR    1.00   0.00110   0.00140   0.00160   0.0031   0.0030   0.0028
LATT -1
SFAC C  H  N  O  S
UNIT 53  75  9  10  1
REM Solution 1  R1  0.096  Rweak  0.039,  Alpha= 0.0000  in P1
REM Flack x= -0.038 ( 0.049 ) from Parsons' quotients
REM Formula:  C54 N13 O11 S
L.S. 50
ACTA
BOND
FMAP 2
PLAN 2
TEMP 23.000
WGHT    0.100000
FVAR       0.71030
S001  5    0.865721    0.747855    0.621359    11.00000    0.01478    0.02253 =
         0.01447   -0.00322   -0.00234   -0.00688
O5    4    0.864986    0.614224    0.332512    11.00000    0.02473    0.02227 =
         0.01825   -0.00114   -0.00063   -0.00807
O4    4    0.435763    0.586056    0.529932    11.00000    0.01995    0.02255 =
         0.01685   -0.00143   -0.00436   -0.00726
O6    4    0.691409    0.480781    0.181302    11.00000    0.02179    0.02709 =
         0.01806   -0.00798   -0.00407    0.00407
O3    4    0.658254    0.388606    0.636469    11.00000    0.01858    0.02144 =
         0.02483    0.00228   -0.00553   -0.00490
O7    4    0.442734    0.784356    0.054225    11.00000    0.01944    0.02844 =
         0.01869   -0.00057   -0.00574   -0.00525
O14   4    0.989958    0.931141    0.677858    11.00000    0.03232    0.03417 =
         0.02697   -0.01137   -0.00542   -0.00944
C1    1    1.025163    1.001106    0.606555    11.00000    0.00889    0.01459 =
         0.01839   -0.00752   -0.00044   -0.00336
N6    3    0.549150    0.545203    0.321604    11.00000    0.01311    0.01744 =
         0.01459   -0.00324   -0.00339   -0.00107
AFIX  43
H6    2    0.546808    0.548703    0.384177    11.00000   -1.20000
AFIX   0
O11   4    0.939571    0.730401    0.139247    11.00000    0.02475    0.04509 =
         0.02816    0.00500   -0.00737   -0.00724
N3    3    0.409433    0.413443    0.696109    11.00000    0.01872    0.02010 =
         0.02530    0.00625   -0.00828   -0.00898
AFIX  43
H3    2    0.326751    0.387237    0.709077    11.00000   -1.20000
AFIX   0
N5    3    0.783291    0.461878    0.425778    11.00000    0.01567    0.01547 =
         0.01648   -0.00137   -0.00404   -0.00245
AFIX  43
H5    2    0.754087    0.430067    0.486079    11.00000   -1.20000
AFIX   0
O2    4    0.407015    0.270780    0.933756    11.00000    0.02810    0.02399 =
         0.05129   -0.01006    0.01081   -0.00351
N2    3    0.541141    0.117912    0.876842    11.00000    0.01860    0.01324 =
         0.02472   -0.00130   -0.00277   -0.00369
AFIX  43
H2    2    0.543796    0.049078    0.877879    11.00000   -1.20000
AFIX   0
O1    4    0.221649    0.106476    0.822872    11.00000    0.03563    0.03792 =
         0.04099    0.00991   -0.02015   -0.00977
O15   4    1.054209    1.088567    0.617122    11.00000    0.04015    0.03211 =
         0.04391   -0.01800    0.00082   -0.01475
O8    4    0.616648    0.638933   -0.173667    11.00000    0.05479    0.05128 =
         0.01772   -0.00011   -0.00957   -0.02917
N4    3    0.554429    0.664890    0.620730    11.00000    0.01509    0.02125 =
         0.01225   -0.00063   -0.00264   -0.00593
AFIX  43
H4    2    0.569541    0.667560    0.680152    11.00000   -1.20000
AFIX   0
N7    3    0.695409    0.731957    0.040080    11.00000    0.01800    0.02671 =
         0.01360   -0.00425   -0.00371   -0.00322
AFIX  43
H7    2    0.770821    0.716239    0.071192    11.00000   -1.20000
AFIX   0
N1    3    0.302446    0.006517    0.961599    11.00000    0.02077    0.02197 =
         0.02529    0.00070   -0.00622   -0.00742
AFIX  43
H1    2    0.327934   -0.058275    0.992686    11.00000   -1.20000
AFIX   0
N8    3    0.607299    0.555873   -0.013714    11.00000    0.04406    0.02332 =
         0.02048   -0.00503   -0.00908   -0.01038
AFIX  93
H8A   2    0.567751    0.503777   -0.024724    11.00000   -1.20000
H8B   2    0.625295    0.555986    0.045509    11.00000   -1.20000
AFIX   0
O9    4    0.823426    0.421188    0.777150    11.00000    0.03768    0.03690 =
         0.04781    0.00032   -0.01637   -0.00754
C2    1    0.468364    0.593910    0.610992    11.00000    0.01175    0.01488 =
         0.01700    0.00031   -0.00280   -0.00271
C3    1    0.668684    0.485095    0.272625    11.00000    0.01392    0.01331 =
         0.01950   -0.00253   -0.00242   -0.00285
O12   4    0.221906    0.669293    0.034652    11.00000    0.02248    0.04383 =
         0.09294   -0.02286    0.00021   -0.00701
C4    1    0.834988    0.557082    0.414536    11.00000    0.01405    0.01815 =
         0.01784   -0.00216   -0.00449    0.00083
C5    1    0.857450    0.588090    0.511538    11.00000    0.01631    0.01809 =
         0.01741   -0.00019   -0.00621   -0.00414
AFIX  23
H5A   2    0.964200    0.573066    0.514476    11.00000   -1.20000
H5B   2    0.806269    0.543301    0.568881    11.00000   -1.20000
AFIX   0
C6    1    1.049125    0.873143    0.481149    11.00000    0.00807    0.01974 =
         0.02032   -0.00192   -0.00057   -0.00419
C7    1    0.412126    0.728529    0.268987    11.00000    0.01492    0.02020 =
         0.01534   -0.00242   -0.00116    0.00009
AFIX  23
H7A   2    0.400809    0.745652    0.336814    11.00000   -1.20000
H7B   2    0.323041    0.766045    0.241905    11.00000   -1.20000
AFIX   0
C8    1    0.558935    0.763216    0.092385    11.00000    0.02232    0.01587 =
         0.01647   -0.00023   -0.00383   -0.00447
C9    1    0.665605    0.168570    0.813755    11.00000    0.01875    0.02019 =
         0.01872   -0.00162   -0.00391   -0.00451
AFIX  13
H9    2    0.644468    0.246448    0.820811    11.00000   -1.20000
AFIX   0
C10   1    0.551045    0.771799    0.202895    11.00000    0.01976    0.01786 =
         0.01667   -0.00115   -0.00478   -0.00310
AFIX  23
H10A  2    0.546026    0.847706    0.210077    11.00000   -1.20000
H10B  2    0.641610    0.729818    0.225410    11.00000   -1.20000
AFIX   0
C11   1    0.796763    0.709286    0.519241    11.00000    0.01342    0.02008 =
         0.01466   -0.00324   -0.00346   -0.00525
AFIX  13
H11   2    0.837606    0.752492    0.455724    11.00000   -1.20000
AFIX   0
C12   1    1.028676    1.071711    0.429153    11.00000    0.01815    0.01733 =
         0.03258   -0.00175   -0.00408   -0.00175
AFIX  43
H12   2    1.019746    1.141066    0.446431    11.00000   -1.20000
AFIX   0
C13   1    0.406106    0.526051    0.710391    11.00000    0.01885    0.02228 =
         0.01701    0.00183   -0.00347   -0.00702
AFIX  13
H13   2    0.469248    0.525045    0.760161    11.00000   -1.20000
AFIX   0
C14   1    1.033074    0.980274    0.502941    11.00000    0.01080    0.02286 =
         0.02381   -0.00598   -0.00154   -0.00273
C15   1    0.535769    0.231752    0.661573    11.00000    0.02539    0.01946 =
         0.02543    0.00221   -0.00967   -0.00682
AFIX  23
H15A  2    0.538992    0.220291    0.592837    11.00000   -1.20000
H15B  2    0.443407    0.211014    0.703003    11.00000   -1.20000
AFIX   0
C16   1    0.801407    0.010302    1.131795    11.00000    0.03024    0.02784 =
         0.03048    0.00202   -0.01588   -0.01006
AFIX  43
H16   2    0.818614   -0.056592    1.173258    11.00000   -1.20000
AFIX   0
C17   1    0.421326    0.605746    0.274879    11.00000    0.01245    0.01978 =
         0.01597   -0.00187   -0.00322   -0.00177
AFIX  13
H17   2    0.436439    0.588801    0.205919    11.00000   -1.20000
AFIX   0
C18   1    0.538125    0.351237    0.663458    11.00000    0.01992    0.02003 =
         0.02109    0.00449   -0.00831   -0.00583
C19   1    0.774424    0.409801    0.339932    11.00000    0.01785    0.01590 =
         0.02068   -0.00405   -0.00692    0.00011
C20   1    0.623442    0.737699    0.534895    11.00000    0.01469    0.01785 =
         0.01393    0.00071   -0.00232   -0.00674
AFIX  13
H20   2    0.594006    0.722844    0.474521    11.00000   -1.20000
AFIX   0
C21   1    1.053240    0.770409    0.556657    11.00000    0.01056    0.01606 =
         0.02311   -0.00310   -0.00293   -0.00219
AFIX  23
H21A  2    1.112514    0.775027    0.606165    11.00000   -1.20000
H21B  2    1.102364    0.708421    0.522218    11.00000   -1.20000
AFIX   0
C22   1    0.799463    0.114308    0.963699    11.00000    0.01644    0.02676 =
         0.02248   -0.00470   -0.00747   -0.00425
C23   1    0.389782    0.881923    0.548207    11.00000    0.01392    0.02437 =
         0.04352   -0.00100   -0.00653   -0.00187
AFIX 137
H23A  2    0.351605    0.956899    0.556973    11.00000   -1.50000
H23B  2    0.342969    0.834555    0.604195    11.00000   -1.50000
H23C  2    0.367538    0.868661    0.486409    11.00000   -1.50000
AFIX   0
C24   1    0.275436    0.567325    0.335290    11.00000    0.01417    0.02032 =
         0.02115   -0.00378   -0.00302   -0.00175
AFIX  23
H24A  2    0.249799    0.595679    0.399201    11.00000   -1.20000
H24B  2    0.194213    0.598063    0.297965    11.00000   -1.20000
AFIX   0
C25   1    0.560806    0.859046    0.543495    11.00000    0.01347    0.01873 =
         0.02683   -0.00181   -0.00382   -0.00372
AFIX  13
H25   2    0.581456    0.874653    0.606421    11.00000   -1.20000
AFIX   0
C26   1    1.060725    0.864852    0.378975    11.00000    0.01409    0.02161 =
         0.02157   -0.00519    0.00013   -0.00550
AFIX  43
H26   2    1.073231    0.795660    0.360555    11.00000   -1.20000
AFIX   0
C27   1    0.286186    0.444049    0.356372    11.00000    0.01219    0.02242 =
         0.03128   -0.00209   -0.00654   -0.00523
C28   1    1.037667    1.059147    0.329483    11.00000    0.02056    0.02693 =
         0.02994    0.00900   -0.00455   -0.00543
AFIX  43
H28   2    1.032518    1.120232    0.279592    11.00000   -1.20000
AFIX   0
C29   1    0.700872    0.307695    0.384434    11.00000    0.02478    0.01593 =
         0.02749   -0.00127   -0.00901   -0.00346
AFIX 137
H29A  2    0.761312    0.259154    0.428847    11.00000   -1.50000
H29B  2    0.693659    0.270837    0.330530    11.00000   -1.50000
H29C  2    0.601729    0.329350    0.421706    11.00000   -1.50000
AFIX   0
C30   1    0.423704    0.172380    0.932882    11.00000    0.01643    0.02245 =
         0.02767   -0.00282   -0.00387   -0.00420
C31   1    0.751761    0.209593    1.007447    11.00000    0.02743    0.02377 =
         0.02759   -0.00358   -0.00955   -0.00450
AFIX  43
H31   2    0.735978    0.276873    0.966333    11.00000   -1.20000
AFIX   0
C32   1    0.723631    0.722970   -0.068050    11.00000    0.02100    0.02987 =
         0.01273   -0.00664    0.00004   -0.00473
O10   4    0.134634    0.326718    0.748694    11.00000    0.03360    0.04114 =
         0.22539    0.04118   -0.04052   -0.02216
C33   1    0.727462    0.205489    1.111580    11.00000    0.03316    0.03033 =
         0.03141   -0.01121   -0.00951   -0.00445
AFIX  43
H33   2    0.695161    0.269927    1.139636    11.00000   -1.20000
AFIX   0
C34   1    0.815006    0.118556    0.850856    11.00000    0.01961    0.02257 =
         0.02223   -0.00288   -0.00472   -0.00220
AFIX  23
H34A  2    0.847448    0.044970    0.834005    11.00000   -1.20000
H34B  2    0.891989    0.161894    0.816068    11.00000   -1.20000
AFIX   0
C35   1    0.750846    0.106421    1.174049    11.00000    0.03016    0.03772 =
         0.02453   -0.00752   -0.00804   -0.00888
AFIX  43
H35   2    0.732893    0.104016    1.243914    11.00000   -1.20000
AFIX   0
C36   1    0.315945    0.100478    1.006401    11.00000    0.01930    0.02613 =
         0.02579   -0.00590    0.00218   -0.00488
C37   1    0.257756    0.390525    0.455194    11.00000    0.02148    0.02958 =
         0.04166    0.00537   -0.01235   -0.00926
AFIX  43
H37   2    0.230312    0.431656    0.508134    11.00000   -1.20000
AFIX   0
C38   1    0.640696    0.636428   -0.088428    11.00000    0.02601    0.03045 =
         0.01739   -0.00728   -0.00151   -0.00402
C39   1    1.054369    0.955224    0.304291    11.00000    0.01662    0.03561 =
         0.01781   -0.00006    0.00057   -0.00496
AFIX  43
H39   2    1.061286    0.946279    0.237334    11.00000   -1.20000
AFIX   0
C40   1    0.826181    0.014726    1.026921    11.00000    0.02411    0.02472 =
         0.02888   -0.00440   -0.01108   -0.00411
AFIX  43
H40   2    0.860948   -0.049523    0.998796    11.00000   -1.20000
AFIX   0
C41   1    0.678279    0.832716   -0.131782    11.00000    0.03293    0.03136 =
         0.01889   -0.00470   -0.00161   -0.00671
AFIX 137
H41A  2    0.570355    0.852315   -0.119625    11.00000   -1.50000
H41B  2    0.714083    0.826981   -0.202162    11.00000   -1.50000
H41C  2    0.721836    0.887968   -0.113695    11.00000   -1.50000
AFIX   0
C42   1    0.634595    0.935324    0.455640    11.00000    0.01829    0.01976 =
         0.04832    0.00713   -0.00552   -0.00213
AFIX 137
H42A  2    0.737597    0.932728    0.461289    11.00000   -1.50000
H42B  2    0.581145    1.008839    0.457271    11.00000   -1.50000
H42C  2    0.631596    0.912529    0.392932    11.00000   -1.50000
AFIX   0
C43   1    0.673082    0.160714    0.702454    11.00000    0.02465    0.01954 =
         0.01654   -0.00072   -0.00338   -0.00390
AFIX  23
H43A  2    0.676950    0.084972    0.695217    11.00000   -1.20000
H43B  2    0.764715    0.184401    0.662732    11.00000   -1.20000
AFIX   0
O13   4    0.259952    0.450752    0.018955    11.00000    0.10091    0.03676 =
         0.06935   -0.02104   -0.00367   -0.00637
C44   1    0.932478    0.378162    0.278835    11.00000    0.01552    0.02447 =
         0.02847   -0.00909   -0.00451    0.00515
AFIX 137
H44A  2    0.971174    0.443287    0.244744    11.00000   -1.50000
H44B  2    0.927084    0.334076    0.229822    11.00000   -1.50000
H44C  2    0.998172    0.337306    0.323671    11.00000   -1.50000
AFIX   0
C45   1    0.245132    0.576579    0.751171    11.00000    0.02144    0.02745 =
         0.02221    0.00350    0.00238   -0.00760
AFIX 137
H45A  2    0.182551    0.579734    0.702321    11.00000   -1.50000
H45B  2    0.243698    0.649285    0.763865    11.00000   -1.50000
H45C  2    0.207586    0.532597    0.813056    11.00000   -1.50000
AFIX   0
C46   1    0.251910    0.016729    0.873841    11.00000    0.02479    0.03345 =
         0.02658    0.00580   -0.00969   -0.01177
C47   1    0.893344    0.684095   -0.099363    11.00000    0.02415    0.05235 =
         0.02507   -0.01410   -0.00292    0.00007
AFIX 137
H47A  2    0.948162    0.736373   -0.087303    11.00000   -1.50000
H47B  2    0.915972    0.677293   -0.170006    11.00000   -1.50000
H47C  2    0.922171    0.614274   -0.060390    11.00000   -1.50000
AFIX   0
C48   1    0.269231    0.276945    0.477154    11.00000    0.02851    0.03198 =
         0.06716    0.01322   -0.02060   -0.01331
AFIX  43
H48   2    0.246562    0.242853    0.543614    11.00000   -1.20000
AFIX   0
C49   1    0.160290    0.168850    1.037141    11.00000    0.02304    0.03047 =
         0.04895   -0.01085    0.00847   -0.00593
AFIX 137
H49A  2    0.121795    0.205558    0.977485    11.00000   -1.50000
H49B  2    0.169312    0.222138    1.076546    11.00000   -1.50000
H49C  2    0.092429    0.121609    1.076614    11.00000   -1.50000
AFIX   0
C50   1    0.313867    0.217151    0.400232    11.00000    0.02663    0.02692 =
         0.10569    0.00230   -0.02239   -0.01052
AFIX  43
H50   2    0.324673    0.141186    0.414472    11.00000   -1.20000
AFIX   0
C51   1    0.390725    0.055170    1.098603    11.00000    0.03162    0.03760 =
         0.02261   -0.00732   -0.00161   -0.01243
AFIX 137
H51A  2    0.326564    0.011976    1.147808    11.00000   -1.50000
H51B  2    0.406730    0.114778    1.127671    11.00000   -1.50000
H51C  2    0.485903    0.010267    1.078305    11.00000   -1.50000
AFIX   0
C52   1    0.327764    0.381571    0.278257    11.00000    0.02550    0.03654 =
         0.04999   -0.01896   -0.00434   -0.00911
AFIX  43
H52   2    0.345029    0.415255    0.211309    11.00000   -1.20000
AFIX   0
C53   1    0.343598    0.266601    0.301281    11.00000    0.02783    0.04149 =
         0.09125   -0.03833   -0.00904   -0.00511
AFIX  43
H53   2    0.374232    0.224009    0.249451    11.00000   -1.20000
AFIX   0
C54   1    0.238356   -0.088034    0.841623    11.00000    0.04937    0.04566 =
         0.03323   -0.00089   -0.01971   -0.01958
AFIX 137
H54A  2    0.153450   -0.075773    0.808010    11.00000   -1.50000
H54B  2    0.224262   -0.142925    0.900089    11.00000   -1.50000
H54C  2    0.328687   -0.112405    0.796164    11.00000   -1.50000
AFIX   0
O16   4    0.953894    0.426608    0.027294    11.00000    0.09190    0.06351 =
         0.08503   -0.00394   -0.01781    0.00278
HKLF 4

REM  TS in P1
REM R1 =  0.0492 for    9878 Fo > 4sig(Fo)  and  0.0586 for all   11235 data
REM    722 parameters refined using      3 restraints

END

WGHT      0.0740      0.2054

REM Highest difference peak  0.641,  deepest hole -0.478,  1-sigma level  0.058
Q1    1   0.1090  0.3426  0.8230  11.00000  0.05    0.60
Q2    1   0.3233  0.3837 -0.0010  11.00000  0.05    0.40
;
_shelx_res_checksum              76790
_shelx_hkl_file
;
  -1   0   0 1671.43   49.60
   1   0   0 1621.14   49.60
   1   0   0 1576.84   49.60
   1   0   0 1579.84   49.60
   1   0   0 1525.55   49.50
  -2   0   0  677.83   22.60
   2   0   0  692.83   22.80
   2   0   0  703.63   22.60
   2   0   0  714.93   22.80
   2   0   0  702.23   22.60
  -3   0   0  445.26   14.90
   3   0   0  419.06   14.90
   3   0   0  404.06   14.50
   3   0   0  408.46   14.50
   3   0   0  429.96   15.00
  -4   0   0  279.07   10.90
   4   0   0  272.27   10.60
   4   0   0  264.97   11.00
   4   0   0  272.27   10.00
   4   0   0  268.27   10.90
  -5   0   0 1055.89   34.00
   5   0   0  977.30   34.00
   5   0   0  975.10   34.00
   5   0   0  990.60   32.60
   5   0   0  991.80   33.40
  -6   0   0  254.27   11.50
   6   0   0  255.87   11.90
   6   0   0  250.67   11.80
   6   0   0  266.37   10.20
   6   0   0  245.18   10.80
  -7   0   0  269.37   12.30
   7   0   0  233.88   11.00
   7   0   0  268.27   12.60
   7   0   0  244.18   10.30
   7   0   0  235.38   12.30
  -8   0   0  371.36   14.30
   8   0   0  399.16   17.60
   8   0   0  408.86   17.70
   8   0   0  364.16   14.70
   9   0   0   25.50    5.70
   9   0   0   17.30    5.00
   9   0   0   23.30    3.70
  10   0   0  128.79   10.70
  10   0   0  119.79   10.20
  11   0   0   48.00    8.50
  11   0   0   56.89    8.90
  11  -1   0   10.30    5.80
  11  -1   0    5.30    5.50
  10  -1   0   14.20    4.90
  10  -1   0   11.60    5.10
   9  -1   0   12.30    3.20
   9  -1   0   13.60    4.60
   9  -1   0    9.30    4.50
   8  -1   0   69.59    8.00
   8  -1   0   64.69    7.60
   8  -1   0   58.09    4.80
  -8   1   0   55.49    5.20
   7  -1   0  388.26   14.60
   7  -1   0  381.56   15.30
   7  -1   0  368.76   16.50
   7  -1   0  362.16   16.50
  -7   1   0  386.46   16.40
   6  -1   0   29.50    4.60
   6  -1   0   33.80    4.00
   6  -1   0   27.40    4.40
   6  -1   0   18.30    3.00
  -6   1   0   25.60    3.60
   5  -1   0  177.48    8.40
   5  -1   0  199.78    8.50
   5  -1   0  179.88    9.00
   5  -1   0  178.38    8.80
  -5   1   0  165.28    8.50
   4  -1   0  335.77   12.80
   4  -1   0  331.57   12.50
   4  -1   0  328.97   13.00
   4  -1   0  315.47   12.40
  -4   1   0  333.77   12.80
   3  -1   0 1710.43   52.39
   3  -1   0 1530.35   52.19
   3  -1   0 1757.22   52.59
  -3   1   0 1579.84   52.39
   2  -1   0 3343.97  108.19
   2  -1   0 3569.24  108.29
   2  -1   0 3447.86  108.19
  -2   1   0 3564.24  108.29
   1  -1   0 4095.39  134.59
  -1   1   0 4637.74  136.99
   0  -1   0  181.38    6.10
  -1  -1   0  391.26   14.10
   1   1   0  436.56   14.10
   1   1   0  454.75   14.00
   1   1   0  466.25   14.20
   1   1   0  446.16   14.10
  -2  -1   0  752.22   24.70
   2   1   0  771.02   24.80
   2   1   0  765.52   24.60
   2   1   0  769.52   24.90
   2   1   0  765.92   24.30
  -3  -1   0 1873.71   55.79
   3   1   0 1690.43   55.79
   3   1   0 1725.83   55.99
   3   1   0 1685.53   55.09
   3   1   0 1814.62   55.59
  -4  -1   0 1987.70   62.59
   4   1   0 1953.80   62.79
   4   1   0 1968.00   61.59
   4   1   0 1950.90   62.19
   4   1   0 1930.41   62.59
  -5  -1   0  797.42   27.80
   5   1   0  803.22   27.20
   5   1   0  828.02   26.70
   5   1   0  796.02   28.20
   5   1   0  803.52   28.00
  -6  -1   0  819.72   26.60
  -6  -1   0  829.32   29.00
   6   1   0  810.42   29.30
   6   1   0  849.61   29.30
   6   1   0  794.92   28.20
   6   1   0  813.42   27.40
  -7  -1   0   25.10    2.50
  -7  -1   0   25.10    4.20
   7   1   0   28.60    4.80
   7   1   0   32.20    3.50
   7   1   0   30.40    5.00
   7   1   0   29.60    3.60
   8   1   0  122.49    8.90
   8   1   0  114.79    6.40
   8   1   0  112.09    8.60
   9   1   0   53.69    7.20
   9   1   0   73.89    8.50
   9   1   0   59.89    5.30
  10   1   0   71.89    9.00
  10   1   0   83.29    9.40
  11   1   0   21.20    5.80
  11   1   0   10.60    5.90
  11  -2   0    6.00    5.60
  11  -2   0   10.10    5.90
  10  -2   0   61.29    8.80
  10  -2   0   55.89    8.10
   9  -2   0   69.59    5.60
   9  -2   0   58.39    7.90
   9  -2   0   48.70    6.90
  -9   2   0   58.49    5.90
   8  -2   0   28.60    5.60
   8  -2   0   25.80    5.20
   8  -2   0   35.00    4.20
   7  -2   0   37.40    5.60
   7  -2   0   44.70    6.10
   7  -2   0   49.40    5.30
  -7   2   0   62.19    6.60
   6  -2   0  143.49    7.80
   6  -2   0  146.69    8.20
   6  -2   0  143.19    7.50
   6  -2   0  134.79    8.50
  -6   2   0  130.39    7.90
   5  -2   0  672.33   24.20
   5  -2   0  691.73   25.00
   5  -2   0  739.83   24.30
   5  -2   0  686.03   24.70
  -5   2   0  644.74   24.50
   4  -2   0  633.74   22.00
   4  -2   0  619.04   22.00
   4  -2   0  623.44   22.20
  -4   2   0  644.34   22.30
   3  -2   0  563.04   19.40
   3  -2   0  554.44   19.40
  -3   2   0  568.14   19.60
   2  -2   0  108.09    5.10
   2  -2   0  133.39    5.40
  -2   2   0   99.69    5.20
  -1   2   0  893.31   28.70
   0  -2   0  856.51   26.10
   0   2   0  811.62   26.00
   0   2   0  795.52   25.80
   0   2   0  813.02   26.00
   0   2   0  808.42   26.00
  -1  -2   0 1177.48   40.00
   1   2   0 1328.07   40.10
   1   2   0 1263.47   40.00
   1   2   0 1288.97   40.00
   1   2   0 1316.37   40.10
  -2  -2   0  171.58    6.80
   2   2   0  165.08    6.80
   2   2   0  174.68    6.80
   2   2   0  187.08    6.80
   2   2   0  176.18    6.50
  -3  -2   0  960.50   30.70
   3   2   0  932.21   30.50
   3   2   0  942.71   30.20
   3   2   0  942.31   31.00
   3   2   0  931.91   30.70
  -4  -2   0  731.93   26.60
   4   2   0  801.92   27.20
   4   2   0  817.72   26.90
   4   2   0  815.12   26.00
   4   2   0  803.72   26.40
  -5  -2   0  676.13   24.70
   5   2   0  731.93   24.30
   5   2   0  702.23   25.10
   5   2   0  718.73   24.90
   5   2   0  709.43   23.70
  -6  -2   0  133.59    7.30
   6   2   0  113.79    7.50
   6   2   0  124.49    6.00
   6   2   0  111.79    6.20
   6   2   0  116.69    7.10
  -7  -2   0  145.39    8.40
   7   2   0  137.69    8.90
   7   2   0  132.99    7.30
   7   2   0  133.69    8.40
   7   2   0  138.49    6.80
   8   2   0   41.60    5.80
   8   2   0   31.60    5.60
   8   2   0   50.89    4.70
   8   2   0   44.50    5.40
   9   2   0  105.59    9.80
   9   2   0  113.39    8.80
   9   2   0  104.79    6.40
  10   2   0    6.90    4.80
  10   2   0    1.20    3.70
  11   2   0   31.40    6.90
  11   2   0   42.40    8.30
  12   2   0    9.20    6.70
  12   2   0    0.90    5.50
  11  -3   0   13.60    6.40
  11  -3   0   20.20    6.90
  10  -3   0   37.40    6.80
  10  -3   0   32.70    6.80
   9  -3   0    5.30    4.30
   9  -3   0   -0.30    2.40
   9  -3   0   -3.40    3.30
  -9   3   0   -2.60    2.40
   8  -3   0  150.38   10.60
   8  -3   0  149.79    9.10
   8  -3   0  144.19    9.60
   7  -3   0   93.59    6.90
   7  -3   0   89.39    7.40
   7  -3   0   88.89    8.50
  -7   3   0   97.89    7.40
   6  -3   0   13.90    3.00
   6  -3   0   19.80    3.20
   6  -3   0   18.10    4.20
   6  -3   0   13.00    3.70
  -6   3   0   14.00    2.90
   5  -3   0   45.50    4.60
   5  -3   0   40.60    4.10
   5  -3   0   48.90    5.00
  -5   3   0   35.00    4.00
   4  -3   0    8.80    2.40
   4  -3   0    9.60    2.20
   4  -3   0    6.50    2.20
  -4   3   0   12.10    2.60
   3  -3   0  227.38    9.60
  -3   3   0  236.38    9.80
   2  -3   0    6.80    1.60
  -2   3   0   11.70    2.10
   1  -3   0  258.67   10.10
  -1   3   0  293.37   10.30
   0  -3   0 1033.50   31.70
   0   3   0  972.40   30.70
   0   3   0  977.20   31.70
   0   3   0  979.80   31.70
   0   3   0  964.10   31.40
   0   3   0  977.00   31.80
  -1  -3   0 3117.69  107.79
   1   3   0 3636.54  107.79
   1   3   0 3499.75  107.89
   1   3   0 3621.04  107.89
  -2  -3   0  862.71   28.10
   2   3   0  879.11   28.00
   2   3   0  860.51   28.00
   2   3   0  873.01   28.20
   2   3   0  847.42   28.00
  -3  -3   0  234.48   10.40
   3   3   0  304.57   10.50
   3   3   0  292.57   10.50
   3   3   0  295.17   11.00
   3   3   0  293.57   10.70
  -4  -3   0  255.87   10.10
   4   3   0  240.58    9.60
   4   3   0  236.18    9.30
   4   3   0  250.47   10.30
   4   3   0  239.28   10.00
  -5  -3   0   29.50    3.50
   5   3   0   28.80    3.00
   5   3   0   27.50    3.70
   5   3   0   32.00    3.10
   5   3   0   24.70    3.60
  -6  -3   0    4.60    2.20
   6   3   0    5.40    2.60
   6   3   0    5.60    2.90
   6   3   0    6.90    2.00
   6   3   0    7.30    2.00
  -7  -3   0    6.10    2.70
   7   3   0    6.80    2.30
   7   3   0    3.60    2.80
   7   3   0    1.20    3.00
   7   3   0    7.60    2.30
   8   3   0   96.39    7.70
   8   3   0   99.29    6.00
   8   3   0   98.69    6.50
   8   3   0   99.39    8.20
   9   3   0   37.70    6.10
   9   3   0   44.10    6.80
   9   3   0   50.09    5.00
  10   3   0   68.69    8.50
  10   3   0   96.29    9.70
  11   3   0   18.30    6.50
  11   3   0   24.70    6.40
  12   3   0   46.70    8.70
  12   3   0   32.50    8.20
  11  -4   0    4.50    5.90
  11  -4   0    8.70    6.80
  10  -4   0   24.50    6.70
  10  -4   0   28.00    6.70
   9  -4   0    5.40    4.30
   9  -4   0    6.30    3.20
   9  -4   0   -0.40    4.20
  -9   4   0   -2.70    2.80
   8  -4   0    4.50    4.10
   8  -4   0    2.30    2.90
   8  -4   0    6.40    4.00
   7  -4   0  120.09    9.00
   7  -4   0  134.39    8.90
   7  -4   0  132.39    8.50
  -7   4   0  140.09    9.10
   6  -4   0   88.39    6.90
   6  -4   0   86.89    6.60
  -6   4   0   98.19    7.10
   5  -4   0   -0.60    1.50
   5  -4   0    0.80    2.40
   5  -4   0   -2.00    1.60
  -5   4   0    0.60    2.00
   4  -4   0  155.68    8.00
  -4   4   0  167.88    8.30
   3  -4   0  463.65   17.30
  -3   4   0  475.05   17.50
   2  -4   0  861.81   30.70
  -2   4   0  989.60   31.10
   1  -4   0  354.56   13.00
  -1   4   0  357.86   13.10
   0  -4   0   98.29    4.90
   0   4   0   96.79    4.90
   0   4   0   96.49    4.50
   0   4   0   95.69    3.60
  -1  -4   0  855.01   28.90
   1   4   0  905.01   28.90
   1   4   0  898.81   29.00
   1   4   0  874.81   28.70
  -2  -4   0  150.28    6.40
   2   4   0  150.18    6.30
   2   4   0  136.09    6.20
   2   4   0  141.59    6.30
   2   4   0  137.09    6.30
  -3  -4   0   38.50    3.50
   3   4   0   35.20    3.40
   3   4   0   42.20    4.00
   3   4   0   39.80    3.20
   3   4   0   38.50    3.20
   3   4   0   40.60    2.30
  -4  -4   0   80.99    5.00
   4   4   0   79.19    5.10
   4   4   0   83.29    5.00
   4   4   0   78.19    4.60
   4   4   0   87.09    4.70
  -5  -4   0  252.47   10.60
   5   4   0  233.18   10.40
   5   4   0  234.48   10.80
   5   4   0  243.48    9.80
   5   4   0  245.48   10.00
  -6  -4   0   38.40    4.30
   6   4   0   35.60    3.70
   6   4   0   37.30    4.90
   6   4   0   37.40    3.70
   6   4   0   32.00    4.30
  -7  -4   0  204.28   10.60
   7   4   0  207.68    9.30
   7   4   0  205.88   11.00
   7   4   0  208.88   10.60
   7   4   0  206.58    9.50
   8   4   0   30.00    3.90
   8   4   0   22.90    4.70
   8   4   0   41.20    5.50
   8   4   0   34.10    4.00
   9   4   0   54.69    7.00
   9   4   0   45.10    6.60
   9   4   0   65.89    5.80
  10   4   0   44.60    7.20
  10   4   0   36.20    6.70
  11   4   0    9.60    5.20
  11   4   0    8.00    5.20
  10  -5   0   81.49    9.80
  10  -5   0   76.19   10.30
   9  -5   0   39.90    6.90
   9  -5   0   29.00    5.20
   9  -5   0   27.60    6.20
   8  -5   0    5.20    4.20
   8  -5   0    5.10    3.00
   8  -5   0    3.30    3.60
   7  -5   0  166.18   10.00
   7  -5   0  151.28    9.40
  -7   5   0  158.18   10.20
   6  -5   0   39.60    5.10
   6  -5   0   36.90    5.00
  -6   5   0   41.50    5.60
   5  -5   0   52.39    5.40
   5  -5   0   65.69    6.20
  -5   5   0   53.09    5.30
   4  -5   0   82.89    5.90
  -4   5   0   91.29    6.20
   3  -5   0  130.89    6.80
  -3   5   0  113.79    6.80
   2  -5   0   23.30    2.90
  -2   5   0   24.70    3.10
   1  -5   0   70.39    4.60
  -1   5   0   77.19    4.70
   0  -5   0  282.87   10.80
   0   5   0  275.07    9.10
   0   5   0  260.97   10.90
   0   5   0  283.87   10.80
  -1  -5   0  585.54   19.50
   1   5   0  548.55   19.00
   1   5   0  554.54   19.20
   1   5   0  530.85   19.20
  -2  -5   0 1161.08   36.50
   2   5   0 1087.69   36.30
   2   5   0 1111.69   36.20
   2   5   0 1061.69   36.00
  -3  -5   0  199.18    8.40
   3   5   0  196.68    8.30
   3   5   0  181.98    8.00
   3   5   0  187.98    8.40
   3   5   0  177.28    8.10
  -4  -5   0  216.58    9.60
   4   5   0  218.28    9.60
   4   5   0  229.18   10.00
   4   5   0  212.08    9.10
   4   5   0  224.68    7.70
   4   5   0  225.78    9.30
  -5  -5   0  291.67   12.30
   5   5   0  298.47   12.30
   5   5   0  293.27   12.80
   5   5   0  295.27   11.80
   5   5   0  290.47   11.80
  -6  -5   0  285.57   12.50
   6   5   0  287.77   12.50
   6   5   0  286.27   12.90
   6   5   0  284.27   11.60
   6   5   0  276.67   11.60
   7   5   0   45.10    4.60
   7   5   0   47.10    5.70
   7   5   0   54.29    4.50
   7   5   0   40.70    5.60
   8   5   0   15.50    4.40
   8   5   0   25.00    3.60
   8   5   0   22.70    3.70
   8   5   0   15.90    4.20
   9   5   0   47.70    5.10
   9   5   0   45.30    6.60
   9   5   0   47.20    6.80
  10   5   0   76.29    8.50
  10   5   0   66.09    8.50
  11   5   0   16.30    5.80
  11   5   0   12.00    5.90
  10  -6   0   37.10    7.90
  10  -6   0   30.40    6.00
  10  -6   0   32.10    8.50
 -10   6   0   33.90    6.40
   9  -6   0  157.88   11.30
   9  -6   0  135.69   10.10
   9  -6   0  141.49   11.90
   8  -6   0   27.90    6.00
   8  -6   0   24.70    5.50
   8  -6   0   28.50    5.10
   7  -6   0   26.30    4.80
   7  -6   0   19.10    4.70
  -7   6   0   23.30    4.60
   6  -6   0  123.39    8.30
   6  -6   0  106.89    7.90
  -6   6   0  130.29    8.80
   5  -6   0  205.18   10.60
  -5   6   0  202.48   10.80
   4  -6   0   19.50    3.50
  -4   6   0   10.50    2.80
   3  -6   0    4.20    1.90
  -3   6   0    5.40    2.30
   2  -6   0  516.05   20.40
  -2   6   0  609.84   20.90
   1  -6   0    9.80    2.10
  -1   6   0    8.60    2.10
   0  -6   0 1541.35   47.40
   0   6   0 1405.86   47.10
   0   6   0 1401.66   45.00
   0   6   0 1438.96   47.40
  -1  -6   0   20.20    2.90
   1   6   0   30.50    3.20
   1   6   0   29.80    3.30
   1   6   0   25.90    3.40
   1   6   0   29.10    3.40
  -2  -6   0 1070.79   36.30
   2   6   0 1114.79   36.00
   2   6   0 1099.79   36.00
   2   6   0 1079.49   36.30
   2   6   0 1079.49   36.00
  -3  -6   0   41.00    4.20
   3   6   0   39.90    3.90
   3   6   0   45.00    3.70
   3   6   0   46.00    4.50
   3   6   0   35.80    3.80
  -4  -6   0   63.49    4.70
   4   6   0   58.89    3.20
   4   6   0   57.89    4.80
   4   6   0   49.40    4.30
   4   6   0   53.99    4.50
   4   6   0   52.29    4.10
  -5  -6   0  171.38    8.90
   5   6   0  181.68    8.50
   5   6   0  172.28    8.30
   5   6   0  181.68    9.30
   5   6   0  191.38    9.10
  -6  -6   0   36.10    4.50
   6   6   0   50.89    4.80
   6   6   0   35.00    5.00
   6   6   0   40.00    4.80
   6   6   0   39.40    4.10
   7   6   0   36.90    4.00
   7   6   0   20.50    4.40
   7   6   0   26.80    3.80
   7   6   0   26.50    4.60
   8   6   0   88.09    7.20
   8   6   0   79.99    8.40
   8   6   0   73.29    8.60
   8   6   0   71.29    5.70
   9   6   0   30.90    6.00
   9   6   0   28.60    4.30
   9   6   0   37.10    5.80
  10   6   0    4.10    4.30
  10   6   0   16.60    4.90
  11   6   0    1.90    4.60
  11   6   0    0.40    4.90
   9  -7   0   62.89    8.60
   9  -7   0   64.49    7.70
   9  -7   0   77.49   10.20
   8  -7   0   26.10    5.00
   8  -7   0   21.10    5.50
   7  -7   0  254.57   13.60
   7  -7   0  255.77   13.50
   6  -7   0   29.70    5.00
   6  -7   0   31.10    5.10
  -6   7   0   32.90    5.50
   5  -7   0  273.47   13.20
  -5   7   0  281.07   13.70
  -4   7   0  182.38   10.20
   3  -7   0   19.80    3.50
  -3   7   0   25.60    4.10
   2  -7   0  453.75   17.40
  -2   7   0  431.36   17.30
   1  -7   0   57.09    4.70
   0  -7   0  459.85   16.60
   0   7   0  417.16   16.50
   0   7   0  404.36   16.20
   0   7   0  433.26   13.90
  -1  -7   0  111.39    6.20
   1   7   0   99.59    5.60
   1   7   0   94.59    5.80
   1   7   0  104.29    6.10
   1   7   0  108.49    6.50
  -2  -7   0  524.45   19.00
   2   7   0  506.15   18.50
   2   7   0  492.35   18.60
   2   7   0  524.15   19.20
   2   7   0  506.95   18.60
  -3  -7   0  141.09    7.50
   3   7   0  138.89    7.40
   3   7   0  136.69    7.00
   3   7   0  144.19    7.40
  -4  -7   0  248.68   11.30
   4   7   0  251.27   11.20
   4   7   0  262.37   10.00
   4   7   0  254.07   11.20
   4   7   0  263.17   11.50
   4   7   0  267.17   11.00
  -5  -7   0   45.30    4.80
   5   7   0   36.70    4.40
   5   7   0   45.50    4.80
   5   7   0   43.40    2.80
   5   7   0   51.69    4.30
   5   7   0   44.80    5.30
  -6  -7   0   24.50    4.00
   6   7   0   26.60    3.60
   6   7   0   35.80    4.40
   6   7   0   33.30    4.60
   6   7   0   41.80    5.40
   7   7   0   38.60    5.60
   7   7   0   47.10    4.70
   7   7   0   48.60    5.30
   7   7   0   46.60    5.70
   8   7   0   53.29    7.10
   8   7   0   58.69    5.80
   8   7   0   64.19    7.10
   9   7   0   36.00    4.90
   9   7   0   31.80    5.80
   9   7   0   11.80    4.40
  10   7   0  134.49   10.40
  10   7   0  123.29   12.00
  11   7   0   37.60    7.30
  11   7   0   35.50    7.50
   9  -8   0   13.30    5.40
   9  -8   0    5.80    4.10
   9  -8   0    4.20    5.50
  -9   8   0    4.90    5.00
   8  -8   0   -1.70    3.50
   8  -8   0   -1.50    3.10
   7  -8   0   54.99    7.20
   7  -8   0   47.40    6.80
   6  -8   0   47.20    6.20
   6  -8   0   52.19    6.70
  -6   8   0   50.49    7.00
   5  -8   0   30.80    4.60
  -5   8   0   26.70    4.70
   4  -8   0  190.08   10.60
  -4   8   0  211.68   11.30
   3  -8   0   48.00    5.40
  -3   8   0   59.09    6.10
   2  -8   0   45.90    4.80
  -2   8   0   58.19    6.00
   1  -8   0    5.70    2.10
  -1   8   0    6.00    2.50
  -1   8   0    6.60    1.40
   0  -8   0  167.68    8.50
   0   8   0  159.18    8.30
   0   8   0  164.28    8.70
   0   8   0  158.88    5.70
  -1  -8   0  392.06   15.80
   1   8   0  415.96   16.20
   1   8   0  374.06   15.50
   1   8   0  391.86   15.60
   1   8   0  415.76   15.30
  -2  -8   0   17.60    3.40
   2   8   0   24.20    3.40
   2   8   0   35.30    4.10
   2   8   0   22.20    3.70
   2   8   0   22.50    3.20
   3   8   0   74.39    5.20
   3   8   0   72.49    5.10
   3   8   0   66.89    5.60
   3   8   0   70.49    5.30
  -4  -8   0   37.00    4.20
   4   8   0   43.30    4.40
   4   8   0   42.20    4.80
   4   8   0   42.70    3.60
   4   8   0   43.50    5.10
  -5  -8   0  213.08   10.50
   5   8   0  192.58    9.90
   5   8   0  197.18    8.30
   5   8   0  211.68    9.70
   5   8   0  212.08   10.60
   5   8   0  206.68   10.30
   6   8   0   72.49    6.60
   6   8   0   65.59    6.70
   6   8   0   63.19    6.20
   6   8   0   69.79    5.40
   7   8   0   45.30    5.10
   7   8   0   34.00    5.20
   7   8   0   30.80    5.20
   8   8   0   29.80    5.40
   8   8   0   25.10    5.40
   8   8   0   30.00    4.60
   9   8   0   18.40    5.50
   9   8   0   15.10    4.80
   9   8   0   16.80    3.90
  10   8   0    0.00    3.90
  10   8   0    4.10    4.60
  11   8   0   41.00    8.10
  11   8   0   26.80    6.80
   8  -9   0    8.90    5.00
   8  -9   0   10.20    4.50
   7  -9   0   22.00    5.50
   7  -9   0   14.00    4.60
   6  -9   0  132.39    9.60
  -6   9   0  139.39   10.40
   5  -9   0   38.50    5.80
  -5   9   0   25.80    4.80
   4  -9   0  239.98   12.30
  -4   9   0  220.98   12.40
   3  -9   0  287.17   13.40
  -3   9   0  264.27   13.30
   2  -9   0  104.79    7.40
  -2   9   0   97.49    7.30
   1  -9   0  212.88   10.80
  -1   9   0  225.58   10.90
  -1   9   0  213.68    8.00
   0  -9   0   95.79    6.70
   0   9   0  102.89    7.20
   0   9   0   92.89    6.60
  -1  -9   0   45.80    5.30
   1   9   0   44.40    5.40
   1   9   0   43.10    4.60
   1   9   0   36.00    4.30
   1   9   0   45.20    5.00
  -2  -9   0   46.70    5.10
   2   9   0   40.30    4.70
   2   9   0   35.50    4.10
   2   9   0   41.30    5.30
   2   9   0   42.90    4.70
  -3  -9   0  283.57   13.60
   3   9   0  303.97   13.30
   3   9   0  319.47   13.30
   3   9   0  343.07   13.70
   3   9   0  328.67   14.10
  -4  -9   0 1586.74   52.99
   4   9   0 1537.55   52.49
   4   9   0 1569.64   52.09
   4   9   0 1578.84   52.79
   4   9   0 1576.64   51.99
   5   9   0  120.59    7.30
   5   9   0  128.19    7.30
   5   9   0  126.79    7.90
   5   9   0  120.19    6.20
   5   9   0  125.49    8.20
   6   9   0   54.29    6.50
   6   9   0   58.99    6.50
   6   9   0   54.49    6.00
   7   9   0   89.09    8.70
   7   9   0   81.19    7.40
   7   9   0   95.89    7.70
   8   9   0    9.70    3.70
   8   9   0    9.90    4.10
   8   9   0   12.30    4.50
   9   9   0   79.39    7.40
   9   9   0   69.39    8.70
   9   9   0   74.49    8.30
  10   9   0   45.10    7.60
  10   9   0   60.49    8.00
  11   9   0  136.99   12.50
  11   9   0  116.29   12.80
  11   9   0  136.29    7.60
   8 -10   0   48.20    7.50
   8 -10   0   57.69    8.60
   7 -10   0   31.50    6.10
   7 -10   0   27.00    5.50
   6 -10   0  106.39    9.30
  -6  10   0  122.99   11.30
   5 -10   0   43.20    6.20
  -5  10   0   45.20    6.70
   4 -10   0   68.39    7.60
  -4  10   0   56.69    6.80
   3 -10   0  223.98   12.50
  -3  10   0  277.07   13.40
   2 -10   0  145.59    9.30
  -2  10   0  140.09    6.40
  -2  10   0  147.09    9.30
   1 -10   0  101.09    7.30
  -1  10   0   84.59    7.00
   0 -10   0   15.70    3.70
   0  10   0    9.00    2.80
  -1 -10   0  171.68    9.50
   1  10   0  161.88    9.70
   1  10   0  166.88    9.20
  -2 -10   0  307.97   13.90
   2  10   0  290.17   13.90
   2  10   0  293.57   13.00
   2  10   0  297.37   13.30
  -3 -10   0   68.29    6.90
   3  10   0   60.09    6.00
   3  10   0   61.29    6.80
   3  10   0   49.90    5.30
  -4 -10   0  160.78   10.20
   4  10   0  176.78   10.00
   4  10   0  139.09    8.70
   4  10   0  160.08    8.80
   4  10   0  146.19    8.10
   5  10   0   85.49    7.80
   5  10   0   82.39    5.40
   5  10   0   71.69    6.00
   5  10   0   86.39    7.10
   6  10   0   80.19    7.90
   6  10   0   73.69    7.50
   6  10   0   72.49    6.00
   7  10   0   18.60    4.30
   7  10   0   18.50    3.70
   7  10   0   20.10    4.70
   7  10   0   17.50    4.60
   8  10   0   29.30    5.60
   8  10   0   23.20    5.50
   8  10   0   26.00    4.20
   8  10   0   33.50    5.40
   9  10   0   68.39    7.50
   9  10   0   50.49    5.40
   9  10   0   44.20    6.90
   9  10   0   39.30    7.10
  10  10   0  150.98    8.60
  10  10   0  149.59   11.00
  10  10   0  129.99   12.70
   7 -11   0    6.90    4.90
   7 -11   0    7.40    4.70
   6 -11   0   35.30    6.50
  -6  11   0   42.30    7.60
   5 -11   0   10.90    3.60
  -5  11   0   12.70    4.70
   4 -11   0   14.40    4.10
  -4  11   0   11.60    4.00
   3 -11   0   25.50    4.70
  -3  11   0   24.60    4.80
   2 -11   0  170.88   10.50
  -2  11   0  168.08   10.50
   1 -11   0   80.79    8.00
  -1  11   0   81.59    7.90
   0 -11   0  184.88   10.80
   0  11   0  187.78   10.40
  -1 -11   0  122.69    8.40
   1  11   0  124.69    8.80
   1  11   0  119.69    8.10
  -2 -11   0  320.37   14.40
   2  11   0  285.47   13.60
   2  11   0  285.67   13.20
  -3 -11   0  481.65   22.20
   3  11   0  504.75   20.90
   3  11   0  506.65   19.80
   3  11   0  476.65   19.70
   4  11   0   20.00    3.90
   4  11   0   19.80    3.80
   4  11   0   19.10    4.60
   4  11   0   25.10    4.60
   5  11   0   17.60    4.40
   5  11   0   16.60    3.40
   5  11   0   13.30    3.30
   5  11   0   16.10    4.30
   6  11   0   27.10    5.30
   6  11   0   27.50    4.30
   6  11   0   28.40    5.50
   7  11   0    5.30    4.10
   7  11   0   -1.70    3.20
   7  11   0    0.50    2.60
   8  11   0  126.59    9.30
   8  11   0  120.39    8.00
   8  11   0  109.39   10.80
   8  11   0  114.99   10.60
   9  11   0   20.20    5.20
   9  11   0   16.60    3.90
   9  11   0    7.60    5.50
   9  11   0   22.60    5.90
  10  11   0   33.20    7.20
  10  11   0   38.30    8.20
  10  11   0   46.80    5.20
   6 -12   0   34.80    7.00
  -6  12   0   30.80    7.00
   5 -12   0   10.90    3.90
  -5  12   0   13.90    5.30
   4 -12   0   44.10    6.90
  -4  12   0   39.70    6.10
   3 -12   0   28.70    5.80
  -3  12   0   40.60    6.60
   2 -12   0   53.09    6.50
  -2  12   0   36.70    5.80
   1 -12   0   79.29    7.90
  -1  12   0   97.89    9.00
   0 -12   0   31.10    4.90
   0  12   0   43.40    5.90
  -1 -12   0   13.00    3.60
   1  12   0   14.40    4.40
   1  12   0   18.10    4.10
   2  12   0   84.89    7.20
   2  12   0   77.29    8.20
   2  12   0   86.19    7.70
   3  12   0  159.48    9.60
   3  12   0  144.49    9.10
   3  12   0  144.19   10.10
   4  12   0  116.59    9.00
   4  12   0   99.89    8.10
   4  12   0  111.99    7.80
   4  12   0  112.59    8.00
   5  12   0   95.79    6.80
   5  12   0  103.59    8.20
   5  12   0  114.39   10.20
   5  12   0   92.39    7.40
   6  12   0   26.00    5.30
   6  12   0   25.80    4.60
   6  12   0   24.40    5.50
   7  12   0   40.10    5.40
   7  12   0   45.20    7.00
   7  12   0   44.70    6.90
   8  12   0   34.20    5.00
   8  12   0   27.00    6.20
   8  12   0   32.00    6.80
   9  12   0   82.49    9.10
   9  12   0   90.89    7.50
   9  12   0   79.39   10.30
   5 -13   0    8.90    4.30
  -5  13   0    4.50    5.10
   4 -13   0   15.30    4.70
  -4  13   0   14.60    5.10
   3 -13   0   64.99    8.20
  -3  13   0   95.99    9.90
   2 -13   0  155.28   11.30
  -2  13   0  158.58   11.10
   1 -13   0    2.90    3.40
  -1  13   0    2.50    3.40
   0 -13   0   17.60    4.20
   0  13   0   13.00    3.90
   1  13   0   26.90    5.10
   2  13   0   39.00    6.60
   2  13   0   36.80    5.60
   3  13   0    2.50    3.20
   3  13   0    4.70    4.20
   3  13   0   -2.50    2.50
   4  13   0    4.50    3.70
   4  13   0    6.40    3.50
   4  13   0    6.70    4.40
   4  13   0    6.30    3.30
   5  13   0   39.90    6.70
   5  13   0   34.50    5.80
   5  13   0   32.40    5.20
   6  13   0  165.88   11.70
   6  13   0  149.39    9.70
   6  13   0  139.39   10.30
   7  13   0   17.00    5.70
   7  13   0   22.20    4.60
   7  13   0   22.90    5.80
   8  13   0   31.90    6.80
   8  13   0   31.20    7.10
   8  13   0   35.80    5.40
   4 -14   0    9.70    4.80
  -4  14   0    5.50    5.10
   3 -14   0   19.40    6.00
  -3  14   0   21.80    5.90
   2 -14   0   22.40    6.10
  -2  14   0    9.30    4.60
  -1  14   0   12.90    4.70
   0  14   0   12.80    4.70
   1  14   0   12.70    4.50
   2  14   0   35.70    5.80
   3  14   0   61.89    7.20
   3  14   0   70.09    8.90
   3  14   0   60.99    7.50
   3  14   0   61.69    7.00
   4  14   0  145.89    9.90
   4  14   0  149.39   11.30
   4  14   0  168.28   10.50
   4  14   0  138.89    9.70
   5  14   0   27.70    6.70
   5  14   0   28.10    5.20
   5  14   0   29.20    5.80
   6  14   0   17.70    6.00
   6  14   0   22.00    4.90
   6  14   0   27.30    6.00
   7  14   0   11.00    5.50
   7  14   0   10.60    5.40
   7  14   0   11.50    4.10
   8  14   0    8.00    4.10
   8  14   0    7.90    5.80
   8  14   0    1.60    4.80
   3 -15   0   28.70    8.10
  -3  15   0   28.60    7.20
  -2  15   0   -1.40    4.70
  -1  15   0   28.90    6.30
   0  15   0   22.10    5.50
   1  15   0   30.60    6.20
   2  15   0   35.60    6.30
   2  15   0   38.60    6.80
   3  15   0   21.80    5.60
   3  15   0   22.20    5.30
   4  15   0   49.40    6.80
   4  15   0   38.80    7.70
   4  15   0   34.00    6.20
   4  15   0   32.70    5.90
   5  15   0   14.50    4.60
   5  15   0   -1.30    4.00
   5  15   0    6.60    5.90
   6  15   0   72.39    7.90
   6  15   0   66.69    8.60
   6  15   0   69.59    9.70
  -1  16   0  129.79   12.50
   0  16   0    2.50    4.90
   1  16   0    0.00    4.40
   1  16   0    9.80    5.20
   2  16   0   30.50    6.60
   2  16   0   20.80    6.20
   3  16   0   19.40    5.50
   3  16   0   18.60    5.40
   4  16   0  100.29    9.80
   5  16   0   16.10    7.30
   4  16  -1   29.20    6.10
   3  16  -1   38.50    6.50
   3  16  -1   48.50    7.50
   2  16  -1    6.30    5.00
   2  16  -1   -2.30    3.80
   1  16  -1    8.10    4.70
   1  16  -1    7.20    5.00
   0  16  -1    2.00    4.80
   0  16  -1    4.60    5.40
   6  15  -1   28.50    7.50
   6  15  -1   38.70    7.80
   6  15  -1   31.60    5.40
   5  15  -1   10.20    5.90
   5  15  -1   10.20    4.40
   5  15  -1   16.30    5.50
   4  15  -1    7.20    3.90
   4  15  -1   15.80    5.10
   4  15  -1   17.70    5.00
   3  15  -1    0.50    4.00
   3  15  -1   11.70    4.80
   2  15  -1   49.30    7.40
   2  15  -1   40.70    6.20
   1  15  -1    2.80    4.20
   1  15  -1    3.80    4.00
   0  15  -1   17.00    5.40
   0  15  -1   26.00    6.50
  -1  15  -1    1.20    4.40
  -1  15  -1    0.00    4.70
  -2  15  -1   20.20    6.70
  -2  15  -1    9.70    5.20
  -3  15  -1   13.70    6.00
   7  14  -1    5.80    5.40
   7  14  -1   -1.40    4.50
   7  14  -1    2.10    3.10
   6  14  -1   18.40    6.00
   6  14  -1   14.00    3.90
   6  14  -1    5.20    4.70
   5  14  -1   23.60    6.10
   5  14  -1   26.80    6.10
   5  14  -1   17.20    4.10
   4  14  -1   58.89    6.60
   4  14  -1   62.19    7.20
   4  14  -1   56.39    8.20
   4  14  -1   71.59    8.30
   3  14  -1    5.40    3.80
   3  14  -1    3.60    3.80
   3  14  -1    8.30    4.20
   2  14  -1   92.19    8.50
   2  14  -1   77.99    9.00
   1  14  -1   18.30    5.40
   1  14  -1    3.50    3.40
   0  14  -1   46.40    6.70
  -1  14  -1   76.19    8.30
  -2  14  -1   20.20    5.60
  -3  14  -1    1.40    4.40
  -4  14  -1   88.49   10.40
  -4  14  -1   61.39    9.60
   8  13  -1  -10.10    5.00
   8  13  -1    6.20    2.90
   8  13  -1    0.80    4.60
   7  13  -1   47.90    7.70
   7  13  -1   43.40    7.20
   7  13  -1   45.20    5.10
   6  13  -1   40.50    7.00
   6  13  -1   42.70    5.10
   6  13  -1   45.00    7.20
   5  13  -1   76.79    6.80
   5  13  -1   80.19    8.50
   5  13  -1   91.49    9.50
   4  13  -1    5.10    3.10
   4  13  -1    3.00    2.80
   4  13  -1    1.90    3.90
   4  13  -1    2.60    3.60
   3  13  -1   80.29    8.00
   3  13  -1   86.89    9.30
   3  13  -1   79.59    7.30
   3  13  -1   77.89    8.40
   2  13  -1   19.50    4.30
   2  13  -1   12.70    4.40
   1  13  -1   25.10    5.00
   0  13  -1    4.70    3.40
  -1  13  -1    0.30    3.10
  -2  13  -1   19.70    5.00
  -3  13  -1   86.29    9.20
   3 -13   1  116.79   11.20
  -4  13  -1   80.19    9.60
   4 -13   1   88.39   10.10
  -5  13  -1   30.50    7.30
   5 -13   1   35.60    7.10
   9  12  -1   21.80    7.10
   8  12  -1   34.60    7.10
   8  12  -1   41.00    6.80
   8  12  -1   36.10    4.20
   7  12  -1   26.10    6.00
   7  12  -1   27.00    4.00
   7  12  -1   28.10    5.70
   6  12  -1   19.00    5.20
   6  12  -1   20.00    3.80
   6  12  -1   23.80    5.50
   5  12  -1   83.89    8.70
   5  12  -1   76.49    6.40
   5  12  -1   90.09    8.80
   4  12  -1   38.40    5.20
   4  12  -1   44.00    6.50
   4  12  -1   38.00    4.90
   4  12  -1   41.20    6.10
   3  12  -1   43.00    5.90
   3  12  -1   30.10    5.00
   3  12  -1   37.90    5.00
   3  12  -1   29.70    5.50
   2  12  -1    8.60    4.20
   2  12  -1   11.20    3.80
   2  12  -1   14.40    4.10
   2  12  -1   13.00    3.50
   1  12  -1   44.00    5.70
   0  12  -1  304.97   14.70
  -1  12  -1    2.70    3.10
   1 -12   1    2.90    2.80
  -2  12  -1  117.89    9.30
   2 -12   1  127.39    9.60
  -3  12  -1    2.80    3.30
   3 -12   1    2.40    3.20
  -4  12  -1   17.30    5.30
   4 -12   1   11.60    4.30
  -5  12  -1   18.40    5.60
   5 -12   1   17.10    4.90
  -6  12  -1   17.50    6.10
   6 -12   1   19.00    5.80
   9  11  -1   73.29    9.00
   9  11  -1   51.19    4.40
   9  11  -1   59.69    4.30
   9  11  -1   52.29    8.70
   8  11  -1  130.49    9.20
   8  11  -1   95.99    7.20
   8  11  -1  108.29   10.70
   8  11  -1  104.39   10.20
   8  11  -1  111.79    6.70
   7  11  -1   98.49   10.00
   7  11  -1   92.59    8.90
   7  11  -1   76.49    6.00
   6  11  -1   81.29    8.20
   6  11  -1   81.59    8.40
   6  11  -1   77.29    6.00
   5  11  -1   72.19    7.60
   5  11  -1   77.69    8.00
   5  11  -1   54.39    5.50
   5  11  -1   67.89    6.00
   4  11  -1   67.49    7.20
   4  11  -1   66.99    5.70
   4  11  -1   65.89    7.10
   4  11  -1   57.49    5.80
   3  11  -1  247.48   12.90
   3  11  -1  243.38   12.30
   3  11  -1  253.87   12.60
   3  11  -1  259.07   11.90
   2  11  -1  170.38    9.50
   2  11  -1  189.78   10.90
   2  11  -1  170.78    9.80
   1  11  -1   68.79    6.50
  -1 -11   1   62.89    6.70
   0  11  -1   95.99    7.40
   0 -11   1   89.29    7.50
  -1  11  -1   81.89    7.10
   1 -11   1   72.49    7.20
  -2  11  -1   37.60    5.40
   2 -11   1   30.70    5.20
  -3  11  -1  189.78   11.50
   3 -11   1  182.98   11.50
  -4  11  -1  168.38   11.20
   4 -11   1  163.08   11.00
  -5  11  -1   23.60    5.50
   5 -11   1   23.50    5.40
  -6  11  -1   20.10    5.40
   6 -11   1   22.70    5.20
  -7  11  -1    4.60    4.80
  -7  11  -1    5.90    5.40
   7 -11   1   -0.80    3.90
   7 -11   1    4.80    4.60
  10  10  -1   55.09    9.20
  10  10  -1   56.69    8.30
   9  10  -1  289.97   16.50
   9  10  -1  281.07   11.20
   9  10  -1  278.07   15.40
   9  10  -1  283.37   11.10
   8  10  -1   74.49    5.30
   8  10  -1   68.59    8.60
   8  10  -1   70.89    8.20
   8  10  -1   72.09    5.50
   8  10  -1   84.59    8.00
   7  10  -1   10.80    2.70
   7  10  -1   19.20    5.30
   7  10  -1    9.40    2.70
   7  10  -1   11.80    4.60
   7  10  -1   11.30    3.70
   6  10  -1   16.00    4.60
   6  10  -1   15.50    3.10
   6  10  -1   18.10    3.20
   6  10  -1   17.60    4.20
   5  10  -1  110.99    8.20
   5  10  -1  104.19    6.30
   5  10  -1  106.29    6.80
   5  10  -1  108.59    6.60
   5  10  -1  110.59    7.90
   4  10  -1  460.85   19.40
   4  10  -1  463.55   18.00
   4  10  -1  475.35   19.30
   4  10  -1  466.95   18.20
   4  10  -1  466.25   18.10
   3  10  -1   80.29    6.20
   3  10  -1   78.89    5.80
   3  10  -1   70.39    7.30
   3  10  -1   82.49    6.10
   3  10  -1   78.89    6.50
   2  10  -1   48.10    5.00
   2  10  -1   43.30    5.30
   2  10  -1   38.30    5.40
  -2 -10   1   36.80    5.00
   1  10  -1   30.70    4.80
   1  10  -1   32.50    4.30
  -1 -10   1   31.70    4.50
   0  10  -1   97.49    4.70
   0  10  -1  113.19    7.40
   0 -10   1  101.19    7.40
  -1  10  -1  244.98    9.30
  -1  10  -1  261.77   12.50
   1 -10   1  244.58   12.30
  -2  10  -1   61.59    4.20
  -2  10  -1   56.89    6.50
   2 -10   1   61.29    6.90
  -3  10  -1   28.40    5.10
   3 -10   1   30.30    5.10
  -4  10  -1  120.69    9.20
   4 -10   1  131.49    9.30
  -5  10  -1    4.60    3.70
   5 -10   1    8.00    3.80
  -6  10  -1    6.80    4.20
   6 -10   1    7.50    4.10
  -7  10  -1   60.89    8.60
   7 -10   1   62.59    8.80
   7 -10   1   70.59    8.50
  -8  10  -1   10.60    6.10
   8 -10   1   34.20    7.30
   8 -10   1   25.60    6.00
  10   9  -1   16.20    5.40
  10   9  -1    6.10    5.40
   9   9  -1   61.89    8.60
   9   9  -1   62.89    4.70
   9   9  -1   56.69    7.50
   9   9  -1   62.79    4.80
   8   9  -1    6.10    3.30
   8   9  -1   10.40    4.40
   8   9  -1   13.10    4.80
   8   9  -1   15.50    2.90
   8   9  -1   15.90    2.90
   7   9  -1   12.60    3.50
   7   9  -1   14.70    4.30
   7   9  -1   12.20    4.50
   7   9  -1   14.30    2.80
   7   9  -1   11.20    2.70
   6   9  -1  366.86   16.90
   6   9  -1  372.26   14.70
   6   9  -1  363.86   15.90
   6   9  -1  362.56   14.60
   6   9  -1  386.06   16.70
   5   9  -1  170.88    9.40
   5   9  -1  168.88    8.40
   5   9  -1  168.38    9.80
   5   9  -1  171.98   10.00
   5   9  -1  169.88    7.80
   5   9  -1  169.58    8.40
   4   9  -1  352.36   15.40
   4   9  -1  369.86   14.40
   4   9  -1  362.56   15.60
   4   9  -1  352.36   14.40
   4   9  -1  356.96   14.30
   3   9  -1  111.79    7.80
   3   9  -1  124.99    7.80
   3   9  -1  123.99    7.00
   3   9  -1  136.29    7.30
   3   9  -1  136.39    7.50
  -3  -9   1  125.69    7.70
   2   9  -1   97.29    7.10
   2   9  -1   96.79    6.60
   2   9  -1   96.49    6.20
   2   9  -1   94.09    6.10
  -2  -9   1  109.29    7.00
   1   9  -1  170.88    8.90
   1   9  -1  169.58    9.60
   1   9  -1  176.68    9.20
   1   9  -1  176.78    8.90
   1   9  -1  174.58    6.50
  -1  -9   1  190.88    9.50
   0   9  -1  233.08   10.80
   0   9  -1  223.48    8.10
   0   9  -1  226.48   10.80
   0  -9   1  216.28   10.90
  -1   9  -1  289.77   10.90
  -1   9  -1  309.77   13.60
   1  -9   1  314.87   13.70
  -2   9  -1  292.27   13.60
  -2   9  -1  282.37   11.30
   2  -9   1  312.77   13.90
  -3   9  -1   24.80    4.50
   3  -9   1   15.80    3.60
  -4   9  -1   17.50    4.30
   4  -9   1   14.50    3.80
  -5   9  -1  104.59    8.70
   5  -9   1   98.99    8.00
  -6   9  -1  200.78   12.50
   6  -9   1  196.68   12.10
  -7   9  -1    4.40    4.00
   7  -9   1    0.60    3.90
   7  -9   1    0.30    3.10
  -8   9  -1   33.90    7.10
   8  -9   1   30.50    6.50
   8  -9   1   27.30    5.70
  11   8  -1   81.29   10.80
  11   8  -1   98.39   10.90
  10   8  -1    6.50    5.30
  10   8  -1    4.10    1.90
  10   8  -1    7.70    2.00
  10   8  -1    8.30    5.00
   9   8  -1   75.89    9.20
   9   8  -1  100.79    5.80
   9   8  -1   88.39    9.20
   9   8  -1   93.49    5.70
   8   8  -1   90.39    5.60
   8   8  -1   87.39    8.60
   8   8  -1   86.19    6.60
   8   8  -1   94.59    9.30
   7   8  -1   70.29    7.20
   7   8  -1   62.59    4.80
   7   8  -1   80.09    8.20
   7   8  -1   80.09    6.00
   6   8  -1   79.79    6.70
   6   8  -1   86.69    8.10
   6   8  -1   66.29    6.20
   6   8  -1   72.69    5.20
   6   8  -1   78.29    5.20
   5   8  -1  241.68   12.20
   5   8  -1  250.67   10.60
   5   8  -1  237.38   12.00
   5   8  -1  258.47   10.70
   5   8  -1  263.57    9.90
   5   8  -1  244.18   11.40
   4   8  -1  120.89    6.50
   4   8  -1  126.99    6.40
   4   8  -1  119.39    6.50
   4   8  -1  118.99    7.30
   4   8  -1  107.09    7.40
  -4  -8   1  124.79    7.40
   3   8  -1  249.68   11.70
   3   8  -1  265.47   11.10
   3   8  -1  266.67   10.90
   3   8  -1  264.27   11.80
   3   8  -1  256.77   11.00
  -3  -8   1  247.48   11.50
   2   8  -1  234.68   10.60
   2   8  -1  245.58   11.00
   2   8  -1  253.87   10.70
   2   8  -1  252.57   11.40
  -2  -8   1  250.27   11.20
   1   8  -1  100.49    6.20
   1   8  -1   97.29    4.20
   1   8  -1  105.69    6.80
   1   8  -1   94.69    5.90
   1   8  -1  105.99    6.10
  -1  -8   1   78.49    5.90
   0   8  -1  225.28    8.20
   0   8  -1  234.38   10.40
   0   8  -1  219.28   10.20
   0  -8   1  227.88   10.60
  -1   8  -1   18.20    2.20
  -1   8  -1   20.70    3.40
   1  -8   1   18.70    3.50
  -2   8  -1   46.00    5.20
   2  -8   1   52.19    5.40
  -3   8  -1  199.08   10.50
   3  -8   1  182.28   10.00
  -4   8  -1  609.64   22.90
   4  -8   1  531.15   22.20
  -5   8  -1  431.26   18.80
   5  -8   1  414.56   18.40
  -6   8  -1   98.69    9.30
   6  -8   1   71.69    7.40
  -7   8  -1   36.60    6.00
   7  -8   1   39.80    6.30
   7  -8   1   33.90    5.90
  -8   8  -1   19.20    5.50
   8  -8   1   26.00    6.00
   8  -8   1   14.10    4.80
  -9   8  -1   17.10    6.00
   9  -8   1   11.10    5.00
   9  -8   1   21.50    7.50
   9  -8   1   13.70    6.10
  11   7  -1   14.20    6.90
  11   7  -1   15.30    6.50
  10   7  -1   26.60    2.90
  10   7  -1   22.50    6.00
  10   7  -1   14.60    5.20
   9   7  -1   92.49   10.00
   9   7  -1  124.89    6.50
   9   7  -1  129.09    9.90
   8   7  -1  175.38    8.10
   8   7  -1  170.58    8.90
   8   7  -1  173.98   10.70
   8   7  -1  152.68   10.80
   7   7  -1   69.79    5.60
   7   7  -1   75.89    7.80
   7   7  -1   95.09    8.40
   7   7  -1   76.49    5.10
   6   7  -1   20.40    4.20
   6   7  -1   23.50    4.70
   6   7  -1   30.60    3.80
   6   7  -1   23.60    3.10
   5   7  -1   58.49    4.30
   5   7  -1   59.99    5.30
   5   7  -1   66.89    6.40
   5   7  -1   64.39    6.10
   5   7  -1   54.29    3.30
   4   7  -1   44.60    3.80
   4   7  -1   43.50    3.40
   4   7  -1   49.99    4.80
   4   7  -1   46.20    3.70
   4   7  -1   39.70    4.70
   4   7  -1   35.90    4.40
  -4  -7   1   43.20    4.70
   3   7  -1   48.20    3.90
   3   7  -1   55.79    4.10
   3   7  -1   54.59    5.20
   3   7  -1   57.79    4.10
   3   7  -1   51.89    4.90
  -3  -7   1   53.19    5.10
   2   7  -1   14.00    2.40
   2   7  -1   16.20    3.00
   2   7  -1   15.50    2.40
   2   7  -1   17.00    3.00
  -2  -7   1   15.20    2.80
   1   7  -1  127.59    7.00
   1   7  -1  102.79    6.10
   1   7  -1  123.89    6.60
   1   7  -1  122.59    6.40
   1   7  -1  124.29    4.90
  -1  -7   1  121.69    6.70
   0   7  -1   35.80    3.80
   0   7  -1   46.10    4.30
   0   7  -1   39.10    2.50
   0  -7   1   48.70    4.80
  -1   7  -1    2.40    1.20
  -1   7  -1    1.90    1.80
   1  -7   1    1.30    1.60
  -2   7  -1  115.09    7.10
   2  -7   1  122.49    7.20
  -3   7  -1  175.28    9.40
   3  -7   1  165.28    8.90
  -4   7  -1   87.79    6.80
  -5   7  -1    2.20    2.70
   5  -7   1    5.70    2.90
  -6   7  -1   14.60    3.80
   6  -7   1   14.90    3.90
  -7   7  -1  152.48   10.40
   7  -7   1  121.89    9.20
   7  -7   1  119.59    9.30
  -8   7  -1   85.79    9.30
   8  -7   1   90.29    9.10
   8  -7   1  102.99   10.10
  -9   7  -1   12.30    5.10
   9  -7   1   13.90    4.50
   9  -7   1   12.90    5.70
   9  -7   1   17.40    6.70
  11   6  -1   14.20    5.80
  11   6  -1   12.00    6.20
  10   6  -1    8.90    4.80
  10   6  -1    8.60    4.90
  10   6  -1    9.40    2.30
   9   6  -1   73.89    5.00
   9   6  -1   66.69    8.00
   9   6  -1   64.89    7.80
   8   6  -1    4.30    3.30
   8   6  -1    3.30    2.30
   8   6  -1    3.60    3.50
   8   6  -1    1.10    1.80
   7   6  -1  169.28   10.20
   7   6  -1  148.39    9.40
   7   6  -1  150.48    8.00
   7   6  -1  160.38    7.60
   6   6  -1  215.78   11.10
   6   6  -1  205.48   11.20
   6   6  -1  220.48    9.70
   6   6  -1  220.38    9.20
   5   6  -1  329.87   12.20
   5   6  -1  313.37   12.60
   5   6  -1  303.97   13.40
   5   6  -1  311.77   13.80
   5   6  -1  319.37   10.60
  -5  -6   1  297.57   13.00
   4   6  -1   23.60    2.30
   4   6  -1   20.80    3.40
   4   6  -1   23.40    3.20
   4   6  -1   26.30    2.90
   4   6  -1   32.50    4.30
  -4  -6   1   22.30    3.10
   3   6  -1  135.49    6.20
   3   6  -1  127.99    6.10
   3   6  -1  112.49    6.80
   3   6  -1  126.19    5.90
   3   6  -1  125.69    6.70
   3   6  -1  121.79    6.80
  -3  -6   1  142.39    6.80
   2   6  -1  260.67   10.30
   2   6  -1  257.27   10.80
   2   6  -1  253.37   10.10
   2   6  -1  250.37   10.60
  -2  -6   1  265.87   10.70
   1   6  -1  328.77   12.20
   1   6  -1  313.67   12.20
   1   6  -1  328.87   12.80
   1   6  -1  311.87   12.40
   1   6  -1  331.27   10.90
  -1  -6   1  291.97   12.30
   0   6  -1  423.96   16.00
   0   6  -1  423.06   16.00
   0   6  -1  447.06   16.60
   0   6  -1  446.66   14.60
   0  -6   1  454.55   16.40
  -1   6  -1   75.19    5.10
   1  -6   1   84.09    5.20
  -2   6  -1   21.20    3.10
   2  -6   1   25.30    3.40
  -3   6  -1  239.58   10.90
   3  -6   1  219.78   10.50
  -4   6  -1   75.59    6.10
  -5   6  -1  407.46   18.00
   5  -6   1  462.45   18.30
  -6   6  -1    2.00    2.80
   6  -6   1    0.90    2.60
  -7   6  -1   34.40    5.60
   7  -6   1   18.90    4.80
   7  -6   1   29.40    5.10
  -8   6  -1   43.80    6.50
   8  -6   1   51.09    6.40
   8  -6   1   41.20    6.40
  -9   6  -1   13.20    4.50
   9  -6   1   11.10    4.10
   9  -6   1    8.30    5.60
   9  -6   1    8.50    5.10
 -10   6  -1    3.00    4.30
  10  -6   1    4.90    5.50
  10  -6   1    7.10    6.00
  10  -6   1    7.50    4.40
  11   5  -1   46.60    7.90
  11   5  -1   59.39    9.10
  11   5  -1   54.99    4.00
  10   5  -1   55.69    4.40
  10   5  -1   41.20    7.20
  10   5  -1   51.19    7.60
   9   5  -1   19.10    3.00
   9   5  -1   17.40    4.90
   9   5  -1   12.40    4.90
   8   5  -1  154.78    9.70
   8   5  -1  147.19    7.40
   8   5  -1  139.19    7.40
   8   5  -1  142.29   10.10
   7   5  -1   34.10    4.90
   7   5  -1   29.60    5.30
   7   5  -1   28.70    3.50
   7   5  -1   30.60    3.30
   6   5  -1  106.29    5.90
   6   5  -1  101.09    7.00
   6   5  -1  105.09    5.60
   6   5  -1  101.29    7.20
  -6  -5   1   98.49    6.60
   5   5  -1  492.05   17.80
   5   5  -1  482.95   17.40
   5   5  -1  484.05   19.10
   5   5  -1  488.95   18.90
  -5  -5   1  522.85   18.70
   4   5  -1  358.26   11.80
   4   5  -1  352.06   13.00
   4   5  -1  343.87   13.80
   4   5  -1  328.57   12.60
  -4  -5   1  336.97   13.40
   3   5  -1 1017.70   33.90
   3   5  -1 1035.80   33.10
   3   5  -1 1044.60   32.70
   3   5  -1 1026.80   33.50
   3   5  -1  987.30   33.90
  -3  -5   1  954.80   33.50
   2   5  -1  145.89    6.50
   2   5  -1  150.98    7.10
   2   5  -1  140.59    7.00
   2   5  -1  151.08    6.90
   2   5  -1  146.39    6.40
   2   5  -1  149.19    6.50
  -2  -5   1  142.19    6.70
   1   5  -1  860.31   28.80
   1   5  -1  858.11   27.30
   1   5  -1  791.32   28.10
   1   5  -1  891.31   28.40
   1   5  -1  841.52   28.60
  -1  -5   1  887.91   28.70
   0   5  -1   37.10    3.70
   0   5  -1   33.60    2.20
   0   5  -1   38.10    3.50
   0   5  -1   30.80    3.00
   0   5  -1   37.60    3.10
   0  -5   1   40.60    3.70
  -1   5  -1    3.70    1.90
   1  -5   1    2.50    1.70
  -2   5  -1  156.08    7.60
   2  -5   1  151.48    7.50
  -3   5  -1   47.10    4.70
   3  -5   1   40.00    4.30
  -4   5  -1  316.07   13.60
   4  -5   1  322.57   13.40
  -5   5  -1  406.76   17.70
   5  -5   1  465.25   17.90
  -6   5  -1  161.48    9.60
   6  -5   1  155.48    9.10
   6  -5   1  134.59    8.80
  -7   5  -1   19.80    4.50
   7  -5   1   19.80    4.00
   7  -5   1   22.90    4.90
  -8   5  -1   40.30    5.80
   8  -5   1   61.19    7.70
   8  -5   1   52.39    6.70
   8  -5   1   50.19    7.60
  -9   5  -1    9.00    3.90
   9  -5   1    9.50    4.60
   9  -5   1    3.40    4.40
   9  -5   1   10.90    3.70
 -10   5  -1    8.30    4.50
  10  -5   1   11.40    6.10
  10  -5   1    1.70    4.80
  10  -5   1    3.90    3.70
  11   4  -1   47.90    8.50
  11   4  -1   56.39    4.40
  11   4  -1   60.69    8.70
  10   4  -1    0.40    4.00
  10   4  -1    2.40    2.00
  10   4  -1    3.80    4.10
   9   4  -1   58.79    7.40
   9   4  -1   58.29    4.60
   9   4  -1   41.10    6.80
   8   4  -1  187.48    8.50
   8   4  -1  178.68   10.80
   8   4  -1  185.38   11.20
   8   4  -1  183.88    8.50
   7   4  -1   59.79    4.40
   7   4  -1   43.00    5.60
   7   4  -1   56.89    4.30
   7   4  -1   49.50    6.00
   6   4  -1   22.20    4.20
   6   4  -1   22.40    4.10
   6   4  -1   25.60    3.00
   6   4  -1   20.90    2.70
  -6  -4   1   21.90    3.40
   5   4  -1   47.00    3.50
   5   4  -1   41.30    4.70
   5   4  -1   42.20    3.40
   5   4  -1   47.60    4.80
  -5  -4   1   45.10    4.20
   4   4  -1  317.17   13.00
   4   4  -1  298.47   12.60
   4   4  -1  314.17   11.80
   4   4  -1  310.17   11.70
  -4  -4   1  360.36   12.60
   3   4  -1    9.70    2.40
   3   4  -1    7.00    1.80
   3   4  -1   12.00    1.50
   3   4  -1    5.70    1.40
   3   4  -1   11.70    2.60
  -3  -4   1    6.70    1.80
   2   4  -1 1498.05   47.70
   2   4  -1 1416.86   47.30
   2   4  -1 1460.35   47.90
   2   4  -1 1502.45   47.30
   2   4  -1 1498.35   47.40
   2   4  -1 1477.85   48.00
  -2  -4   1 1592.74   47.80
   1   4  -1  829.32   27.60
   1   4  -1  834.62   28.00
   1   4  -1  883.71   27.70
   1   4  -1  819.42   27.00
   1   4  -1  816.62   27.90
  -1  -4   1  905.01   27.90
   0   4  -1 1943.31   62.19
   0   4  -1 1919.41   62.09
   0   4  -1 2031.00   61.39
   0   4  -1 2025.70   62.59
   0   4  -1 2024.30   62.19
   0  -4   1 1866.81   62.19
  -1   4  -1  514.95   18.10
  -1   4  -1  526.75   18.20
   1  -4   1  532.45   18.20
  -2   4  -1  177.88    8.00
  -3   4  -1  146.49    7.30
   3  -4   1  140.19    7.10
  -4   4  -1  129.69    7.50
   4  -4   1  150.18    7.70
  -5   4  -1   30.90    4.40
   5  -4   1   28.90    3.90
  -6   4  -1  211.88   10.90
   6  -4   1  207.88   10.80
   6  -4   1  198.38   10.50
  -7   4  -1  370.26   16.80
   7  -4   1  373.66   16.70
   7  -4   1  378.16   16.50
  -8   4  -1   95.59    7.30
  -8   4  -1   88.69    9.30
   8  -4   1   96.89    9.20
   8  -4   1   92.49    7.60
   8  -4   1   73.39    8.30
  -9   4  -1   57.09    6.60
   9  -4   1   40.20    6.60
   9  -4   1   34.10    5.60
   9  -4   1   45.40    7.60
  10  -4   1   45.40    8.20
  10  -4   1   45.70    7.90
  11  -4   1   48.50    9.20
  11  -4   1   59.09   10.30
  11   3  -1  161.18   12.60
  11   3  -1  174.28   11.30
  11   3  -1  188.68   13.60
  10   3  -1   20.30    5.80
  10   3  -1   29.00    6.80
   9   3  -1   28.90    5.60
   9   3  -1   36.50    3.90
   9   3  -1   45.20    7.00
   8   3  -1   34.90    3.90
   8   3  -1   28.60    5.20
   8   3  -1   33.70    5.50
   8   3  -1   29.00    3.60
   7   3  -1   87.39    5.30
   7   3  -1   90.79    7.30
   7   3  -1   84.09    6.90
   7   3  -1   86.09    5.10
   6   3  -1  105.39    5.50
   6   3  -1  112.39    7.20
   6   3  -1  106.79    7.40
   6   3  -1  117.29    5.80
  -6  -3   1  104.89    6.50
   5   3  -1  864.81   29.90
   5   3  -1  851.51   28.30
   5   3  -1  849.32   30.00
   5   3  -1  856.21   28.50
  -5  -3   1  875.31   29.40
   4   3  -1   87.29    4.30
   4   3  -1   85.89    5.50
   4   3  -1   86.49    5.40
   4   3  -1   89.49    4.40
  -4  -3   1   81.69    4.90
   3   3  -1  708.63   22.90
   3   3  -1  690.83   22.10
   3   3  -1  681.53   23.70
   3   3  -1  687.13   23.90
   3   3  -1  699.73   23.00
  -3  -3   1  728.53   24.20
   2   3  -1   10.70    1.50
   2   3  -1   11.30    2.10
   2   3  -1   14.30    1.90
   2   3  -1   11.00    2.10
   2   3  -1   13.20    1.50
  -2  -3   1   11.60    1.60
   1   3  -1  123.69    6.00
   1   3  -1  145.79    5.60
   1   3  -1  148.69    6.00
   1   3  -1  144.39    5.60
   1   3  -1  143.59    5.40
   1   3  -1  148.19    5.80
   1   3  -1  142.79    6.10
  -1  -3   1  136.29    5.70
   0   3  -1 1158.18   36.90
   0   3  -1 1145.79   36.50
   0   3  -1 1168.18   36.60
   0   3  -1 1169.28   36.10
   0   3  -1 1128.69   36.70
   0  -3   1 1115.99   36.60
  -1   3  -1 1158.78   37.30
  -1   3  -1 1138.59   37.40
   1  -3   1 1191.68   37.40
  -2   3  -1  437.16   15.60
  -3   3  -1    1.90    1.80
   3  -3   1    3.20    1.60
  -4   3  -1  317.17   13.40
   4  -3   1  360.36   13.60
   5  -3   1   50.39    5.10
   5  -3   1   43.90    4.40
  -6   3  -1  235.38   11.40
   6  -3   1  233.28   11.50
   6  -3   1  227.98   11.00
  -7   3  -1  295.97   14.30
   7  -3   1  302.27   13.90
   7  -3   1  279.97   14.10
   7  -3   1  330.97   15.10
  -8   3  -1   74.19    7.90
  -8   3  -1   66.79    6.50
   8  -3   1   65.69    7.80
   8  -3   1   66.89    7.10
   8  -3   1   55.99    6.80
  -9   3  -1   -0.50    2.80
   9  -3   1   -3.00    3.80
   9  -3   1   -0.70    3.50
   9  -3   1    2.50    2.80
  10  -3   1   27.90    7.20
  10  -3   1   37.10    7.20
  11  -3   1    8.70    6.20
  11  -3   1   18.50    6.60
  11   2  -1    5.70    4.90
  11   2  -1   -6.50    4.40
  10   2  -1   16.30    5.80
  10   2  -1   15.10    5.30
   9   2  -1   99.09    9.70
   9   2  -1   83.69    5.80
   9   2  -1   90.19    8.90
   8   2  -1   63.89    4.60
   8   2  -1   77.09    7.80
   8   2  -1   65.99    7.50
   8   2  -1   74.89    5.10
   7   2  -1  339.47   13.30
   7   2  -1  339.17   15.40
   7   2  -1  343.17   15.30
   7   2  -1  344.57   12.80
   6   2  -1  261.67   10.30
   6   2  -1  271.27   12.50
   6   2  -1  261.27   10.70
   6   2  -1  272.37   12.40
  -6  -2   1  304.27   12.10
   5   2  -1  274.67    9.80
   5   2  -1  271.57   11.70
   5   2  -1  267.37   10.30
   5   2  -1  260.17   11.30
  -5  -2   1  247.78   10.80
   4   2  -1  727.13   23.80
   4   2  -1  724.03   25.40
   4   2  -1  720.83   25.20
   4   2  -1  729.83   24.10
  -4  -2   1  753.22   24.80
   3   2  -1  115.29    4.70
   3   2  -1  109.19    4.80
   3   2  -1  112.99    5.80
   3   2  -1  110.79    5.70
  -3  -2   1  121.59    4.30
   2   2  -1 1523.75   47.70
   2   2  -1 1551.14   47.40
   2   2  -1 1526.35   48.50
   2   2  -1 1501.05   48.40
   2   2  -1 1512.75   47.60
   1   2  -1  303.07   10.40
   1   2  -1  306.97   10.10
   1   2  -1  299.37   10.70
   1   2  -1  310.57   10.20
   1   2  -1  307.47   10.40
   1   2  -1  302.97   10.40
  -1  -2   1  325.17   10.70
   0   2  -1 1096.39   34.40
   0   2  -1 1072.99   34.20
   0   2  -1 1009.20   34.40
   0  -2   1 1193.08   34.60
  -1   2  -1 1141.79   38.90
  -1   2  -1 1269.57   38.90
   1  -2   1 1265.57   39.00
  -2   2  -1  146.59    6.50
   2  -2   1  151.38    6.40
  -3   2  -1 1138.69   35.50
   3  -2   1 1008.80   35.10
  -4   2  -1  416.06   15.70
   4  -2   1  413.66   15.60
  -5   2  -1  334.47   14.90
   5  -2   1  400.86   15.20
   5  -2   1  419.06   15.60
  -6   2  -1   89.09    6.40
   6  -2   1   84.89    6.10
   6  -2   1   84.99    6.50
   6  -2   1   85.39    6.00
  -7   2  -1   79.49    6.70
  -7   2  -1   66.39    5.40
   7  -2   1   63.09    6.90
   7  -2   1   81.39    7.70
   7  -2   1   69.79    6.00
  -8   2  -1   84.99    8.00
  -8   2  -1   73.99    5.80
   8  -2   1   69.99    6.80
   8  -2   1   75.39    7.90
   8  -2   1   68.59    7.50
  -9   2  -1   12.10    3.30
   9  -2   1    9.00    4.70
   9  -2   1   14.60    3.40
   9  -2   1    4.30    4.20
  10  -2   1   92.99   10.20
  10  -2   1  109.69   10.90
  11  -2   1   22.20    6.80
  11  -2   1   24.80    7.10
  11   1  -1   28.60    7.50
  11   1  -1   20.90    6.50
  10   1  -1   90.29   10.10
  10   1  -1   94.39   10.00
   9   1  -1   63.29    7.60
   9   1  -1   72.69    8.20
   8   1  -1   70.19    5.10
   8   1  -1   67.89    4.70
   8   1  -1   78.99    8.20
   8   1  -1   67.19    7.60
   7   1  -1  230.38   11.80
   7   1  -1  209.48    9.60
   7   1  -1  221.58   11.40
   7   1  -1  230.08    9.10
  -7  -1   1  208.08   15.00
   6   1  -1   60.49    6.10
   6   1  -1   50.39    5.60
   6   1  -1   62.79    3.70
   6   1  -1   62.19    4.30
  -6  -1   1   41.30    4.40
   5   1  -1  125.29    7.40
   5   1  -1  132.89    7.50
   5   1  -1  132.49    5.70
   5   1  -1  142.39    6.30
  -5  -1   1  133.79    6.90
   4   1  -1   30.50    2.30
   4   1  -1   29.20    2.60
   4   1  -1   31.00    3.70
   4   1  -1   35.00    3.90
  -4  -1   1   29.90    3.00
   3   1  -1  500.65   18.10
   3   1  -1  516.75   16.80
   3   1  -1  505.85   17.20
   3   1  -1  520.55   18.10
  -3  -1   1  555.44   18.10
   2   1  -1 4203.98  128.39
   2   1  -1 4196.58  127.69
   2   1  -1 4073.89  128.29
   2   1  -1 4055.59  127.49
   1   1  -1  120.99    4.70
   1   1  -1  118.89    4.70
   1   1  -1  117.49    4.30
   1   1  -1  117.59    4.20
   1   1  -1  121.99    4.60
   0   1  -1 1744.53   54.39
   0   1  -1 1757.72   54.59
   0   1  -1 1794.82   54.59
   0   1  -1 1756.12   54.19
   0   1  -1 1787.02   54.19
   0  -1   1 1679.93   54.19
  -1   1  -1 1091.19   32.10
  -1   1  -1  956.20   31.80
  -1   1  -1  936.41   31.80
   1  -1   1 1056.09   31.90
  -2   1  -1 7161.88  243.68
   2  -1   1 8649.83  246.38
  -3   1  -1  399.86   14.70
   3  -1   1  422.46   14.70
  -4   1  -1  326.37   12.40
   4  -1   1  306.17   12.20
   4  -1   1  301.57   12.00
  -5   1  -1  162.18    8.20
   5  -1   1  160.78    8.30
   5  -1   1  153.48    7.80
   5  -1   1  167.88    8.40
   5  -1   1  163.48    7.90
  -6   1  -1  267.67   12.20
  -6   1  -1  261.87   10.90
   6  -1   1  274.27   11.80
   6  -1   1  265.77   12.30
   6  -1   1  284.07   12.00
   6  -1   1  268.27   12.30
  -7   1  -1   17.20    3.50
  -7   1  -1   22.40    3.20
   7  -1   1   27.00    4.80
   7  -1   1   20.90    3.70
   7  -1   1   22.90    3.40
   7  -1   1   26.80    4.80
  -8   1  -1   68.89    5.20
  -8   1  -1   59.19    6.40
   8  -1   1   75.09    7.90
   8  -1   1   72.69    7.70
   8  -1   1   66.79    5.50
   9  -1   1   17.00    3.60
   9  -1   1   13.80    4.50
   9  -1   1   20.30    5.30
  10  -1   1   32.10    6.60
  10  -1   1   35.80    6.90
  11  -1   1    2.80    5.20
  11  -1   1   16.30    6.20
  11   0  -1   17.90    6.20
  11   0  -1   11.90    6.20
  10   0  -1   92.69   10.10
   9   0  -1   62.09    7.90
   9   0  -1   45.90    7.30
   8   0  -1   24.00    5.30
   8   0  -1   15.30    4.20
   8   0  -1   24.20    3.20
   8   0  -1   19.50    3.20
   7   0  -1   50.99    6.10
   7   0  -1   55.89    4.50
   7   0  -1   60.99    6.60
   7   0  -1   54.39    4.00
  -7   0   1   46.30    6.00
   6   0  -1   80.79    7.10
   6   0  -1   78.49    6.00
   6   0  -1   74.59    4.30
   6   0  -1   76.39    4.90
  -6   0   1   81.29    5.70
   5   0  -1  367.16   14.80
   5   0  -1  373.26   12.80
   5   0  -1  336.37   13.40
   5   0  -1  372.56   14.80
  -5   0   1  381.06   14.30
   4   0  -1 1914.11   59.79
   4   0  -1 1911.31   61.59
   4   0  -1 1897.21   61.39
   4   0  -1 1867.11   60.49
  -4   0   1 1960.80   61.09
   3   0  -1  871.51   29.00
   3   0  -1  882.11   29.20
   3   0  -1  844.62   28.20
   3   0  -1  871.81   27.70
  -3   0   1  910.41   28.60
   2   0  -1 3351.76  105.49
   2   0  -1 3428.16  105.39
   2   0  -1 3396.16  104.39
   2   0  -1 3371.16  104.79
  -2   0   1 3385.76  104.99
   1   0  -1  522.75   17.30
   1   0  -1  546.95   17.40
  -1   0  -1  579.94   17.80
  -1   0  -1  579.64   17.70
  -1   0  -1  495.05   17.70
   1   0   1  562.54   17.80
  -2   0  -1  497.35   16.00
  -2   0  -1  464.25   16.40
   2   0   1  491.15   16.40
   2   0   1  501.35   16.40
  -3   0  -1  557.14   18.20
  -3   0  -1  528.75   18.90
   3   0   1  550.64   19.00
   3   0   1  574.04   18.90
  -4   0  -1  670.93   21.30
  -4   0  -1  602.44   22.20
   4   0   1  655.43   22.20
   4   0   1  615.94   22.00
   4   0   1  638.34   22.30
   4   0   1  650.63   22.10
  -5   0  -1 1123.19   38.20
  -5   0  -1 1166.78   36.80
   5   0   1 1166.78   38.40
   5   0   1 1169.88   37.90
   5   0   1 1117.09   38.00
   5   0   1 1138.99   37.20
   5   0   1 1064.59   37.60
  -6   0  -1  272.27   11.70
  -6   0  -1  252.97    9.90
   6   0   1  250.27   10.40
   6   0   1  247.28   11.40
   6   0   1  242.18   11.50
   6   0   1  241.68   11.00
  -7   0  -1  189.78   10.30
  -7   0  -1  201.08    8.60
   7   0   1  209.08   10.60
   7   0   1  186.08    9.00
   7   0   1  208.98   10.90
   7   0   1  198.68    9.90
  -8   0  -1  330.97   15.50
  -8   0  -1  330.87   13.00
   8   0   1  331.67   15.60
   8   0   1  321.97   15.40
   8   0   1  334.17   13.70
   9   0   1    8.00    4.40
   9   0   1   12.00    4.50
   9   0   1   13.60    3.20
  10   0   1  113.19   11.10
  10   0   1  121.09   10.10
  11   0   1   14.00    5.60
  11   0   1   12.90    5.60
  11  -1  -1   13.30    6.00
  11  -1  -1   -1.50    5.20
  10  -1  -1   14.40    4.90
  10  -1  -1   15.00    6.10
   9  -1  -1    9.80    4.10
   9  -1  -1    7.20    4.50
   8  -1  -1  128.29    6.90
   8  -1  -1  143.99    9.40
   8  -1  -1  133.89    9.70
   7  -1  -1  655.73   25.00
   7  -1  -1  633.94   22.00
   7  -1  -1  644.44   24.70
   7  -1  -1  638.64   22.90
  -7   1   1  583.74   26.50
   6  -1  -1   46.80    5.30
   6  -1  -1   40.90    4.10
   6  -1  -1   46.00    3.50
   6  -1  -1   37.70    5.10
  -6   1   1   34.30    4.00
   5  -1  -1  380.66   15.00
   5  -1  -1  382.16   15.20
   5  -1  -1  377.76   13.90
  -5   1   1  343.97   14.40
   4  -1  -1  875.41   29.50
   4  -1  -1  900.01   30.50
   4  -1  -1  902.51   30.30
   4  -1  -1  900.01   29.60
  -4   1   1  890.01   30.00
   3  -1  -1 1580.84   49.70
   3  -1  -1 1544.05   50.39
   3  -1  -1 1544.25   50.09
   3  -1  -1 1529.45   49.70
  -3   1   1 1632.84   50.09
   2  -1  -1 3572.14  110.49
   2  -1  -1 3638.24  110.29
   2  -1  -1 3592.34  109.99
   2  -1  -1 3463.95  109.99
  -2   1   1 3460.45  110.09
   1  -1  -1 1927.71   58.19
   1  -1  -1 1919.81   58.19
   1  -1  -1 1913.91   58.19
  -1   1   1 1732.43   58.19
   0  -1  -1  914.71   28.80
   0  -1  -1  950.10   28.80
   0   1   1  923.11   28.70
   0   1   1  913.31   28.90
  -1  -1  -1 1421.96   43.80
  -1  -1  -1 1369.26   43.30
   1   1   1 1396.76   43.80
   1   1   1 1391.56   43.60
   1   1   1 1415.46   43.30
  -2  -1  -1   25.40    1.50
  -2  -1  -1   23.50    2.20
   2   1   1   22.90    2.10
   2   1   1   28.60    1.80
   2   1   1   27.80    2.20
   2   1   1   28.00    2.60
   2   1   1   26.20    2.10
  -3  -1  -1 9999.00  295.07
  -3  -1  -1 9057.49  295.17
   3   1   1 9922.31  296.07
   3   1   1 8666.43  294.97
   3   1   1 9964.10  296.97
   3   1   1 9757.62  295.77
  -4  -1  -1 1270.67   40.10
  -4  -1  -1 1335.27   41.70
   4   1   1 1266.57   40.90
   4   1   1 1223.78   41.30
   4   1   1 1262.27   41.70
   4   1   1 1272.67   41.30
  -5  -1  -1  506.65   16.40
  -5  -1  -1  485.15   18.10
   5   1   1  498.65   18.10
   5   1   1  475.55   18.30
   5   1   1  472.85   17.70
   5   1   1  479.25   17.20
  -6  -1  -1  261.87    9.70
  -6  -1  -1  275.07   11.90
   6   1   1  268.47   11.30
   6   1   1  258.47   10.70
   6   1   1  263.07   11.70
   6   1   1  266.57   12.00
  -7  -1  -1  507.05   17.70
   7   1   1  542.55   19.00
   7   1   1  514.25   19.70
   7   1   1  524.35   20.80
   7   1   1  500.45   20.20
  -8  -1  -1  400.36   14.50
  -8  -1  -1  410.36   17.80
   8   1   1  400.66   15.80
   8   1   1  394.06   17.50
   8   1   1  405.96   18.10
   9   1   1  424.36   16.50
   9   1   1  397.96   18.50
   9   1   1  404.36   18.90
  10   1   1    4.40    4.10
  10   1   1    5.20    4.10
  11   1   1   18.90    6.00
  11   1   1   20.70    6.40
  12   1   1  114.09   12.60
  12   1   1  129.29   13.10
  11  -2  -1   18.50    7.00
  11  -2  -1   16.10    6.10
  10  -2  -1   33.00    6.90
  10  -2  -1   30.10    6.80
   9  -2  -1    8.20    4.20
   9  -2  -1   19.10    5.10
   8  -2  -1  118.59    8.70
   8  -2  -1  131.89    6.90
   8  -2  -1  118.19    9.50
   7  -2  -1  197.38    9.40
   7  -2  -1  182.48   10.60
   7  -2  -1  197.68   11.30
   6  -2  -1   87.09    5.50
   6  -2  -1   85.39    6.70
   6  -2  -1   85.39    6.30
   6  -2  -1   90.79    5.90
  -6   2   1   91.59    6.30
   5  -2  -1  140.39    7.80
   5  -2  -1  139.89    8.00
   5  -2  -1  152.78    7.40
   5  -2  -1  159.58    7.30
  -5   2   1  136.99    7.60
   4  -2  -1  921.01   28.80
   4  -2  -1  863.11   29.10
   4  -2  -1  859.51   29.60
   4  -2  -1  814.82   28.60
  -4   2   1  817.22   28.90
   3  -2  -1 1590.34   51.49
   3  -2  -1 1665.43   51.39
   3  -2  -1 1629.44   51.39
  -3   2   1 1547.55   51.49
   2  -2  -1  875.91   27.10
   2  -2  -1  865.41   27.10
   2  -2  -1  813.62   27.10
  -2   2   1  777.52   27.10
   1  -2  -1 1387.36   46.40
  -1   2   1 1604.94   46.40
  -1   2   1 1434.76   46.50
   0  -2  -1 2446.46   76.39
   0  -2  -1 2424.36   75.89
   0   2   1 2495.35   75.79
   0   2   1 2460.95   76.39
  -1  -2  -1  699.33   21.50
   1   2   1  650.73   20.90
   1   2   1  647.44   21.00
   1   2   1  654.93   21.40
  -2  -2  -1 3130.09  104.09
   2   2   1 3117.69  103.99
   2   2   1 3446.36  103.99
   2   2   1 3538.45  103.69
   2   2   1 3496.55  103.99
  -3  -2  -1 1276.87   40.60
   3   2   1 1253.47   40.10
   3   2   1 1208.78   40.40
   3   2   1 1267.37   38.90
   3   2   1 1273.67   40.60
   3   2   1 1260.57   40.20
  -4  -2  -1  584.74   18.50
  -4  -2  -1  592.64   20.60
   4   2   1  574.44   20.20
   4   2   1  597.24   20.40
   4   2   1  590.84   20.70
   4   2   1  592.34   20.00
  -5  -2  -1  130.99    6.90
  -5  -2  -1  130.09    4.70
   5   2   1  124.49    6.70
   5   2   1  134.29    6.30
   5   2   1  134.79    7.20
   5   2   1  141.69    6.80
  -6  -2  -1   30.30    1.90
  -6  -2  -1   30.20    3.60
   6   2   1   31.80    4.00
   6   2   1   35.30    3.70
   6   2   1   32.00    3.60
   6   2   1   30.50    4.20
  -7  -2  -1  205.08   10.60
  -7  -2  -1  212.38    7.50
   7   2   1  207.58    9.50
   7   2   1  213.08   10.90
   7   2   1  213.68   10.70
   7   2   1  231.18   10.20
  -8  -2  -1  173.48   10.90
   8   2   1  186.48   10.80
   8   2   1  174.98    8.80
   8   2   1  182.38   10.40
   9   2   1    9.20    4.30
   9   2   1    4.30    3.70
   9   2   1   12.80    3.30
  10   2   1   58.09    7.80
  10   2   1   54.09    7.80
  11   2   1   57.49    8.20
  11   2   1   56.39    8.70
  12   2   1   57.19    9.60
  12   2   1   45.90    8.40
  11  -3  -1    1.60    5.90
  11  -3  -1    0.60    5.70
  10  -3  -1   35.20    7.60
  10  -3  -1   20.00    5.90
   9  -3  -1   29.20    6.40
   9  -3  -1   34.10    6.10
   8  -3  -1   85.19    8.60
   8  -3  -1   77.39    8.40
   7  -3  -1  140.89    8.10
   7  -3  -1  131.79    8.90
   7  -3  -1  129.79    9.10
   6  -3  -1   87.59    7.90
   6  -3  -1   73.39    5.30
   6  -3  -1   75.19    7.00
   6  -3  -1   78.99    5.80
  -6   3   1   89.69    6.40
   5  -3  -1  209.78    9.60
   5  -3  -1  222.78   10.20
   5  -3  -1  196.58   10.50
   5  -3  -1  211.88    9.50
  -5   3   1  231.68   10.40
   4  -3  -1  797.22   26.10
   4  -3  -1  762.62   26.10
   4  -3  -1  752.22   26.20
  -4   3   1  718.53   26.30
   3  -3  -1  138.59    6.50
   3  -3  -1  128.19    6.40
   3  -3  -1  129.09    6.40
  -3   3   1  147.59    6.80
   2  -3  -1 2786.12   88.19
   2  -3  -1 2675.13   88.19
  -2   3   1 2968.10   88.39
   1  -3  -1  590.34   19.50
  -1   3   1  583.34   19.50
  -1   3   1  564.64   19.30
   0  -3  -1  899.71   29.10
   0   3   1  910.01   28.00
   0   3   1  893.11   29.10
  -1  -3  -1  263.07    9.70
   1   3   1  268.77    9.20
  -2  -3  -1  778.32   27.60
   2   3   1  845.62   27.40
   2   3   1  853.21   27.10
   2   3   1  838.72   27.50
   2   3   1  907.71   27.80
  -3  -3  -1  312.77   12.10
   3   3   1  325.27   11.60
   3   3   1  333.67   11.90
   3   3   1  322.27   12.00
   3   3   1  334.17   12.00
  -4  -3  -1  868.61   28.70
   4   3   1  831.52   28.10
   4   3   1  834.32   28.40
   4   3   1  823.52   28.60
   4   3   1  870.51   28.10
  -5  -3  -1  288.27   12.00
   5   3   1  307.27   11.70
   5   3   1  276.57   12.00
   5   3   1  287.17   11.20
   5   3   1  280.17   11.50
  -6  -3  -1  151.68    8.30
   6   3   1  159.08    8.20
   6   3   1  162.08    8.90
   6   3   1  163.38    7.60
   6   3   1  153.98    7.80
  -7  -3  -1   40.40    5.10
   7   3   1   41.50    5.00
   7   3   1   44.80    4.40
   7   3   1   40.80    4.40
   7   3   1   61.29    6.40
   8   3   1  476.25   20.40
   8   3   1  480.65   18.20
   8   3   1  472.85   19.50
   9   3   1  123.89    7.30
   9   3   1  114.79   10.30
   9   3   1  108.79    8.60
  10   3   1    8.40    4.50
  10   3   1    7.90    4.70
  11   3   1    9.30    4.90
  11   3   1    9.50    5.60
  12   3   1   13.60    7.00
  12   3   1   20.50    6.40
  10  -4  -1   30.10    7.50
  10  -4  -1   46.30    8.00
   9  -4  -1   22.50    5.60
   9  -4  -1   19.30    5.80
   8  -4  -1   25.80    5.40
   8  -4  -1   23.50    4.20
   8  -4  -1   28.60    6.10
   7  -4  -1  149.49    8.90
   7  -4  -1  164.58   10.50
   7  -4  -1  155.08    9.60
   6  -4  -1  466.35   18.90
   6  -4  -1  469.65   19.80
   6  -4  -1  447.46   18.30
   6  -4  -1  479.05   19.90
  -6   4   1  486.25   19.20
   5  -4  -1  328.87   14.00
   5  -4  -1  332.17   13.80
   5  -4  -1  331.97   13.70
  -5   4   1  346.87   14.30
   4  -4  -1  177.98    8.60
   4  -4  -1  196.98    8.70
   4  -4  -1  189.48    8.70
  -4   4   1  162.78    8.70
   3  -4  -1   15.80    2.40
   3  -4  -1   18.20    2.70
  -3   4   1   20.40    2.90
   2  -4  -1  329.37   12.00
   2  -4  -1  315.77   12.00
  -2   4   1  305.07   12.10
   1  -4  -1 3669.73  116.39
  -1   4   1 3856.71  116.49
  -1   4   1 3649.14  116.29
   0  -4  -1  215.08    8.70
   0   4   1  228.98    8.80
   0   4   1  230.08    8.80
  -1  -4  -1  902.21   32.10
   1   4   1 1029.10   31.60
   1   4   1 1031.60   32.30
  -2  -4  -1  886.81   28.90
   2   4   1  959.10   30.00
   2   4   1  892.61   28.50
   2   4   1  770.62   28.20
   2   4   1  876.61   28.80
  -3  -4  -1  889.61   30.30
   3   4   1  926.01   30.10
   3   4   1  926.81   30.20
   3   4   1  899.11   30.20
   3   4   1  911.81   29.70
  -4  -4  -1  466.65   16.60
   4   4   1  451.05   15.90
   4   4   1  451.15   16.50
   4   4   1  404.76   16.00
   4   4   1  453.65   16.00
  -5  -4  -1   95.09    5.80
   5   4   1   88.69    5.20
   5   4   1   84.39    5.40
   5   4   1   97.69    5.60
   5   4   1   95.89    6.10
  -6  -4  -1   14.60    2.90
   6   4   1   22.50    4.10
   6   4   1   23.60    3.20
   6   4   1   25.70    3.70
   6   4   1   17.80    2.90
  -7  -4  -1  354.36   15.90
   7   4   1  366.86   15.50
   7   4   1  381.56   16.40
   7   4   1  388.96   15.30
   7   4   1  379.46   14.70
   8   4   1  276.27   12.20
   8   4   1  282.37   13.30
   8   4   1  289.07   14.30
   9   4   1  238.98   12.80
   9   4   1  239.28   13.50
   9   4   1  232.88   11.10
  10   4   1    7.30    4.50
  10   4   1    6.00    4.20
  11   4   1   50.99    7.60
  11   4   1   38.50    7.80
  12   4   1   51.49    8.90
  12   4   1   59.59    9.30
  10  -5  -1   12.50    6.80
  10  -5  -1    4.00    5.20
   9  -5  -1  185.58   12.80
   9  -5  -1  158.18   11.80
   8  -5  -1  114.99    9.10
   8  -5  -1  103.99   10.50
   8  -5  -1  117.49    8.30
   7  -5  -1   21.40    4.70
   7  -5  -1   19.90    4.00
   7  -5  -1   12.60    4.90
   6  -5  -1   97.19    7.20
   6  -5  -1  100.19    7.00
  -6   5   1   91.19    7.40
   5  -5  -1  314.97   13.30
   5  -5  -1  287.37   13.10
   5  -5  -1  300.87   13.00
  -5   5   1  312.57   13.70
   4  -5  -1  208.18    9.60
   4  -5  -1  197.58    9.60
  -4   5   1  206.78   10.00
   3  -5  -1  248.18    9.70
   3  -5  -1  166.88    8.90
  -3   5   1  206.58    9.60
   2  -5  -1  285.67   11.50
   1  -5  -1  384.86   14.00
  -1   5   1  348.97   13.70
  -1   5   1  372.86   13.90
   0  -5  -1  289.47   11.30
   0   5   1  296.07   11.30
  -1  -5  -1  596.74   21.20
   1   5   1  619.74   21.20
   1   5   1  625.24   20.50
  -2  -5  -1 1311.27   45.30
   2   5   1 1445.36   44.80
   2   5   1 1437.06   45.40
  -3  -5  -1  637.64   24.10
   3   5   1  735.33   23.70
   3   5   1  714.03   24.20
   3   5   1  703.13   24.00
   3   5   1  733.73   24.20
  -4  -5  -1   34.80    3.80
   4   5   1   41.60    4.20
   4   5   1   35.00    3.60
   4   5   1   37.00    3.60
   4   5   1   38.80    3.80
  -5  -5  -1   50.39    4.80
   5   5   1   61.19    5.60
   5   5   1   55.49    4.40
   5   5   1   57.49    4.50
   5   5   1   61.49    4.40
  -6  -5  -1  164.28    9.00
   6   5   1  181.78    8.60
   6   5   1  168.58    8.60
   6   5   1  171.68    9.30
   6   5   1  175.28    8.40
  -7  -5  -1    4.40    2.50
   7   5   1    3.90    2.90
   7   5   1    7.20    3.40
   7   5   1    7.80    2.40
   7   5   1    6.30    2.70
   8   5   1  165.38    9.00
   8   5   1  184.78   10.90
   8   5   1  167.68    9.80
   9   5   1    5.70    4.00
   9   5   1    2.10    2.70
   9   5   1    4.80    3.50
  10   5   1   16.10    4.90
  10   5   1   20.50    5.50
  11   5   1  111.69   10.60
  11   5   1   97.29   10.70
  12   5   1   41.00    8.30
  12   5   1   45.70    8.30
  10  -6  -1   78.79   10.90
  10  -6  -1   70.09    9.60
 -10   6   1   70.69    9.70
   9  -6  -1    8.50    4.80
   9  -6  -1    5.20    3.60
   9  -6  -1    8.80    5.50
   8  -6  -1   37.20    5.90
   8  -6  -1   36.70    5.60
   8  -6  -1   32.40    6.80
   7  -6  -1  100.59    7.60
   7  -6  -1   78.29    8.70
   7  -6  -1  102.79    8.00
   6  -6  -1   41.20    5.30
   6  -6  -1   37.40    5.40
  -6   6   1   45.80    6.00
   5  -6  -1  479.95   19.00
   5  -6  -1  483.15   19.30
  -5   6   1  501.75   19.90
   4  -6  -1  319.57   14.20
   4  -6  -1  344.07   14.20
  -4   6   1  362.86   14.90
   3  -6  -1   29.80    3.80
  -3   6   1   29.00    3.80
   2  -6  -1  211.58    9.60
   1  -6  -1  595.04   22.10
  -1   6   1  648.74   22.30
  -1   6   1  631.94   22.30
   0  -6  -1  852.51   28.80
   0   6   1  848.62   28.80
   0   6   1  830.22   28.80
  -1  -6  -1  471.55   16.80
   1   6   1  449.66   15.80
   1   6   1  435.26   16.70
   2   6   1  547.25   19.30
   2   6   1  573.04   20.10
  -3  -6  -1  151.98    7.50
   3   6   1  153.68    7.50
   3   6   1  141.99    7.10
   3   6   1  149.59    7.30
  -4  -6  -1    6.60    2.10
   4   6   1    5.80    2.20
   4   6   1    6.80    2.10
   4   6   1    5.90    2.40
   4   6   1    7.80    2.50
  -5  -6  -1  736.63   26.30
   5   6   1  722.93   25.60
   5   6   1  748.23   25.80
   5   6   1  723.33   25.70
   5   6   1  726.83   23.20
   5   6   1  728.33   26.20
  -6  -6  -1   16.70    3.50
   6   6   1   18.90    3.20
   6   6   1   11.00    3.50
   6   6   1   11.30    3.00
   6   6   1   13.80    3.10
  -7  -6  -1   16.00    3.70
   7   6   1   19.50    3.60
   7   6   1   15.90    3.90
   7   6   1   19.30    3.80
   7   6   1   18.30    4.90
   8   6   1  491.65   21.20
   8   6   1  506.45   20.40
   8   6   1  519.55   19.70
   9   6   1  198.68   12.20
   9   6   1  200.78   10.20
   9   6   1  183.78   10.90
  10   6   1   10.90    4.60
  10   6   1    4.10    4.50
  11   6   1   38.70    6.90
  11   6   1   40.10    7.50
   9  -7  -1   14.20    5.40
   9  -7  -1    6.80    4.30
   9  -7  -1    5.90    5.40
   8  -7  -1   54.49    6.60
   8  -7  -1   48.50    7.40
   8  -7  -1   45.70    6.90
   7  -7  -1  101.59    8.10
   7  -7  -1   89.79    7.80
   6  -7  -1    0.90    2.90
   6  -7  -1    3.40    2.70
  -6   7   1   -1.10    2.70
   5  -7  -1  274.97   12.40
   5  -7  -1  272.07   12.80
  -5   7   1  239.08   12.90
   4  -7  -1   22.60    4.00
  -4   7   1   12.40    3.10
   3  -7  -1  175.78    8.90
  -3   7   1  154.58    8.90
   2  -7  -1  100.69    6.30
  -2   7   1   88.19    6.20
   1  -7  -1  474.85   17.90
  -1   7   1  469.25   17.90
  -1   7   1  466.55   17.90
   0  -7  -1  189.68    8.60
   0   7   1  163.68    8.30
   0   7   1  161.88    8.50
  -1  -7  -1   20.80    3.00
   1   7   1   30.40    3.10
   1   7   1   25.60    3.20
   1   7   1   30.40    4.00
  -2  -7  -1  265.97   11.20
   2   7   1  253.77   10.30
   2   7   1  254.07   11.10
  -3  -7  -1   94.79    6.20
   3   7   1  112.79    6.20
   3   7   1  101.09    5.80
   3   7   1   96.99    6.20
  -4  -7  -1  300.67   12.60
   4   7   1  277.77   12.00
   4   7   1  301.77   12.20
   4   7   1  281.47   12.30
   4   7   1  287.87   11.90
  -5  -7  -1   68.59    5.50
   5   7   1   64.89    5.40
   5   7   1   61.09    3.40
   5   7   1   49.90    5.20
   5   7   1   59.19    4.80
   5   7   1   67.29    5.00
  -6  -7  -1  232.48   11.60
   6   7   1  230.38   10.90
   6   7   1  243.38   11.80
   6   7   1  220.08   10.80
   6   7   1  253.67   11.10
   7   7   1   31.10    4.30
   7   7   1   24.40    4.50
   7   7   1   31.00    5.20
   8   7   1   39.80    6.20
   8   7   1   35.40    4.80
   8   7   1   38.50    5.50
   9   7   1   32.70    4.90
   9   7   1   40.10    6.00
   9   7   1   31.60    6.10
  10   7   1   13.70    5.20
  10   7   1   16.70    5.20
  10   7   1   18.80    5.50
  11   7   1   33.50    6.80
  11   7   1   22.40    6.50
   9  -8  -1   21.00    7.40
   9  -8  -1   19.80    6.00
   9  -8  -1   16.10    5.00
   8  -8  -1  114.59    9.50
   8  -8  -1  110.09    9.10
   8  -8  -1  122.39   12.40
   7  -8  -1   28.60    5.70
   7  -8  -1   26.40    5.20
   6  -8  -1   56.79    6.70
   6  -8  -1   53.19    6.30
   5  -8  -1   23.60    4.40
  -5   8   1   22.90    4.90
   4  -8  -1   18.30    3.60
  -4   8   1   28.70    5.00
   3  -8  -1  330.47   14.70
  -3   8   1  348.87   15.20
   2  -8  -1  424.76   16.60
  -2   8   1  365.06   16.10
   1  -8  -1   72.39    5.50
  -1   8   1   67.09    6.10
  -1   8   1   63.09    5.40
   0  -8  -1  119.49    7.20
   0   8   1  135.99    7.50
   0   8   1  127.69    7.60
  -1  -8  -1  227.18   10.50
   1   8   1  222.78   10.60
   1   8   1  234.78    9.70
   1   8   1  232.18   10.60
  -2  -8  -1   79.39    5.60
   2   8   1   66.59    4.60
   2   8   1   66.29    5.20
   2   8   1   71.09    5.60
  -3  -8  -1   19.90    3.20
   3   8   1   28.00    3.50
   3   8   1   23.50    3.70
   3   8   1   22.70    3.40
  -4  -8  -1  208.08   10.30
   4   8   1  200.18   10.00
   4   8   1  204.08    9.80
   4   8   1  202.68    9.70
  -5  -8  -1  113.49    7.60
   5   8   1  121.49    7.50
   5   8   1  116.69    7.10
   5   8   1  135.59    7.50
   5   8   1  120.39    7.50
  -6  -8  -1  160.88    9.70
   6   8   1  194.98    9.50
   6   8   1  172.28    9.80
   6   8   1  176.98    9.50
   7   8   1   76.49    7.70
   7   8   1   80.79    7.20
   7   8   1   82.19    6.60
   8   8   1   67.09    7.00
   8   8   1   67.29    6.70
   8   8   1   60.59    7.40
   9   8   1   38.50    5.60
   9   8   1   39.70    6.10
   9   8   1   36.40    6.30
  10   8   1   19.70    5.60
  10   8   1   34.10    6.30
  10   8   1   30.60    5.40
  11   8   1   22.00    6.80
  11   8   1    4.70    4.70
   8  -9  -1   16.00    6.80
   8  -9  -1   23.00    5.20
   8  -9  -1   24.20    5.80
   7  -9  -1    3.60    3.50
   7  -9  -1    7.70    4.40
   6  -9  -1   35.50    5.60
   6  -9  -1   33.70    5.60
   5  -9  -1   63.89    7.20
  -5   9   1   43.40    6.00
   4  -9  -1  285.57   14.00
  -4   9   1  290.07   14.40
   3  -9  -1  123.59    8.40
  -3   9   1  143.79    9.10
   2  -9  -1   29.70    4.40
  -2   9   1   34.80    4.90
   1  -9  -1   27.10    4.20
  -1   9   1   14.60    3.10
  -1   9   1   20.60    1.80
   0  -9  -1   23.30    3.80
   0   9   1   28.10    4.10
   0   9   1   29.20    4.50
  -1  -9  -1    9.50    2.50
   1   9   1   13.80    3.20
   1   9   1   12.10    3.40
  -2  -9  -1   44.90    4.80
   2   9   1   56.49    5.70
   2   9   1   59.09    6.00
   2   9   1   48.20    4.70
  -3  -9  -1  102.49    7.10
   3   9   1  106.59    6.90
   3   9   1  115.09    6.90
   3   9   1  111.59    6.70
   3   9   1  110.29    7.40
  -4  -9  -1  133.99    8.40
   4   9   1  135.69   10.00
   4   9   1  153.78    8.30
   4   9   1  152.08    8.70
  -5  -9  -1   74.99    7.10
   5   9   1   87.99    7.50
   5   9   1   69.39    6.70
   6   9   1  107.99    7.90
   6   9   1  101.39    7.70
   6   9   1  126.29    7.90
   7   9   1   42.30    5.60
   7   9   1   46.60    6.30
   7   9   1   58.49    6.30
   8   9   1   17.20    4.30
   8   9   1   17.50    4.30
   8   9   1   19.10    4.70
   9   9   1   92.49    8.50
   9   9   1   65.89    8.10
   9   9   1   87.89    8.50
  10   9   1    9.70    5.30
  10   9   1   15.70    5.00
  10   9   1   24.90    5.70
  11   9   1   30.80    6.60
  11   9   1   14.20    6.20
   8 -10  -1    7.30    6.00
   8 -10  -1    7.30    5.00
   8 -10  -1    5.20    4.40
   7 -10  -1   -1.30    3.30
   7 -10  -1    1.50    4.20
   6 -10  -1   41.40    6.10
   6 -10  -1   36.70    6.00
   5 -10  -1    0.60    2.70
  -5  10   1   -2.40    2.60
   4 -10  -1  117.69    8.50
  -4  10   1  102.49    8.70
   3 -10  -1   47.70    6.20
  -3  10   1   45.80    6.30
   2 -10  -1   12.50    3.30
  -2  10   1    7.50    3.20
   1 -10  -1  156.18    9.40
  -1  10   1  159.48    9.40
   0 -10  -1  244.28   12.20
   0  10   1  250.07   12.10
   0  10   1  241.28   12.10
  -1 -10  -1  287.07   13.20
   1  10   1  288.67   13.60
   1  10   1  268.17   12.90
  -2 -10  -1   40.40    5.10
   2  10   1   65.39    5.60
   2  10   1   58.79    5.90
   2  10   1   61.29    6.50
  -3 -10  -1   67.69    6.70
   3  10   1   62.29    6.20
   3  10   1   64.59    6.70
   3  10   1   68.79    5.60
  -4 -10  -1  210.48   11.10
   4  10   1  210.78   10.30
   4  10   1  198.58   10.90
   4  10   1  195.08   10.40
  -5 -10  -1  145.69    9.70
   5  10   1  153.88    9.30
   5  10   1  145.09    8.90
   6  10   1   30.20    5.10
   6  10   1   28.20    5.00
   7  10   1   17.50    4.30
   7  10   1    5.40    3.90
   7  10   1   12.00    3.90
   8  10   1    2.40    3.10
   8  10   1   -1.10    3.40
   8  10   1    1.30    3.60
   9  10   1    6.00    3.80
   9  10   1   17.10    4.70
   9  10   1   19.90    5.60
  10  10   1    0.50    4.60
  10  10   1   10.90    5.20
  10  10   1    1.00    3.90
   7 -11  -1   22.10    5.90
   7 -11  -1   16.40    5.40
   6 -11  -1   16.50    4.70
   6 -11  -1   11.60    4.60
   5 -11  -1   33.60    5.80
  -5  11   1   45.20    6.90
   4 -11  -1   37.30    6.10
  -4  11   1   38.60    6.50
   3 -11  -1   17.00    4.50
  -3  11   1   13.80    4.00
   2 -11  -1    4.00    3.20
  -2  11   1    3.60    3.00
   1 -11  -1   18.50    4.60
  -1  11   1   19.30    4.20
   0 -11  -1   96.39    7.50
   0  11   1   92.19    7.40
   0  11   1   74.49    7.60
  -1 -11  -1   18.30    3.70
   1  11   1   26.50    4.60
   1  11   1   18.80    4.30
  -2 -11  -1   60.69    6.20
   2  11   1   65.09    6.70
   2  11   1   53.39    6.90
   2  11   1   74.09    6.50
  -3 -11  -1  104.09    7.90
   3  11   1   98.89    8.10
   3  11   1  108.39    7.20
   3  11   1  105.39    7.70
  -4 -11  -1  101.69    8.00
   4  11   1  111.89    7.70
   4  11   1  113.59    8.50
   4  11   1  111.29    7.90
   5  11   1  250.17   13.00
   5  11   1  238.38   12.10
   5  11   1  232.78   11.90
   6  11   1   14.40    4.20
   6  11   1   11.70    4.00
   6  11   1    8.40    3.30
   7  11   1   61.99    7.20
   7  11   1   43.30    6.50
   8  11   1   39.60    6.30
   8  11   1   63.69    7.80
   9  11   1   67.69    7.80
   9  11   1   57.59    8.20
   9  11   1   68.49    8.30
  10  11   1   73.09   10.90
  10  11   1   62.59    8.90
   6 -12  -1   11.30    4.80
   6 -12  -1   14.70    5.10
   5 -12  -1   49.20    6.90
  -5  12   1   42.20    6.90
   4 -12  -1   35.70    5.70
  -4  12   1   34.50    6.00
   3 -12  -1   14.80    4.40
  -3  12   1   21.30    5.00
   2 -12  -1   31.40    5.40
  -2  12   1   32.30    5.50
   1 -12  -1   73.59    7.60
  -1  12   1   90.59    8.40
   0 -12  -1   51.79    6.70
   0  12   1   30.20    4.90
  -1 -12  -1   11.10    3.60
   1  12   1   18.00    4.30
   1  12   1   13.80    4.50
  -2 -12  -1   34.10    5.70
   2  12   1   34.50    5.30
   2  12   1   28.30    5.30
  -3 -12  -1   33.30    5.60
   3  12   1   30.40    5.40
   3  12   1   27.80    4.70
   3  12   1   26.70    4.70
   4  12   1   17.70    4.10
   4  12   1    5.90    3.20
   4  12   1   13.30    4.40
   5  12   1   38.90    5.50
   5  12   1   45.70    5.40
   5  12   1   41.20    6.50
   5  12   1   52.59    6.60
   6  12   1   35.50    5.30
   6  12   1   44.30    6.40
   6  12   1   45.00    6.80
   7  12   1  119.89    8.60
   7  12   1  129.79   10.10
   7  12   1  123.79    9.90
   8  12   1  146.79   11.00
   8  12   1  150.98    9.60
   8  12   1  134.79   10.40
   9  12   1   73.79    7.30
   9  12   1   59.09    8.20
   9  12   1   75.19    9.80
   5 -13  -1    0.20    3.60
   4 -13  -1   11.00    4.00
  -4  13   1    0.40    3.70
   3 -13  -1   20.40    5.20
  -3  13   1   33.10    6.10
   2 -13  -1   35.50    6.00
  -2  13   1   41.70    6.80
   1 -13  -1  199.18   12.30
  -1  13   1  195.48   12.20
   0 -13  -1  102.39    9.70
   0  13   1   77.19    7.90
  -1 -13  -1   33.70    6.00
   1  13   1   26.90    5.40
   1  13   1   22.40    5.40
  -2 -13  -1   54.19    7.10
   2  13   1   54.49    6.70
   2  13   1   54.89    7.00
   3  13   1  218.68   11.30
   3  13   1  210.58   12.10
   3  13   1  211.88   12.90
   4  13   1   94.49    8.10
   4  13   1   89.29    9.30
   4  13   1   85.09    8.10
   5  13   1    1.20    3.30
   5  13   1    2.70    4.00
   5  13   1    2.70    3.50
   5  13   1    2.30    2.70
   6  13   1   12.50    4.70
   6  13   1   23.10    5.50
   6  13   1   17.80    4.50
   7  13   1  140.99    9.90
   7  13   1  134.89   10.60
   7  13   1  127.29   10.10
   8  13   1   27.90    5.40
   8  13   1   27.10    6.40
   8  13   1   27.80    6.50
   9  13   1    3.40    4.20
   9  13   1   12.00    5.70
   9  13   1    2.00    4.60
   4 -14  -1   18.30    5.70
  -4  14   1   10.00    5.10
   3 -14  -1    0.50    4.10
  -3  14   1    2.20    3.70
   2 -14  -1   36.00    6.40
  -2  14   1   37.30    6.80
   1 -14  -1  175.98   12.00
  -1  14   1  141.79   11.20
   0 -14  -1   10.70    4.30
   0  14   1   12.00    4.70
   1  14   1   45.20    6.40
   2  14   1   32.70    6.40
   2  14   1   58.19    7.40
   3  14   1    1.20    3.30
   3  14   1    3.00    4.30
   4  14   1    8.70    3.90
   4  14   1    9.80    4.30
   4  14   1   14.00    5.20
   5  14   1   41.30    6.20
   5  14   1   45.40    6.50
   5  14   1   38.90    7.30
   6  14   1   69.59    8.30
   6  14   1   74.19    9.20
   6  14   1   60.79    7.40
   7  14   1   10.80    5.10
   7  14   1   12.00    5.70
   7  14   1    6.50    4.10
   8  14   1   20.60    6.60
   8  14   1   46.60    8.20
   8  14   1   35.90    6.10
   3 -15  -1   10.70    4.60
  -3  15   1   -0.60    5.00
   2 -15  -1    7.90    5.20
  -2  15   1    9.10    5.00
   1 -15  -1    4.90    4.30
  -1  15   1    8.70    4.80
   0  15   1   37.00    6.80
   1  15   1   41.90    6.80
   2  15   1  119.99   11.60
   2  15   1  118.79   10.00
   3  15   1   39.00    6.50
   3  15   1   31.60    7.20
   4  15   1    4.30    3.70
   4  15   1   18.10    5.90
   4  15   1   10.30    4.50
   4  15   1    6.30    4.20
   5  15   1   68.89    9.60
   5  15   1   49.90    7.00
   5  15   1   52.79    7.30
   6  15   1   -5.10    4.70
   6  15   1    4.50    4.60
   6  15   1    5.80    4.30
   7  15   1   58.09    7.60
   7  15   1   48.00    8.90
   7  15   1   52.69    8.40
  -1  16   1   26.20    6.80
   0  16   1   -1.40    4.60
   1  16   1    3.30    5.30
   2  16   1   30.20    6.50
   3  16   1   21.60    5.90
   3  16   1   22.40    7.10
   4  16   1   13.30    6.70
   4  16   1   17.00    5.60
   4  16   1   12.30    5.00
   5  16   1    6.60    4.70
   5  16   1    3.70    5.70
   5  16   1   -0.80    5.00
   3  16  -2   23.90    5.60
   2  16  -2   23.40    5.70
   2  16  -2    7.30    5.00
   1  16  -2   52.59    8.80
   1  16  -2   38.20    6.90
   5  15  -2    8.70    5.50
   5  15  -2   15.20    4.20
   4  15  -2   22.50    6.20
   4  15  -2   17.50    4.50
   3  15  -2   17.60    4.80
   3  15  -2   20.00    5.50
   2  15  -2   39.60    6.30
   2  15  -2   48.90    7.60
   1  15  -2   23.50    5.50
   1  15  -2   17.20    5.60
   0  15  -2   40.10    6.80
   0  15  -2   37.90    7.60
  -1  15  -2   77.59    8.80
  -1  15  -2   54.99    9.00
  -2  15  -2   24.40    6.70
  -2  15  -2   21.70    6.90
   7  14  -2   34.40    7.20
   7  14  -2   39.10    8.10
   6  14  -2    5.40    5.00
   6  14  -2   14.70    5.70
   6  14  -2   17.30    3.40
   5  14  -2   24.10    6.30
   5  14  -2   21.30    4.10
   4  14  -2   34.80    4.90
   4  14  -2   27.40    6.00
   4  14  -2   35.90    5.80
   3  14  -2    2.80    3.80
   3  14  -2    7.30    4.60
   3  14  -2    7.80    3.50
   2  14  -2   30.10    5.80
   2  14  -2   36.20    5.60
   1  14  -2   28.00    5.50
   1  14  -2   36.60    6.70
   0  14  -2   96.89    9.30
   0  14  -2  100.89   10.50
  -1  14  -2   31.20    5.70
  -1  14  -2   19.80    6.10
  -2  14  -2    7.30    5.30
  -2  14  -2   19.00    5.10
  -3  14  -2   25.50    6.20
  -3  14  -2   15.60    5.80
  -4  14  -2   30.30    7.10
  -4  14  -2   21.50    6.70
   8  13  -2   -1.90    4.40
   8  13  -2    6.60    5.60
   7  13  -2   45.10    7.40
   7  13  -2   44.60    8.10
   6  13  -2   37.10    6.70
   6  13  -2   42.80    4.50
   6  13  -2   38.40    4.20
   6  13  -2   29.50    6.70
   5  13  -2   13.10    3.30
   5  13  -2   17.30    5.40
   5  13  -2   12.00    4.90
   4  13  -2   45.60    5.20
   4  13  -2   52.79    6.60
   4  13  -2   53.79    7.40
   3  13  -2   30.10    4.70
   3  13  -2   26.80    5.70
   3  13  -2   30.20    5.40
   2  13  -2   16.10    4.60
   2  13  -2   17.80    4.10
   1  13  -2   30.80    5.80
   1  13  -2   38.70    5.60
   0  13  -2   46.90    6.20
   0  13  -2   45.40    7.20
  -1  13  -2   49.90    7.70
  -1  13  -2   48.10    6.40
  -2  13  -2   57.39    8.20
  -2  13  -2   63.09    7.50
  -3  13  -2   10.80    4.50
  -3  13  -2    9.30    4.60
  -4  13  -2   53.79    7.80
  -4  13  -2   41.60    8.00
  -5  13  -2   -0.60    5.10
  -5  13  -2    7.00    5.30
   8  12  -2   83.69    8.70
   8  12  -2   69.09    9.70
   7  12  -2   85.39    8.80
   7  12  -2   75.09    4.50
   7  12  -2   77.59    4.40
   7  12  -2   60.89    8.80
   6  12  -2   98.79    9.70
   6  12  -2   82.49    5.50
   6  12  -2   97.79    5.90
   6  12  -2   74.39    8.40
   5  12  -2   16.90    4.70
   5  12  -2    8.70    4.40
   5  12  -2   20.30    4.90
   5  12  -2   15.20    3.20
   4  12  -2  138.49    8.80
   4  12  -2  126.99    9.60
   4  12  -2  143.89   10.10
   4  12  -2  135.19    7.90
   3  12  -2   28.50    5.30
   3  12  -2   26.40    4.90
   3  12  -2   23.60    4.00
   2  12  -2   67.79    6.40
   2  12  -2   61.79    7.30
   2  12  -2   64.89    7.30
   1  12  -2   34.40    5.10
   1  12  -2   43.60    6.40
   0  12  -2   53.09    7.10
   0  12  -2   69.19    7.10
  -1  12  -2   57.59    7.30
  -1  12  -2   66.89    7.00
  -2  12  -2   98.99    8.20
  -2  12  -2   70.29    8.40
  -3  12  -2   54.89    7.20
  -3  12  -2   45.00    7.40
  -4  12  -2   20.90    5.40
  -4  12  -2   20.60    5.90
   4 -12   2   26.20    5.80
  -5  12  -2    2.00    4.40
  -5  12  -2   -2.40    3.90
   5 -12   2    2.50    3.80
  -6  12  -2   33.30    6.90
  -6  12  -2   29.30    7.70
   6 -12   2   33.20    6.70
   9  11  -2   22.50    7.00
   9  11  -2   31.30    7.00
   8  11  -2   16.10    5.80
   8  11  -2   12.60    4.60
   8  11  -2   16.30    5.60
   7  11  -2  234.88   12.90
   7  11  -2  239.88   14.20
   7  11  -2  242.98    9.40
   7  11  -2  236.18    9.20
   6  11  -2   47.80    4.10
   6  11  -2   67.69    8.20
   6  11  -2   47.10    6.50
   6  11  -2   46.80    4.20
   5  11  -2   32.20    5.50
   5  11  -2   34.80    3.80
   5  11  -2   33.80    4.60
   5  11  -2   42.60    6.40
   5  11  -2   37.80    4.10
   4  11  -2   27.40    5.10
   4  11  -2   23.10    4.10
   4  11  -2   23.10    3.50
   4  11  -2   25.40    5.20
   4  11  -2   19.10    3.20
   3  11  -2   42.10    5.50
   3  11  -2   38.80    4.70
   3  11  -2   44.70    6.10
   3  11  -2   41.80    6.00
   2  11  -2   11.80    3.90
   2  11  -2    9.40    3.00
   2  11  -2   14.00    3.70
   1  11  -2  598.04   23.10
   1  11  -2  618.74   24.60
   0  11  -2  107.99    8.30
   0  11  -2   93.59    7.20
  -1  11  -2   87.89    7.30
   1 -11   2   65.19    8.00
  -2  11  -2   20.70    4.10
   2 -11   2   11.90    3.70
  -3  11  -2   47.30    6.30
   3 -11   2   30.90    5.60
  -4  11  -2   40.00    6.10
   4 -11   2   40.10    6.00
  -5  11  -2    3.80    4.30
  -5  11  -2    4.20    4.00
   5 -11   2   -3.30    2.50
  -6  11  -2    3.60    4.10
  -6  11  -2   13.20    5.50
   6 -11   2    6.40    3.90
  -7  11  -2   -1.60    4.40
  -7  11  -2    3.00    4.60
   7 -11   2   -0.70    3.70
  10  10  -2   38.70    7.80
  10  10  -2   27.80    7.80
   9  10  -2   58.19    8.10
   9  10  -2   35.40    7.50
   8  10  -2   61.69    8.30
   8  10  -2   76.69    8.80
   8  10  -2   84.89    7.90
   7  10  -2   30.80    3.00
   7  10  -2   35.90    3.20
   7  10  -2   20.40    5.20
   7  10  -2   35.20    5.40
   7  10  -2   29.60    5.70
   6  10  -2   24.40    3.00
   6  10  -2   19.20    4.40
   6  10  -2   18.20    5.00
   6  10  -2   28.30    3.10
   6  10  -2   18.90    5.00
   5  10  -2  230.68   10.00
   5  10  -2  236.68   12.10
   5  10  -2  220.58   10.30
   5  10  -2  233.48   12.60
   5  10  -2  230.78    9.90
   4  10  -2   19.00    3.00
   4  10  -2   18.90    4.20
   4  10  -2   15.90    3.40
   4  10  -2   18.50    3.10
   4  10  -2   16.90    4.20
   3  10  -2  502.85   19.30
   3  10  -2  478.75   18.40
   3  10  -2  371.86   16.80
   3  10  -2  468.75   17.30
   3  10  -2  460.45   18.90
   2  10  -2  508.35   18.60
   2  10  -2  491.55   19.50
   2  10  -2  458.35   19.60
   2  10  -2  454.85   18.10
   2  10  -2  472.45   19.40
   1  10  -2  368.96   13.00
   1  10  -2  335.77   16.60
   1  10  -2  390.56   15.50
   1  10  -2  356.46   16.30
  -1 -10   2  394.36   16.50
   0  10  -2   58.69    3.60
   0  10  -2   67.69    5.90
   0 -10   2   60.89    6.50
  -1  10  -2   22.50    4.10
  -1  10  -2   13.80    2.20
   1 -10   2   17.80    3.70
  -2  10  -2   39.20    3.80
  -2  10  -2   34.20    5.10
   2 -10   2   32.10    5.00
  -3  10  -2  178.68    8.70
  -3  10  -2  177.88   10.60
   3 -10   2  191.08   11.10
  -4  10  -2   30.30    5.10
   4 -10   2   24.70    5.00
  -5  10  -2  164.28   11.30
   5 -10   2  170.58   11.30
  -6  10  -2   44.20    7.20
  -6  10  -2   51.99    7.20
   6 -10   2   44.40    6.70
  -7  10  -2   27.70    5.90
  -7  10  -2   26.20    6.70
   7 -10   2   13.20    4.60
  -8  10  -2   29.80    7.40
  -8  10  -2   21.00    6.80
   8 -10   2   26.70    6.80
   8 -10   2   21.10    5.90
  10   9  -2  102.89   10.90
  10   9  -2   70.59   10.20
   9   9  -2    9.60    5.00
   9   9  -2   11.70    5.60
   8   9  -2   73.79    8.60
   8   9  -2   81.59    9.30
   8   9  -2   74.19    7.10
   7   9  -2   29.40    2.90
   7   9  -2   30.10    2.90
   7   9  -2   24.10    5.60
   7   9  -2   33.40    4.80
   7   9  -2   34.00    5.80
   6   9  -2  357.16   13.40
   6   9  -2  356.56   13.30
   6   9  -2  357.46   15.50
   6   9  -2  349.87   16.70
   6   9  -2  378.06   16.90
   5   9  -2   60.99    7.00
   5   9  -2   53.39    4.20
   5   9  -2   61.49    4.30
   5   9  -2   55.79    6.00
   5   9  -2   57.19    4.40
   5   9  -2   54.79    6.50
   4   9  -2   55.89    4.30
   4   9  -2   42.80    5.50
   4   9  -2   58.49    6.00
   4   9  -2   53.69    4.30
   4   9  -2   51.49    4.90
   3   9  -2  158.38    9.40
   3   9  -2  156.88    9.10
   3   9  -2  162.18    8.00
   3   9  -2  180.78    8.20
   3   9  -2  168.58    8.80
   2   9  -2  288.17   12.30
   2   9  -2  304.07   13.40
   2   9  -2  302.57   13.70
   2   9  -2  303.27   12.50
   2   9  -2  318.57   13.70
  -2  -9   2  301.07   13.40
   1   9  -2   23.30    3.40
   1   9  -2   21.20    2.30
   1   9  -2   20.70    3.90
   1   9  -2   26.30    4.30
   1   9  -2   23.20    3.50
  -1  -9   2   18.30    3.50
   0   9  -2   32.50    2.90
   0   9  -2   32.50    3.90
   0   9  -2   28.50    4.00
   0  -9   2   36.40    4.90
  -1   9  -2   -0.50    2.00
  -1   9  -2   -0.50    1.30
   1  -9   2    0.70    2.10
  -2   9  -2  118.29    7.90
  -2   9  -2  129.39    6.30
   2  -9   2  106.89    7.80
  -3   9  -2  395.86   17.20
   3  -9   2  406.86   17.60
  -4   9  -2   32.00    5.30
   4  -9   2   33.20    5.30
  -5   9  -2   19.00    4.90
   5  -9   2   13.10    3.80
  -6   9  -2   58.99    7.50
  -6   9  -2   34.80    6.40
   6  -9   2   48.50    6.60
  -7   9  -2   72.39    8.80
  -7   9  -2   84.89    8.90
   7  -9   2   83.49    9.10
  -8   9  -2   92.09   10.10
  -8   9  -2  109.09   11.30
   8  -9   2   80.49    9.60
   8  -9   2   94.49   10.20
  10   8  -2    2.80    4.70
  10   8  -2   13.40    6.20
   9   8  -2    5.40    4.00
   9   8  -2    5.80    4.50
   8   8  -2   40.10    4.90
   8   8  -2   42.60    6.90
   8   8  -2   43.50    6.70
   7   8  -2  107.69    5.00
   7   8  -2   95.19    6.70
   7   8  -2  113.79    8.80
   7   8  -2  100.59    5.00
   7   8  -2   84.99    8.50
   6   8  -2   88.59    6.30
   6   8  -2   85.09    4.70
   6   8  -2   85.89    4.80
   6   8  -2   83.49    8.00
   6   8  -2   86.79    8.00
   5   8  -2   58.99    4.20
   5   8  -2   72.59    7.30
   5   8  -2   69.99    4.40
   5   8  -2   73.09    5.70
   5   8  -2   66.39    4.30
   5   8  -2   62.99    6.60
   4   8  -2  289.67   13.30
   4   8  -2  291.27   11.30
   4   8  -2  292.07   11.30
   4   8  -2  286.67   13.40
   4   8  -2  263.37   12.50
   4   8  -2  287.67   11.70
   3   8  -2   11.60    3.00
   3   8  -2    8.20    2.10
   3   8  -2    5.20    2.30
   3   8  -2   10.80    3.10
   3   8  -2    9.00    2.10
  -3  -8   2   12.30    2.90
   2   8  -2   28.20    4.10
   2   8  -2   25.10    3.60
   2   8  -2   26.70    3.20
   2   8  -2   26.10    3.90
   2   8  -2   33.70    3.50
  -2  -8   2   32.90    3.90
   1   8  -2  242.78   10.30
   1   8  -2  242.38   11.20
   1   8  -2  239.18    9.00
   1   8  -2  240.28   11.00
   1   8  -2  231.78   10.30
   0   8  -2  147.19    7.90
   0   8  -2  165.98    6.60
   0   8  -2  163.58    8.00
   0  -8   2  152.08    8.30
  -1   8  -2  737.63   26.10
  -1   8  -2  708.53   24.30
  -1   8  -2  726.63   26.00
   1  -8   2  732.13   26.40
  -2   8  -2    9.60    2.70
  -2   8  -2   11.20    3.40
  -2   8  -2   11.30    2.30
   2  -8   2    9.80    3.00
  -3   8  -2   37.50    5.10
   3  -8   2   33.60    4.60
  -4   8  -2  126.99    8.60
   4  -8   2  128.99    8.50
  -5   8  -2   -4.40    2.30
   5  -8   2   -0.70    2.00
  -6   8  -2   76.79    7.80
   6  -8   2   69.69    7.40
  -7   8  -2    5.10    4.10
  -7   8  -2    8.50    4.00
   7  -8   2    4.50    3.50
  -8   8  -2   41.10    6.70
  -8   8  -2   39.40    7.00
   8  -8   2   28.00    5.50
   8  -8   2   25.90    6.20
  -9   8  -2   32.70    7.30
   9  -8   2   20.10    5.50
   9  -8   2   34.10    7.20
  11   7  -2   11.80    6.60
  11   7  -2   26.60    7.00
  10   7  -2   27.40    6.50
  10   7  -2   40.60    7.70
   9   7  -2    5.80    4.50
   9   7  -2    8.90    4.90
   8   7  -2   80.49    8.60
   8   7  -2   77.69    8.60
   8   7  -2   73.29    6.30
   7   7  -2  138.89    9.30
   7   7  -2  132.89    7.40
   7   7  -2  121.29    5.60
   7   7  -2  123.09    5.70
   7   7  -2  131.99    9.40
   6   7  -2   26.60    4.70
   6   7  -2   27.00    2.80
   6   7  -2   26.20    2.70
   6   7  -2   29.90    4.90
   6   7  -2   27.50    3.80
   5   7  -2   52.69    5.90
   5   7  -2   39.20    4.40
   5   7  -2   41.70    3.10
   5   7  -2   40.30    3.20
   5   7  -2   39.70    3.40
   5   7  -2   34.20    5.00
   4   7  -2  332.77   14.20
   4   7  -2  341.27   12.10
   4   7  -2  304.87   14.00
   4   7  -2  326.77   13.30
   4   7  -2  316.07   12.00
   4   7  -2  325.37   12.30
  -4  -7   2  314.07   13.30
   3   7  -2  420.36   16.70
   3   7  -2  412.26   15.60
   3   7  -2  417.06   16.20
   3   7  -2  406.96   15.00
   3   7  -2  423.16   15.10
  -3  -7   2  422.26   16.10
   2   7  -2  127.79    6.90
   2   7  -2  134.29    6.40
   2   7  -2  132.09    7.50
   2   7  -2  130.19    5.90
   2   7  -2  134.79    7.30
   2   7  -2  133.79    6.40
  -2  -7   2  131.09    6.90
   1   7  -2  353.06   13.30
   1   7  -2  354.26   12.40
   1   7  -2  346.77   14.20
   1   7  -2  339.47   13.90
   1   7  -2  334.77   13.30
  -1  -7   2  363.66   14.00
   0   7  -2  903.71   30.70
   0   7  -2 1003.70   32.20
   0   7  -2  946.71   32.10
   0  -7   2  945.41   32.50
  -1   7  -2   10.50    2.20
  -1   7  -2   11.70    2.60
  -1   7  -2   12.00    2.00
   1  -7   2   13.60    2.80
  -2   7  -2   30.90    4.20
  -2   7  -2   23.10    3.40
   2  -7   2   26.10    3.80
  -3   7  -2   22.20    3.80
   3  -7   2   13.70    2.90
  -4   7  -2   13.10    3.40
   4  -7   2   14.60    3.30
  -5   7  -2   52.79    6.60
   5  -7   2   70.19    7.30
  -6   7  -2  232.58   12.70
   6  -7   2  235.48   12.60
  -7   7  -2   34.50    6.00
  -7   7  -2   37.60    6.30
   7  -7   2   31.00    5.50
  -8   7  -2   13.90    4.80
  -8   7  -2    8.00    4.20
   8  -7   2    6.00    4.30
   8  -7   2   17.40    4.40
  -9   7  -2   77.89    9.40
   9  -7   2   73.39    9.20
   9  -7   2   65.99    8.20
  11   6  -2   16.60    6.50
  11   6  -2   17.90    7.10
  10   6  -2  117.49   12.10
  10   6  -2  147.29   11.00
   9   6  -2   41.70    6.70
   9   6  -2   37.60    6.50
   8   6  -2  137.09    7.50
   8   6  -2  125.09    5.30
   8   6  -2  127.39    5.40
   8   6  -2  146.69   10.30
   8   6  -2  131.49    9.50
   7   6  -2   58.39    3.60
   7   6  -2   62.89    3.70
   7   6  -2   59.69    7.10
   7   6  -2   65.79    4.70
   6   6  -2   43.60    3.20
   6   6  -2   40.60    4.20
   6   6  -2   48.40    6.10
   6   6  -2   47.50    6.00
   6   6  -2   40.40    3.00
   5   6  -2  163.58    6.40
   5   6  -2  163.98    6.80
   5   6  -2  163.28    7.90
   5   6  -2  162.18    9.30
   5   6  -2  166.78    9.20
   5   6  -2  163.58    6.80
   4   6  -2  142.69    7.20
   4   6  -2  157.48    8.50
   4   6  -2  146.69    6.40
   4   6  -2  154.38    6.40
   4   6  -2  150.08    8.20
   4   6  -2  140.89    6.40
   3   6  -2  143.89    7.00
   3   6  -2  134.89    6.00
   3   6  -2  136.29    6.00
   3   6  -2  134.69    6.40
   3   6  -2  128.29    7.30
   3   6  -2  135.99    7.50
   2   6  -2  291.17   11.10
   2   6  -2  319.27   12.00
   2   6  -2  286.57   12.20
   2   6  -2  312.77   11.20
   2   6  -2  297.17   11.20
   2   6  -2  284.87   12.00
  -2  -6   2  308.57   11.90
   1   6  -2  274.37   10.70
   1   6  -2  272.97   11.40
   1   6  -2  267.47   10.60
   1   6  -2  283.67   11.60
   1   6  -2  275.07   10.10
   1   6  -2  286.37   11.60
  -1  -6   2  293.77   11.30
   0   6  -2  177.58    7.10
   0   6  -2  183.48    8.30
   0   6  -2  178.38    8.00
   0   6  -2  186.78    8.00
   0  -6   2  167.28    8.00
  -1   6  -2  474.25   16.70
  -1   6  -2  485.45   17.80
  -1   6  -2  502.55   17.80
   1  -6   2  471.85   17.90
  -2   6  -2  178.38    8.60
  -2   6  -2  189.18    8.90
   2  -6   2  197.78    9.10
  -3   6  -2   75.49    5.80
   3  -6   2   87.79    5.80
  -4   6  -2  249.88   11.70
   4  -6   2  239.58   11.50
  -5   6  -2  257.37   13.10
   5  -6   2  305.97   13.60
  -6   6  -2   15.30    3.80
   6  -6   2   23.90    4.20
  -7   6  -2   67.79    7.60
  -7   6  -2   69.69    7.80
   7  -6   2   66.09    7.50
   7  -6   2   73.49    8.00
  -8   6  -2   22.60    5.00
  -8   6  -2   31.70    5.80
   8  -6   2   25.70    5.10
   8  -6   2   18.00    5.10
  -9   6  -2   21.30    5.20
   9  -6   2   20.80    6.60
   9  -6   2   27.30    5.60
   9  -6   2   14.50    5.30
 -10   6  -2   14.00    5.50
  10  -6   2    9.90    5.70
  10  -6   2   23.00    7.30
  10  -6   2   19.80    5.40
  11   5  -2   -0.60    5.50
  11   5  -2   -2.40    5.00
  10   5  -2   19.70    5.50
  10   5  -2   30.00    6.50
   9   5  -2   17.90    5.10
   9   5  -2   15.10    5.10
   8   5  -2   60.29    7.60
   8   5  -2   47.90    6.50
   8   5  -2   46.10    3.10
   7   5  -2  156.38    9.90
   7   5  -2  169.68    6.90
   7   5  -2  170.78   10.40
   7   5  -2  166.98    7.70
   6   5  -2   63.79    3.70
   6   5  -2   68.79    6.70
   6   5  -2   55.29    4.20
   6   5  -2   62.89    6.30
   5   5  -2  240.08    9.00
   5   5  -2  245.68    9.90
   5   5  -2  248.78   11.70
   4   5  -2   57.69    3.30
   4   5  -2   59.99    5.50
   4   5  -2   61.39    5.10
   4   5  -2   55.69    3.30
   4   5  -2   62.49    3.30
   4   5  -2   66.49    4.20
   3   5  -2  164.08    8.20
   3   5  -2  172.08    6.70
   3   5  -2  158.98    7.40
   3   5  -2  170.78    8.30
   3   5  -2  171.48    6.70
   3   5  -2  173.38    7.10
   2   5  -2  194.78    8.80
   2   5  -2  187.98    7.90
   2   5  -2  187.38    8.60
   2   5  -2  183.48    8.10
   2   5  -2  182.38    7.20
   2   5  -2  178.68    7.50
   2   5  -2  189.08    7.30
   1   5  -2 1616.04   53.09
   1   5  -2 1595.34   52.29
   1   5  -2 1638.84   53.29
   1   5  -2 1686.03   53.19
   1   5  -2 1632.14   52.29
   1   5  -2 1680.83   52.19
  -1  -5   2 1694.53   52.89
   0   5  -2  259.87    9.90
   0   5  -2  261.37   10.70
   0   5  -2  252.47    9.30
   0   5  -2  253.17   10.40
   0   5  -2  263.87   10.00
   0  -5   2  248.18   10.10
  -1   5  -2  195.78    8.00
  -1   5  -2  175.08    8.00
  -1   5  -2  180.88    7.30
   1  -5   2  176.58    8.10
  -2   5  -2  219.48    9.30
  -2   5  -2  188.48    8.90
   2  -5   2  219.88    9.40
  -3   5  -2  292.97   12.50
   3  -5   2  307.27   12.50
  -4   5  -2  254.27   11.50
   4  -5   2  249.08   11.40
  -5   5  -2   50.29    5.60
   5  -5   2   30.70    4.30
  -6   5  -2   68.79    7.10
   6  -5   2   60.59    6.60
  -7   5  -2   18.70    4.10
  -7   5  -2   26.50    4.90
   7  -5   2   27.20    5.20
   7  -5   2   24.90    4.70
  -8   5  -2   36.10    5.50
  -8   5  -2   40.60    6.30
   8  -5   2   35.20    6.00
   8  -5   2   32.00    5.30
  -9   5  -2   17.90    4.90
   9  -5   2   26.20    5.30
   9  -5   2   17.60    5.30
   9  -5   2   20.60    6.00
 -10   5  -2   51.69    7.40
  10  -5   2   52.49    7.50
  10  -5   2   67.39    9.90
  10  -5   2   57.69    8.70
  11   4  -2   31.50    7.60
  11   4  -2   28.30    7.20
  10   4  -2   56.29    8.10
  10   4  -2   50.19    8.20
   9   4  -2    9.40    1.70
   9   4  -2   20.30    5.40
   9   4  -2   10.30    4.80
   8   4  -2   48.50    6.80
   8   4  -2   44.50    6.50
   8   4  -2   47.10    3.30
   7   4  -2  171.78   10.30
   7   4  -2  184.78    7.30
   7   4  -2  181.38   10.40
   7   4  -2  165.98    7.60
   6   4  -2  133.79    5.80
   6   4  -2  138.29    6.30
   6   4  -2  136.19    8.30
   6   4  -2  135.89    8.40
   5   4  -2   62.09    3.40
   5   4  -2   74.09    6.50
   5   4  -2   59.79    3.80
   5   4  -2   70.29    5.60
   4   4  -2    3.40    1.10
   4   4  -2    2.60    2.30
   4   4  -2    5.60    2.70
   4   4  -2    3.90    1.50
   3   4  -2 1079.09   36.10
   3   4  -2 1110.99   34.20
   3   4  -2 1076.59   35.00
   3   4  -2 1069.29   34.20
   3   4  -2 1067.59   36.10
   3   4  -2 1068.39   34.60
   2   4  -2   31.90    3.00
   2   4  -2   33.60    3.50
   2   4  -2   32.60    2.30
   2   4  -2   35.40    2.90
   2   4  -2   37.50    3.90
   2   4  -2   32.80    2.20
   2   4  -2   33.60    2.80
   1   4  -2  871.21   27.60
   1   4  -2  849.02   27.60
   1   4  -2  860.21   27.80
   1   4  -2  852.71   28.30
   1   4  -2  848.02   28.60
   1   4  -2  859.31   28.40
   0   4  -2 1107.59   35.90
   0   4  -2 1077.19   35.60
   0   4  -2  993.40   34.90
   0   4  -2 1063.79   34.80
   0   4  -2 1169.48   35.20
   0  -4   2 1128.19   35.40
  -1   4  -2  410.26   14.80
  -1   4  -2  449.76   15.00
   1  -4   2  392.06   14.90
  -2   4  -2  785.72   26.40
  -2   4  -2  799.62   26.30
   2  -4   2  741.33   26.30
  -3   4  -2  153.18    7.60
   3  -4   2  144.39    7.30
  -4   4  -2   63.49    5.20
   4  -4   2   72.59    5.30
  -5   4  -2   25.10    3.90
   5  -4   2   18.30    3.30
  -6   4  -2  352.66   15.60
  -6   4  -2  343.47   15.20
   6  -4   2  369.16   15.60
  -7   4  -2   81.69    6.60
  -7   4  -2   77.79    7.50
   7  -4   2   90.89    7.20
   7  -4   2   66.49    7.00
  -8   4  -2   39.50    5.50
  -8   4  -2   33.60    5.50
   8  -4   2   31.20    5.50
   8  -4   2   42.10    5.70
  -9   4  -2    5.70    3.40
   9  -4   2    3.80    4.20
   9  -4   2    2.50    3.00
   9  -4   2    1.20    3.50
 -10   4  -2    2.60    3.80
  10  -4   2    3.30    4.50
  10  -4   2   -1.20    3.00
  10  -4   2    0.30    4.60
  11  -4   2   17.40    7.20
  11  -4   2   36.90    8.30
  11   3  -2   18.50    6.80
  11   3  -2   26.40    7.00
  10   3  -2    9.70    4.90
  10   3  -2    7.20    4.80
   9   3  -2   79.79    9.00
   9   3  -2   65.99    8.10
   9   3  -2   76.89    4.30
   8   3  -2   61.19    3.80
   8   3  -2   51.69    6.70
   8   3  -2   47.70    6.30
   7   3  -2   33.50    2.90
   7   3  -2   32.70    5.50
   7   3  -2   27.10    4.90
   7   3  -2   33.50    3.10
   6   3  -2   77.09    6.10
   6   3  -2   74.89    6.90
   6   3  -2   79.39    4.00
   6   3  -2   69.29    4.00
   5   3  -2  286.07    9.80
   5   3  -2  266.77   12.10
   5   3  -2  267.47   10.00
   5   3  -2  269.77   12.10
   4   3  -2   96.79    6.10
   4   3  -2   95.29    4.50
   4   3  -2  106.69    4.20
   4   3  -2  100.09    6.20
   3   3  -2  551.24   17.50
   3   3  -2  544.35   19.50
   3   3  -2  561.54   19.50
   3   3  -2  534.25   18.10
   3   3  -2  552.44   17.90
   3   3  -2  531.75   17.40
   2   3  -2  571.24   19.20
   2   3  -2  546.65   18.30
   2   3  -2  525.05   17.30
   2   3  -2  551.94   18.60
   2   3  -2  562.24   19.20
   2   3  -2  540.25   17.30
   2   3  -2  548.85   18.20
   1   3  -2  596.74   20.50
   1   3  -2  593.94   20.20
   1   3  -2  622.34   19.30
   1   3  -2  600.24   20.10
   1   3  -2  593.64   19.20
   1   3  -2  616.14   19.90
   1   3  -2  602.94   20.50
   0   3  -2  975.00   30.70
   0   3  -2 1008.70   31.60
   0   3  -2 1023.40   30.80
   0   3  -2  972.80   30.90
   0  -3   2  848.62   30.80
  -1   3  -2  669.63   21.60
  -1   3  -2  688.23   22.40
  -1   3  -2  654.13   21.70
   1  -3   2  602.34   21.60
  -2   3  -2  167.18    7.60
  -2   3  -2  188.28    7.60
   2  -3   2  186.38    7.70
   3  -3   2  338.17   13.10
  -4   3  -2  684.03   23.00
   4  -3   2  591.24   22.60
  -5   3  -2 1017.40   35.00
  -5   3  -2 1043.30   35.40
   5  -3   2 1002.60   35.10
  -6   3  -2  231.08   11.10
  -6   3  -2  241.68   11.80
   6  -3   2  248.18   11.90
   6  -3   2  255.07   11.90
  -7   3  -2  151.18    9.50
  -7   3  -2  158.88    8.70
   7  -3   2  139.49    8.90
   7  -3   2  148.19    9.20
  -8   3  -2   66.29    7.00
  -8   3  -2   67.99    6.70
   8  -3   2   55.39    6.20
   8  -3   2   76.79    8.20
   8  -3   2   74.69    8.20
  -9   3  -2   33.30    4.90
   9  -3   2   30.60    6.20
   9  -3   2   25.20    5.00
   9  -3   2   25.60    5.30
  10  -3   2   32.20    6.30
  10  -3   2   35.70    5.60
  10  -3   2   30.10    6.60
  11  -3   2  140.79   13.70
  11  -3   2  119.49   12.40
  11   2  -2   13.00    6.20
  11   2  -2    8.50    5.80
  10   2  -2   50.09    7.80
  10   2  -2   63.69    3.80
  10   2  -2   69.39    9.00
   9   2  -2   45.00    6.60
   9   2  -2   47.90    7.20
   9   2  -2   43.40    3.60
   8   2  -2   50.59    6.90
   8   2  -2   48.60    3.70
   8   2  -2   50.79    6.90
   7   2  -2  216.78   11.70
   7   2  -2  221.68    8.90
   7   2  -2  222.08   11.80
   7   2  -2  222.18    8.60
   6   2  -2    9.60    3.30
   6   2  -2    8.70    1.70
   6   2  -2    4.80    1.40
   6   2  -2    4.80    3.10
   5   2  -2  175.98    9.00
   5   2  -2  174.68    8.90
   5   2  -2  169.08    6.70
   5   2  -2  182.68    6.90
   4   2  -2  368.76   12.70
   4   2  -2  368.16   14.70
   4   2  -2  387.36   14.70
   4   2  -2  385.26   12.60
   3   2  -2 1039.40   33.70
   3   2  -2 1000.50   31.90
   3   2  -2  991.30   33.50
   2   2  -2   15.80    1.60
   2   2  -2   15.70    2.50
   2   2  -2   14.40    2.40
   2   2  -2   15.30    1.70
   1   2  -2 1338.67   43.50
   1   2  -2 1375.56   43.60
   1   2  -2 1399.96   43.20
   1   2  -2 1345.47   43.20
   0   2  -2 1523.15   48.40
   0   2  -2 1530.05   48.00
   0   2  -2 1510.05   47.40
   0   2  -2 1558.44   47.40
   0   2  -2 1511.75   48.30
  -1   2  -2   18.60    2.00
  -1   2  -2   16.90    2.30
  -1   2  -2   17.60    1.80
   1  -2   2   14.80    1.80
  -2   2  -2    1.20    1.60
  -2   2  -2    7.20    1.70
  -2   2  -2    5.40    1.60
   2  -2   2    5.90    1.50
  -3   2  -2 1784.62   54.29
  -3   2  -2 1654.13   54.09
   3  -2   2 1618.14   54.09
  -4   2  -2  667.53   22.70
  -4   2  -2  635.94   22.40
   4  -2   2  612.64   22.40
  -5   2  -2  166.58    8.20
  -5   2  -2  177.08    8.90
   5  -2   2  182.58    8.80
  -6   2  -2  136.39    7.50
  -6   2  -2  134.89    8.20
   6  -2   2  153.38    8.50
   6  -2   2  141.89    8.10
  -7   2  -2   21.20    4.10
  -7   2  -2   20.80    3.60
   7  -2   2   24.70    4.60
   7  -2   2   17.90    4.00
   7  -2   2   18.00    3.40
  -8   2  -2    8.10    3.10
  -8   2  -2    5.00    3.30
   8  -2   2    4.50    2.80
   8  -2   2   -1.90    3.10
   8  -2   2    5.70    3.80
  -9   2  -2   61.09    6.10
   9  -2   2   50.39    7.30
   9  -2   2   59.49    6.30
   9  -2   2   61.89    7.90
  10  -2   2   13.90    5.40
  10  -2   2   35.40    6.80
  10  -2   2   20.40    4.50
  11  -2   2   22.70    7.00
  11  -2   2   28.40    7.20
  11   1  -2   15.70    6.40
  11   1  -2    9.60    6.00
  10   1  -2   19.80    5.90
  10   1  -2   13.20    5.20
  10   1  -2   23.10    2.80
   9   1  -2   15.90    2.60
   9   1  -2   25.70    5.80
   9   1  -2   17.70    5.50
   8   1  -2  101.59    8.40
   8   1  -2  100.89    5.60
   8   1  -2  105.89    8.60
   7   1  -2   10.90    1.80
   7   1  -2    9.00    3.70
   7   1  -2    6.60    1.80
   7   1  -2   10.00    3.90
   6   1  -2   35.40    2.60
   6   1  -2   40.30    5.20
   6   1  -2   34.40    4.80
   6   1  -2   37.80    3.00
  -6  -1   2   30.00    3.80
   5   1  -2  100.59    6.40
   5   1  -2   87.49    4.40
   5   1  -2   86.39    6.20
   5   1  -2   95.09    4.10
   4   1  -2  128.49    4.90
   4   1  -2  130.59    7.00
   4   1  -2  126.39    6.80
   4   1  -2  135.69    5.20
   3   1  -2  866.21   28.90
   3   1  -2  880.91   27.10
   3   1  -2  864.51   29.10
   3   1  -2  851.71   27.20
   2   1  -2  414.86   14.60
   2   1  -2  411.66   14.40
   2   1  -2  410.36   13.10
   1   1  -2 2363.96   73.19
   1   1  -2 2337.57   73.29
   1   1  -2 2285.37   73.09
   1   1  -2 2377.86   72.99
   0   1  -2 1151.58   36.40
   0   1  -2 1152.18   36.50
   0   1  -2 1147.69   36.50
  -1   1  -2  794.02   25.00
  -1   1  -2  791.42   25.50
  -1   1  -2  768.92   25.00
  -2   1  -2  111.79    5.20
  -2   1  -2  112.79    5.20
  -2   1  -2  110.99    5.10
   2  -1   2  118.19    5.10
  -3   1  -2  328.57   12.00
  -3   1  -2  333.27   12.30
   3  -1   2  323.47   12.20
  -4   1  -2  715.93   24.50
  -4   1  -2  708.83   23.80
   4  -1   2  680.43   24.30
  -5   1  -2    5.90    2.10
  -5   1  -2    6.00    2.00
   5  -1   2    4.90    2.60
   5  -1   2    6.60    2.30
  -6   1  -2  107.49    6.10
   6  -1   2  103.99    6.70
   6  -1   2  107.49    7.00
  -7   1  -2   52.59    6.00
  -7   1  -2   47.50    4.60
   7  -1   2   50.29    6.10
   7  -1   2   40.10    5.40
   7  -1   2   56.59    6.00
  -8   1  -2  137.79    9.40
  -8   1  -2  145.69    7.80
   8  -1   2  136.99    8.10
   8  -1   2  143.89    9.60
   8  -1   2  136.39    9.40
  -9   1  -2   73.09    5.80
   9  -1   2   83.29    8.70
   9  -1   2   81.49    8.60
   9  -1   2   83.89    6.50
  10  -1   2   43.10    7.20
  10  -1   2   51.39    6.20
  10  -1   2   37.00    6.60
  11  -1   2   29.50    7.10
  11  -1   2   12.70    5.70
  11   0  -2   12.50    6.20
  11   0  -2   32.60    7.60
  10   0  -2   30.50    6.80
  10   0  -2   40.20    7.20
  10   0  -2   34.60    3.70
   9   0  -2   49.50    4.40
   9   0  -2   55.99    7.70
   9   0  -2   68.99    8.30
   8   0  -2   22.40    4.90
   8   0  -2   30.90    5.80
   8   0  -2   18.50    2.90
   7   0  -2   25.40    5.00
   7   0  -2   32.50    5.50
   7   0  -2   28.60    2.80
   7   0  -2   25.50    3.00
   6   0  -2   89.19    7.50
   6   0  -2   76.09    4.00
   6   0  -2   79.79    4.50
   6   0  -2   86.69    6.80
  -6   0   2   76.09    5.50
   5   0  -2   63.39    5.80
   5   0  -2   70.89    5.80
   5   0  -2   65.49    3.30
   5   0  -2   63.59    3.70
  -5   0   2   74.79    7.70
   4   0  -2  273.77    9.00
   4   0  -2  253.17   11.20
   4   0  -2  260.57   11.00
   4   0  -2  261.67    9.50
   3   0  -2  196.48    8.50
   3   0  -2  216.08    7.30
   3   0  -2  207.38    8.80
   3   0  -2  203.68    6.90
   2   0  -2 1826.92   57.59
   2   0  -2 1802.92   57.29
   1   0  -2  131.09    5.40
   1   0  -2  131.99    5.20
   1   0  -2  135.59    5.40
  -1   0   2  136.29    4.40
   0   0  -2  847.42   26.60
   0   0  -2  851.41   26.90
   0   0  -2  848.72   26.70
   0   0  -2  828.32   26.80
  -1   0  -2  352.36   12.20
  -1   0  -2  405.46   12.30
  -1   0  -2  413.06   12.70
   1   0   2  338.97   12.20
  -2   0  -2 1198.98   39.30
  -2   0  -2 1342.87   39.30
  -2   0  -2 1162.18   39.20
   2   0   2 1235.48   39.30
  -3   0  -2  257.07   10.00
  -3   0  -2  251.77    9.40
   3   0   2  260.77    9.90
  -4   0  -2  669.43   22.80
  -4   0  -2  733.53   23.80
   4   0   2  655.43   23.60
   4   0   2  674.53   23.50
  -5   0  -2  538.45   18.90
  -5   0  -2  492.75   17.60
   5   0   2  508.15   18.90
   5   0   2  478.75   18.40
   5   0   2  508.25   18.70
  -6   0  -2  236.18    9.40
  -6   0  -2  219.58   10.70
   6   0   2  224.88   10.50
   6   0   2  222.98    9.80
   6   0   2  222.88   10.70
   6   0   2  222.08   10.50
  -7   0  -2  343.47   12.80
   7   0   2  303.87   14.60
   7   0   2  326.57   13.50
   7   0   2  332.07   14.60
  -8   0  -2   15.20    3.90
  -8   0  -2   22.10    3.20
   8   0   2   25.80    5.10
   8   0   2   19.00    4.40
   8   0   2   18.90    3.70
   9   0   2   43.30    5.20
   9   0   2   36.20    6.20
   9   0   2   42.10    6.30
  10   0   2   24.40    5.70
  10   0   2   38.00    6.70
  10   0   2   33.40    4.80
  11   0   2   11.20    5.40
  11   0   2   11.40    5.30
  12   0   2   35.70    8.20
  12   0   2   61.59   10.10
  11  -1  -2   15.00    6.20
  11  -1  -2   13.40    6.20
  10  -1  -2   30.40    6.80
  10  -1  -2   27.10    6.20
   9  -1  -2   20.30    3.20
   9  -1  -2   14.80    4.80
   9  -1  -2   11.70    4.60
   8  -1  -2   21.40    3.20
   8  -1  -2   24.10    5.10
   8  -1  -2   23.20    5.50
   7  -1  -2  206.68   11.90
   7  -1  -2  227.68    8.90
   7  -1  -2  220.58   11.40
   7  -1  -2  214.88    9.50
   6  -1  -2   90.49    6.90
   6  -1  -2   82.89    4.30
   6  -1  -2   79.79    6.40
   6  -1  -2   82.89    4.80
  -6   1   2   78.49    5.70
   5  -1  -2  161.18    7.00
   5  -1  -2  161.08    8.40
   5  -1  -2  164.08    8.70
  -5   1   2  161.48    7.90
   4  -1  -2   66.69    4.60
   4  -1  -2   67.29    5.20
   4  -1  -2   67.39    3.80
  -4   1   2   68.09    4.60
   3  -1  -2   86.89    5.20
   3  -1  -2   84.29    4.60
   3  -1  -2   78.59    3.80
   2  -1  -2  867.31   28.10
   2  -1  -2  863.81   28.50
   1  -1  -2   93.09    3.70
   1  -1  -2   87.29    4.10
   1  -1  -2   85.89    4.10
  -1   1   2   88.89    3.30
   0  -1  -2 3701.83  113.29
   0  -1  -2 3667.13  113.09
   0  -1  -2 3605.74  113.09
   0   1   2 3663.53  112.89
   0   1   2 3658.83  112.99
  -1  -1  -2 1094.29   36.60
  -1  -1  -2 1231.68   36.70
   1   1   2 1196.78   36.90
   1   1   2 1148.19   36.70
  -2  -1  -2 3822.72  115.29
  -2  -1  -2 3788.82  114.89
  -2  -1  -2 3753.12  115.29
   2   1   2 3745.73  115.29
   2   1   2 3732.93  115.09
   2   1   2 3425.16  115.19
  -3  -1  -2    1.40    1.30
  -3  -1  -2    1.50    1.10
   3   1   2    2.60    1.50
   3   1   2    2.20    1.40
   3   1   2    4.10    1.70
   3   1   2    0.50    1.40
  -4  -1  -2 1181.18   39.10
  -4  -1  -2 1197.58   37.80
   4   1   2 1225.88   39.00
   4   1   2 1178.78   38.50
   4   1   2 1178.78   38.60
   4   1   2 1159.88   39.00
  -5  -1  -2  322.97   12.30
  -5  -1  -2  275.17   10.40
   5   1   2  277.37   11.30
   5   1   2  285.47   11.60
   5   1   2  285.57   12.10
  -6  -1  -2  208.08    7.90
  -6  -1  -2  187.58    9.60
   6   1   2  189.18    8.80
   6   1   2  189.58    9.20
   6   1   2  189.48    9.60
  -7  -1  -2  138.39    8.20
  -7  -1  -2  127.59    6.00
   7   1   2  122.79    7.10
   7   1   2  130.59    8.20
   7   1   2  122.59    7.70
  -8  -1  -2  433.86   15.20
  -8  -1  -2  413.66   18.10
   8   1   2  426.56   18.50
   8   1   2  414.16   16.70
   8   1   2  408.26   17.90
   9   1   2  100.69    6.90
   9   1   2   90.79    8.90
   9   1   2   92.59    8.70
  10   1   2   65.39    6.30
  10   1   2   49.50    7.40
  10   1   2   59.09    8.20
  11   1   2   78.69    9.60
  11   1   2   83.49    9.70
  12   1   2   66.29    9.60
  12   1   2   52.19    9.60
  11  -2  -2   17.20    6.70
  11  -2  -2   28.30    7.70
  10  -2  -2   50.69    8.70
  10  -2  -2   62.79    8.80
   9  -2  -2   48.10    7.60
   9  -2  -2   36.70    6.60
   8  -2  -2   38.20    6.40
   8  -2  -2   45.00    4.60
   8  -2  -2   49.40    6.40
   7  -2  -2   25.50    3.00
   7  -2  -2   28.40    3.60
   7  -2  -2   26.20    4.50
   7  -2  -2   25.40    5.30
   6  -2  -2  182.98   10.00
   6  -2  -2  169.08    9.40
   6  -2  -2  180.48    8.20
  -6   2   2  172.38    9.10
   5  -2  -2   25.50    2.90
   5  -2  -2   24.60    3.70
   5  -2  -2   26.60    4.40
  -5   2   2   22.00    3.20
   4  -2  -2 1180.68   40.40
   4  -2  -2 1238.18   39.10
   4  -2  -2 1203.18   39.10
   4  -2  -2 1227.58   39.90
  -4   2   2 1172.98   39.70
   3  -2  -2 3044.50   90.59
   3  -2  -2 2925.91   91.79
   3  -2  -2 2878.11   90.59
   3  -2  -2 2941.31   91.19
  -3   2   2 2702.43   90.99
   2  -2  -2  103.79    4.60
   2  -2  -2  101.19    4.70
   2  -2  -2  105.59    5.40
  -2   2   2  113.99    4.90
   1  -2  -2   66.09    3.10
   1  -2  -2   62.59    3.10
  -1   2   2   70.59    3.20
   0  -2  -2  149.19    5.30
   0  -2  -2  139.69    5.40
   0   2   2  151.28    5.60
  -1  -2  -2   98.99    4.40
   1   2   2   99.19    3.70
   1   2   2   95.99    4.40
  -2  -2  -2 1975.40   63.99
   2   2   2 2072.29   63.09
   2   2   2 2073.29   63.69
   2   2   2 2027.20   63.99
  -3  -2  -2 2095.89   66.99
   3   2   2 2155.68   66.19
   3   2   2 2090.69   66.79
   3   2   2 2124.59   66.79
  -4  -2  -2   47.60    2.50
  -4  -2  -2   45.20    3.90
   4   2   2   50.09    3.50
   4   2   2   51.99    4.10
   4   2   2   53.59    3.70
  -5  -2  -2  246.48   10.90
  -5  -2  -2  263.27    8.90
   5   2   2  260.37   10.40
   5   2   2  244.28   10.80
   5   2   2  256.57   10.40
  -6  -2  -2  838.72   30.20
  -6  -2  -2  854.51   27.50
   6   2   2  874.31   29.30
   6   2   2  864.31   30.30
   6   2   2  860.61   29.70
   6   2   2  845.22   29.80
  -7  -2  -2   25.00    2.20
  -7  -2  -2   25.30    4.00
   7   2   2   23.80    4.50
   7   2   2   26.00    3.60
   7   2   2   22.60    4.00
   7   2   2   17.50    3.70
  -8  -2  -2   66.19    6.70
   8   2   2   61.89    5.70
   8   2   2   61.49    6.60
   8   2   2   66.39    7.50
   9   2   2    8.30    3.80
   9   2   2    4.80    2.90
   9   2   2   11.00    4.30
  10   2   2  448.56   20.90
  10   2   2  432.46   18.10
  10   2   2  461.45   20.20
  11   2   2   29.70    6.10
  11   2   2   28.40    6.70
  12   2   2   55.19    8.60
  12   2   2   33.80    8.40
  11  -3  -2   -3.20    5.50
  11  -3  -2    1.90    6.40
  10  -3  -2   68.49    9.30
  10  -3  -2   47.90    8.70
   9  -3  -2   53.99    8.00
   9  -3  -2   54.79    7.30
   8  -3  -2   33.60    6.10
   8  -3  -2   35.80    6.00
   7  -3  -2   83.19    8.20
   7  -3  -2   87.19    8.00
   7  -3  -2   88.49    5.90
   6  -3  -2  112.89    7.40
   6  -3  -2  105.69    8.10
   6  -3  -2  112.39    6.40
   6  -3  -2   96.69    6.20
  -6   3   2  114.29    7.30
   5  -3  -2   22.10    3.90
   5  -3  -2   14.90    2.60
   5  -3  -2   18.20    3.40
   5  -3  -2   17.90    2.80
  -5   3   2   16.30    3.10
   4  -3  -2 2020.20   63.29
   4  -3  -2 1957.70   61.89
   4  -3  -2 2008.90   61.89
   4  -3  -2 1990.70   62.49
  -4   3   2 1704.83   62.19
   3  -3  -2   89.09    5.00
   3  -3  -2  105.79    5.10
   3  -3  -2  100.59    5.30
  -3   3   2   98.29    5.40
   2  -3  -2  115.69    5.30
   2  -3  -2  121.29    5.50
  -2   3   2  123.79    5.70
   1  -3  -2  226.28    8.30
  -1   3   2  216.48    8.50
  -1   3   2  227.98    8.40
   0  -3  -2 1109.99   35.40
   0  -3  -2 1122.79   36.10
   0  -3  -2 1202.08   35.60
   0   3   2 1095.49   36.20
  -1  -3  -2  365.86   11.80
  -1  -3  -2  360.56   12.70
   1   3   2  363.06   11.80
   1   3   2  361.56   12.70
  -2  -3  -2  660.43   23.10
   2   3   2  707.33   22.60
   2   3   2  718.73   23.20
   2   3   2  702.43   22.10
  -3  -3  -2  116.59    5.60
   3   3   2  108.89    4.70
   3   3   2  109.29    5.20
   3   3   2  104.09    5.40
  -4  -3  -2  564.64   19.40
   4   3   2  548.45   19.00
   4   3   2  525.75   19.10
   4   3   2  526.95   18.40
  -5  -3  -2   21.40    3.30
   5   3   2   25.90    3.30
   5   3   2   23.90    3.00
   5   3   2   26.00    3.70
  -6  -3  -2  165.88    8.50
   6   3   2  154.08    8.00
   6   3   2  155.18    7.80
   6   3   2  146.99    8.20
   6   3   2  153.58    7.70
  -7  -3  -2  170.68    9.80
   7   3   2  197.78   10.30
   7   3   2  195.88    9.90
   7   3   2  183.28    9.30
   7   3   2  171.28    8.70
  -8  -3  -2   24.90    4.80
   8   3   2   33.40    5.50
   8   3   2   32.50    5.00
   8   3   2   29.30    4.10
   9   3   2  239.38   11.40
   9   3   2  234.78   13.30
   9   3   2  227.98   12.20
  10   3   2  125.59    8.40
  10   3   2  140.69   10.00
  10   3   2  154.58   11.30
  11   3   2  127.19   12.40
  11   3   2  150.08   11.10
  12   3   2   15.50    6.50
  12   3   2   20.00    6.60
  10  -4  -2   32.10    6.60
  10  -4  -2   28.20    7.70
   9  -4  -2   33.60    7.10
   9  -4  -2   30.40    6.10
   8  -4  -2    3.90    3.90
   8  -4  -2    4.90    4.30
   7  -4  -2   70.49    7.30
   7  -4  -2   81.09    6.20
   7  -4  -2   73.19    8.20
   6  -4  -2   91.89    6.20
   6  -4  -2   90.49    5.80
   6  -4  -2   82.59    6.80
   6  -4  -2   93.29    8.50
  -6   4   2   75.79    6.70
   5  -4  -2  284.57   13.10
   5  -4  -2  288.37   11.70
   5  -4  -2  277.27   11.50
   5  -4  -2  260.47   11.90
  -5   4   2  265.17   12.30
   4  -4  -2  281.67   11.70
   4  -4  -2  294.67   11.80
   4  -4  -2  284.87   11.50
  -4   4   2  286.47   12.10
   3  -4  -2   37.70    3.60
   3  -4  -2   30.20    3.20
  -3   4   2   36.40    3.80
   2  -4  -2  649.93   22.20
  -2   4   2  649.24   22.40
   1  -4  -2 1044.60   33.00
  -1   4   2  974.60   32.90
  -1   4   2  999.50   32.80
   0  -4  -2 1387.66   45.80
   0   4   2 1476.35   45.80
  -1  -4  -2 2214.88   71.99
  -1  -4  -2 2336.77   70.49
   1   4   2 2295.47   70.99
   1   4   2 2283.27   71.99
  -2  -4  -2  758.22   24.90
   2   4   2  737.73   24.80
   2   4   2  721.13   24.00
  -3  -4  -2  381.36   14.60
   3   4   2  401.06   14.20
   3   4   2  412.26   14.60
   3   4   2  401.56   13.60
  -4  -4  -2  313.67   12.30
   4   4   2  307.87   11.30
   4   4   2  297.77   11.90
   4   4   2  305.67   12.00
  -5  -4  -2  579.04   21.20
   5   4   2  564.44   20.10
   5   4   2  590.34   21.20
   5   4   2  564.34   20.50
   5   4   2  583.04   21.00
  -6  -4  -2  141.89    7.90
   6   4   2  132.39    7.00
   6   4   2  143.69    8.10
   6   4   2  134.69    7.40
   6   4   2  121.99    6.90
   7   4   2   52.09    5.30
   7   4   2   53.29    6.10
   7   4   2   52.89    5.10
  -8  -4  -2  127.59    8.70
   8   4   2  128.79    9.00
   8   4   2  127.09    8.10
   8   4   2  120.39    7.50
   9   4   2   -1.60    3.40
   9   4   2   -1.20    2.40
   9   4   2    4.60    3.40
  10   4   2   20.70    5.80
  10   4   2   19.50    4.40
  10   4   2   35.90    5.90
  11   4   2   11.10    5.00
  11   4   2   10.80    5.10
  12   4   2   29.50    7.70
  12   4   2   31.10    7.00
  10  -5  -2   27.60    6.70
  10  -5  -2   19.60    6.70
   9  -5  -2   68.69    8.60
   9  -5  -2   73.09    9.40
   8  -5  -2   79.39    8.20
   8  -5  -2   77.69    6.50
   8  -5  -2   73.09    8.80
   7  -5  -2  135.39    8.30
   7  -5  -2  128.09    9.60
   7  -5  -2  146.29    9.50
   6  -5  -2  120.59    7.30
   6  -5  -2  113.39    8.60
   6  -5  -2  100.39    7.30
   5  -5  -2   91.19    6.00
   5  -5  -2  105.89    6.70
   5  -5  -2  104.89    6.70
  -5   5   2  105.29    7.20
   4  -5  -2  415.76   15.80
   4  -5  -2  402.46   15.60
  -4   5   2  392.96   16.10
   3  -5  -2  108.69    6.10
   3  -5  -2  102.29    5.70
  -3   5   2  120.79    6.60
   2  -5  -2  157.68    7.40
  -2   5   2  155.38    7.60
   1  -5  -2 1003.70   33.10
  -1   5   2  982.40   33.10
  -1   5   2 1008.60   33.30
   0  -5  -2  705.93   24.10
   0   5   2  711.33   24.10
  -1  -5  -2   63.79    4.20
   1   5   2   59.69    4.20
   1   5   2   62.59    3.20
  -2  -5  -2   93.99    5.20
   2   5   2   84.69    5.10
   2   5   2   88.89    4.40
  -3  -5  -2   34.10    3.40
   3   5   2   45.30    3.50
   3   5   2   42.90    3.00
   3   5   2   46.50    4.20
  -4  -5  -2   52.99    4.30
   4   5   2   46.90    3.40
   4   5   2   51.29    4.50
   4   5   2   48.70    4.00
  -5  -5  -2  329.77   13.40
   5   5   2  312.27   12.90
   5   5   2  316.07   13.00
   5   5   2  312.57   12.80
   5   5   2  316.87   12.20
  -6  -5  -2   86.59    6.30
   6   5   2   78.89    6.10
   6   5   2   88.49    6.00
   6   5   2   93.99    5.70
   6   5   2   78.79    5.70
  -7  -5  -2  349.96   15.70
   7   5   2  356.16   14.70
   7   5   2  365.06   14.80
   7   5   2  365.16   15.80
  -8  -5  -2   20.50    4.00
   8   5   2   19.80    4.30
   8   5   2   13.40    4.30
   8   5   2   16.20    3.40
   9   5   2    4.90    3.40
   9   5   2    6.00    2.80
   9   5   2    4.70    3.60
  10   5   2  144.59   10.50
  10   5   2  128.69    8.70
  10   5   2  136.89    9.80
  11   5   2  123.29   10.10
  11   5   2  119.49   12.10
  12   5   2   33.20    8.40
  12   5   2   62.19    8.90
  10  -6  -2    9.50    6.10
  10  -6  -2   12.50    7.20
   9  -6  -2   53.29    8.50
   9  -6  -2   56.49    7.80
   8  -6  -2    9.50    3.40
   8  -6  -2    7.80    4.10
   8  -6  -2   13.30    4.70
   7  -6  -2   28.00    6.00
   7  -6  -2   29.60    4.50
   7  -6  -2   23.60    4.90
   6  -6  -2    0.70    3.50
   6  -6  -2    6.30    3.20
   6  -6  -2    1.70    2.50
   5  -6  -2   97.09    6.80
   5  -6  -2  113.99    7.20
  -5   6   2  109.79    7.80
   4  -6  -2  502.75   19.00
   4  -6  -2  525.35   19.50
  -4   6   2  494.85   19.80
   3  -6  -2    4.30    2.00
  -3   6   2    6.20    2.20
   2  -6  -2  352.16   13.80
  -2   6   2  347.87   14.00
   1  -6  -2  605.34   21.70
  -1   6   2  614.84   21.90
  -1   6   2  617.34   21.80
   0  -6  -2  198.88    8.70
   0   6   2  173.48    8.50
   0   6   2  199.28    8.70
   1   6   2 1311.67   41.10
   1   6   2 1264.47   42.40
  -2  -6  -2  918.61   30.80
   2   6   2  906.61   29.70
   2   6   2  891.21   30.70
  -3  -6  -2  108.09    6.30
   3   6   2  118.39    5.80
   3   6   2  109.19    6.20
  -4  -6  -2  497.45   18.30
   4   6   2  473.15   17.60
   4   6   2  480.45   17.00
   4   6   2  473.45   17.90
  -5  -6  -2  170.28    8.80
   5   6   2  166.98    8.40
   5   6   2  157.78    8.20
   5   6   2  169.28    8.50
   5   6   2  171.48    7.80
  -6  -6  -2  127.49    8.00
   6   6   2  147.69    7.90
   6   6   2  134.59    8.00
   6   6   2  125.69    7.50
  -7  -6  -2   69.39    6.80
   7   6   2   74.39    5.80
   7   6   2   72.89    6.90
   7   6   2   68.49    6.10
   8   6   2   30.00    4.60
   8   6   2   23.60    5.00
   8   6   2   21.50    4.20
   9   6   2   41.30    5.50
   9   6   2   40.90    5.80
   9   6   2   40.10    6.40
  10   6   2   97.49    7.60
  10   6   2  101.49   10.00
  10   6   2   98.49    8.30
  11   6   2   20.30    5.50
  11   6   2   16.40    6.10
  12   6   2   44.90    7.80
  12   6   2   54.49    9.40
   9  -7  -2    6.20    4.90
   9  -7  -2   12.40    4.40
   9  -7  -2    4.80    5.30
   8  -7  -2   30.10    5.10
   8  -7  -2   19.70    6.30
   8  -7  -2   24.90    5.90
   7  -7  -2   87.49    9.40
   7  -7  -2   74.69    7.70
   7  -7  -2   79.49    7.00
   6  -7  -2   35.30    5.10
   6  -7  -2   30.60    4.70
   5  -7  -2   26.50    4.30
   5  -7  -2   27.10    4.30
  -5   7   2   23.80    4.40
   4  -7  -2   30.40    4.30
   4  -7  -2   39.50    4.40
  -4   7   2   18.50    3.80
   3  -7  -2  139.69    7.80
  -3   7   2  137.29    8.10
   2  -7  -2   22.10    3.20
  -2   7   2   16.60    2.90
   1  -7  -2   24.90    3.50
  -1   7   2   21.80    3.30
  -1   7   2   16.50    3.20
   0  -7  -2   84.19    5.50
   0   7   2   74.89    5.30
   0   7   2   85.09    5.70
  -1  -7  -2   51.89    4.40
   1   7   2   61.79    4.90
   1   7   2   56.69    3.60
  -2  -7  -2  384.96   15.30
   2   7   2  394.96   15.40
   2   7   2  395.46   14.20
  -3  -7  -2  146.99    7.80
   3   7   2  148.99    7.00
   3   7   2  142.29    7.80
  -4  -7  -2   92.59    6.30
   4   7   2  107.89    6.10
   4   7   2   97.69    6.30
  -5  -7  -2   77.69    6.00
   5   7   2   82.79    5.20
   5   7   2   82.89    5.80
   5   7   2   75.89    5.70
   5   7   2   90.69    6.20
  -6  -7  -2    6.50    3.00
   6   7   2   14.80    3.30
   6   7   2    6.20    3.00
   6   7   2   12.20    3.00
  -7  -7  -2  121.69    8.40
   7   7   2  126.49    7.80
   7   7   2  137.89    8.70
   7   7   2  128.09    8.00
   8   7   2   50.29    5.70
   8   7   2   42.60    6.20
   8   7   2   42.40    5.30
   9   7   2   17.70    4.20
   9   7   2    8.40    3.80
   9   7   2   14.30    4.70
  10   7   2    2.60    4.20
  10   7   2    2.60    3.80
  10   7   2    3.80    3.60
  11   7   2   15.40    5.10
  11   7   2   16.00    5.80
   9  -8  -2   28.30    5.90
   9  -8  -2   28.50    6.80
   9  -8  -2   35.60    8.70
   8  -8  -2   21.00    5.50
   8  -8  -2   20.80    4.60
   8  -8  -2   14.50    6.30
   7  -8  -2   22.70    6.10
   7  -8  -2   23.10    5.20
   7  -8  -2   33.20    5.40
   6  -8  -2   27.60    4.60
   6  -8  -2   16.90    4.40
   5  -8  -2   58.19    6.10
   5  -8  -2   59.59    6.20
  -5   8   2   54.59    6.70
   4  -8  -2   79.89    6.40
  -4   8   2   72.19    7.20
   3  -8  -2   17.60    3.30
  -3   8   2   14.70    3.30
   2  -8  -2   22.40    3.60
  -2   8   2   24.00    4.00
   1  -8  -2    7.40    2.50
  -1   8   2   12.90    3.00
  -1   8   2   11.60    3.10
   0  -8  -2   20.60    3.20
   0   8   2   21.00    3.80
   0   8   2   20.30    3.20
  -1  -8  -2   56.09    4.90
   1   8   2   56.59    5.60
   1   8   2   56.09    4.80
  -2  -8  -2   41.90    4.80
   2   8   2   40.00    3.70
   2   8   2   31.90    4.10
  -3  -8  -2   61.19    5.10
   3   8   2   57.29    4.40
   3   8   2   53.49    5.30
  -4  -8  -2  182.98    9.60
   4   8   2  195.08    8.90
   4   8   2  174.28    9.40
  -5  -8  -2  267.67   12.50
   5   8   2  261.57   11.80
   5   8   2  262.57   12.30
   5   8   2  266.67   11.40
  -6  -8  -2   55.99    6.10
   6   8   2   66.59    6.30
   6   8   2   60.39    5.10
   6   8   2   67.09    6.20
  -7  -8  -2   53.09    6.10
   7   8   2   62.19    6.00
   7   8   2   49.60    6.40
   7   8   2   57.39    6.10
   8   8   2   17.60    4.20
   8   8   2   17.00    4.70
   8   8   2   12.80    3.80
   9   8   2   27.60    5.80
   9   8   2   29.10    5.20
   9   8   2   35.90    5.40
  10   8   2   20.10    4.80
  10   8   2   20.70    5.70
  10   8   2   13.40    4.80
  11   8   2    3.80    5.50
  11   8   2    6.10    4.80
   8  -9  -2   -5.90    5.20
   8  -9  -2    5.40    4.00
   8  -9  -2    5.80    4.60
   7  -9  -2    1.80    3.00
   7  -9  -2    3.10    3.80
   6  -9  -2   64.09    7.20
   6  -9  -2   73.79    7.60
   5  -9  -2    8.90    3.60
   5  -9  -2    8.50    3.30
   4  -9  -2   60.99    6.60
  -4   9   2   53.19    6.20
   3  -9  -2  236.08   11.80
  -3   9   2  230.48   12.10
   2  -9  -2  349.77   15.10
  -2   9   2  333.47   15.10
   1  -9  -2   48.00    5.20
  -1   9   2   55.49    5.90
  -1   9   2   59.19    6.10
   0  -9  -2  217.48   10.90
   0   9   2  242.88   11.30
   0   9   2  219.48   11.00
  -1  -9  -2   86.79    6.30
   1   9   2   88.79    6.40
   1   9   2   81.39    6.50
  -2  -9  -2  105.99    6.90
   2   9   2   84.89    6.70
   2   9   2   96.89    5.70
   2   9   2  104.49    6.80
  -3  -9  -2  200.88   10.60
   3   9   2  218.88   10.90
   3   9   2  223.88    9.70
  -4  -9  -2   68.29    6.00
   4   9   2   84.09    6.50
   4   9   2   69.09    5.40
  -5  -9  -2  252.17   12.20
   5   9   2  231.58   11.20
   5   9   2  232.78   11.90
  -6  -9  -2   18.70    3.90
   6   9   2   15.70    3.70
   6   9   2   20.70    4.10
   6   9   2   24.20    4.60
   7   9   2   64.99    7.10
   7   9   2   78.49    7.00
   7   9   2   72.79    7.40
   8   9   2    7.40    3.80
   8   9   2   11.60    3.90
   8   9   2   14.10    4.10
   9   9   2   27.50    5.30
   9   9   2   33.90    6.20
   9   9   2   54.59    6.70
  10   9   2   34.60    6.00
  10   9   2   40.00    6.30
  10   9   2   39.70    7.30
  11   9   2   85.29   10.50
   8 -10  -2   37.40    6.80
   8 -10  -2   14.50    5.20
   8 -10  -2   25.60    8.10
   7 -10  -2   59.39    7.20
   7 -10  -2   59.39    7.60
   6 -10  -2   44.50    6.30
   6 -10  -2   51.39    6.80
   5 -10  -2   44.10    5.90
   5 -10  -2   47.90    6.20
   4 -10  -2    6.00    3.20
  -4  10   2    3.10    3.10
   3 -10  -2  195.98   10.90
  -3  10   2  189.78   11.30
   2 -10  -2  179.78   10.40
  -2  10   2  189.18   10.70
   1 -10  -2  244.68   12.00
  -1  10   2  223.08   11.80
  -1  10   2  232.68   12.00
   0 -10  -2   79.79    6.60
   0  10   2   85.59    6.80
   0  10   2   67.89    6.70
  -1 -10  -2   16.40    3.70
   1  10   2   20.60    3.80
   1  10   2   16.50    4.10
  -2 -10  -2  174.18    9.70
   2  10   2  167.28    8.30
   2  10   2  170.58    9.90
   2  10   2  171.58    9.40
  -3 -10  -2  282.97   13.50
   3  10   2  285.17   12.30
   3  10   2  297.57   13.80
  -4 -10  -2  136.59    8.90
   4  10   2  147.99    8.20
   4  10   2  142.19    9.00
  -5 -10  -2   57.59    6.70
   5  10   2   66.59    6.30
   5  10   2   53.09    6.10
  -6 -10  -2  261.07   15.30
   6  10   2  280.17   13.60
   6  10   2  272.77   13.20
   7  10   2  160.38   10.00
   7  10   2  150.38    9.70
   8  10   2   52.69    6.90
   8  10   2   57.99    6.80
   8  10   2   46.70    6.50
   9  10   2    5.80    4.00
   9  10   2    7.90    4.50
   9  10   2    4.80    3.90
  10  10   2    7.10    5.00
  10  10   2   12.90    4.80
   7 -11  -2    8.00    4.80
   7 -11  -2    6.90    4.60
   6 -11  -2   77.69    8.20
   6 -11  -2   81.69    8.50
   5 -11  -2   11.90    4.40
   5 -11  -2   25.10    4.90
   4 -11  -2   77.19    7.80
  -4  11   2   87.09    8.60
   3 -11  -2   16.90    4.30
  -3  11   2   13.20    4.10
   2 -11  -2   89.79    8.60
  -2  11   2  105.49    8.30
   1 -11  -2  149.88    9.50
  -1  11   2  135.39    9.30
   0 -11  -2   12.00    3.30
   0  11   2    8.00    3.60
   0  11   2   11.60    4.00
  -1 -11  -2  262.47   13.10
   1  11   2  259.77   13.30
   1  11   2  276.87   13.30
  -2 -11  -2   55.59    6.00
   2  11   2   82.29    7.80
   2  11   2   74.39    5.60
   2  11   2   82.29    6.80
  -3 -11  -2    2.10    2.40
   3  11   2    1.80    3.40
   3  11   2   -0.20    2.20
   3  11   2   -0.90    2.30
  -4 -11  -2    6.70    3.10
   4  11   2    6.60    3.10
   4  11   2    4.40    2.90
   4  11   2    8.30    3.60
  -5 -11  -2   23.20    4.30
   5  11   2   36.90    5.80
   5  11   2   33.00    4.90
   6  11   2   40.40    6.30
   6  11   2   40.60    5.60
   7  11   2  139.49    9.70
   7  11   2  147.89    9.90
   8  11   2   42.30    6.50
   8  11   2   40.20    6.50
   9  11   2   23.70    5.80
   9  11   2   19.90    5.20
  10  11   2   70.99    8.60
  10  11   2   66.49    9.10
   6 -12  -2    5.00    3.90
   5 -12  -2    7.60    4.10
   5 -12  -2   10.10    4.40
   4 -12  -2   11.40    4.30
  -4  12   2    6.70    3.90
   3 -12  -2   24.50    5.00
  -3  12   2   24.50    5.30
   2 -12  -2   43.60    6.30
  -2  12   2   57.09    7.30
   1 -12  -2    4.70    3.30
  -1  12   2    5.30    3.30
   0 -12  -2  240.48   12.50
   0  12   2  223.58   12.60
   0  12   2  200.08   12.00
  -1 -12  -2   64.59    7.00
   1  12   2   60.99    6.80
   1  12   2   64.59    7.50
  -2 -12  -2   43.50    6.00
   2  12   2   34.80    5.80
   2  12   2   42.60    5.70
  -3 -12  -2  164.08   10.40
   3  12   2  144.59   10.30
   3  12   2  173.58    9.00
   3  12   2  154.08   10.00
  -4 -12  -2  353.46   16.80
   4  12   2  348.77   16.90
   4  12   2  338.57   15.10
   4  12   2  366.96   16.40
   5  12   2   69.89    7.00
   5  12   2   60.99    7.50
   5  12   2   60.59    6.70
   6  12   2   37.50    5.60
   6  12   2   33.50    6.10
   7  12   2   19.00    5.20
   7  12   2   25.50    5.50
   8  12   2   85.49    9.10
   8  12   2   56.89    7.80
   9  12   2   27.60    6.50
   9  12   2   17.60    5.70
  10  12   2   21.50    6.20
   5 -13  -2    3.20    4.10
   4 -13  -2   58.29    7.80
   3 -13  -2   10.10    4.00
  -3  13   2   13.50    5.10
   2 -13  -2   26.90    5.50
  -2  13   2   24.40    5.80
   1 -13  -2   10.30    3.70
  -1  13   2    7.80    4.10
   0 -13  -2   30.40    5.70
   0  13   2   20.60    5.20
   0  13   2   14.10    4.30
  -1 -13  -2   10.00    3.80
   1  13   2    8.60    3.60
   1  13   2    1.60    3.60
  -2 -13  -2   26.60    5.20
   2  13   2   22.80    5.20
   2  13   2   28.00    5.10
  -3 -13  -2   94.99    8.20
   3  13   2   80.79    6.70
   3  13   2   83.49    8.30
   4  13   2  104.09    7.60
   4  13   2  103.09    8.70
   4  13   2   98.19   10.00
   5  13   2  123.59    8.80
   5  13   2  128.89    9.60
   5  13   2  112.89   10.60
   6  13   2   -2.00    2.70
   6  13   2    5.50    3.80
   6  13   2   15.90    5.20
   7  13   2    2.00    3.40
   7  13   2    2.30    3.70
   7  13   2    0.90    4.30
   8  13   2   85.79    8.60
   8  13   2   90.99   10.10
   8  13   2   81.49    9.30
   9  13   2   20.40    5.50
   9  13   2   23.90    6.70
   9  13   2   26.70    6.50
   4 -14  -2   25.80    5.90
   3 -14  -2   94.89    9.80
  -3  14   2  103.79   11.10
   2 -14  -2    9.20    4.30
  -2  14   2    6.00    4.40
   1 -14  -2   11.00    4.30
  -1  14   2   24.70    5.90
   0 -14  -2   22.50    5.40
   0  14   2   17.80    5.10
  -1 -14  -2    0.10    3.10
   1  14   2   -3.30    3.60
   1  14   2   -2.30    3.00
  -2 -14  -2   -1.40    2.90
   2  14   2    3.60    3.90
   2  14   2    6.50    3.90
   3  14   2   17.80    5.20
   3  14   2   16.60    4.80
   4  14   2    4.00    3.60
   4  14   2    9.90    4.90
   4  14   2    0.50    3.30
   5  14   2    1.30    3.40
   5  14   2   -3.30    2.90
   5  14   2   -2.40    3.90
   6  14   2   28.00    5.60
   6  14   2   37.40    7.30
   6  14   2   20.70    5.10
   7  14   2   92.59    9.50
   7  14   2   86.79   10.30
   7  14   2   82.09    8.90
   8  14   2   16.60    5.80
   8  14   2   27.10    6.90
   8  14   2   18.40    5.60
   3 -15  -2   27.60    6.70
  -3  15   2   49.70    8.50
   2 -15  -2   46.90    7.90
  -2  15   2   29.90    7.10
   1 -15  -2    2.30    3.90
  -1  15   2    2.10    4.10
   0 -15  -2    0.60    3.60
   0  15   2   -1.10    3.60
  -1 -15  -2    4.90    4.10
   1  15   2   15.20    5.00
   2  15   2    1.40    3.60
   2  15   2   -2.60    4.00
   3  15   2  105.59   10.30
   3  15   2  110.59   11.60
   4  15   2   71.09    9.80
   4  15   2   71.59    8.60
   4  15   2   76.59    8.80
   5  15   2   12.40    4.50
   5  15   2    9.90    4.80
   5  15   2   -4.30    4.80
   6  15   2    8.30    4.80
   6  15   2   16.00    5.30
   6  15   2    5.40    5.70
   7  15   2    6.30    5.20
   7  15   2   -1.40    4.50
   7  15   2    9.30    6.20
   1 -16  -2   35.10    7.40
  -1  16   2   32.40    7.50
   0 -16  -2    2.80    4.40
   0  16   2   -2.10    4.40
   1  16   2   13.00    5.40
   2  16   2   60.29    8.20
   2  16   2   61.59    9.70
   3  16   2   35.30    7.70
   3  16   2   33.30    6.80
   4  16   2    3.50    4.70
   4  16   2   10.60    6.30
   5  16   2    5.70    4.90
   5  16   2   11.50    6.80
   5  15  -3   19.30    6.80
   4  15  -3    6.10    5.10
   4  15  -3    1.60    3.00
   3  15  -3   26.50    5.90
   3  15  -3   16.40    4.30
   2  15  -3   36.30    7.00
   2  15  -3   27.30    5.20
   1  15  -3   36.40    7.50
   1  15  -3   58.59    7.00
   0  15  -3   31.70    7.40
   0  15  -3   36.30    6.40
  -1  15  -3    7.60    6.00
  -1  15  -3   22.70    5.80
  -2  15  -3    7.30    5.10
  -2  15  -3   10.90    6.20
   6  14  -3    7.90    6.30
   5  14  -3   27.80    6.90
   4  14  -3   42.70    4.60
   4  14  -3   39.50    6.20
   4  14  -3   36.90    6.90
   3  14  -3   56.49    5.70
   3  14  -3   47.60    7.00
   3  14  -3   57.19    7.90
   2  14  -3   84.59    9.40
   2  14  -3   95.99    7.40
   1  14  -3    9.00    3.60
   1  14  -3   -0.80    3.60
   0  14  -3    3.30    4.00
   0  14  -3    7.70    3.80
  -1  14  -3   18.70    5.70
  -1  14  -3   22.40    5.30
  -2  14  -3   88.79   11.00
  -2  14  -3   89.89    9.10
  -3  14  -3   30.00    6.50
  -3  14  -3   25.20    7.20
  -4  14  -3   59.89    8.60
  -4  14  -3   42.80    8.30
   7  13  -3    0.60    5.00
   6  13  -3   45.00    8.00
   5  13  -3   10.30    2.10
   5  13  -3   11.80    5.10
   5  13  -3   11.50    2.10
   4  13  -3   38.30    4.10
   4  13  -3   31.00    5.40
   4  13  -3   30.50    6.10
   4  13  -3   36.40    4.00
   3  13  -3   36.00    5.90
   3  13  -3   34.60    4.40
   3  13  -3   25.30    5.70
   2  13  -3    3.70    2.70
   2  13  -3    6.20    3.70
   1  13  -3   -0.70    2.50
   1  13  -3    2.80    3.50
   0  13  -3   65.69    8.30
   0  13  -3   64.59    6.70
  -1  13  -3   97.19   10.30
  -1  13  -3   99.09    8.50
  -2  13  -3   46.40    6.60
  -2  13  -3   42.50    7.00
  -3  13  -3   48.40    7.90
  -3  13  -3   66.29    8.00
  -4  13  -3    5.30    5.40
  -4  13  -3   29.20    6.20
  -5  13  -3   42.50    7.80
  -5  13  -3   28.50    7.30
   8  12  -3   42.00    8.50
   7  12  -3   90.09   10.00
   7  12  -3   79.79    8.70
   6  12  -3   13.30    5.00
   5  12  -3   24.20    2.70
   5  12  -3   29.40    6.10
   5  12  -3   25.50    2.70
   4  12  -3    3.80    1.90
   4  12  -3    0.70    2.00
   4  12  -3   -0.80    2.40
   4  12  -3    8.70    4.40
   3  12  -3   17.00    4.70
   3  12  -3   16.70    3.30
   3  12  -3   15.40    4.20
   3  12  -3   12.00    2.80
   2  12  -3  108.69    8.60
   2  12  -3   97.89    9.20
   2  12  -3  100.79    6.90
   1  12  -3   12.50    3.40
   1  12  -3   13.00    4.30
   0  12  -3   -0.50    3.20
   0  12  -3    6.90    2.90
  -1  12  -3   28.50    5.70
  -1  12  -3   36.00    5.30
  -2  12  -3   96.19    8.40
  -2  12  -3   92.49    9.80
  -3  12  -3   17.60    4.80
  -3  12  -3   20.90    5.80
  -4  12  -3    6.80    4.10
  -4  12  -3    6.00    4.50
  -5  12  -3   37.10    7.20
  -5  12  -3   52.19    7.40
  -6  12  -3    3.00    4.80
  -6  12  -3    0.50    5.20
   9  11  -3   -4.20    5.10
   9  11  -3    0.40    5.60
   8  11  -3    3.30    4.80
   8  11  -3    5.70    5.10
   7  11  -3   -0.60    4.20
   7  11  -3    5.20    3.70
   6  11  -3   10.30    4.70
   6  11  -3   12.60    4.20
   5  11  -3    9.60    4.50
   5  11  -3   10.60    1.90
   5  11  -3   10.20    1.90
   5  11  -3    6.60    3.80
   4  11  -3    1.00    1.60
   4  11  -3   -0.10    1.70
   4  11  -3    1.70    2.50
   4  11  -3   -1.00    3.10
   3  11  -3   56.09    4.60
   3  11  -3   60.99    4.80
   3  11  -3   56.59    7.00
   3  11  -3   57.39    6.30
   2  11  -3   16.80    4.00
   2  11  -3   20.80    3.50
   2  11  -3   25.10    4.90
   2  11  -3   14.20    2.90
   1  11  -3   60.09    7.00
   1  11  -3   66.29    5.70
   0  11  -3   22.80    3.90
   0  11  -3   14.20    4.50
  -1  11  -3    2.70    2.60
  -1  11  -3    3.90    3.60
  -2  11  -3   13.00    3.80
  -2  11  -3   12.90    4.20
  -3  11  -3   33.60    5.70
  -3  11  -3   38.50    6.60
  -4  11  -3   67.79    7.60
  -4  11  -3   70.49    9.00
  -5  11  -3   34.00    6.10
  -5  11  -3   12.10    4.60
  -6  11  -3    1.10    4.20
  -6  11  -3   11.00    5.40
   6 -11   3    8.00    4.30
  -7  11  -3   54.99    8.90
  -7  11  -3   40.40    7.60
   7 -11   3   46.40    7.50
   9  10  -3    1.00    4.90
   9  10  -3   -1.10    5.20
   8  10  -3  123.29   11.60
   8  10  -3  106.19   11.30
   7  10  -3   68.29    6.90
   7  10  -3   43.30    7.30
   7  10  -3   59.79    8.40
   6  10  -3   48.30    6.00
   6  10  -3   32.30    6.00
   6  10  -3   33.40    6.00
   5  10  -3   29.60    2.50
   5  10  -3   35.70    4.20
   5  10  -3   31.00    2.70
   5  10  -3   25.20    4.80
   5  10  -3   27.10    5.60
   4  10  -3  110.19    8.20
   4  10  -3  121.49    5.90
   4  10  -3  101.29    8.30
   4  10  -3  110.09    5.70
   4  10  -3  129.69    7.60
   3  10  -3  141.39    6.90
   3  10  -3  143.09    9.40
   3  10  -3  139.19    8.50
   3  10  -3  135.69    7.00
   2  10  -3  102.59    7.50
   2  10  -3   86.39    5.60
   2  10  -3   86.79    5.70
   2  10  -3   89.59    8.20
   1  10  -3   20.50    3.20
   1  10  -3   16.50    4.20
   1  10  -3   26.00    3.70
   1  10  -3   24.00    2.70
   1  10  -3   16.00    4.30
   0  10  -3   17.80    3.50
   0  10  -3   30.20    5.20
   0  10  -3   32.40    3.10
  -1  10  -3   36.00    5.60
  -1  10  -3   24.70    3.90
  -1  10  -3   28.10    3.30
  -2  10  -3   30.40    4.70
  -2  10  -3   39.20    6.30
  -2  10  -3   36.10    3.90
   2 -10   3   46.60    7.00
  -3  10  -3  213.88   11.70
  -3  10  -3  219.28   10.00
  -3  10  -3  193.68   12.20
   3 -10   3  202.58   11.80
  -4  10  -3  120.49   10.10
  -4  10  -3  156.98   10.20
   4 -10   3  149.99   10.10
  -5  10  -3   40.90    6.10
  -5  10  -3   26.90    6.00
   5 -10   3   31.40    6.00
  -6  10  -3   59.29    8.00
  -6  10  -3   70.79    8.30
   6 -10   3   81.89    9.50
  -7  10  -3   20.10    5.50
  -7  10  -3    7.10    5.10
   7 -10   3   20.20    5.10
  -8  10  -3    3.30    5.20
  -8  10  -3    7.00    5.60
   8 -10   3    2.00    3.90
   8 -10   3    1.80    5.20
  10   9  -3    5.60    5.60
  10   9  -3    3.50    6.40
   9   9  -3   76.19    9.30
   9   9  -3   72.39    9.80
   8   9  -3   10.70    4.80
   8   9  -3    3.00    4.50
   7   9  -3   22.60    5.50
   7   9  -3   15.50    5.20
   7   9  -3   30.50    4.70
   6   9  -3   23.80    4.20
   6   9  -3   25.20    5.30
   6   9  -3   23.90    5.00
   5   9  -3   34.30    5.00
   5   9  -3   39.60    6.10
   5   9  -3   49.20    4.60
   5   9  -3   37.50    6.10
   4   9  -3  329.47   12.00
   4   9  -3  321.57   14.40
   4   9  -3  324.47   11.90
   4   9  -3  335.07   13.80
   4   9  -3  335.87   15.40
   3   9  -3  159.18    8.70
   3   9  -3  165.68    7.30
   3   9  -3  150.38    9.60
   3   9  -3  164.88    7.40
   2   9  -3  395.46   16.70
   2   9  -3  417.86   17.10
   2   9  -3  388.46   14.90
   2   9  -3  399.26   14.60
   2   9  -3  391.26   14.90
   1   9  -3   49.99    4.30
   1   9  -3   57.29    6.20
   1   9  -3   52.99    5.90
   1   9  -3   55.79    4.60
   1   9  -3   51.49    3.70
  -1  -9   3   63.49    7.00
   0   9  -3  136.39    6.50
   0   9  -3  144.49    8.80
   0   9  -3  131.89    7.60
   0   9  -3  140.59    7.50
   0  -9   3  142.79    8.20
  -1   9  -3    2.90    1.80
  -1   9  -3    0.40    1.90
  -1   9  -3    3.50    3.00
  -1   9  -3   -2.00    1.80
   1  -9   3    2.30    2.20
  -2   9  -3   82.59    5.30
  -2   9  -3   79.89    6.50
  -2   9  -3   84.09    8.30
   2  -9   3   84.89    6.90
  -3   9  -3  478.55   17.80
  -3   9  -3  483.75   19.30
  -3   9  -3  447.96   20.30
   3  -9   3  440.76   19.40
  -4   9  -3   48.50    7.00
  -4   9  -3   51.69    6.30
   4  -9   3   38.10    5.20
  -5   9  -3   37.00    6.50
  -5   9  -3   44.30    6.00
  -6   9  -3   73.69    8.40
  -6   9  -3   79.59    8.30
   6  -9   3   85.89    9.40
  -7   9  -3   15.70    4.90
  -7   9  -3    9.20    5.00
   7  -9   3   14.20    4.60
  -8   9  -3   57.39    8.40
  -8   9  -3   43.00    7.90
   8  -9   3   55.69    8.30
   8  -9   3   62.69    8.40
  10   8  -3   10.30    6.30
  10   8  -3    7.00    5.60
   9   8  -3   51.49    8.40
   9   8  -3   47.30    7.60
   8   8  -3   19.10    5.30
   8   8  -3   28.90    5.90
   7   8  -3   55.39    7.50
   7   8  -3   59.39    5.70
   7   8  -3   50.09    6.80
   6   8  -3  106.59    8.50
   6   8  -3   98.79    9.40
   6   8  -3   99.89    6.80
   5   8  -3  365.76   15.10
   5   8  -3  353.96   16.40
   5   8  -3  368.06   13.90
   5   8  -3  362.16   16.50
   4   8  -3  283.07   13.50
   4   8  -3  278.97   12.40
   4   8  -3  280.47   11.70
   4   8  -3  273.87    9.90
   4   8  -3  274.87   13.30
   4   8  -3  272.17   10.00
   3   8  -3  282.07   12.10
   3   8  -3  283.37   10.60
   3   8  -3  272.87   10.50
   3   8  -3  288.87   13.20
   3   8  -3  279.47   12.50
   2   8  -3  265.37   12.00
   2   8  -3  272.07   10.60
   2   8  -3  272.07   10.50
   2   8  -3  268.37   10.60
   2   8  -3  266.37   12.50
  -2  -8   3  258.87   11.70
   1   8  -3  206.88    8.80
   1   8  -3  206.78    8.90
   1   8  -3  204.98    8.40
   1   8  -3  186.58   10.00
   1   8  -3  190.38   10.10
  -1  -8   3  200.08    9.60
   0   8  -3  776.22   28.30
   0   8  -3  751.52   25.70
   0   8  -3  802.62   26.80
   0   8  -3  768.72   26.80
   0  -8   3  738.73   27.40
  -1   8  -3  252.17   10.70
  -1   8  -3  233.68    9.60
  -1   8  -3  230.98   11.70
  -1   8  -3  225.08   10.50
   1  -8   3  223.58   11.00
  -2   8  -3  121.19    6.60
  -2   8  -3  117.29    8.20
  -2   8  -3  115.59    7.40
  -2   8  -3  124.39    7.30
   2  -8   3  137.19    8.00
  -3   8  -3   42.90    5.90
  -3   8  -3   51.89    5.50
  -4   8  -3  295.47   15.20
  -4   8  -3  308.87   14.40
   4  -8   3  323.87   14.70
  -5   8  -3    4.60    3.70
  -5   8  -3    5.90    3.10
   5  -8   3    0.50    2.40
  -6   8  -3   58.99    6.80
  -6   8  -3   76.99    8.50
   6  -8   3   51.19    6.60
  -7   8  -3    9.80    4.20
  -7   8  -3   13.50    4.70
   7  -8   3    8.20    3.80
  -8   8  -3    0.60    4.10
  -8   8  -3    7.60    4.80
   8  -8   3    8.00    4.20
   8  -8   3    1.50    4.20
  -9   8  -3   37.80    7.80
  -9   8  -3   35.10    7.20
   9  -8   3   28.50    7.10
   9  -8   3   34.90    6.70
  10   7  -3    9.20    5.40
  10   7  -3   14.80    6.20
   9   7  -3   64.49    8.90
   9   7  -3   68.69    8.60
   8   7  -3  148.79   10.90
   8   7  -3  151.98   10.70
   7   7  -3  291.57   12.30
   7   7  -3  291.67   14.80
   7   7  -3  288.07   15.00
   6   7  -3   14.20    4.40
   6   7  -3    7.90    2.50
   6   7  -3   13.70    3.90
   5   7  -3  164.68    7.30
   5   7  -3  168.58   10.00
   5   7  -3  159.78    9.60
   5   7  -3  165.58    8.30
   4   7  -3   48.00    5.50
   4   7  -3   39.90    5.00
   4   7  -3   41.90    2.40
   4   7  -3   40.60    2.30
   4   7  -3   50.99    4.00
   4   7  -3   50.59    4.90
   3   7  -3   94.39    4.40
   3   7  -3   88.59    6.60
   3   7  -3   87.99    5.60
   3   7  -3   96.39    6.00
   3   7  -3  101.89    7.00
   3   7  -3   94.19    4.40
   2   7  -3  165.38    6.90
   2   7  -3  152.98    8.00
   2   7  -3  167.98    6.90
   2   7  -3  163.08    8.80
   2   7  -3  158.38    7.20
   1   7  -3   90.39    4.90
   1   7  -3   85.39    5.90
   1   7  -3   86.69    5.00
   1   7  -3  108.79    6.50
   1   7  -3   89.39    4.80
  -1  -7   3   82.79    5.50
   0   7  -3    0.10    1.60
   0   7  -3   -0.50    2.10
   0   7  -3    3.30    1.50
   0   7  -3    2.00    1.40
   0  -7   3    2.70    1.60
  -1   7  -3   13.90    2.30
  -1   7  -3   18.20    3.70
  -1   7  -3   14.70    2.60
  -1   7  -3   11.80    2.40
   1  -7   3   15.80    3.10
  -2   7  -3  614.44   24.10
  -2   7  -3  608.94   22.90
  -2   7  -3  645.74   23.00
  -2   7  -3  639.74   22.20
   2  -7   3  644.04   23.40
  -3   7  -3  187.18    9.40
  -3   7  -3  178.28    9.30
  -3   7  -3  162.68    9.70
   3  -7   3  171.68    9.30
  -4   7  -3   18.80    4.40
  -4   7  -3   17.50    3.60
   4  -7   3   30.70    4.80
  -5   7  -3  134.59    9.20
  -5   7  -3  114.59    8.30
   5  -7   3  113.89    8.10
  -6   7  -3   18.80    4.20
  -6   7  -3   16.70    4.60
   6  -7   3   19.60    4.70
  -7   7  -3  162.58   11.20
  -7   7  -3  174.28   11.50
   7  -7   3  195.08   11.60
  -8   7  -3   72.39    8.60
  -8   7  -3   48.70    7.50
   8  -7   3   52.99    7.80
   8  -7   3   51.69    6.80
  -9   7  -3   18.00    5.70
  -9   7  -3   26.70    6.70
   9  -7   3   15.10    5.70
   9  -7   3   30.50    6.10
  11   6  -3   53.69    9.60
  11   6  -3   31.30    8.10
  10   6  -3  112.79   11.30
  10   6  -3   92.19   10.80
   9   6  -3   49.10    7.40
   9   6  -3   46.10    7.30
   8   6  -3  119.09   10.30
   8   6  -3   77.49    8.50
   7   6  -3   13.70    2.70
   7   6  -3   11.90    4.20
   7   6  -3    9.20    4.30
   6   6  -3   28.60    5.10
   6   6  -3   20.30    3.10
   6   6  -3   26.10    5.00
   5   6  -3  140.49    7.10
   5   6  -3  134.39    8.60
   5   6  -3  136.09    8.70
   4   6  -3  177.58    9.20
   4   6  -3  155.88    9.00
   4   6  -3  173.78    7.40
   4   6  -3  158.18    7.80
   3   6  -3  155.88    8.60
   3   6  -3  164.78    7.50
   3   6  -3  164.18    8.70
   3   6  -3  157.78    7.70
   3   6  -3  162.18    5.90
   3   6  -3  154.48    5.80
   2   6  -3  150.38    5.90
   2   6  -3  146.39    7.30
   2   6  -3  147.79    7.80
   2   6  -3  140.59    6.70
   2   6  -3  147.59    5.90
   1   6  -3   99.19    4.80
   1   6  -3   88.29    4.80
   1   6  -3   95.59    4.60
   1   6  -3   84.29    5.70
   1   6  -3   92.69    5.80
   0   6  -3   61.99    4.90
   0   6  -3   56.59    3.90
   0   6  -3   68.99    5.10
   0   6  -3   58.79    3.70
   0   6  -3   54.59    3.80
   0  -6   3   63.29    4.30
  -1   6  -3  478.75   16.90
  -1   6  -3  472.65   17.30
  -1   6  -3  479.95   17.40
  -1   6  -3  483.25   18.60
   1  -6   3  477.55   17.80
  -2   6  -3  303.57   12.00
  -2   6  -3  283.07   12.00
  -2   6  -3  278.87   12.80
   2  -6   3  288.97   12.20
  -3   6  -3  369.06   15.00
  -3   6  -3  379.66   16.10
  -3   6  -3  365.06   15.10
   3  -6   3  392.36   15.50
  -4   6  -3  100.79    7.00
  -4   6  -3  106.89    7.60
   4  -6   3  112.79    7.10
  -5   6  -3   -2.20    2.30
  -5   6  -3    0.10    2.10
   5  -6   3   -0.20    2.00
  -6   6  -3   18.20    4.40
  -6   6  -3   18.00    4.30
   6  -6   3   23.30    4.70
  -7   6  -3   66.99    7.60
  -7   6  -3   65.09    7.40
   7  -6   3   60.49    7.40
  -8   6  -3   -0.60    2.90
  -8   6  -3    4.10    3.80
   8  -6   3    4.50    3.40
   8  -6   3    1.80    3.90
  -9   6  -3   24.10    5.50
  -9   6  -3   33.20    6.70
   9  -6   3   19.90    5.70
   9  -6   3   19.40    4.80
 -10   6  -3   35.80    7.10
  10  -6   3   57.39    9.00
  10  -6   3   47.50    7.30
  10  -6   3   54.09    9.40
  11   5  -3   54.19    9.20
  11   5  -3   40.40    8.00
  10   5  -3   37.90    7.50
  10   5  -3   33.40    7.20
   9   5  -3   40.80    7.30
   9   5  -3   33.70    6.50
   8   5  -3   -2.20    3.60
   8   5  -3   -0.90    3.60
   7   5  -3  109.99    8.50
   7   5  -3  115.49    5.90
   7   5  -3  111.59    8.30
   6   5  -3   14.30    2.40
   6   5  -3   11.40    3.80
   6   5  -3   13.10    3.90
   5   5  -3    5.40    3.10
   5   5  -3    2.50    2.40
   5   5  -3    2.60    1.70
   4   5  -3  170.68    9.10
   4   5  -3  188.58    7.90
   4   5  -3  171.28    9.10
   4   5  -3  184.48    7.50
   3   5  -3  175.48    8.80
   3   5  -3  167.68    7.70
   3   5  -3  182.38    9.00
   3   5  -3  189.28    7.80
   2   5  -3  186.78    8.20
   2   5  -3  188.48    7.90
   2   5  -3  187.48    6.40
   2   5  -3  181.48    8.80
   2   5  -3  190.88    8.90
   2   5  -3  179.48    6.40
   1   5  -3  120.19    5.00
   1   5  -3  117.29    6.30
   1   5  -3  114.99    5.60
   1   5  -3  122.19    5.00
   1   5  -3  124.49    6.60
   0   5  -3  503.75   17.50
   0   5  -3  518.05   17.70
   0   5  -3  526.55   18.80
   0   5  -3  505.55   18.80
   0   5  -3  517.65   17.60
   0  -5   3  514.85   18.20
  -1   5  -3 1075.09   35.40
  -1   5  -3 1005.20   35.30
  -1   5  -3 1068.29   36.60
  -1   5  -3 1092.29   35.30
   1  -5   3 1155.08   36.00
  -2   5  -3  625.14   22.00
  -2   5  -3  634.04   23.00
  -2   5  -3  656.03   21.90
   2  -5   3  579.84   22.00
  -3   5  -3   99.29    6.30
  -3   5  -3  106.69    6.10
  -3   5  -3  107.69    6.90
  -4   5  -3    8.90    3.00
  -4   5  -3   10.00    2.90
   4  -5   3    3.60    1.90
  -5   5  -3   22.10    3.70
  -5   5  -3   33.50    4.80
   5  -5   3   22.80    4.00
  -6   5  -3  103.59    7.70
  -6   5  -3  103.09    7.60
   6  -5   3  113.39    8.00
  -7   5  -3  178.48   10.90
  -7   5  -3  161.48   10.40
   7  -5   3  186.98   10.90
  -8   5  -3   12.10    4.20
  -8   5  -3   18.00    4.60
   8  -5   3   21.60    4.80
   8  -5   3   20.90    5.30
  -9   5  -3   44.50    6.70
  -9   5  -3   45.50    7.40
   9  -5   3   40.60    6.80
   9  -5   3   46.50    7.60
 -10   5  -3   47.20    7.10
  10  -5   3   46.90    8.30
  10  -5   3   33.30    6.10
  10  -5   3   50.59    8.70
  11   4  -3   10.50    6.20
  11   4  -3   14.50    6.20
  10   4  -3   17.10    5.50
  10   4  -3   10.90    5.70
   9   4  -3   52.59    7.50
   9   4  -3   69.19    8.70
   8   4  -3   58.09    7.30
   8   4  -3   56.39    6.90
   7   4  -3   38.50    5.70
   7   4  -3   35.60    3.20
   7   4  -3   31.60    5.30
   6   4  -3  280.87   10.70
   6   4  -3  299.37   13.80
   6   4  -3  291.37   13.80
   5   4  -3  173.98    9.30
   5   4  -3  163.78    6.90
   5   4  -3  163.38    8.90
   4   4  -3  357.56   14.80
   4   4  -3  358.06   13.00
   4   4  -3  372.26   15.00
   3   4  -3  147.89    6.40
   3   4  -3  154.08    7.90
   3   4  -3  152.08    6.50
   3   4  -3  146.29    7.70
   2   4  -3   78.49    4.50
   2   4  -3   69.89    5.00
   2   4  -3   73.99    5.20
   2   4  -3   77.29    4.40
   1   4  -3  593.44   20.70
   1   4  -3  593.24   21.00
   1   4  -3  586.74   18.80
   1   4  -3  600.14   18.80
   1   4  -3  588.24   20.10
   1   4  -3  606.84   21.00
   0   4  -3   36.40    3.00
   0   4  -3   31.50    2.40
   0   4  -3   37.60    3.70
   0   4  -3   25.00    3.10
   0   4  -3   29.90    2.30
  -1   4  -3   72.69    4.90
  -1   4  -3   79.29    4.20
  -1   4  -3   74.39    4.20
  -1   4  -3   73.09    4.20
   1  -4   3   72.79    4.40
  -2   4  -3  148.09    6.70
  -2   4  -3  145.99    6.90
  -2   4  -3  144.99    7.60
   2  -4   3  145.69    7.00
  -3   4  -3  141.69    6.90
  -3   4  -3  126.29    6.50
  -3   4  -3  119.99    7.00
   3  -4   3  123.69    6.70
  -4   4  -3   80.49    5.90
  -4   4  -3   83.09    5.70
   4  -4   3   73.99    5.30
  -5   4  -3  259.77   12.10
  -5   4  -3  276.77   12.30
   5  -4   3  257.37   12.10
  -6   4  -3   78.49    6.30
  -6   4  -3   54.69    5.80
   6  -4   3   75.59    6.30
  -7   4  -3  218.18   12.00
  -7   4  -3  216.38   11.40
   7  -4   3  219.78   11.80
   7  -4   3  216.48   12.00
  -8   4  -3   89.59    8.70
  -8   4  -3  112.99    8.20
   8  -4   3  104.49    8.30
   8  -4   3   98.79    9.40
  -9   4  -3    5.60    4.10
  -9   4  -3    8.00    4.10
   9  -4   3   15.10    5.20
   9  -4   3   13.50    5.00
   9  -4   3   11.30    4.20
 -10   4  -3    8.10    4.20
  10  -4   3   -2.40    4.40
  10  -4   3    1.80    3.60
  10  -4   3   11.00    5.40
  11  -4   3   19.20    6.90
  11  -4   3   25.30    7.30
  11   3  -3    2.10    5.40
  11   3  -3   -6.50    5.10
  10   3  -3    7.20    5.20
  10   3  -3    6.70    4.50
   9   3  -3  119.49   10.10
   9   3  -3  105.89   10.30
   8   3  -3  169.38   11.10
   8   3  -3  185.38   11.50
   7   3  -3   96.29    8.70
   7   3  -3   69.39    7.50
   6   3  -3   63.09    3.50
   6   3  -3   67.09    6.80
   6   3  -3   73.69    7.00
   5   3  -3  222.58    8.20
   5   3  -3  217.38   10.70
   5   3  -3  217.68   10.60
   4   3  -3  390.46   16.00
   4   3  -3  428.76   16.20
   4   3  -3  406.96   13.90
   3   3  -3  808.32   28.40
   3   3  -3  837.72   28.60
   3   3  -3  835.22   27.10
   3   3  -3  836.82   26.90
   2   3  -3  991.70   33.30
   2   3  -3  996.00   32.50
   2   3  -3  997.60   33.20
   2   3  -3 1003.70   32.80
   1   3  -3  787.62   26.40
   1   3  -3  805.02   26.70
   1   3  -3  791.82   26.70
   1   3  -3  785.32   26.10
   0   3  -3  220.68    7.30
   0   3  -3  215.08    7.30
   0   3  -3  205.78    8.20
   0   3  -3  223.08    8.90
   0   3  -3  201.68    8.60
  -1   3  -3   74.79    4.10
  -1   3  -3   72.69    3.70
  -1   3  -3   68.39    3.70
  -1   3  -3   65.79    4.40
   1  -3   3   68.99    3.90
  -2   3  -3  102.19    5.20
  -2   3  -3   98.89    5.00
  -2   3  -3  101.49    5.80
   2  -3   3   99.39    5.20
  -3   3  -3   94.59    5.20
  -3   3  -3   88.69    5.30
  -3   3  -3   91.59    5.60
   3  -3   3   79.59    5.00
  -4   3  -3   14.50    2.60
  -4   3  -3   21.50    3.40
   4  -3   3   16.70    3.00
  -5   3  -3  477.25   18.40
  -5   3  -3  488.75   18.30
   5  -3   3  442.26   18.10
  -6   3  -3   62.39    5.90
  -6   3  -3   62.09    5.90
   6  -3   3   67.49    5.80
  -7   3  -3  256.57   12.10
  -7   3  -3  238.88   12.60
   7  -3   3  239.58   12.70
   7  -3   3  254.07   12.50
  -8   3  -3   15.70    3.90
  -8   3  -3    3.60    3.10
   8  -3   3   11.30    4.60
   8  -3   3    9.50    3.60
  -9   3  -3   16.40    4.80
  -9   3  -3   23.60    4.50
   9  -3   3   11.60    4.70
   9  -3   3   17.90    5.20
   9  -3   3   19.20    4.80
  10  -3   3    8.00    4.90
  10  -3   3    3.60    3.90
  10  -3   3    4.10    3.40
  10  -3   3    7.40    3.80
  11  -3   3   92.59   11.20
  11  -3   3   74.19   10.10
  11   2  -3   72.09   10.10
  11   2  -3   64.99    9.90
  10   2  -3   20.60    5.90
  10   2  -3   18.00    6.00
   9   2  -3  236.58   13.90
   9   2  -3  222.48   13.40
   8   2  -3   18.20    5.10
   8   2  -3   22.20    5.10
   7   2  -3  146.39    9.40
   7   2  -3  152.48    9.60
   6   2  -3    0.70    2.70
   6   2  -3    2.30    2.60
   6   2  -3    2.20    1.10
   5   2  -3  416.76   13.80
   5   2  -3  414.56   16.90
   5   2  -3  428.76   16.80
   4   2  -3  299.07   10.10
   4   2  -3  300.97   12.50
   4   2  -3  297.07   12.60
   3   2  -3 1261.57   41.70
   3   2  -3 1270.67   39.80
   3   2  -3 1273.97   41.90
   2   2  -3  978.20   32.30
   2   2  -3  965.30   32.10
   2   2  -3  983.50   31.40
   2   2  -3  957.80   31.90
   1   2  -3  326.77   12.10
   1   2  -3  346.37   12.20
   1   2  -3  342.77   12.40
   0   2  -3  269.87   10.00
   0   2  -3  287.57   10.50
   0   2  -3  269.47   10.30
  -1   2  -3 1172.78   35.70
  -1   2  -3 1175.58   36.90
  -1   2  -3 1152.98   36.40
  -1   2  -3 1021.80   35.60
  -2   2  -3 1260.27   40.90
  -2   2  -3 1223.78   40.10
  -2   2  -3 1166.28   40.10
   2  -2   3 1357.56   40.40
  -3   2  -3 1936.71   59.09
  -3   2  -3 1698.23   58.69
  -3   2  -3 1856.11   59.19
   3  -2   3 1868.81   58.99
  -4   2  -3   25.00    3.30
  -4   2  -3   19.10    3.00
   4  -2   3   21.10    3.20
  -5   2  -3   77.39    5.40
  -5   2  -3   73.39    5.70
   5  -2   3   71.39    5.50
  -6   2  -3   72.69    5.50
  -6   2  -3   68.89    5.90
   6  -2   3   76.19    6.90
   6  -2   3   81.19    6.20
  -7   2  -3   40.70    5.40
  -7   2  -3   46.30    5.10
   7  -2   3   41.50    4.90
   7  -2   3   48.30    5.90
  -8   2  -3  117.69    7.50
  -8   2  -3  112.39    8.70
   8  -2   3  114.29    8.80
   8  -2   3  113.09    8.30
   8  -2   3   96.09    8.30
  -9   2  -3   23.60    4.40
  -9   2  -3   28.30    5.70
   9  -2   3   33.80    5.90
   9  -2   3   22.30    5.30
   9  -2   3   32.50    5.80
   9  -2   3   27.20    4.70
  10  -2   3   -2.50    4.00
  10  -2   3   -1.50    3.70
  10  -2   3    1.20    3.10
  11  -2   3   92.29   11.10
  11  -2   3  105.69   11.50
  11   1  -3   33.60    7.90
  11   1  -3   34.60    8.40
  10   1  -3   12.80    5.40
  10   1  -3    8.30    4.90
   9   1  -3   59.99    8.00
   9   1  -3   60.09    8.00
   8   1  -3   83.89    8.50
   8   1  -3  102.69    9.50
   7   1  -3  177.38   11.00
   7   1  -3  202.18   11.10
   6   1  -3  288.07   13.20
   6   1  -3  284.07   13.20
   6   1  -3  282.27    9.60
   5   1  -3  154.48    8.60
   5   1  -3  150.68    5.30
   5   1  -3  147.89    8.30
   4   1  -3  997.70   33.70
   4   1  -3  971.80   33.30
   3   1  -3  397.76   14.90
   3   1  -3  388.96   14.70
   2   1  -3   14.20    2.40
   2   1  -3   15.50    2.70
   2   1  -3   11.50    2.20
   1   1  -3  522.75   18.30
   1   1  -3  529.95   18.20
   1   1  -3  553.24   18.20
   1   1  -3  545.75   18.20
   0   1  -3  954.90   31.10
   0   1  -3  952.30   31.10
   0   1  -3  987.40   31.20
   0   1  -3  974.50   31.40
  -1   1  -3 1688.33   52.49
  -1   1  -3 1654.23   51.29
  -1   1  -3 1616.24   51.29
  -1   1  -3 1641.34   52.19
  -2   1  -3   13.80    1.90
  -2   1  -3   13.60    1.90
  -2   1  -3   13.00    2.20
  -3   1  -3  205.28    8.40
  -3   1  -3  189.38    8.10
  -3   1  -3  206.68    8.40
   3  -1   3  201.38    8.40
  -4   1  -3  113.19    6.00
  -4   1  -3  115.69    6.30
   4  -1   3  113.49    6.20
  -5   1  -3  534.75   19.70
  -5   1  -3  524.95   19.10
   5  -1   3  521.55   19.60
  -6   1  -3   52.79    4.40
  -6   1  -3   63.29    5.80
   6  -1   3   51.39    5.70
  -7   1  -3  286.27   12.40
  -7   1  -3  306.47   14.00
   7  -1   3  292.87   14.00
   7  -1   3  291.07   13.60
   7  -1   3  314.77   13.90
  -8   1  -3  121.39    8.90
  -8   1  -3  136.79    7.60
   8  -1   3  123.59    9.00
   8  -1   3  124.19    7.80
   8  -1   3  129.89    9.00
   8  -1   3  121.99    8.50
  -9   1  -3    1.70    3.30
  -9   1  -3   11.40    3.10
   9  -1   3    9.00    4.10
   9  -1   3   12.70    4.50
   9  -1   3    6.50    3.20
  10  -1   3   55.39    7.60
  10  -1   3   53.89    8.00
  10  -1   3   56.09    6.50
  11  -1   3    1.90    5.40
  11  -1   3   13.20    5.30
  11   0  -3   21.30    6.70
  11   0  -3   10.20    6.60
  10   0  -3   23.30    6.10
  10   0  -3   33.30    7.20
   9   0  -3   89.89    9.80
   9   0  -3   94.99    9.70
   8   0  -3   32.70    5.30
   8   0  -3   18.40    4.90
   7   0  -3   69.69    7.00
   7   0  -3   65.19    7.40
   6   0  -3   35.70    5.10
   6   0  -3   39.20    2.20
   6   0  -3   30.40    5.00
   5   0  -3  147.79    8.30
   5   0  -3  150.48    8.10
   4   0  -3   57.59    4.70
   4   0  -3   63.19    4.90
   3   0  -3  157.18    7.30
   3   0  -3  158.98    7.70
   2   0  -3  541.55   18.80
   2   0  -3  543.55   18.50
   1   0  -3   53.89    3.40
   1   0  -3   55.99    3.40
   1   0  -3   43.60    2.90
  -1   0   3   50.19    2.20
   0   0  -3 1164.68   36.40
   0   0  -3 1126.39   36.40
   0   0  -3 1153.78   36.80
   0   0  -3 1152.08   36.70
  -1   0  -3 1409.86   44.90
  -1   0  -3 1454.75   45.00
  -1   0  -3 1472.55   46.00
  -1   0  -3 1454.75   45.90
  -2   0  -3 2550.54   81.59
  -2   0  -3 2687.83   81.29
  -2   0  -3 2502.35   81.19
   2   0   3 2663.43   81.39
  -3   0  -3   33.30    3.00
  -3   0  -3   35.50    3.10
  -3   0  -3   33.60    2.90
  -4   0  -3  491.95   16.80
  -4   0  -3  437.86   16.00
   4   0   3  430.76   16.50
  -5   0  -3   43.00    4.40
  -5   0  -3   49.70    3.60
   5   0   3   42.80    4.50
   5   0   3   38.30    3.90
  -6   0  -3  384.36   15.10
  -6   0  -3  332.97   13.30
   6   0   3  356.46   14.90
   6   0   3  341.37   14.00
   6   0   3  358.36   14.70
   6   0   3  342.67   14.30
  -7   0  -3  244.48   12.40
  -7   0  -3  263.77   10.90
   7   0   3  252.87   12.40
   7   0   3  268.17   12.30
   7   0   3  262.07   12.00
   7   0   3  247.58   11.50
  -8   0  -3   25.70    4.70
  -8   0  -3   20.30    3.20
   8   0   3   22.50    4.60
   8   0   3   21.90    4.70
   8   0   3   16.30    3.80
  -9   0  -3  207.88   12.60
   9   0   3  252.77   13.00
   9   0   3  218.28   12.80
   9   0   3  246.38   11.90
  10   0   3    4.60    3.20
  10   0   3    5.50    4.40
  10   0   3    4.20    4.00
  11   0   3   19.60    6.10
  11   0   3   42.10    7.60
  11   0   3   29.90    7.20
  12   0   3   19.40    7.20
  12   0   3    7.70    5.90
  11  -1  -3   21.30    6.90
  11  -1  -3   11.00    6.80
  10  -1  -3   62.19    9.20
  10  -1  -3   60.29    8.60
   9  -1  -3    4.30    3.70
   9  -1  -3   -0.30    3.80
   8  -1  -3    3.30    3.60
   8  -1  -3    4.40    3.70
   7  -1  -3  154.58   10.40
   7  -1  -3  168.48   10.00
   6  -1  -3  177.38   10.30
   6  -1  -3  166.38    9.50
   6  -1  -3  178.88    6.70
   5  -1  -3   93.39    3.80
   5  -1  -3   80.69    5.80
   5  -1  -3   87.29    6.60
   4  -1  -3  221.88   10.00
   4  -1  -3  246.28   10.80
   3  -1  -3  258.87   10.80
   3  -1  -3  249.78   10.00
   2  -1  -3 1610.04   51.09
   2  -1  -3 1621.34   51.69
   2  -1  -3 1603.04   49.80
   1  -1  -3  918.61   30.20
   1  -1  -3  947.01   30.20
   1  -1  -3  940.11   29.70
  -1   1   3  927.71   29.20
   0  -1  -3 4278.07  134.29
   0  -1  -3 4323.77  134.29
   0  -1  -3 4359.76  133.99
   0   1   3 4379.46  133.99
  -1  -1  -3 2249.47   71.19
  -1  -1  -3 2254.77   71.19
  -1  -1  -3 2376.86   71.89
   1   1   3 2306.07   71.79
  -2  -1  -3  451.15   15.10
  -2  -1  -3  433.56   15.10
  -2  -1  -3  446.36   15.00
   2   1   3  432.16   15.30
   2   1   3  454.65   15.10
  -3  -1  -3 1918.91   64.39
  -3  -1  -3 2078.69   63.99
   3   1   3 2091.59   64.49
   3   1   3 2041.20   64.49
  -4  -1  -3  701.13   23.70
  -4  -1  -3  699.93   22.70
   4   1   3  672.63   23.50
   4   1   3  647.04   23.40
   4   1   3  684.43   23.40
  -5  -1  -3  235.78    9.20
  -5  -1  -3  220.78   10.20
   5   1   3  233.88   10.30
   5   1   3  230.88    9.90
   5   1   3  234.38   10.30
   5   1   3  239.68    9.70
  -6  -1  -3  283.67   13.00
  -6  -1  -3  304.57   11.50
   6   1   3  311.97   12.70
   6   1   3  312.67   13.40
   6   1   3  321.17   12.70
  -7  -1  -3  235.08   12.00
  -7  -1  -3  260.47   10.20
   7   1   3  261.57   11.80
   7   1   3  269.27   12.60
   7   1   3  251.57   11.40
  -8  -1  -3  527.75   19.10
  -8  -1  -3  550.94   22.00
   8   1   3  526.65   21.30
   8   1   3  546.55   22.20
   8   1   3  539.95   20.70
  -9  -1  -3   47.00    6.50
   9   1   3   35.60    6.30
   9   1   3   30.40    5.30
   9   1   3   31.10    4.70
  10   1   3   10.20    4.60
  10   1   3   12.70    5.00
  10   1   3    1.00    2.90
  11   1   3    5.20    4.30
  11   1   3    5.20    3.80
  11   1   3   20.90    6.00
  12   1   3   39.80    9.00
  12   1   3   47.30    8.10
  11  -2  -3    9.10    6.30
  11  -2  -3   22.60    8.20
  10  -2  -3    1.40    4.90
  10  -2  -3   -2.30    4.10
   9  -2  -3   27.90    6.80
   9  -2  -3   39.60    6.40
   8  -2  -3    8.50    4.10
   8  -2  -3   12.00    4.90
   7  -2  -3    6.40    3.40
   7  -2  -3    7.30    3.80
   6  -2  -3  154.58    9.60
   6  -2  -3  159.68    8.90
   5  -2  -3  114.49    6.70
   5  -2  -3   92.29    7.20
   4  -2  -3 1134.39   38.10
   4  -2  -3 1156.58   39.00
   3  -2  -3  128.69    7.10
   3  -2  -3  150.08    6.60
   2  -2  -3  108.29    4.10
   2  -2  -3   99.79    4.80
   2  -2  -3  108.09    5.60
  -2   2   3  110.89    4.30
   1  -2  -3   32.30    2.60
   1  -2  -3   34.50    2.90
   1  -2  -3   31.00    1.60
   1  -2  -3   32.60    2.20
  -1   2   3   33.00    2.20
   0  -2  -3  572.04   18.10
   0  -2  -3  578.44   18.50
   0  -2  -3  564.34   17.80
   0  -2  -3  574.24   18.70
   0   2   3  566.04   17.80
   0   2   3  561.34   18.60
  -1  -2  -3   46.00    2.70
  -1  -2  -3   51.39    2.70
  -1  -2  -3   45.90    1.80
  -1  -2  -3   44.50    2.60
   1   2   3   42.90    2.90
  -2  -2  -3 2155.38   69.99
  -2  -2  -3 2401.96   70.09
   2   2   3 2207.88   68.79
   2   2   3 2146.69   70.09
   2   2   3 2240.28   69.59
  -3  -2  -3  684.93   23.30
   3   2   3  706.43   23.10
   3   2   3  679.73   22.20
   3   2   3  692.33   23.30
  -4  -2  -3  330.87   12.40
  -4  -2  -3  313.37   11.10
   4   2   3  307.87   12.10
   4   2   3  304.77   12.10
   4   2   3  313.17   11.30
  -5  -2  -3  212.68    8.00
  -5  -2  -3  211.38    9.70
   5   2   3  204.08    8.70
   5   2   3  220.18    9.40
   5   2   3  199.68    9.40
  -6  -2  -3 1119.79   37.20
  -6  -2  -3 1187.88   39.70
   6   2   3 1142.39   38.80
   6   2   3 1156.38   39.60
   6   2   3 1185.38   38.70
  -7  -2  -3   47.00    3.20
  -7  -2  -3   55.19    6.10
   7   2   3   50.79    5.10
   7   2   3   43.20    5.50
   7   2   3   49.20    5.30
  -8  -2  -3  310.47   11.40
  -8  -2  -3  317.47   14.80
   8   2   3  294.47   13.40
   8   2   3  300.37   13.90
   8   2   3  323.07   15.00
  -9  -2  -3   56.39    7.10
   9   2   3   44.30    6.20
   9   2   3   52.89    5.80
   9   2   3   46.20    6.90
  10   2   3   14.50    3.90
  10   2   3   10.30    4.80
  10   2   3   15.30    4.60
  11   2   3   81.09    8.30
  11   2   3   80.79    9.30
  11   2   3   73.19    9.30
  12   2   3   39.40    7.70
  12   2   3   26.60    8.10
  10  -3  -3   18.10    5.90
  10  -3  -3   17.20    6.80
   9  -3  -3   23.60    5.80
   9  -3  -3    9.20    5.80
   8  -3  -3   30.60    5.70
   8  -3  -3   45.10    6.50
   7  -3  -3   15.60    4.70
   7  -3  -3   17.30    4.20
   6  -3  -3  301.57   14.30
   6  -3  -3  287.57   13.30
   5  -3  -3   49.00    5.60
   5  -3  -3   45.90    5.00
   5  -3  -3   44.40    3.70
  -5   3   3   50.59    5.10
   4  -3  -3  191.38    7.90
   4  -3  -3  186.78    9.60
   4  -3  -3  192.48    8.70
  -4   3   3  193.58    8.80
   3  -3  -3  234.38   10.40
   3  -3  -3  241.38    9.60
   3  -3  -3  232.88    9.00
  -3   3   3  242.08   10.20
   2  -3  -3  588.94   20.50
   2  -3  -3  584.34   19.40
   2  -3  -3  585.54   19.60
  -2   3   3  588.14   19.40
   1  -3  -3  797.52   25.30
   1  -3  -3  778.92   24.90
  -1   3   3  771.02   25.40
   0  -3  -3  267.67    9.20
   0  -3  -3  264.27    9.30
   0   3   3  255.17    9.60
  -1  -3  -3  951.40   30.10
  -1  -3  -3  939.61   29.60
   1   3   3  912.61   29.00
   1   3   3  925.51   30.30
  -2  -3  -3  339.27   12.50
   2   3   3  355.96   11.80
   2   3   3  343.17   12.60
  -3  -3  -3   27.60    3.00
   3   3   3   30.50    2.00
   3   3   3   36.60    3.50
   3   3   3   32.40    2.90
  -4  -3  -3  157.28    7.60
   4   3   3  161.98    6.50
   4   3   3  150.98    7.30
   4   3   3  174.18    7.60
  -5  -3  -3  943.61   32.70
   5   3   3  960.10   32.30
   5   3   3  947.71   31.60
   5   3   3  976.80   32.60
  -6  -3  -3  870.91   30.30
   6   3   3  856.01   29.60
   6   3   3  847.12   30.10
   6   3   3  839.82   29.10
  -7  -3  -3   56.99    6.10
   7   3   3   48.80    5.50
   7   3   3   52.89    5.30
   7   3   3   50.39    5.10
  -8  -3  -3   34.90    5.10
   8   3   3   23.10    4.60
   8   3   3   21.70    4.00
   8   3   3   23.50    4.00
  -9  -3  -3   29.80    5.60
   9   3   3   31.00    5.10
   9   3   3   21.90    5.00
   9   3   3   31.30    4.80
  10   3   3    6.90    4.50
  10   3   3    2.40    3.50
  10   3   3    7.50    3.40
  11   3   3   53.19    8.40
  11   3   3   56.69    6.70
  11   3   3   60.69    7.70
  12   3   3   78.19    9.60
  12   3   3   52.49    8.90
  10  -4  -3   13.80    6.20
  10  -4  -3   18.60    6.20
   9  -4  -3   47.50    7.70
   9  -4  -3   37.80    6.70
   8  -4  -3   41.50    7.40
   8  -4  -3   37.90    6.20
   7  -4  -3   45.10    6.00
   7  -4  -3   28.50    5.90
   6  -4  -3   68.19    7.30
   6  -4  -3   74.59    5.30
   6  -4  -3   75.39    6.90
   5  -4  -3   22.70    4.30
   5  -4  -3   16.90    2.80
   5  -4  -3   14.00    3.40
  -5   4   3   15.90    3.10
   4  -4  -3   90.89    6.50
   4  -4  -3   96.39    5.80
   4  -4  -3   86.79    5.20
  -4   4   3   97.09    6.00
   3  -4  -3   28.90    3.00
   3  -4  -3   31.60    3.30
   3  -4  -3   20.20    3.30
  -3   4   3   37.90    3.80
   2  -4  -3  189.88    7.50
   2  -4  -3  186.58    7.80
  -2   4   3  200.98    7.80
  -2   4   3  180.18    8.10
   1  -4  -3 1407.56   43.00
   1  -4  -3 1323.37   43.70
  -1   4   3 1375.66   43.90
   0  -4  -3  170.58    6.40
   0  -4  -3  173.18    7.10
   0   4   3  179.18    7.40
  -1  -4  -3  573.44   18.50
  -1  -4  -3  582.14   19.60
   1   4   3  577.44   19.70
   1   4   3  563.54   18.20
  -2  -4  -3  104.99    5.30
   2   4   3   95.69    5.20
   2   4   3  107.99    4.40
  -3  -4  -3   67.79    4.50
   3   4   3   68.09    3.10
   3   4   3   67.99    3.90
   3   4   3   68.29    4.60
  -4  -4  -3   -1.20    1.50
   4   4   3    1.00    1.20
   4   4   3    1.70    1.80
   4   4   3    4.50    1.90
  -5  -4  -3  164.28    8.10
   5   4   3  137.99    7.40
   5   4   3  154.38    7.60
   5   4   3  144.89    6.70
  -6  -4  -3  122.79    7.50
   6   4   3  120.89    7.30
   6   4   3  121.89    7.00
   6   4   3  125.69    6.50
  -7  -4  -3   36.50    4.70
   7   4   3   32.60    4.40
   7   4   3   28.70    4.60
   7   4   3   31.70    4.10
  -8  -4  -3  253.37   12.80
   8   4   3  254.57   11.70
   8   4   3  232.08   11.50
   8   4   3  245.88   12.90
  -9  -4  -3   96.29   10.80
   9   4   3   93.39    7.10
   9   4   3   82.99    8.70
   9   4   3   97.49    7.40
  10   4   3   43.80    6.00
  10   4   3   54.79    7.80
  10   4   3   48.10    6.40
  11   4   3   87.39   10.30
  11   4   3  101.89    9.70
  11   4   3   95.79    8.70
  12   4   3    5.70    6.00
  12   4   3    1.30    5.00
  10  -5  -3    6.90    5.20
  10  -5  -3    0.20    6.30
   9  -5  -3    5.20    5.30
   9  -5  -3    0.40    4.00
   8  -5  -3   11.60    5.20
   8  -5  -3   16.00    4.90
   7  -5  -3   27.50    5.10
   7  -5  -3   33.00    6.10
   7  -5  -3   22.20    3.70
   6  -5  -3    3.30    3.00
   6  -5  -3    6.50    3.50
   6  -5  -3    0.80    2.00
   5  -5  -3  132.29    8.50
   5  -5  -3  126.99    7.10
   5  -5  -3  138.79    7.80
  -5   5   3  137.69    8.20
   4  -5  -3  235.88   10.20
   4  -5  -3  220.98   10.00
  -4   5   3  237.08   10.80
   3  -5  -3   10.20    2.30
   3  -5  -3   13.00    2.40
  -3   5   3    9.90    2.30
   2  -5  -3  456.45   16.40
   2  -5  -3  465.05   15.80
  -2   5   3  456.35   16.40
  -2   5   3  440.76   16.80
   1  -5  -3  183.08    7.70
  -1   5   3  166.58    7.60
  -1   5   3  159.08    7.60
   0  -5  -3  170.78    7.70
   0   5   3  184.38    7.90
  -1  -5  -3  228.28    7.70
  -1  -5  -3  230.88    9.40
   1   5   3  228.38    7.90
   1   5   3  233.18    9.60
  -2  -5  -3   19.60    2.60
   2   5   3   25.30    3.20
   2   5   3   28.40    2.30
  -3  -5  -3  503.25   18.70
   3   5   3  535.35   17.80
   3   5   3  507.95   18.70
  -4  -5  -3  201.68    9.30
   4   5   3  202.78    8.60
   4   5   3  201.48    7.80
   4   5   3  199.78    9.10
  -5  -5  -3   21.40    3.20
   5   5   3   23.90    2.80
   5   5   3   21.60    3.40
   5   5   3   24.40    3.40
  -6  -5  -3  156.48    8.60
   6   5   3  155.38    8.30
   6   5   3  142.69    8.10
   6   5   3  145.69    7.20
  -7  -5  -3  168.88    9.90
   7   5   3  189.38    9.50
   7   5   3  180.38    9.00
   7   5   3  196.58   10.20
  -8  -5  -3    3.30    2.70
   8   5   3    2.90    2.70
   8   5   3    1.60    2.90
   8   5   3    3.70    2.90
   9   5   3   24.70    4.40
   9   5   3   19.90    4.50
   9   5   3   16.00    4.60
  10   5   3   44.30    5.90
  10   5   3   27.90    6.30
  10   5   3   37.90    5.80
  11   5   3   93.29    9.50
  11   5   3  102.59    8.10
  11   5   3   97.49   11.00
  12   5   3   84.19    9.50
  12   5   3   56.49    9.40
   9  -6  -3   26.10    7.50
   9  -6  -3   10.30    5.20
   8  -6  -3    8.50    4.30
   8  -6  -3   11.90    5.00
   7  -6  -3    0.90    2.30
   7  -6  -3    2.30    3.80
   7  -6  -3    1.20    3.40
   6  -6  -3   27.60    4.20
   6  -6  -3   37.30    6.10
   6  -6  -3   36.20    5.30
   5  -6  -3   43.10    5.00
   5  -6  -3   40.80    6.00
   5  -6  -3   47.50    4.90
   4  -6  -3    3.50    2.10
   4  -6  -3    4.30    2.50
  -4   6   3    5.00    2.50
   3  -6  -3   19.70    2.90
   3  -6  -3   19.20    3.00
  -3   6   3   24.40    3.70
   2  -6  -3   35.50    3.80
  -2   6   3   37.70    4.00
  -2   6   3   38.30    4.10
   1  -6  -3  452.95   16.90
  -1   6   3  455.25   17.10
  -1   6   3  473.45   17.10
   0  -6  -3  272.77   10.90
   0   6   3  255.87   10.80
  -1  -6  -3   47.20    4.00
   1   6   3   55.59    2.90
   1   6   3   53.99    4.50
  -2  -6  -3  471.45   17.40
  -2  -6  -3  465.55   15.20
   2   6   3  468.25   15.90
   2   6   3  473.05   17.40
  -3  -6  -3 1195.88   40.80
   3   6   3 1234.68   40.80
   3   6   3 1241.78   39.70
  -4  -6  -3  233.58   10.70
   4   6   3  247.48   10.80
   4   6   3  232.48    9.90
   4   6   3  247.08    9.30
  -5  -6  -3   78.79    6.00
   5   6   3   88.19    5.00
   5   6   3   95.89    5.90
   5   6   3   96.49    6.40
  -6  -6  -3  195.68   10.10
   6   6   3  199.28    9.80
   6   6   3  183.18    9.60
  -7  -6  -3   43.50    5.60
   7   6   3   50.49    4.90
   7   6   3   49.40    5.30
   7   6   3   50.79    5.80
  -8  -6  -3    5.40    3.10
   8   6   3    5.90    2.90
   8   6   3   -2.50    2.70
   8   6   3    4.90    2.80
   9   6   3  125.29    8.50
   9   6   3  134.29    8.40
   9   6   3  129.09    9.60
  10   6   3   12.30    5.00
  10   6   3   15.50    4.30
  10   6   3   17.80    4.50
  11   6   3   53.09    7.40
  11   6   3   46.30    6.40
  11   6   3   58.39    8.90
  12   6   3   10.60    8.00
  12   6   3   18.50    6.90
   9  -7  -3    5.70    5.60
   9  -7  -3    2.00    4.50
   8  -7  -3   35.30    6.10
   8  -7  -3   36.80    5.10
   8  -7  -3   37.20    7.30
   7  -7  -3   18.00    4.60
   7  -7  -3   19.90    5.30
   7  -7  -3   16.50    3.80
   6  -7  -3   44.10    6.80
   6  -7  -3   39.80    5.10
   6  -7  -3   47.80    5.90
   5  -7  -3  361.46   15.40
   5  -7  -3  368.16   15.30
   4  -7  -3  116.79    7.20
   4  -7  -3  106.69    6.60
  -4   7   3  113.59    7.70
   3  -7  -3   58.49    4.50
   3  -7  -3   62.49    5.30
  -3   7   3   59.99    5.30
   2  -7  -3   98.49    6.30
  -2   7   3  109.59    6.80
  -2   7   3  106.29    6.60
   1  -7  -3  464.65   18.00
  -1   7   3  488.45   18.30
  -1   7   3  492.45   18.40
   0  -7  -3  175.18    8.50
   0   7   3  181.58    8.70
  -1  -7  -3 1078.49   37.30
   1   7   3 1140.49   37.50
  -2  -7  -3  576.74   20.90
   2   7   3  578.54   21.00
   2   7   3  552.24   19.20
  -3  -7  -3  342.17   14.00
   3   7   3  323.57   13.80
   3   7   3  360.26   12.80
  -4  -7  -3  222.98   10.60
   4   7   3  223.18    9.60
   4   7   3  224.58   10.50
  -5  -7  -3  118.59    7.30
   5   7   3  104.29    7.00
   5   7   3  105.79    5.70
   5   7   3  102.09    6.50
  -6  -7  -3  119.19    7.90
   6   7   3  114.69    7.40
   6   7   3  124.69    6.50
   6   7   3  117.99    7.60
  -7  -7  -3  165.48   10.00
   7   7   3  167.88    9.60
   7   7   3  169.38    9.60
   7   7   3  176.08    8.80
  -8  -7  -3  191.08   11.50
   8   7   3  196.98   10.80
   8   7   3  205.88   11.40
   8   7   3  193.98   10.00
   9   7   3  252.87   12.10
   9   7   3  221.48   13.00
   9   7   3  239.38   12.50
  10   7   3  142.49    9.70
  10   7   3  132.49   10.60
  10   7   3  145.39    9.50
  11   7   3    7.40    4.20
  11   7   3    3.70    4.60
  11   7   3    0.70    3.80
   9  -8  -3   68.99    8.90
   9  -8  -3   48.40    9.40
   8  -8  -3   16.10    6.10
   8  -8  -3   15.40    4.20
   8  -8  -3    8.30    4.60
   7  -8  -3   26.60    5.40
   7  -8  -3   32.60    5.00
   7  -8  -3   30.80    6.80
   6  -8  -3   22.20    4.30
   6  -8  -3   22.20    5.40
   6  -8  -3   39.20    5.60
   5  -8  -3  197.88   10.60
   5  -8  -3  189.98   10.10
   4  -8  -3  210.08   10.50
   4  -8  -3  183.68    9.50
  -4   8   3  193.98   10.90
   3  -8  -3   30.40    4.20
  -3   8   3   20.90    3.50
   2  -8  -3  247.38   11.60
  -2   8   3  262.77   12.20
  -2   8   3  259.97   11.90
   1  -8  -3    9.90    2.70
  -1   8   3   12.90    3.00
  -1   8   3    9.10    2.70
   0  -8  -3  540.75   20.30
   0   8   3  554.14   20.50
   0   8   3  530.55   20.50
  -1  -8  -3   94.49    6.30
   1   8   3  114.79    6.90
  -2  -8  -3   90.69    6.20
   2   8   3   98.89    6.50
   2   8   3   90.09    4.80
  -3  -8  -3  109.39    6.90
   3   8   3  103.09    5.70
   3   8   3  104.49    6.90
  -4  -8  -3   31.50    4.30
   4   8   3   28.80    3.60
   4   8   3   22.40    4.10
  -5  -8  -3   16.60    3.40
   5   8   3   25.20    4.30
   5   8   3   23.30    3.70
  -6  -8  -3  143.99    8.90
   6   8   3  145.39    8.80
   6   8   3  132.69    7.20
   6   8   3  131.49    8.20
  -7  -8  -3   11.70    3.60
   7   8   3   10.50    3.70
   7   8   3   10.70    3.00
   7   8   3    8.70    3.50
   8   8   3  133.59    8.20
   8   8   3  138.79    9.10
   8   8   3  122.79    9.00
   9   8   3   15.70    4.10
   9   8   3   11.90    4.10
   9   8   3   14.50    4.70
  10   8   3    5.50    3.90
  10   8   3    8.70    4.80
  10   8   3    4.80    3.80
  11   8   3   15.00    5.90
  11   8   3   12.80    4.90
   8  -9  -3   58.19    7.90
   8  -9  -3   52.19    6.70
   8  -9  -3   40.30    8.60
   7  -9  -3    4.50    4.10
   7  -9  -3    0.60    4.70
   7  -9  -3   10.40    3.70
   6  -9  -3   79.49    7.70
   6  -9  -3   88.79    7.90
   5  -9  -3   39.80    5.70
   5  -9  -3   45.50    5.50
   4  -9  -3    6.30    3.10
   4  -9  -3   11.60    3.40
  -4   9   3   11.50    4.50
   3  -9  -3   69.39    6.60
  -3   9   3   52.59    6.00
   2  -9  -3   14.90    3.30
  -2   9   3   12.00    3.30
   1  -9  -3  141.29    8.40
  -1   9   3  151.68    8.80
  -1   9   3  146.89    8.70
   0  -9  -3   21.70    3.50
   0   9   3   24.50    4.40
   0   9   3   22.10    3.50
  -1  -9  -3  260.17   12.00
   1   9   3  255.27   12.20
   1   9   3  269.87   12.20
  -2  -9  -3    6.80    2.60
   2   9   3    9.20    2.20
   2   9   3   10.20    3.20
  -3  -9  -3   53.49    5.60
   3   9   3   43.70    5.40
   3   9   3   43.10    4.10
  -4  -9  -3  126.59    7.80
   4   9   3  125.69    8.00
   4   9   3  102.79    6.40
  -5  -9  -3   21.30    3.80
   5   9   3   17.00    3.90
   5   9   3   29.70    4.30
  -6  -9  -3   96.89    7.60
   6   9   3   86.99    8.00
   6   9   3   91.39    6.90
  -7  -9  -3   42.40    6.00
   7   9   3   46.60    5.90
   7   9   3   50.99    6.30
   7   9   3   57.99    5.70
   8   9   3    8.20    3.30
   8   9   3    0.20    3.30
   8   9   3    1.20    3.20
   9   9   3   21.40    5.30
   9   9   3   25.60    4.60
   9   9   3   12.70    4.50
  10   9   3   11.80    5.10
  10   9   3   16.50    4.80
  11   9   3   22.30    6.40
  11   9   3   25.00    6.00
   7 -10  -3   20.00    5.20
   7 -10  -3   21.00    6.70
   7 -10  -3   23.80    5.40
   6 -10  -3   93.39    8.50
   6 -10  -3  101.19    8.30
   5 -10  -3   11.70    3.90
   5 -10  -3    9.20    3.70
   4 -10  -3    6.80    3.20
   4 -10  -3   12.40    3.60
   3 -10  -3   20.10    3.90
  -3  10   3   23.60    4.40
   2 -10  -3   88.89    7.00
  -2  10   3   61.59    6.40
   1 -10  -3   42.60    5.40
  -1  10   3   33.10    4.70
  -1  10   3   40.00    5.50
   0 -10  -3  120.19    8.00
   0  10   3  132.59    8.60
   0  10   3  131.69    8.50
  -1 -10  -3   18.10    3.60
   1  10   3   29.40    4.60
   1  10   3   22.90    4.40
  -2 -10  -3   91.49    6.90
   2  10   3  100.99    5.70
   2  10   3   94.19    7.40
  -3 -10  -3    0.40    2.10
   3  10   3    2.70    2.10
   3  10   3    5.10    3.10
  -4 -10  -3    3.00    2.60
   4  10   3    8.20    2.70
   4  10   3    9.60    3.70
  -5 -10  -3   10.00    3.10
   5  10   3   12.70    3.40
   5  10   3   21.10    4.40
  -6 -10  -3  127.59    9.20
   6  10   3  132.59    8.50
   6  10   3  134.29    9.20
   7  10   3  327.27   15.10
   7  10   3  317.37   15.50
   8  10   3   32.30    5.80
   8  10   3   30.80    5.00
   8  10   3   37.40    5.80
   9  10   3   45.30    6.70
   9  10   3   51.69    7.10
  10  10   3   17.30    5.50
  10  10   3   18.60    5.50
  11  10   3   10.50    6.00
  11  10   3   18.80    5.80
   7 -11  -3   79.19   10.70
   7 -11  -3   51.99    7.10
   6 -11  -3    6.50    4.00
   6 -11  -3   12.00    4.30
   5 -11  -3   22.90    4.90
   5 -11  -3   30.40    5.10
   4 -11  -3   15.20    3.90
   4 -11  -3   15.70    4.10
   3 -11  -3   11.20    3.60
  -3  11   3    9.00    3.90
   2 -11  -3   20.10    4.40
  -2  11   3   19.00    4.60
   1 -11  -3   73.39    7.40
  -1  11   3   88.09    8.30
  -1  11   3   70.39    7.20
   0 -11  -3  123.99    8.30
   0  11   3  117.59    8.50
   0  11   3  110.79    8.50
  -1 -11  -3   51.19    6.10
   1  11   3   49.90    6.30
   1  11   3   44.10    5.50
  -2 -11  -3   81.79    6.90
   2  11   3   82.29    8.10
   2  11   3   78.99    7.40
  -3 -11  -3   67.29    7.20
   3  11   3   61.79    5.50
   3  11   3   67.09    7.50
  -4 -11  -3  277.97   13.70
   4  11   3  248.98   13.40
   4  11   3  275.17   12.00
  -5 -11  -3   28.90    5.00
   5  11   3   26.30    4.40
   5  11   3   32.10    5.50
  -6 -11  -3  264.27   14.00
   6  11   3  269.57   13.00
   6  11   3  260.67   14.00
   7  11   3   64.69    7.00
   7  11   3   65.49    7.60
   8  11   3   12.70    4.50
   8  11   3    6.50    4.40
   9  11   3    4.50    4.30
   9  11   3    2.20    3.80
  10  11   3   19.50    5.80
  10  11   3   11.60    5.40
   6 -12  -3   12.90    4.70
   5 -12  -3   29.10    5.50
   4 -12  -3   20.70    4.80
   3 -12  -3   31.70    5.50
  -3  12   3   20.80    5.90
   2 -12  -3   27.90    5.10
  -2  12   3   33.10    5.90
   1 -12  -3   53.19    6.80
  -1  12   3   57.89    7.10
  -1  12   3   33.00    5.70
   0 -12  -3   36.20    5.40
   0  12   3   38.00    6.00
   0  12   3   33.50    5.80
  -1 -12  -3   40.80    5.70
   1  12   3   41.10    5.60
   1  12   3   59.09    7.20
  -2 -12  -3   16.50    4.00
   2  12   3   24.50    4.50
   2  12   3   23.80    5.00
  -3 -12  -3   46.10    6.40
   3  12   3   35.90    6.10
   3  12   3   30.60    5.10
   3  12   3   41.30    4.80
  -4 -12  -3   45.60    6.50
   4  12   3   37.00    4.90
   4  12   3   39.40    5.60
   4  12   3   29.10    5.60
  -5 -12  -3   53.89    6.50
   5  12   3   53.79    7.10
   5  12   3   52.19    6.00
   6  12   3  107.19    9.80
   6  12   3   98.19    7.80
   7  12   3   70.79    8.30
   7  12   3   89.79    8.60
   8  12   3    4.60    4.10
   8  12   3    9.60    4.50
   9  12   3   17.30    5.50
   9  12   3   22.70    6.00
  10  12   3   25.80    6.60
  10  12   3   26.30    6.50
   5 -13  -3   21.70    6.10
   4 -13  -3    9.70    4.10
   3 -13  -3  131.99   10.10
   2 -13  -3    8.50    4.00
  -2  13   3    7.50    3.90
   1 -13  -3   44.50    6.40
  -1  13   3   50.89    7.20
   0 -13  -3    4.40    3.40
   0  13   3    9.70    4.30
   0  13   3   13.40    4.50
  -1 -13  -3   16.20    4.70
   1  13   3    5.60    4.20
   1  13   3    8.00    3.80
  -2 -13  -3   33.20    5.70
   2  13   3   18.50    4.80
   2  13   3   23.50    5.10
  -3 -13  -3    0.80    2.70
   3  13   3    4.30    2.80
   3  13   3    2.10    3.70
   3  13   3   -0.10    3.00
  -4 -13  -3   20.50    4.60
   4  13   3   16.60    5.10
   4  13   3   23.00    4.20
   4  13   3   20.20    4.50
   5  13   3   11.60    3.80
   5  13   3   13.40    4.40
   5  13   3    5.30    4.40
   6  13   3   10.40    3.90
   6  13   3   10.20    4.90
   7  13   3    5.30    4.20
   7  13   3    1.70    3.90
   8  13   3    8.30    4.90
   8  13   3    5.00    4.30
   9  13   3   16.40    5.90
   9  13   3    3.10    4.80
   4 -14  -3    6.30    4.40
   3 -14  -3    5.20    3.90
   2 -14  -3    1.40    3.80
  -2  14   3    5.80    4.60
   1 -14  -3   14.40    4.70
  -1  14   3   13.10    4.60
   0 -14  -3   80.99    9.10
   0  14   3   81.69    9.00
   0  14   3   77.29    8.80
  -1 -14  -3   22.90    4.90
   1  14   3   23.10    5.60
   1  14   3   33.80    6.10
  -2 -14  -3   43.50    6.20
   2  14   3   38.80    6.80
   2  14   3   58.49    7.50
  -3 -14  -3   11.20    4.30
   3  14   3    5.10    4.50
   3  14   3    9.30    4.20
  -4 -14  -3   17.50    5.40
   4  14   3    9.60    4.20
   4  14   3   16.10    4.00
   4  14   3   10.40    5.30
   5  14   3  103.79    7.90
   5  14   3   99.69    9.50
   5  14   3   62.89    8.80
   6  14   3   96.39   10.50
   6  14   3   79.49    8.60
   6  14   3   93.49    8.80
   7  14   3   49.10    8.30
   7  14   3   44.80    6.70
   7  14   3   30.80    6.00
   8  14   3   57.39    8.70
   8  14   3   53.19    7.70
   8  14   3   40.60    7.10
   3 -15  -3   31.40    6.70
   2 -15  -3    7.40    5.20
  -2  15   3   -3.00    3.90
   1 -15  -3   20.00    5.70
  -1  15   3   16.70    5.30
   0 -15  -3   38.80    7.00
   0  15   3   48.40    7.00
  -1 -15  -3   58.09    7.80
   1  15   3   57.49    8.00
   1  15   3   56.69    8.20
  -2 -15  -3   -2.50    3.30
   2  15   3    5.00    4.10
   2  15   3    3.60    4.50
  -3 -15  -3   -3.90    3.10
   3  15   3    7.70    5.10
   3  15   3    3.40    4.10
   4  15   3   56.09    7.90
   4  15   3   59.09    8.60
   5  15   3   45.60    8.30
   5  15   3   43.50    7.20
   6  15   3   58.69    8.70
   6  15   3   47.20    7.50
   7  15   3    9.60    6.60
   7  15   3    7.40    5.20
   1 -16  -3   84.39   10.70
  -1  16   3   70.79    9.60
   0 -16  -3   13.50    5.50
   0  16   3   14.60    5.40
  -1 -16  -3   20.00    5.80
   1  16   3   15.80    5.60
  -2 -16  -3   50.49    8.90
   2  16   3   41.00    7.50
   2  16   3   38.90    8.30
   3  16   3    5.60    5.60
   3  16   3   10.40    5.10
   4  16   3   -1.50    5.50
   4  16   3    2.80    4.80
   5  16   3   57.39    9.50
   5  16   3   52.19    8.30
   6  16   3    9.60    5.90
   6  16   3   23.50    8.00
   4  15  -4    7.00    5.90
   3  15  -4   63.49    4.80
   3  15  -4   67.49    4.60
   3  15  -4   69.49    8.80
   2  15  -4   75.69    6.40
   2  15  -4   54.09    8.40
   1  15  -4   24.90    6.90
   1  15  -4   28.90    5.10
   0  15  -4    7.40    5.40
   0  15  -4   -0.50    3.80
  -1  15  -4   -4.00    4.30
  -1  15  -4   -2.90    4.00
   6  14  -4   37.90    8.40
   5  14  -4   19.50    6.70
   4  14  -4   69.39    9.50
   3  14  -4   15.10    4.70
   3  14  -4    4.90    5.00
   3  14  -4   12.70    2.70
   3  14  -4   12.20    2.50
   2  14  -4   16.40    4.90
   2  14  -4   12.10    3.20
   1  14  -4   67.39    6.40
   1  14  -4   54.89    8.30
   0  14  -4   31.20    5.30
   0  14  -4   24.90    6.60
  -1  14  -4    7.40    4.10
  -1  14  -4   24.70    6.30
  -2  14  -4   25.50    7.00
  -2  14  -4   21.20    5.50
  -3  14  -4   59.79    8.20
  -3  14  -4   60.19    9.70
   7  13  -4    6.20    6.20
   6  13  -4    4.50    5.50
   5  13  -4  112.79   11.50
   4  13  -4   -0.30    2.90
   4  13  -4   -1.20    3.80
   3  13  -4    7.60    4.40
   3  13  -4   10.60    2.30
   3  13  -4   15.20    2.70
   3  13  -4    9.30    4.00
   2  13  -4   16.00    3.30
   2  13  -4   18.70    4.90
   1  13  -4   -1.70    2.30
   1  13  -4    0.00    3.20
   0  13  -4   97.19   10.20
   0  13  -4  105.29    7.80
  -1  13  -4   33.00    6.60
  -1  13  -4   39.90    5.60
  -2  13  -4    7.60    3.90
  -2  13  -4    5.50    4.50
  -3  13  -4   61.29    7.70
  -3  13  -4   59.19    9.00
  -4  13  -4   23.00    6.70
  -4  13  -4   46.20    7.20
  -5  13  -4   19.50    6.20
  -5  13  -4   14.70    6.90
   8  12  -4   80.09   11.10
   7  12  -4    6.10    5.60
   6  12  -4    6.70    5.00
   5  12  -4    1.60    4.00
   4  12  -4   45.90    7.20
   4  12  -4   20.60    4.40
   3  12  -4    5.40    4.00
   3  12  -4    8.40    1.90
   3  12  -4   11.40    3.70
   3  12  -4    7.40    2.10
   2  12  -4   47.50    4.60
   2  12  -4   40.00    4.10
   2  12  -4   42.40    6.20
   2  12  -4   40.90    6.80
   1  12  -4    1.50    3.30
   1  12  -4    3.10    2.50
   0  12  -4    1.30    3.40
   0  12  -4    1.90    2.60
  -1  12  -4   10.60    4.60
  -1  12  -4   16.70    4.00
  -2  12  -4   68.99    7.20
  -2  12  -4   60.79    8.40
  -3  12  -4   -1.10    3.70
  -3  12  -4    4.20    3.60
  -4  12  -4    2.10    4.00
  -4  12  -4    0.90    3.50
  -5  12  -4   16.60    6.10
  -5  12  -4    5.50    4.50
  -6  12  -4   33.10    7.10
  -6  12  -4   23.30    7.20
   8  11  -4    3.90    5.60
   8  11  -4   -2.40    5.30
   7  11  -4   23.70    6.50
   6  11  -4   25.10    5.90
   5  11  -4   10.30    4.60
   4  11  -4   22.10    5.30
   4  11  -4   23.00    4.20
   3  11  -4   18.30    2.40
   3  11  -4   23.40    4.50
   3  11  -4   19.20    2.30
   3  11  -4   18.90    5.00
   2  11  -4   32.10    5.60
   2  11  -4   29.30    3.50
   2  11  -4   31.60    3.50
   2  11  -4   40.40    5.70
   1  11  -4  103.09    6.30
   1  11  -4  113.29    8.80
   1  11  -4  127.29    7.00
   0  11  -4   33.00    6.00
   0  11  -4   38.50    4.60
  -1  11  -4   24.20    4.20
  -1  11  -4   25.60    5.30
  -2  11  -4    2.40    3.30
  -2  11  -4    1.50    2.90
  -3  11  -4   53.59    7.60
  -3  11  -4   41.10    5.90
  -4  11  -4    6.10    3.80
  -4  11  -4   16.00    5.20
  -5  11  -4   46.30    7.00
  -5  11  -4   41.60    7.60
  -6  11  -4   75.19   10.10
  -6  11  -4   86.29    9.60
  -7  11  -4   34.30    8.20
  -7  11  -4   26.50    6.80
   9  10  -4   68.79    9.80
   9  10  -4   49.00    9.40
   8  10  -4   -4.10    4.00
   8  10  -4   14.30    5.60
   7  10  -4   20.90    5.70
   7  10  -4   28.20    6.50
   6  10  -4   -0.70    3.80
   6  10  -4    3.60    3.80
   5  10  -4   21.50    5.10
   5  10  -4   18.30    4.10
   4  10  -4   68.49    5.80
   4  10  -4   55.89    6.90
   3  10  -4  151.88   10.00
   3  10  -4  150.48    8.90
   3  10  -4  141.99    6.00
   3  10  -4  148.49    6.00
   2  10  -4  137.89    6.60
   2  10  -4  150.68    9.60
   2  10  -4  137.79    7.10
   2  10  -4  140.99    6.80
   2  10  -4  146.99    9.20
   1  10  -4   64.09    4.60
   1  10  -4   66.69    7.20
   1  10  -4   60.79    4.60
   1  10  -4   66.79    5.00
   1  10  -4   74.29    7.70
   0  10  -4   41.70    3.90
   0  10  -4   40.30    4.40
   0  10  -4   40.40    6.10
   0  10  -4   36.30    4.20
  -1  10  -4   40.30    4.80
  -1  10  -4   38.60    6.20
  -1  10  -4   40.30    4.10
  -2  10  -4  109.29    7.60
  -2  10  -4  110.29    6.50
  -2  10  -4   85.49    8.90
  -3  10  -4   38.00    5.40
  -3  10  -4   28.50    5.70
  -3  10  -4   44.80    5.00
  -4  10  -4   83.49    6.40
  -4  10  -4   72.59    9.00
  -4  10  -4   87.09    8.30
  -5  10  -4   32.70    5.70
  -5  10  -4   24.40    6.00
  -6  10  -4   15.20    4.70
  -6  10  -4   16.40    5.60
  -7  10  -4   45.20    8.60
  -7  10  -4   65.49    8.70
   9   9  -4    8.00    5.40
   9   9  -4   15.90    6.30
   8   9  -4   39.90    7.30
   8   9  -4   47.90    7.40
   7   9  -4   54.79    7.90
   7   9  -4   62.69    7.90
   6   9  -4   18.60    5.00
   6   9  -4    6.00    4.20
   5   9  -4    1.80    3.60
   5   9  -4    3.60    2.10
   5   9  -4    0.00    3.20
   4   9  -4  540.25   21.90
   4   9  -4  506.05   19.90
   3   9  -4   13.90    3.30
   3   9  -4   15.80    4.40
   2   9  -4   96.29    7.10
   2   9  -4   89.99    4.70
   2   9  -4   88.59    7.30
   2   9  -4   89.49    4.80
   2   9  -4   89.79    5.50
   1   9  -4  426.06   15.70
   1   9  -4  427.16   15.60
   1   9  -4  417.96   18.10
   1   9  -4  419.36   18.00
   1   9  -4  432.56   15.80
   0   9  -4   66.99    7.00
   0   9  -4   69.89    4.80
   0   9  -4   56.29    4.40
   0   9  -4   67.19    5.00
  -1   9  -4   67.89    7.40
  -1   9  -4   60.99    4.50
  -1   9  -4   62.49    5.60
  -1   9  -4   54.49    4.80
  -2   9  -4   17.30    3.20
  -2   9  -4   12.50    3.30
  -2   9  -4   11.50    4.00
  -3   9  -4   87.09    8.80
  -3   9  -4   86.39    6.20
  -3   9  -4   86.19    7.00
  -4   9  -4    1.10    2.80
  -4   9  -4    1.50    3.30
   4  -9   4   -0.10    2.90
  -5   9  -4   83.09    8.90
  -5   9  -4  110.59    8.70
  -6   9  -4   67.79    8.20
  -6   9  -4   74.19    8.30
   6  -9   4   58.99    7.70
  -7   9  -4   25.80    6.00
  -7   9  -4   15.10    5.10
   7  -9   4   23.90    5.10
  -8   9  -4    9.10    5.30
  -8   9  -4    4.90    5.10
   8  -9   4   12.20    4.70
  10   8  -4   36.90    8.10
  10   8  -4   27.50    7.40
   9   8  -4    7.40    5.30
   9   8  -4   10.40    5.40
   8   8  -4   61.29    8.00
   8   8  -4   74.59    9.40
   7   8  -4   22.70    5.30
   7   8  -4   14.30    4.50
   6   8  -4   -0.40    2.30
   6   8  -4    7.10    3.50
   6   8  -4    0.40    3.30
   5   8  -4  394.86   18.30
   5   8  -4  427.06   15.90
   5   8  -4  423.26   18.60
   4   8  -4  210.58   11.60
   4   8  -4  226.38   10.20
   4   8  -4  202.68   11.40
   3   8  -4   70.99    5.70
   3   8  -4   85.59    6.70
   2   8  -4    5.20    1.20
   2   8  -4    4.50    1.40
   2   8  -4    4.60    1.90
   2   8  -4    8.30    2.80
   2   8  -4    8.50    3.50
   1   8  -4   77.49    4.80
   1   8  -4   66.89    4.20
   1   8  -4   54.99    6.00
   1   8  -4   68.99    4.20
   1   8  -4   70.89    5.90
   0   8  -4   94.79    5.40
   0   8  -4   85.79    5.10
   0   8  -4   90.59    5.30
   0   8  -4   80.79    6.50
   0  -8   4   83.99    6.00
  -1   8  -4   45.00    4.40
  -1   8  -4   37.60    5.10
  -1   8  -4   46.90    4.50
  -1   8  -4   40.60    4.00
   1  -8   4   41.80    4.70
  -2   8  -4   21.80    3.50
  -2   8  -4   22.50    4.30
  -2   8  -4   26.70    3.60
  -2   8  -4   29.70    3.70
   2  -8   4   19.00    3.50
  -3   8  -4   50.09    5.10
  -3   8  -4   55.49    6.70
  -3   8  -4   50.89    5.40
   3  -8   4   61.39    6.50
  -4   8  -4  118.79    8.00
  -4   8  -4  104.99    8.60
   4  -8   4  107.69    7.90
  -5   8  -4   44.90    6.60
  -5   8  -4   31.30    4.90
  -6   8  -4   -2.00    3.00
  -6   8  -4   -3.10    2.80
   6  -8   4   -0.30    2.90
  -7   8  -4   49.60    7.30
  -7   8  -4   31.70    5.80
   7  -8   4   39.80    6.70
  -8   8  -4   58.49    8.40
  -8   8  -4   66.39    8.70
   8  -8   4   63.79    8.60
  -9   8  -4   85.59   10.70
  -9   8  -4   82.89   10.40
   9  -8   4   97.59   11.20
   9  -8   4   60.59    8.60
  10   7  -4    2.20    5.40
  10   7  -4   11.20    6.10
   9   7  -4   52.59    8.00
   9   7  -4   35.80    6.90
   8   7  -4    1.00    4.10
   8   7  -4    1.10    3.90
   7   7  -4  110.99   10.40
   7   7  -4  119.39    9.50
   6   7  -4    9.00    4.20
   6   7  -4   13.30    2.90
   6   7  -4    7.80    3.50
   5   7  -4  150.78    9.50
   5   7  -4  147.19    7.70
   5   7  -4  132.79    6.90
   5   7  -4  163.78    9.80
   4   7  -4   28.30    5.00
   4   7  -4   31.20    3.70
   4   7  -4   28.20    4.80
   3   7  -4   93.79    7.10
   3   7  -4   98.19    6.10
   3   7  -4  109.09    7.60
   2   7  -4   34.50    4.70
   2   7  -4   25.30    3.20
   2   7  -4   32.30    4.00
   1   7  -4  192.58    8.60
   1   7  -4  196.58    9.80
   1   7  -4  204.98    7.80
   1   7  -4  184.68    9.70
   1   7  -4  202.68    7.70
   0   7  -4  252.47   10.20
   0   7  -4  246.78    9.90
   0   7  -4  246.48    9.80
   0   7  -4  259.47   12.00
   0  -7   4  242.08   10.80
  -1   7  -4   44.10    4.10
  -1   7  -4   40.10    5.20
  -1   7  -4   44.10    3.80
  -1   7  -4   44.40    4.20
   1  -7   4   54.49    5.20
  -2   7  -4  162.48    8.20
  -2   7  -4  164.78    7.90
  -2   7  -4  159.08    9.20
  -2   7  -4  161.88    8.00
   2  -7   4  143.79    8.30
  -3   7  -4   88.09    6.20
  -3   7  -4   94.39    6.60
  -3   7  -4   91.39    7.30
   3  -7   4  100.99    6.80
  -4   7  -4  196.98   11.10
  -4   7  -4  201.48   10.40
   4  -7   4  183.48   10.30
  -5   7  -4   98.09    7.90
  -5   7  -4   98.09    7.40
   5  -7   4   59.79    6.50
  -6   7  -4   38.20    5.50
  -6   7  -4   35.60    5.90
   6  -7   4   41.10    5.70
  -7   7  -4   27.50    5.30
  -7   7  -4   47.70    6.90
   7  -7   4   28.70    5.30
  -8   7  -4   71.49    8.30
  -8   7  -4   84.09    9.50
   8  -7   4   61.99    7.60
  -9   7  -4   16.60    5.80
  -9   7  -4   24.00    6.30
   9  -7   4   26.80    7.00
   9  -7   4   35.20    6.70
  10   6  -4   19.80    6.70
  10   6  -4   30.90    7.50
   9   6  -4    1.10    4.40
   9   6  -4   10.50    5.10
   8   6  -4   43.00    7.00
   8   6  -4   41.60    7.00
   7   6  -4    7.90    4.20
   7   6  -4   11.50    4.20
   6   6  -4   52.79    4.50
   6   6  -4   40.80    5.80
   6   6  -4   49.99    6.50
   5   6  -4  103.49    7.80
   5   6  -4  115.29    8.10
   5   6  -4  101.39    5.90
   4   6  -4   13.50    3.40
   4   6  -4   17.00    4.00
   4   6  -4   13.70    2.50
   3   6  -4   50.29    4.50
   3   6  -4   46.10    5.10
   3   6  -4   40.00    5.00
   3   6  -4   47.40    4.40
   2   6  -4   10.00    2.80
   2   6  -4    7.20    2.40
   2   6  -4   10.40    2.30
   1   6  -4  362.36   13.20
   1   6  -4  331.77   14.00
   1   6  -4  345.97   11.60
   1   6  -4  339.77   11.60
   1   6  -4  346.77   14.30
   0   6  -4   38.50    4.50
   0   6  -4   38.50    2.90
   0   6  -4   48.20    5.20
   0   6  -4   39.20    3.70
   0   6  -4   37.00    3.00
  -1   6  -4   16.20    2.40
  -1   6  -4   19.60    3.70
  -1   6  -4   16.10    2.60
  -1   6  -4   13.80    2.30
   1  -6   4   18.90    2.90
  -2   6  -4   97.29    5.60
  -2   6  -4   98.59    5.70
  -2   6  -4   85.19    6.50
  -2   6  -4   94.19    5.80
   2  -6   4   96.59    6.00
  -3   6  -4   30.20    3.80
  -3   6  -4   24.00    4.10
  -3   6  -4   34.30    3.70
   3  -6   4   29.70    3.90
  -4   6  -4   17.30    3.90
  -4   6  -4   12.20    3.10
   4  -6   4    9.10    2.60
  -5   6  -4   69.69    6.60
  -5   6  -4   44.40    5.90
   5  -6   4   43.60    5.20
  -6   6  -4   44.90    5.80
  -6   6  -4   39.20    5.80
   6  -6   4   45.60    6.30
  -7   6  -4    9.90    4.00
  -7   6  -4    4.20    3.80
   7  -6   4    1.30    2.80
  -8   6  -4   53.89    7.50
  -8   6  -4   53.39    7.30
   8  -6   4   69.49    8.20
   8  -6   4   63.29    7.70
  -9   6  -4    5.50    4.30
  -9   6  -4    4.70    4.40
   9  -6   4    9.60    4.40
   9  -6   4   10.80    5.40
 -10   6  -4  107.89   10.70
 -10   6  -4   97.99   11.00
  10  -6   4  116.29   11.90
  10  -6   4   87.49   10.80
  10   5  -4   11.30    5.50
  10   5  -4   13.50    6.00
   9   5  -4   -0.90    4.10
   9   5  -4    3.30    4.40
   8   5  -4   74.29    8.60
   8   5  -4   76.29    8.90
   7   5  -4  169.28   10.80
   7   5  -4  162.58   10.60
   6   5  -4  147.89    6.80
   6   5  -4  156.58    9.80
   5   5  -4   84.19    4.80
   5   5  -4   84.09    7.20
   5   5  -4  102.09    7.50
   4   5  -4   10.00    2.10
   4   5  -4   10.00    3.10
   4   5  -4   14.30    3.60
   3   5  -4  504.75   20.10
   3   5  -4  536.65   20.40
   3   5  -4  543.65   19.10
   3   5  -4  543.85   19.50
   2   5  -4  466.25   18.00
   2   5  -4  463.45   17.00
   2   5  -4  474.25   17.30
   1   5  -4   40.30    4.10
   1   5  -4   40.90    3.40
   1   5  -4   45.60    4.70
   0   5  -4  407.36   15.50
   0   5  -4  385.86   14.50
   0   5  -4  410.16   13.50
   0   5  -4  399.16   15.60
   0   5  -4  387.46   13.50
  -1   5  -4  380.46   13.60
  -1   5  -4  355.86   15.10
  -1   5  -4  381.16   13.70
  -1   5  -4  368.36   14.10
   1  -5   4  412.36   14.50
  -2   5  -4    6.40    1.90
  -2   5  -4    5.60    1.90
  -2   5  -4    6.10    2.60
  -2   5  -4    9.70    2.00
   2  -5   4    5.20    1.90
  -3   5  -4  456.45   18.80
  -3   5  -4  478.05   17.90
  -3   5  -4  460.35   17.60
   3  -5   4  511.05   18.30
  -4   5  -4   13.50    2.70
  -4   5  -4   12.00    3.00
  -4   5  -4   11.80    3.10
   4  -5   4    8.00    2.20
  -5   5  -4   13.00    3.20
  -5   5  -4   14.80    3.80
   5  -5   4   23.70    4.20
  -6   5  -4   22.20    4.30
  -6   5  -4   15.70    4.10
   6  -5   4   16.90    3.60
  -7   5  -4   22.80    5.00
  -7   5  -4   26.10    4.80
   7  -5   4   20.60    4.50
  -8   5  -4  121.79    9.80
  -8   5  -4  124.59    9.20
   8  -5   4  102.69    9.00
   8  -5   4  116.69    9.60
  -9   5  -4   54.89    7.60
  -9   5  -4   75.39    8.30
   9  -5   4   73.99    8.70
   9  -5   4   61.39    8.30
 -10   5  -4   44.90    7.10
 -10   5  -4   42.00    7.60
  10  -5   4   46.40    8.40
  10  -5   4   44.30    6.90
  10  -5   4   36.20    7.40
  11   4  -4   26.60    8.00
  11   4  -4   35.90    9.10
  10   4  -4   12.40    6.10
  10   4  -4    8.10    5.50
   9   4  -4   57.09    7.90
   9   4  -4   73.39    9.00
   8   4  -4   26.60    5.70
   8   4  -4   25.00    5.50
   7   4  -4   47.70    6.70
   7   4  -4   39.10    6.20
   6   4  -4  109.09    8.10
   6   4  -4  109.09    5.10
   6   4  -4  120.69    8.50
   5   4  -4  142.59    8.60
   5   4  -4  148.19    8.90
   5   4  -4  136.49    6.00
   4   4  -4  141.59    8.20
   4   4  -4  143.69    8.00
   3   4  -4  666.63   24.00
   3   4  -4  665.23   24.20
   3   4  -4  664.63   23.50
   3   4  -4  658.73   22.70
   2   4  -4  642.24   22.40
   2   4  -4  646.64   23.20
   2   4  -4  640.44   23.00
   2   4  -4  645.94   22.30
   1   4  -4  925.51   31.60
   1   4  -4  925.41   30.70
   1   4  -4  925.81   31.50
   1   4  -4  918.31   31.20
   0   4  -4   66.09    4.80
   0   4  -4   71.49    2.80
   0   4  -4   64.99    4.70
   0   4  -4   73.99    2.80
   0   4  -4   71.59    4.30
  -1   4  -4  255.67   10.20
  -1   4  -4  247.98    9.50
  -1   4  -4  264.37    9.50
  -1   4  -4  264.47   11.20
  -2   4  -4  361.46   13.10
  -2   4  -4  365.76   13.50
  -2   4  -4  358.26   12.90
  -2   4  -4  372.76   14.40
   2  -4   4  298.37   13.10
  -3   4  -4  290.97   13.00
  -3   4  -4  285.77   12.10
  -3   4  -4  303.67   12.00
   3  -4   4  330.97   12.60
  -4   4  -4    5.30    2.20
  -4   4  -4    6.50    1.90
  -4   4  -4   10.20    2.90
   4  -4   4    6.50    1.90
  -5   4  -4  127.49    8.00
  -5   4  -4  140.69    8.10
   5  -4   4  139.89    8.10
  -6   4  -4   48.00    5.80
  -6   4  -4   43.20    5.40
   6  -4   4   32.90    4.60
  -7   4  -4   65.89    7.00
  -7   4  -4   50.19    6.10
   7  -4   4   64.69    7.20
  -8   4  -4   40.60    5.90
  -8   4  -4   42.30    6.10
   8  -4   4   30.20    5.70
   8  -4   4   44.90    6.40
  -9   4  -4   25.30    5.70
  -9   4  -4   20.00    4.70
   9  -4   4   15.20    4.50
   9  -4   4   16.90    5.00
 -10   4  -4    4.90    4.00
 -10   4  -4   10.00    5.00
  10  -4   4   18.70    6.00
  10  -4   4   16.70    5.30
  10  -4   4   13.70    5.70
  11  -4   4   42.20    7.60
  11  -4   4   33.50    8.00
  11  -4   4   47.10    8.90
  11  -4   4   37.40    6.70
  11   3  -4   59.29   10.20
  11   3  -4   57.39    9.60
  10   3  -4   77.49   10.10
  10   3  -4   63.99    8.80
   9   3  -4   62.19    8.40
   9   3  -4   45.10    7.00
   8   3  -4   71.59    8.20
   8   3  -4   65.89    8.00
   7   3  -4    3.40    3.20
   7   3  -4   -1.10    3.10
   6   3  -4  189.88   10.60
   6   3  -4  198.98   11.00
   5   3  -4  158.08    9.10
   5   3  -4  144.89    8.60
   4   3  -4  152.98    8.20
   4   3  -4  156.28    8.40
   2   3  -4  190.38    8.00
   2   3  -4  193.38    8.40
   2   3  -4  180.08    8.80
   2   3  -4  192.78    8.80
   1   3  -4   17.70    2.70
   1   3  -4   13.20    2.30
   1   3  -4   13.80    2.80
   1   3  -4   13.60    2.40
   0   3  -4  189.88    8.00
   0   3  -4  193.08    8.30
   0   3  -4  186.88    8.30
  -1   3  -4 1190.48   39.30
  -1   3  -4 1188.68   37.40
  -1   3  -4 1191.48   38.60
  -1   3  -4 1163.58   37.40
  -2   3  -4   29.50    3.50
  -2   3  -4   36.60    2.80
  -2   3  -4   34.00    3.00
   2  -3   4   35.70    3.10
  -3   3  -4  124.99    6.10
  -3   3  -4  118.19    6.80
  -3   3  -4  118.29    6.30
   3  -3   4  128.59    6.40
  -4   3  -4   33.40    4.30
  -4   3  -4   24.40    3.00
  -4   3  -4   23.00    3.20
   4  -3   4   27.00    3.50
  -5   3  -4  183.58    9.50
  -5   3  -4  180.98    9.40
   5  -3   4  196.88    9.60
  -6   3  -4  150.48    9.10
  -6   3  -4  159.98    9.00
   6  -3   4  168.68    9.40
  -7   3  -4   31.20    4.80
  -7   3  -4   21.20    4.50
   7  -3   4   27.10    4.50
   7  -3   4   25.40    5.00
  -8   3  -4   46.20    6.00
  -8   3  -4   43.00    5.70
   8  -3   4   31.30    5.30
   8  -3   4   39.70    6.20
  -9   3  -4    4.60    3.80
  -9   3  -4   10.80    3.80
   9  -3   4    7.30    4.70
   9  -3   4    7.10    4.30
   9  -3   4    3.40    3.00
 -10   3  -4   26.00    5.80
 -10   3  -4   29.10    5.10
  10  -3   4   23.30    6.60
  10  -3   4   19.20    4.90
  10  -3   4   22.70    5.30
  10  -3   4   26.80    6.30
  11  -3   4   93.39    9.40
  11  -3   4   77.19   10.20
  11  -3   4   69.59    9.90
  11   2  -4   51.59    9.50
  11   2  -4   58.69    9.50
  10   2  -4   29.80    6.90
  10   2  -4   24.70    6.80
   9   2  -4   19.40    5.90
   9   2  -4   16.10    4.90
   8   2  -4   54.39    7.20
   8   2  -4   45.60    7.00
   7   2  -4   38.90    5.90
   7   2  -4   33.30    5.60
   6   2  -4  312.67   14.90
   6   2  -4  329.97   14.70
   5   2  -4  330.07   14.30
   5   2  -4  336.97   14.70
   4   2  -4  131.09    7.70
   4   2  -4  125.19    7.30
   3   2  -4  368.56   14.20
   3   2  -4  334.17   13.60
   2   2  -4  691.03   23.20
   2   2  -4  669.73   23.90
   2   2  -4  702.43   23.60
   2   2  -4  683.73   23.70
   1   2  -4  364.86   13.20
   1   2  -4  349.17   13.20
   1   2  -4  350.46   13.00
   1   2  -4  349.17   12.90
   0   2  -4  811.52   27.40
   0   2  -4  827.92   27.40
   0   2  -4  826.02   27.70
   0   2  -4  834.22   27.60
  -1   2  -4  209.28    8.90
  -1   2  -4  216.18    7.10
  -1   2  -4  210.28    8.50
  -1   2  -4  198.38    7.00
  -2   2  -4  897.91   30.50
  -2   2  -4  897.71   29.40
  -2   2  -4  867.11   29.30
   2  -2   4  955.00   29.80
  -3   2  -4 1311.27   42.90
  -3   2  -4 1144.29   41.90
  -3   2  -4 1367.86   42.20
   3  -2   4 1364.36   42.50
  -4   2  -4  723.73   25.80
  -4   2  -4  757.22   25.50
  -4   2  -4  709.43   25.50
   4  -2   4  735.83   25.60
  -5   2  -4   35.20    4.30
  -5   2  -4   34.50    4.20
   5  -2   4   38.50    4.50
  -6   2  -4   69.09    6.40
  -6   2  -4   76.39    5.60
   6  -2   4   70.89    6.10
  -7   2  -4  103.19    7.00
   7  -2   4   91.89    7.20
   7  -2   4  102.09    7.90
  -8   2  -4   15.80    3.70
  -8   2  -4   13.00    4.40
   8  -2   4   19.40    3.90
   8  -2   4   18.80    4.70
  -9   2  -4  192.98   12.20
  -9   2  -4  192.08   10.50
   9  -2   4  177.28   10.60
   9  -2   4  180.38   11.60
   9  -2   4  194.68   12.00
   9  -2   4  193.88   11.70
 -10   2  -4   98.39   10.30
  10  -2   4   87.19    8.50
  10  -2   4   95.29   10.00
  10  -2   4   76.19    9.80
  11  -2   4   94.19   11.50
  11  -2   4   96.59    9.20
  11  -2   4  100.89   11.10
  11   1  -4   32.10    8.10
  11   1  -4   51.59    9.70
  10   1  -4   98.99   11.10
  10   1  -4   89.39    9.70
   9   1  -4   31.40    6.40
   9   1  -4   28.90    5.90
   8   1  -4   40.50    6.20
   8   1  -4   26.40    5.10
   7   1  -4  335.27   15.60
   7   1  -4  352.66   16.20
   6   1  -4  582.74   22.70
   6   1  -4  585.04   23.10
   5   1  -4  726.63   27.20
   5   1  -4  761.32   27.00
   4   1  -4   54.59    5.00
   4   1  -4   58.59    5.00
   3   1  -4 1181.58   39.90
   3   1  -4 1209.38   39.60
   2   1  -4  174.88    7.80
   2   1  -4  176.78    7.70
   2   1  -4  171.88    7.80
   1   1  -4  843.62   27.50
   1   1  -4  840.62   27.70
   1   1  -4  812.72   27.60
   1   1  -4  823.42   27.50
   0   1  -4 3116.09   96.09
   0   1  -4 3081.79   96.39
   0   1  -4 3027.70   96.09
   0   1  -4 3060.59   96.19
  -1   1  -4 2181.08   69.69
  -1   1  -4 2216.38   69.49
  -2   1  -4  629.44   20.90
  -2   1  -4  596.74   20.70
  -2   1  -4  627.04   21.90
   2  -1   4  678.33   21.20
  -3   1  -4  579.44   20.70
  -3   1  -4  612.24   21.40
  -3   1  -4  647.54   21.00
   3  -1   4  603.04   21.00
  -4   1  -4  117.79    6.60
  -4   1  -4  135.09    6.80
  -4   1  -4  148.49    6.80
   4  -1   4  125.99    6.80
  -5   1  -4  470.25   18.00
  -5   1  -4  484.25   18.50
   5  -1   4  503.05   18.60
  -6   1  -4  103.09    7.00
  -6   1  -4  103.19    6.30
   6  -1   4  103.69    6.90
   6  -1   4  102.99    7.10
  -7   1  -4   16.40    3.10
  -7   1  -4   13.60    3.40
   7  -1   4   13.50    3.30
   7  -1   4   12.60    3.70
  -8   1  -4   79.09    6.10
  -8   1  -4   99.19    8.00
   8  -1   4  107.49    7.80
   8  -1   4   98.69    9.20
   8  -1   4   94.79    7.10
   8  -1   4   84.09    7.40
  -9   1  -4   55.79    7.20
  -9   1  -4   48.90    5.50
   9  -1   4   44.80    6.40
   9  -1   4   50.69    6.80
   9  -1   4   60.39    6.50
   9  -1   4   51.99    6.30
 -10   1  -4   46.80    7.20
  10  -1   4   41.20    6.90
  10  -1   4   51.59    6.80
  10  -1   4   60.29    7.60
  11  -1   4  103.49   10.80
  11  -1   4  114.29   12.20
  11  -1   4  106.29    9.80
  11   0  -4    2.80    6.30
  11   0  -4    2.50    5.40
  10   0  -4  172.98   12.60
  10   0  -4  147.39   12.50
   9   0  -4    7.30    4.70
   9   0  -4    7.10    4.50
   8   0  -4   64.49    7.70
   8   0  -4   61.89    8.10
   7   0  -4   12.00    4.60
   7   0  -4   11.00    4.00
   6   0  -4  157.48    9.80
   6   0  -4  157.98    9.20
   5   0  -4  385.06   16.40
   5   0  -4  400.76   16.00
   4   0  -4   18.10    3.40
   4   0  -4   20.00    3.20
   3   0  -4  407.56   15.50
   3   0  -4  404.36   15.10
   2   0  -4  133.69    6.70
   2   0  -4  150.38    6.80
   2   0  -4  128.09    6.20
   1   0  -4  637.54   22.00
   1   0  -4  675.53   21.70
   1   0  -4  644.54   22.00
  -1   0   4  654.53   20.90
   0   0  -4  556.54   18.70
   0   0  -4  543.95   18.40
   0   0  -4  547.65   18.30
  -1   0  -4 1997.30   63.79
  -1   0  -4 2043.90   64.09
  -2   0  -4  286.87   10.90
  -2   0  -4  260.57    9.90
  -2   0  -4  289.17    9.90
   2   0   4  289.77   10.20
  -3   0  -4  196.18    8.80
  -3   0  -4  223.68    8.60
  -3   0  -4  216.28    8.70
   3   0   4  223.38    8.80
  -4   0  -4  342.37   12.90
  -4   0  -4  285.17   11.50
  -4   0  -4  287.47   11.80
   4   0   4  280.17   11.80
  -5   0  -4   10.20    2.60
  -5   0  -4    9.70    2.30
   5   0   4   12.80    2.70
  -6   0  -4  351.06   14.70
  -6   0  -4  348.97   13.70
   6   0   4  344.47   14.70
   6   0   4  357.66   14.40
   6   0   4  354.36   15.00
  -7   0  -4   26.50    3.50
  -7   0  -4   30.90    4.60
   7   0   4   39.80    5.40
   7   0   4   32.80    4.70
   7   0   4   32.30    4.60
   7   0   4   35.90    5.00
  -8   0  -4   27.50    4.70
  -8   0  -4   34.50    4.20
   8   0   4   30.30    4.70
   8   0   4   35.40    5.20
   8   0   4   33.70    5.20
   8   0   4   27.40    5.10
  -9   0  -4   75.69    5.70
  -9   0  -4   62.19    7.50
   9   0   4   60.49    6.70
   9   0   4   80.39    7.80
   9   0   4   64.99    7.80
 -10   0  -4   28.30    6.20
  10   0   4   22.10    4.80
  10   0   4   23.40    5.50
  10   0   4   26.50    5.80
  11   0   4   29.30    6.40
  11   0   4   33.50    5.70
  11   0   4   27.20    6.70
  12   0   4   28.50    7.60
  12   0   4   46.10    9.00
  10  -1  -4   13.60    5.70
  10  -1  -4    6.60    5.60
   9  -1  -4   30.10    6.00
   9  -1  -4   21.50    5.80
   8  -1  -4   30.90    6.10
   8  -1  -4   33.00    5.70
   7  -1  -4   43.80    6.40
   7  -1  -4   38.30    5.50
   6  -1  -4   29.90    4.70
   6  -1  -4   27.80    5.40
   5  -1  -4  115.69    7.20
   5  -1  -4  135.69    8.30
   4  -1  -4  324.17   13.00
   4  -1  -4  323.57   13.80
   3  -1  -4  299.77   12.30
   3  -1  -4  298.07   11.60
   2  -1  -4   14.10    2.10
   2  -1  -4   12.70    2.30
   2  -1  -4   13.70    2.60
  -2   1   4   15.50    1.10
   1  -1  -4 1700.13   54.59
   1  -1  -4 1695.43   54.69
   1  -1  -4 1721.63   54.09
  -1   1   4 1755.52   53.59
   0  -1  -4   14.70    1.90
   0  -1  -4   13.80    1.60
   0  -1  -4   12.80    2.00
   0   1   4   13.60    1.70
  -1  -1  -4 1730.33   55.19
  -1  -1  -4 1779.62   54.49
   1   1   4 1714.73   54.99
  -2  -1  -4  157.78    6.40
  -2  -1  -4  162.28    7.00
  -2  -1  -4  173.78    6.40
   2   1   4  159.28    6.50
   2   1   4  164.18    7.00
  -3  -1  -4   12.70    2.10
  -3  -1  -4   16.20    2.10
  -3  -1  -4    9.50    2.00
   3   1   4   15.80    2.50
   3   1   4   14.70    2.30
  -4  -1  -4  128.99    6.60
  -4  -1  -4  128.39    6.10
   4   1   4  131.89    6.60
   4   1   4  128.49    6.60
  -5  -1  -4   33.30    3.20
  -5  -1  -4   24.70    3.40
   5   1   4   27.20    3.70
   5   1   4   23.70    3.20
   5   1   4   26.80    3.70
  -6  -1  -4  106.09    7.00
  -6  -1  -4  110.29    5.90
   6   1   4  123.99    7.30
   6   1   4  124.09    7.30
   6   1   4  118.19    6.90
   6   1   4  120.09    6.50
  -7  -1  -4  108.19    7.60
  -7  -1  -4  103.59    5.90
   7   1   4  122.49    7.10
   7   1   4  109.89    7.00
   7   1   4  108.79    7.60
  -8  -1  -4  166.38    7.90
  -8  -1  -4  156.98   10.00
   8   1   4  162.18    9.90
   8   1   4  161.98    9.40
   8   1   4  169.58    9.40
  -9  -1  -4   90.09    8.90
   9   1   4   67.69    7.40
   9   1   4   70.99    7.80
   9   1   4   64.99    6.70
 -10  -1  -4  141.09   11.10
  10   1   4  149.69   10.30
  10   1   4  134.29    9.20
  10   1   4  154.28   11.20
  11   1   4   22.50    5.80
  11   1   4   20.00    6.10
  11   1   4   21.00    5.10
  12   1   4   38.90    7.80
  12   1   4   31.80    8.20
  10  -2  -4   19.60    5.90
  10  -2  -4   11.10    5.70
   9  -2  -4   39.30    7.50
   9  -2  -4   29.70    6.30
   8  -2  -4   17.90    5.60
   8  -2  -4   16.20    4.50
   7  -2  -4    2.80    3.70
   7  -2  -4   -2.50    3.00
   6  -2  -4   49.99    2.80
   6  -2  -4   52.49    6.70
   6  -2  -4   46.50    5.60
   5  -2  -4   86.69    7.00
   5  -2  -4   85.89    6.00
   4  -2  -4  247.88   10.70
   4  -2  -4  255.47   11.70
   3  -2  -4   27.70    3.10
   3  -2  -4   19.80    3.30
   2  -2  -4  111.19    5.90
   2  -2  -4  107.49    5.10
  -2   2   4  106.89    4.30
   1  -2  -4  381.86   13.50
   1  -2  -4  375.66   13.50
   1  -2  -4  375.96   12.70
  -1   2   4  375.66   12.70
   0  -2  -4  304.57   11.00
   0  -2  -4  313.87   10.10
   0  -2  -4  301.57   10.60
   0   2   4  297.67   10.70
  -1  -2  -4  848.92   26.60
  -1  -2  -4  859.71   27.60
  -1  -2  -4  837.02   26.80
  -1  -2  -4  830.72   26.80
   1   2   4  850.61   27.70
  -2  -2  -4  883.91   29.90
  -2  -2  -4  908.71   29.90
   2   2   4  922.81   30.40
   2   2   4  997.80   29.00
   2   2   4  906.01   30.00
  -3  -2  -4  196.68    8.00
  -3  -2  -4  191.38    8.00
   3   2   4  190.58    8.00
   3   2   4  194.18    8.30
   3   2   4  189.78    7.70
  -4  -2  -4   98.19    5.60
  -4  -2  -4  101.39    4.90
   4   2   4   99.89    5.50
   4   2   4   95.09    5.60
   4   2   4   85.89    4.40
  -5  -2  -4  505.45   18.10
  -5  -2  -4  453.15   16.50
   5   2   4  480.35   17.80
   5   2   4  471.65   17.60
   5   2   4  461.05   16.70
  -6  -2  -4    6.30    2.60
  -6  -2  -4    6.40    1.80
   6   2   4    5.60    2.50
   6   2   4    1.90    1.90
   6   2   4    2.10    2.20
  -7  -2  -4   98.49    5.30
  -7  -2  -4   90.99    7.20
   7   2   4  107.99    6.90
   7   2   4  115.99    6.80
   7   2   4  115.99    7.60
  -8  -2  -4  106.29    5.50
  -8  -2  -4  101.19    8.00
   8   2   4   99.99    7.70
   8   2   4   91.29    7.00
   8   2   4  109.59    7.20
  -9  -2  -4   34.10    5.90
   9   2   4   21.70    4.30
   9   2   4   21.00    4.60
   9   2   4   18.80    5.00
 -10  -2  -4   -1.90    5.80
  10   2   4    4.30    3.90
  10   2   4    7.60    3.90
  10   2   4    0.20    3.10
  11   2   4   19.20    6.20
  11   2   4   32.90    6.00
  11   2   4   27.50    5.30
  12   2   4   16.80    6.00
  12   2   4   23.10    7.60
  10  -3  -4   50.49    9.30
  10  -3  -4   71.69    9.20
   9  -3  -4   22.60    6.40
   9  -3  -4   29.70    6.00
   8  -3  -4   57.49    7.00
   8  -3  -4   53.79    7.50
   7  -3  -4   30.00    5.30
   7  -3  -4   23.60    5.60
   6  -3  -4   86.39    7.50
   6  -3  -4   78.19    7.70
   5  -3  -4  138.79    7.70
   5  -3  -4  136.79    8.50
   4  -3  -4    8.00    2.30
   4  -3  -4   13.20    3.40
   3  -3  -4   14.20    3.20
   3  -3  -4   16.60    2.60
   2  -3  -4  236.18    8.10
   2  -3  -4  240.88   10.00
   2  -3  -4  239.38    8.90
  -2   3   4  230.18    8.70
   1  -3  -4  175.38    6.10
   1  -3  -4  172.78    7.30
   1  -3  -4  170.58    6.30
   1  -3  -4  173.78    7.10
  -1   3   4  171.58    6.80
   0  -3  -4  224.78    7.90
   0  -3  -4  227.78    8.50
   0  -3  -4  224.48    8.30
   0   3   4  225.38    8.60
  -1  -3  -4   84.39    4.00
  -1  -3  -4   87.39    3.30
  -1  -3  -4   83.69    3.90
   1   3   4   79.39    3.00
   1   3   4   84.89    4.50
  -2  -3  -4  358.46   12.60
  -2  -3  -4  341.17   12.70
   2   3   4  349.67   13.00
   2   3   4  367.66   12.00
  -3  -3  -4  481.55   17.30
  -3  -3  -4  509.85   17.60
   3   3   4  486.95   17.60
   3   3   4  493.65   16.90
   3   3   4  499.35   15.70
  -4  -3  -4  120.89    6.60
   4   3   4  127.39    6.30
   4   3   4  132.79    5.30
   4   3   4  139.29    6.90
  -5  -3  -4   60.49    4.90
   5   3   4   56.49    4.70
   5   3   4   64.99    4.80
   5   3   4   62.49    3.90
  -6  -3  -4   88.89    6.40
   6   3   4   98.89    6.40
   6   3   4   94.59    5.40
   6   3   4   99.79    6.50
   7   3   4   52.09    5.00
   7   3   4   52.49    5.80
   7   3   4   63.79    5.90
  -8  -3  -4  102.49    7.90
   8   3   4  102.49    6.90
   8   3   4  114.69    7.50
   8   3   4  100.29    8.00
  -9  -3  -4   31.00    5.40
   9   3   4   32.90    5.10
   9   3   4   44.90    5.60
   9   3   4   44.80    6.60
  10   3   4  180.38   10.60
  10   3   4  179.48   12.10
  10   3   4  183.28   10.90
  11   3   4   18.40    5.10
  11   3   4   13.70    5.50
  11   3   4   11.50    4.40
  12   3   4   13.40    6.00
  12   3   4   13.40    5.80
  10  -4  -4   17.80    5.90
  10  -4  -4   12.40    7.00
   9  -4  -4   19.70    6.60
   9  -4  -4   29.80    6.30
   8  -4  -4   -1.10    3.30
   8  -4  -4   -0.90    4.00
   7  -4  -4   18.40    4.40
   7  -4  -4   21.50    5.00
   6  -4  -4    2.10    3.30
   6  -4  -4    5.30    3.00
   5  -4  -4   15.00    4.10
   5  -4  -4   23.00    3.80
   4  -4  -4   65.49    6.20
   4  -4  -4   60.09    4.70
   4  -4  -4   62.59    3.90
  -4   4   4   56.89    4.70
   3  -4  -4    3.70    2.30
   3  -4  -4    2.50    1.70
   3  -4  -4    0.60    1.20
   2  -4  -4  280.07   10.40
   2  -4  -4  277.37   11.50
   2  -4  -4  298.87   10.50
  -2   4   4  283.97   10.70
   1  -4  -4  105.29    5.40
   1  -4  -4  110.49    4.90
   1  -4  -4  107.09    4.30
  -1   4   4  102.79    5.20
   0  -4  -4  369.16   12.80
   0  -4  -4  358.26   12.60
   0   4   4  364.56   13.20
  -1  -4  -4  189.68    7.10
  -1  -4  -4  187.08    7.60
   1   4   4  185.58    8.00
  -2  -4  -4 2219.48   68.79
  -2  -4  -4 2018.70   69.29
   2   4   4 2259.37   69.79
   2   4   4 2274.97   68.29
  -3  -4  -4   43.30    3.60
   3   4   4   42.80    4.00
   3   4   4   36.40    2.90
  -4  -4  -4   22.70    3.20
   4   4   4   20.00    2.80
   4   4   4   21.20    3.20
   4   4   4   25.80    2.10
  -5  -4  -4    8.60    2.50
   5   4   4   13.80    2.10
   5   4   4   17.10    3.10
   5   4   4   12.00    2.90
  -6  -4  -4   98.39    6.80
   6   4   4  108.09    6.70
   6   4   4  102.89    6.70
   6   4   4  106.69    5.60
  -7  -4  -4  283.17   14.20
   7   4   4  338.07   14.10
   7   4   4  329.97   13.00
   7   4   4  331.17   14.30
  -8  -4  -4   71.59    7.30
   8   4   4   70.59    7.10
   8   4   4   58.39    5.60
   8   4   4   52.79    5.90
  -9  -4  -4   50.19    6.80
   9   4   4   56.39    6.40
   9   4   4   41.70    6.10
   9   4   4   63.29    6.50
  10   4   4   25.40    5.20
  10   4   4   25.80    5.90
  10   4   4   29.30    5.10
  11   4   4   89.09   10.40
  11   4   4   76.89    8.40
  11   4   4   79.69    8.10
  12   4   4   14.40    5.20
  12   4   4    3.10    5.60
  10  -5  -4   53.39    8.50
  10  -5  -4   53.89   10.40
   9  -5  -4   23.70    5.90
   9  -5  -4   22.20    6.80
   8  -5  -4   95.99    9.10
   8  -5  -4   81.89    9.30
   7  -5  -4   28.60    5.10
   7  -5  -4   23.60    5.70
   6  -5  -4   34.40    5.90
   6  -5  -4   29.10    4.60
   6  -5  -4   27.60    3.50
   5  -5  -4   20.10    2.90
   5  -5  -4   23.10    3.90
   5  -5  -4   10.30    3.80
   4  -5  -4   17.70    4.10
   4  -5  -4   13.80    2.40
   4  -5  -4   21.20    3.30
  -4   5   4   16.30    3.10
   3  -5  -4  244.98    9.70
   3  -5  -4  221.18    9.60
   3  -5  -4  237.88   10.90
  -3   5   4  243.88   10.50
   2  -5  -4   67.09    3.70
   2  -5  -4   65.99    4.20
  -2   5   4   62.29    4.50
  -2   5   4   58.19    4.20
   1  -5  -4  312.97   11.70
   1  -5  -4  315.47   10.70
  -1   5   4  313.67   12.00
   0  -5  -4   88.09    4.10
   0  -5  -4   89.49    4.80
   0   5   4   91.19    5.20
  -1  -5  -4 1500.05   48.80
  -1  -5  -4 1537.85   47.70
   1   5   4 1515.15   49.20
  -2  -5  -4 1304.17   41.90
  -2  -5  -4 1270.37   40.60
   2   5   4 1267.07   40.30
   2   5   4 1283.07   42.10
  -3  -5  -4  154.38    7.30
   3   5   4  136.69    6.00
   3   5   4  140.69    7.20
  -4  -5  -4  110.29    6.40
   4   5   4  107.39    6.40
   4   5   4  105.19    5.60
   4   5   4  113.19    4.60
  -5  -5  -4   41.60    4.50
   5   5   4   56.19    3.40
   5   5   4   59.89    5.40
   5   5   4   52.49    4.80
  -6  -5  -4  287.57   13.00
   6   5   4  291.87   11.30
   6   5   4  283.07   12.50
   6   5   4  289.87   12.70
  -7  -5  -4  139.09    8.90
   7   5   4  147.69    8.80
   7   5   4  166.88    8.80
   7   5   4  148.89    7.60
  -8  -5  -4   21.70    4.50
   8   5   4   16.80    4.40
   8   5   4   28.90    4.00
   8   5   4   27.60    4.50
  -9  -5  -4    5.30    3.20
   9   5   4    4.70    3.20
   9   5   4   -2.60    3.10
   9   5   4    9.00    3.40
  10   5   4   16.80    4.50
  10   5   4   29.20    6.10
  10   5   4   20.50    4.90
  11   5   4    8.60    4.20
  11   5   4   27.20    5.60
  11   5   4   22.30    6.30
  12   5   4   37.50    7.90
   9  -6  -4    5.30    5.70
   9  -6  -4   -2.30    4.20
   8  -6  -4   35.50    6.00
   8  -6  -4   40.30    7.60
   7  -6  -4   65.99    8.40
   7  -6  -4   55.29    6.80
   6  -6  -4   10.10    3.70
   6  -6  -4   14.60    3.00
   6  -6  -4    8.90    4.20
   5  -6  -4  171.28    8.30
   5  -6  -4  161.88    8.80
   5  -6  -4  149.79   10.00
   4  -6  -4   10.60    3.50
   4  -6  -4    9.80    2.50
   4  -6  -4   11.10    2.70
  -4   6   4   19.30    3.60
   3  -6  -4   85.09    5.00
   3  -6  -4   85.59    5.40
  -3   6   4   78.99    5.70
   2  -6  -4  196.58    7.80
   2  -6  -4  194.78    8.70
  -2   6   4  191.28    9.20
  -2   6   4  203.38    9.00
   1  -6  -4  159.48    6.40
   1  -6  -4  169.48    7.70
  -1   6   4  182.88    8.10
   0  -6  -4   67.69    4.50
   0   6   4   68.29    4.80
  -1  -6  -4  859.71   27.10
  -1  -6  -4  839.22   28.90
   1   6   4  860.71   29.30
  -2  -6  -4   18.60    2.80
  -2  -6  -4   18.20    1.70
   2   6   4   17.60    1.80
   2   6   4   11.70    2.80
  -3  -6  -4  172.38    8.10
   3   6   4  159.08    6.80
   3   6   4  164.78    8.20
  -4  -6  -4   33.60    3.80
   4   6   4   49.90    5.00
   4   6   4   41.90    3.80
  -5  -6  -4  645.94   23.50
   5   6   4  620.64   21.10
   5   6   4  631.74   23.20
   5   6   4  627.54   22.50
  -6  -6  -4   90.39    6.70
   6   6   4   86.69    6.10
   6   6   4   82.19    6.30
   6   6   4   91.79    5.10
  -7  -6  -4   79.19    7.40
   7   6   4   68.39    6.50
   7   6   4   77.79    7.00
   7   6   4   70.59    5.10
  -8  -6  -4   22.10    4.50
   8   6   4   18.20    4.10
   8   6   4   18.90    3.50
   8   6   4   13.80    4.00
  -9  -6  -4   68.79    7.70
   9   6   4   63.79    6.50
   9   6   4   61.99    6.80
   9   6   4   52.49    6.70
  10   6   4   67.49    7.10
  10   6   4   50.79    7.40
  10   6   4   75.09    7.60
  11   6   4  133.99    9.80
  11   6   4  129.89   12.30
  11   6   4  127.09   10.50
  12   6   4    5.80    5.70
   9  -7  -4    8.80    6.70
   9  -7  -4   15.10    5.30
   8  -7  -4    8.30    4.50
   8  -7  -4    1.70    4.90
   7  -7  -4  110.49    7.30
   7  -7  -4  104.19   10.70
   7  -7  -4  107.09    8.50
   6  -7  -4    8.10    3.70
   6  -7  -4   18.00    5.30
   6  -7  -4   16.60    3.30
   5  -7  -4   56.29    5.50
   5  -7  -4   56.79    6.90
   5  -7  -4   68.49    6.00
   4  -7  -4   48.80    4.90
   4  -7  -4   43.70    4.70
   3  -7  -4   20.40    3.00
   3  -7  -4   21.40    3.30
  -3   7   4   19.80    3.60
   2  -7  -4  197.08    8.20
   2  -7  -4  209.18    9.50
  -2   7   4  192.38    9.40
  -2   7   4  219.98   10.10
   1  -7  -4  130.49    6.80
  -1   7   4  120.19    6.90
  -1   7   4  107.99    6.70
   0  -7  -4   22.40    3.10
   0   7   4   22.90    3.40
  -1  -7  -4  123.69    6.80
   1   7   4  134.89    7.30
  -2  -7  -4  484.55   19.10
  -2  -7  -4  533.15   16.80
   2   7   4  524.65   17.30
   2   7   4  528.45   19.50
  -3  -7  -4   21.90    3.20
   3   7   4   28.50    2.90
   3   7   4   26.50    3.90
  -4  -7  -4  213.88   10.10
   4   7   4  190.18    9.70
   4   7   4  199.08    8.70
  -5  -7  -4  148.99    8.30
   5   7   4  134.29    8.00
   5   7   4  131.89    6.10
   5   7   4  128.59    7.20
  -6  -7  -4  155.98    9.30
   6   7   4  158.58    9.20
   6   7   4  175.78    8.80
   6   7   4  163.28    7.40
  -7  -7  -4   51.89    6.50
   7   7   4   69.59    6.90
   7   7   4   58.39    5.20
   7   7   4   74.09    7.00
  -8  -7  -4  370.56   17.20
   8   7   4  362.16   16.70
   8   7   4  384.66   15.20
   8   7   4  364.26   16.40
   9   7   4   77.79    8.40
   9   7   4   74.59    6.30
   9   7   4   81.99    8.10
  10   7   4    6.40    4.30
  10   7   4    7.40    4.50
  10   7   4    9.70    3.70
  11   7   4   42.70    6.60
  11   7   4   30.10    6.70
   8  -8  -4   85.69    9.20
   8  -8  -4   83.49    7.20
   8  -8  -4  101.29   11.30
   7  -8  -4   53.29    6.70
   7  -8  -4   44.50    5.30
   7  -8  -4   40.50    6.90
   6  -8  -4   23.10    5.30
   6  -8  -4   38.50    5.40
   6  -8  -4   32.70    4.50
   5  -8  -4    3.20    3.70
   5  -8  -4    9.20    3.30
   5  -8  -4   11.30    3.10
   4  -8  -4    3.00    2.50
   4  -8  -4    7.00    2.80
   3  -8  -4  157.48    7.80
   3  -8  -4  180.08    9.00
  -3   8   4  151.88    9.20
   2  -8  -4  133.09    6.30
   2  -8  -4  129.59    7.60
  -2   8   4  143.59    8.30
  -2   8   4  129.39    7.70
   1  -8  -4  181.28    8.80
  -1   8   4  142.09    8.60
  -1   8   4  179.08    9.00
   0  -8  -4   49.20    4.90
   0   8   4   54.99    5.60
  -1  -8  -4  487.85   18.50
   1   8   4  476.15   18.60
  -2  -8  -4   59.39    5.10
   2   8   4   58.19    5.80
   2   8   4   59.89    3.50
  -3  -8  -4  506.55   19.30
  -3  -8  -4  493.55   16.30
   3   8   4  497.15   17.40
   3   8   4  491.55   19.40
  -4  -8  -4  194.18   10.00
   4   8   4  186.68   10.00
   4   8   4  205.58    8.70
  -5  -8  -4   34.10    4.80
   5   8   4   33.70    4.90
   5   8   4   32.60    3.90
  -6  -8  -4   98.59    7.30
   6   8   4   73.99    7.10
   6   8   4   89.09    6.50
   6   8   4   87.09    5.40
  -7  -8  -4   19.60    4.20
   7   8   4   27.60    4.40
   7   8   4   31.80    5.00
   7   8   4   22.60    3.50
  -8  -8  -4   33.70    5.60
   8   8   4   39.20    5.80
   8   8   4   52.79    6.50
   8   8   4   55.59    5.40
   9   8   4   33.90    5.90
   9   8   4   38.90    5.90
   9   8   4   30.40    4.90
  10   8   4   52.89    7.10
  10   8   4   71.79    8.70
  11   8   4   10.00    5.50
  11   8   4    6.40    4.50
   8  -9  -4   18.00    4.80
   8  -9  -4   28.20    6.20
   8  -9  -4   26.30    7.60
   7  -9  -4   47.00    6.60
   7  -9  -4   31.90    7.00
   7  -9  -4   28.10    4.90
   6  -9  -4   56.39    6.60
   6  -9  -4   41.70    5.30
   6  -9  -4   37.50    6.80
   5  -9  -4   70.99    6.80
   5  -9  -4   80.29    6.80
   4  -9  -4   36.70    4.50
   4  -9  -4   31.70    4.60
   3  -9  -4    9.70    3.00
   3  -9  -4   18.00    3.30
  -3   9   4   10.20    3.20
   2  -9  -4   45.40    5.10
  -2   9   4   53.29    6.00
  -2   9   4   50.49    5.70
   1  -9  -4  191.58    9.70
  -1   9   4  171.08    9.70
  -1   9   4  176.98    9.80
   0  -9  -4   74.89    5.90
   0   9   4   69.29    5.90
   0   9   4   83.59    6.50
  -1  -9  -4   46.30    5.20
   1   9   4   43.60    5.10
  -2  -9  -4   33.50    4.10
   2   9   4   39.90    3.20
   2   9   4   37.60    4.90
  -3  -9  -4   32.40    4.30
   3   9   4   39.70    5.00
   3   9   4   44.60    3.50
  -4  -9  -4   30.30    4.50
   4   9   4   32.60    4.90
   4   9   4   37.40    4.00
  -5  -9  -4  145.19    9.10
   5   9   4  153.08    8.00
   5   9   4  151.98    9.30
  -6  -9  -4   32.20    5.10
   6   9   4   27.30    4.40
   6   9   4   32.10    5.10
  -7  -9  -4   93.29    8.00
   7   9   4  112.59    6.60
   7   9   4   83.79    8.00
   7   9   4   90.79    7.40
  -8  -9  -4  107.09    8.80
   8   9   4   90.79    6.70
   8   9   4  100.99    8.00
   8   9   4  101.79    9.10
   9   9   4   10.90    4.50
   9   9   4   13.50    4.60
  10   9   4   65.09    8.00
  10   9   4   68.19    8.60
  11   9   4   21.50    6.20
  11   9   4   28.70    6.30
   7 -10  -4    6.80    3.80
   7 -10  -4    2.60    5.50
   6 -10  -4    5.90    4.80
   6 -10  -4   15.10    4.00
   6 -10  -4    9.70    4.00
   5 -10  -4   46.60    5.60
   5 -10  -4   42.40    5.60
   4 -10  -4   71.09    6.90
   4 -10  -4   70.19    6.30
   3 -10  -4   66.29    6.50
   3 -10  -4   72.69    5.40
   2 -10  -4  160.98    9.30
  -2  10   4  142.59    9.60
  -2  10   4  165.78    9.80
   1 -10  -4   76.39    7.20
  -1  10   4   76.09    7.40
  -1  10   4   72.39    7.40
   0 -10  -4   68.89    6.50
   0  10   4   61.79    6.40
   0  10   4   42.30    5.20
  -1 -10  -4   72.89    6.20
   1  10   4   86.49    7.90
   1  10   4   74.59    6.60
  -2 -10  -4  114.99    7.80
   2  10   4  126.99    8.30
  -3 -10  -4  264.67   12.60
   3  10   4  246.18   12.60
   3  10   4  253.37   10.50
  -4 -10  -4    8.10    3.10
   4  10   4   10.90    3.80
   4  10   4    9.00    2.60
  -5 -10  -4   29.80    4.80
   5  10   4   35.90    4.50
   5  10   4   35.20    5.40
  -6 -10  -4   48.80    6.50
   6  10   4   37.40    5.00
   6  10   4   36.90    5.80
  -7 -10  -4   36.70    5.70
   7  10   4   43.10    6.30
   7  10   4   38.00    5.40
   8  10   4    5.30    3.60
   8  10   4    0.80    3.50
   9  10   4   81.09    8.60
   9  10   4   74.79    8.50
  10  10   4   27.30    6.20
  10  10   4   24.50    6.00
  11  10   4   18.10    6.00
  11  10   4   13.00    6.00
   7 -11  -4   16.80    7.30
   7 -11  -4   22.70    5.30
   6 -11  -4   25.90    5.40
   6 -11  -4   34.60    7.50
   5 -11  -4   15.10    4.10
   4 -11  -4    3.80    3.20
   3 -11  -4   37.20    5.20
   3 -11  -4   45.00    5.30
   2 -11  -4    4.50    3.10
  -2  11   4   10.40    3.80
   1 -11  -4   10.20    3.50
  -1  11   4   11.90    3.70
  -1  11   4   10.30    3.90
   0 -11  -4  127.99    8.60
   0  11   4  131.59    9.10
   0  11   4  124.59    8.90
  -1 -11  -4  144.19    9.20
   1  11   4  138.89    9.40
   1  11   4  147.49    9.40
  -2 -11  -4  119.39    8.20
   2  11   4  105.79    8.30
  -3 -11  -4  207.68   11.10
   3  11   4  164.28   10.30
   3  11   4  190.88    8.70
  -4 -11  -4   -0.60    2.50
   4  11   4   -1.70    2.00
   4  11   4    2.40    3.10
  -5 -11  -4   64.69    7.00
   5  11   4   72.99    6.40
   5  11   4   78.59    8.20
  -6 -11  -4   78.19    8.30
   6  11   4   72.49    6.90
   6  11   4   83.09    8.60
  -7 -11  -4   27.80    5.30
   7  11   4   25.80    5.40
   7  11   4   21.00    4.60
   8  11   4   14.50    4.80
   8  11   4   19.70    4.80
   9  11   4    9.70    4.30
   9  11   4   10.00    4.60
  10  11   4   12.40    5.30
  10  11   4    6.10    4.50
   6 -12  -4   50.69    7.10
   6 -12  -4   56.59    9.30
   5 -12  -4    7.30    4.00
   4 -12  -4   10.40    4.10
   3 -12  -4    5.50    3.50
   2 -12  -4   73.39    7.80
   1 -12  -4  106.59    8.20
  -1  12   4   62.99    7.40
  -1  12   4   70.09    7.50
   0 -12  -4   20.30    4.60
   0  12   4   20.30    4.90
   0  12   4   19.70    4.90
  -1 -12  -4   28.10    5.10
   1  12   4   23.10    5.10
   1  12   4   30.20    5.30
  -2 -12  -4   21.70    4.20
   2  12   4   31.60    5.40
   2  12   4   21.90    4.90
  -3 -12  -4   27.70    5.10
   3  12   4   17.50    3.20
   3  12   4   26.70    5.50
  -4 -12  -4   26.10    4.80
   4  12   4   27.10    4.10
   4  12   4   36.00    5.70
  -5 -12  -4   31.10    5.70
   5  12   4   26.10    5.50
   5  12   4   29.50    4.60
  -6 -12  -4   14.00    4.40
   6  12   4   17.10    5.00
   6  12   4   18.20    4.20
   7  12   4   44.70    6.90
   7  12   4   34.20    5.50
   8  12   4   16.30    4.80
   8  12   4   30.80    6.50
   9  12   4    9.90    4.80
   9  12   4   19.50    5.70
  10  12   4   47.70    7.80
  10  12   4   36.30    7.50
   5 -13  -4   11.80    4.70
   4 -13  -4    8.50    4.30
   3 -13  -4   16.60    4.60
   2 -13  -4   27.20    5.50
   1 -13  -4   23.10    5.30
  -1  13   4   23.70    5.20
  -1  13   4   23.80    5.60
   0 -13  -4    0.10    2.90
   0  13   4   -4.00    2.60
   0  13   4   -1.00    3.40
  -1 -13  -4    4.60    3.50
   1  13   4   -0.60    3.00
   1  13   4    0.90    3.40
  -2 -13  -4    1.40    3.20
   2  13   4   -3.20    3.50
   2  13   4    3.80    3.40
  -3 -13  -4   70.39    7.60
   3  13   4   87.29    8.60
   3  13   4   73.39    8.50
  -4 -13  -4   69.89    8.10
   4  13   4   69.59    6.20
   4  13   4   59.29    7.00
   4  13   4   74.69    8.80
  -5 -13  -4   79.59    8.70
   5  13   4   69.69    8.40
   5  13   4   78.99    6.60
  -6 -13  -4   47.90    9.40
   6  13   4   45.30    5.80
   6  13   4   48.50    7.40
   7  13   4   39.30    7.00
   7  13   4   54.29    6.90
   8  13   4   36.80    6.40
   8  13   4   41.80    7.60
   9  13   4    2.10    4.70
   9  13   4   15.80    6.10
   4 -14  -4   15.70    5.40
   3 -14  -4   -0.30    3.40
   2 -14  -4   36.00    6.90
   1 -14  -4   43.20    7.00
  -1  14   4   32.00    5.90
   0 -14  -4    8.10    4.10
   0  14   4    6.60    4.50
   0  14   4    6.40    3.90
  -1 -14  -4  130.79    9.90
   1  14   4  107.59   10.50
   1  14   4  140.09   10.60
  -2 -14  -4   30.90    6.20
   2  14   4   30.20    6.40
   2  14   4   27.90    5.80
  -3 -14  -4  104.29    9.00
   3  14   4   76.79    9.00
   3  14   4  105.79   10.00
  -4 -14  -4    9.30    4.20
   4  14   4   11.20    4.60
   4  14   4    7.80    4.60
  -5 -14  -4   17.30    4.70
   5  14   4   15.00    5.40
   5  14   4   28.40    5.60
   6  14   4   17.90    5.10
   6  14   4    8.10    5.40
   7  14   4    0.60    4.70
   7  14   4    4.70    3.80
   8  14   4    2.50    4.40
   8  14   4   -2.00    4.90
   3 -15  -4   21.70    5.80
   2 -15  -4   21.90    6.30
   1 -15  -4  227.38   14.60
   0 -15  -4   18.00    5.20
   0  15   4   25.70    5.90
   0  15   4   17.00    6.00
  -1 -15  -4    7.50    4.10
   1  15   4    9.00    4.50
   1  15   4   13.50    5.60
  -2 -15  -4   50.99    7.80
   2  15   4   44.60    7.80
   2  15   4   35.20    6.50
  -3 -15  -4   -3.00    3.10
   3  15   4   -4.80    3.80
   3  15   4   -1.70    3.70
  -4 -15  -4   10.80    4.20
   4  15   4   11.30    5.00
   4  15   4   10.60    5.70
   5  15   4   31.30    6.60
   5  15   4   31.40    7.00
   6  15   4    4.00    4.50
   6  15   4    0.00    5.30
   7  15   4   39.90    7.40
   7  15   4   72.99   10.50
   1 -16  -4   17.80    6.30
   0 -16  -4   13.60    5.50
   0  16   4    6.10    4.90
  -1 -16  -4   36.00    7.00
   1  16   4    8.80    5.90
   1  16   4   28.10    7.00
  -2 -16  -4   46.30    7.40
   2  16   4   43.20    8.10
   2  16   4   56.89    8.20
  -3 -16  -4   51.59    8.00
   3  16   4   46.40    8.50
   3  16   4   44.70    7.40
   4  16   4    8.40    6.20
   4  16   4    3.60    5.00
   5  16   4   64.69    9.20
   5  16   4   79.49   10.90
   6  16   4   58.79    9.00
   6  16   4   42.00    9.00
   2  15  -5   23.20    6.40
   1  15  -5   24.80    6.80
   1  15  -5   34.70    4.40
   5  14  -5   20.30    7.10
   4  14  -5   41.10    7.90
   3  14  -5   12.70    6.00
   3  14  -5   17.70    5.30
   2  14  -5   29.10    6.10
   1  14  -5    1.40    2.60
   1  14  -5    0.90    4.10
   0  14  -5   26.20    6.70
   0  14  -5   35.30    5.00
  -1  14  -5   13.00    5.60
  -1  14  -5   14.70    4.40
  -2  14  -5   67.89    7.90
  -2  14  -5   66.39    9.70
  -3  14  -5    8.50    5.10
  -3  14  -5    2.70    6.10
   6  13  -5   12.50    6.80
   5  13  -5   27.70    7.10
   4  13  -5   37.00    6.20
   4  13  -5   28.90    6.90
   3  13  -5   62.79    7.90
   3  13  -5   72.89    9.20
   2  13  -5   33.20    6.10
   1  13  -5   18.50    3.20
   1  13  -5   15.20    2.80
   1  13  -5    7.50    4.40
   0  13  -5    4.80    2.90
   0  13  -5    4.20    4.20
  -1  13  -5   19.00    5.90
  -1  13  -5   15.90    3.90
  -2  13  -5    8.80    4.00
  -2  13  -5   16.00    5.90
  -3  13  -5   37.30    7.90
  -3  13  -5   34.30    6.30
  -4  13  -5    9.50    5.00
  -4  13  -5    3.20    5.70
   7  12  -5   12.80    7.00
   6  12  -5  112.89   12.30
   5  12  -5   -0.40    4.30
   4  12  -5   57.19    6.80
   4  12  -5   35.20    6.60
   3  12  -5   38.40    6.60
   3  12  -5   46.20    6.40
   2  12  -5   14.90    5.00
   2  12  -5   16.10    4.60
   1  12  -5    0.80    1.80
   1  12  -5    4.50    2.10
   1  12  -5   -0.30    3.30
   0  12  -5   20.60    3.40
   0  12  -5   22.10    5.50
  -1  12  -5   77.69    9.40
  -1  12  -5   84.39    6.70
  -2  12  -5   12.30    4.90
  -2  12  -5    8.20    3.60
  -3  12  -5   16.30    4.50
  -3  12  -5   23.00    6.10
  -4  12  -5   18.90    6.30
  -4  12  -5   12.20    4.40
  -5  12  -5    4.40    4.70
  -5  12  -5    8.00    5.90
   8  11  -5   16.50    6.70
   8  11  -5    5.40    6.40
   7  11  -5    1.60    5.60
   6  11  -5   25.20    6.60
   5  11  -5   76.09    9.10
   4  11  -5   49.70    6.10
   4  11  -5   36.60    6.60
   3  11  -5   18.50    5.10
   3  11  -5   18.20    4.30
   2  11  -5   26.40    5.70
   2  11  -5   20.00    4.70
   2  11  -5   24.70    3.90
   1  11  -5  122.79    9.30
   1  11  -5  129.19    6.30
   1  11  -5  129.09    9.80
   1  11  -5  130.59    6.40
   0  11  -5  104.69    9.10
   0  11  -5  117.89    6.70
   0  11  -5  112.79    6.40
  -1  11  -5   -0.20    3.60
  -1  11  -5    6.60    2.60
  -2  11  -5   71.09    6.60
  -2  11  -5   67.59    8.30
  -3  11  -5    0.20    2.70
  -3  11  -5    1.90    3.80
  -4  11  -5   66.19    8.90
  -4  11  -5   56.49    6.90
  -5  11  -5   52.39    8.50
  -5  11  -5   42.60    6.70
  -6  11  -5   26.80    6.90
  -6  11  -5   36.70    7.10
   8  10  -5    3.80    5.70
   8  10  -5    7.80    6.00
   7  10  -5   29.40    6.90
   7  10  -5   31.70    6.80
   6  10  -5   74.09    9.30
   6  10  -5   71.89    9.00
   5  10  -5   10.30    4.50
   4  10  -5   27.40    4.50
   4  10  -5   35.60    6.30
   3  10  -5   77.39    7.30
   3  10  -5   73.39    7.90
   2  10  -5  220.68   12.40
   2  10  -5  228.18   12.10
   2  10  -5  206.68    9.90
   1  10  -5  167.78    7.00
   1  10  -5  161.08   10.20
   1  10  -5  147.39   10.10
   1  10  -5  156.88    6.90
   1  10  -5  157.68    8.10
   0  10  -5   -0.50    1.70
   0  10  -5    2.20    1.60
   0  10  -5    0.40    1.80
   0  10  -5    1.40    3.10
  -1  10  -5  150.58   10.60
  -1  10  -5  151.48    8.00
  -1  10  -5  159.88    8.20
  -1  10  -5  148.69    8.20
  -2  10  -5  130.49    8.00
  -2  10  -5  129.89    7.40
  -2  10  -5  120.69    9.80
  -3  10  -5  109.49    7.20
  -3  10  -5  103.49   10.20
  -3  10  -5   95.29    7.60
  -4  10  -5   57.39    6.60
  -4  10  -5   51.69    7.40
  -4  10  -5   69.09    6.90
  -5  10  -5   10.60    4.10
  -5  10  -5    5.10    4.60
  -5  10  -5    9.30    3.70
  -6  10  -5    3.90    4.40
  -6  10  -5   -0.90    3.70
  -7  10  -5   25.40    7.20
  -7  10  -5   28.30    6.60
   9   9  -5   49.90    8.90
   9   9  -5   34.90    8.00
   8   9  -5  112.09   11.50
   8   9  -5  112.49   11.20
   7   9  -5   14.20    5.20
   7   9  -5   24.50    6.30
   6   9  -5   37.40    6.80
   6   9  -5   23.70    5.70
   5   9  -5   49.80    7.30
   5   9  -5   63.79    5.30
   5   9  -5   47.70    6.60
   4   9  -5   65.89    6.10
   4   9  -5   49.40    7.00
   3   9  -5  182.58    9.80
   3   9  -5  155.98   10.40
   2   9  -5  121.69    8.30
   2   9  -5  131.69    7.10
   2   9  -5  121.19    8.70
   1   9  -5  112.59    5.10
   1   9  -5  125.29    8.30
   1   9  -5  111.29    5.00
   1   9  -5  112.99    8.40
   1   9  -5  107.69    6.50
   0   9  -5  322.07   12.10
   0   9  -5  322.47   15.20
   0   9  -5  288.67   12.70
   0   9  -5  321.37   12.20
  -1   9  -5   45.60    4.50
  -1   9  -5   49.50    4.20
  -1   9  -5   45.60    4.40
  -1   9  -5   37.20    5.50
  -2   9  -5   43.60    4.70
  -2   9  -5   36.90    5.80
  -2   9  -5   41.90    4.70
  -3   9  -5  129.99    7.80
  -3   9  -5  134.99    8.30
  -3   9  -5  114.69    9.40
  -4   9  -5   15.00    4.90
  -4   9  -5   22.90    4.20
  -4   9  -5   17.40    4.00
  -5   9  -5   58.79    6.80
  -5   9  -5   57.29    8.00
  -6   9  -5   63.29    8.20
  -6   9  -5   73.29    8.00
  -7   9  -5   12.10    5.80
  -7   9  -5   16.00    5.40
  -8   9  -5   17.90    5.90
  -8   9  -5   15.50    6.30
   9   8  -5   -0.10    5.10
   9   8  -5   10.10    5.70
   8   8  -5   80.19    9.60
   8   8  -5   93.29   10.20
   7   8  -5   14.90    5.30
   7   8  -5   15.70    5.40
   6   8  -5    0.70    3.60
   6   8  -5    3.00    3.80
   5   8  -5  110.69    6.50
   5   8  -5   78.19    8.20
   5   8  -5   94.99    9.20
   4   8  -5   49.00    6.40
   4   8  -5   62.29    5.70
   4   8  -5   64.09    7.00
   3   8  -5   34.80    5.60
   3   8  -5   30.10    4.10
   3   8  -5   27.30    4.20
   2   8  -5   71.29    5.20
   2   8  -5   62.49    6.60
   2   8  -5   64.59    6.20
   1   8  -5  258.07   12.50
   1   8  -5  255.27   10.90
   1   8  -5  244.98   12.50
   0   8  -5   59.29    6.40
   0   8  -5   53.99    3.80
   0   8  -5   62.99    3.80
   0   8  -5   59.49    4.60
  -1   8  -5   16.20    2.60
  -1   8  -5   17.80    3.10
  -1   8  -5   11.90    2.50
  -1   8  -5    7.60    3.60
  -2   8  -5   64.99    4.90
  -2   8  -5   68.79    5.30
  -2   8  -5   66.29    5.30
  -2   8  -5   63.69    7.10
  -3   8  -5   21.80    3.70
  -3   8  -5   25.00    3.90
  -3   8  -5   24.80    5.20
  -4   8  -5    6.20    2.80
  -4   8  -5    0.20    2.40
  -4   8  -5    8.20    3.60
  -5   8  -5   36.70    6.40
  -5   8  -5   42.50    5.70
  -6   8  -5   21.50    5.40
  -6   8  -5   13.70    4.30
  -7   8  -5   70.79    8.50
  -7   8  -5   67.49    8.80
  -8   8  -5    9.60    4.90
  -8   8  -5   17.50    5.80
  -9   8  -5    9.80    5.80
  -9   8  -5    1.60    4.70
   9  -8   5    8.70    6.10
   9  -8   5   15.50    5.50
  10   7  -5   32.50    7.90
  10   7  -5   28.10    8.30
   9   7  -5   10.60    5.90
   9   7  -5    4.30    5.30
   8   7  -5   12.80    5.20
   8   7  -5    5.90    4.30
   7   7  -5   15.40    5.00
   7   7  -5   13.70    4.70
   6   7  -5   45.30    6.80
   6   7  -5   31.90    5.50
   5   7  -5   18.90    3.10
   5   7  -5   23.10    5.10
   5   7  -5   15.70    4.50
   4   7  -5   11.80    3.70
   4   7  -5   17.50    3.10
   4   7  -5   23.40    4.60
   3   7  -5    8.10    2.70
   3   7  -5    9.10    3.60
   3   7  -5   13.90    4.00
   3   7  -5   11.90    2.90
   2   7  -5   31.10    4.30
   2   7  -5   34.90    5.20
   2   7  -5   37.10    4.00
   1   7  -5  235.08   10.00
   1   7  -5  210.18   10.90
   1   7  -5  230.38   11.30
   0   7  -5  497.25   16.80
   0   7  -5  512.45   16.90
   0   7  -5  503.05   18.40
   0   7  -5  476.05   19.70
  -1   7  -5    4.20    1.60
  -1   7  -5    6.90    3.00
  -1   7  -5    5.90    1.80
  -1   7  -5    6.80    2.20
   1  -7   5    6.30    2.30
  -2   7  -5   58.29    4.40
  -2   7  -5   59.79    6.70
  -2   7  -5   55.69    4.60
  -2   7  -5   57.69    5.20
   2  -7   5   48.60    5.10
  -3   7  -5   70.29    5.30
  -3   7  -5   70.69    6.30
  -3   7  -5   73.09    5.70
  -3   7  -5   66.09    7.00
   3  -7   5   79.69    6.10
  -4   7  -5    5.90    2.70
  -4   7  -5    2.50    3.20
   4  -7   5    8.80    2.90
  -5   7  -5    4.50    3.00
  -5   7  -5    9.80    4.20
   5  -7   5    8.60    2.90
  -6   7  -5   20.30    4.70
  -6   7  -5   14.10    4.40
   6  -7   5   13.40    4.00
  -7   7  -5   -3.90    3.30
  -7   7  -5   -5.30    3.00
   7  -7   5   -0.10    3.00
  -8   7  -5   55.69    7.90
  -8   7  -5   60.29    8.10
   8  -7   5   60.19    8.30
  -9   7  -5    8.10    5.20
  -9   7  -5    7.70    4.90
   9  -7   5    7.60    5.40
   9  -7   5   14.00    5.10
  10   6  -5    0.00    5.30
  10   6  -5    1.00    5.60
   9   6  -5   23.20    6.40
   9   6  -5   -2.80    4.50
   8   6  -5   18.70    5.50
   8   6  -5   17.50    5.60
   7   6  -5   12.40    4.40
   7   6  -5    7.50    4.20
   6   6  -5  157.78   10.30
   6   6  -5  145.49   10.20
   5   6  -5  131.19    9.00
   5   6  -5  127.29    8.90
   4   6  -5  113.49    8.10
   4   6  -5  138.39    8.80
   4   6  -5  136.39    7.10
   3   6  -5   66.69    5.10
   3   6  -5   70.69    6.90
   3   6  -5   68.19    5.20
   3   6  -5   57.69    6.10
   2   6  -5   58.89    4.90
   2   6  -5   59.79    6.10
   2   6  -5   55.89    4.50
   1   6  -5   52.39    5.30
   1   6  -5   64.09    4.60
   1   6  -5   57.09    5.50
   0   6  -5   55.49    2.70
   0   6  -5   47.30    4.30
   0   6  -5   55.49    2.70
   0   6  -5   53.29    5.50
   0   6  -5   60.49    5.90
  -1   6  -5    2.00    1.30
  -1   6  -5    0.70    1.70
  -1   6  -5    3.90    1.50
  -1   6  -5    2.30    2.40
   1  -6   5    4.90    2.10
  -2   6  -5   41.40    4.00
  -2   6  -5   43.90    5.50
  -2   6  -5   46.90    4.50
  -2   6  -5   47.50    3.80
   2  -6   5   57.69    5.40
  -3   6  -5   31.00    4.00
  -3   6  -5   34.10    3.90
  -3   6  -5   28.20    4.80
  -3   6  -5   27.10    3.60
   3  -6   5   18.00    3.00
  -4   6  -5    9.00    3.50
  -4   6  -5   15.80    3.40
   4  -6   5    9.50    2.60
  -5   6  -5   21.30    4.70
  -5   6  -5   25.60    4.30
   5  -6   5   19.00    3.50
  -6   6  -5   20.90    4.60
  -6   6  -5   10.80    4.30
   6  -6   5   18.90    4.10
  -7   6  -5   85.09    8.80
  -7   6  -5   98.89    8.50
   7  -6   5   89.29    8.80
  -8   6  -5    9.20    4.30
  -8   6  -5   10.90    4.70
   8  -6   5   16.70    5.20
  -9   6  -5   49.30    7.50
  -9   6  -5   40.60    7.00
   9  -6   5   65.89    9.10
   9  -6   5   65.09    8.60
 -10   6  -5    5.10    4.70
 -10   6  -5    8.00    6.00
  10  -6   5    1.70    3.80
  10  -6   5    9.60    6.60
  10   5  -5   18.30    6.60
  10   5  -5   12.40    6.30
   9   5  -5   54.79    8.30
   9   5  -5   39.20    7.40
   8   5  -5   10.00    4.20
   8   5  -5    1.20    4.30
   7   5  -5   59.09    7.40
   7   5  -5   57.19    7.50
   6   5  -5  147.79   10.00
   6   5  -5  140.49    9.40
   5   5  -5   27.00    5.00
   5   5  -5   23.10    4.40
   4   5  -5  418.56   15.10
   4   5  -5  384.96   16.80
   4   5  -5  372.16   16.50
   3   5  -5   53.79    5.00
   3   5  -5   49.80    4.20
   3   5  -5   59.49    6.10
   3   5  -5   66.19    6.30
   2   5  -5  125.39    6.70
   2   5  -5  114.19    7.20
   2   5  -5  129.39    7.70
   2   5  -5  120.59    6.70
   1   5  -5  134.79    7.40
   1   5  -5  131.29    7.60
   1   5  -5  135.79    6.90
   0   5  -5   82.59    5.60
   0   5  -5   79.39    5.50
   0   5  -5   77.79    5.10
  -1   5  -5   68.09    5.70
  -1   5  -5   75.59    3.90
  -1   5  -5   80.39    3.90
  -1   5  -5   79.99    5.10
  -2   5  -5  115.49    6.10
  -2   5  -5  114.39    6.60
  -2   5  -5  119.89    7.60
  -2   5  -5  131.09    6.10
   2  -5   5  130.99    6.70
  -3   5  -5   28.80    3.30
  -3   5  -5   21.80    3.10
  -3   5  -5   19.60    3.60
   3  -5   5   21.10    3.30
  -4   5  -5  414.26   17.70
  -4   5  -5  426.36   16.70
  -4   5  -5  427.06   16.40
   4  -5   5  389.86   16.60
  -5   5  -5   89.79    6.90
  -5   5  -5   93.29    7.50
   5  -5   5   95.29    7.00
  -6   5  -5   34.50    4.90
  -6   5  -5   28.10    5.20
   6  -5   5   51.39    6.20
  -7   5  -5   42.50    5.90
  -7   5  -5   33.60    5.70
   7  -5   5   39.40    5.50
  -8   5  -5   86.69    8.70
  -8   5  -5   78.69    8.40
   8  -5   5  105.09   10.10
  -9   5  -5   11.50    4.40
  -9   5  -5    9.20    4.60
   9  -5   5   16.70    5.60
   9  -5   5    7.30    3.90
 -10   5  -5   -4.10    3.40
 -10   5  -5   -1.60    4.60
  10  -5   5   -5.50    4.70
  10  -5   5    0.00    3.30
  10   4  -5   47.10    8.00
  10   4  -5   74.39   10.80
   9   4  -5  113.79   11.30
   9   4  -5   94.49   10.30
   8   4  -5   67.79    8.60
   8   4  -5   65.49    8.30
   7   4  -5   33.50    5.60
   7   4  -5   40.10    6.40
   6   4  -5  111.59    8.40
   6   4  -5  118.09    8.60
   5   4  -5   73.69    7.50
   5   4  -5   84.59    7.00
   4   4  -5   70.99    6.80
   4   4  -5   66.09    6.20
   3   4  -5  504.25   18.80
   3   4  -5  513.55   19.30
   3   4  -5  487.45   18.00
   3   4  -5  486.85   19.30
   2   4  -5  320.07   12.90
   2   4  -5  305.67   13.20
   2   4  -5  327.37   12.80
   2   4  -5  330.07   13.60
   1   4  -5   67.19    5.00
   1   4  -5   69.39    4.60
   1   4  -5   65.29    5.10
   1   4  -5   72.49    5.30
   0   4  -5  198.68    9.20
   0   4  -5  193.68    8.50
   0   4  -5  179.58    8.80
  -1   4  -5  434.36   17.20
  -1   4  -5  448.56   14.60
  -1   4  -5  451.25   14.60
  -1   4  -5  436.86   16.40
  -2   4  -5  895.71   29.20
  -2   4  -5  894.51   31.20
  -2   4  -5  851.31   29.10
  -2   4  -5  868.21   30.20
   2  -4   5  918.31   30.00
  -3   4  -5  186.38    9.60
  -3   4  -5  197.58    8.40
  -3   4  -5  177.48    8.40
   3  -4   5  188.38    8.70
  -4   4  -5   71.69    6.10
  -4   4  -5   92.89    5.90
  -4   4  -5   77.79    5.30
  -5   4  -5   68.39    5.80
  -5   4  -5   73.49    6.80
   5  -4   5   65.79    5.70
  -6   4  -5   26.40    4.20
  -6   4  -5   25.80    4.40
   6  -4   5   20.60    4.10
  -7   4  -5  245.38   12.80
  -7   4  -5  243.48   12.90
   7  -4   5  247.68   13.00
  -8   4  -5   14.10    4.70
  -8   4  -5   21.50    4.50
   8  -4   5   30.70    5.80
   8  -4   5   29.50    5.50
  -9   4  -5   10.80    4.80
  -9   4  -5   16.90    4.50
   9  -4   5   13.90    4.30
   9  -4   5   12.70    5.20
 -10   4  -5  129.29   11.90
 -10   4  -5   93.49    9.30
  10  -4   5   97.89   10.60
  10  -4   5   93.09    9.90
  10  -4   5   76.89   10.00
 -11   4  -5    1.60    5.20
  11  -4   5   13.20    5.30
  11  -4   5   11.40    6.50
  11  -4   5   -3.00    5.50
  11  -4   5    2.60    4.40
  10   3  -5   25.20    7.30
  10   3  -5   33.70    7.60
   9   3  -5   77.89    9.20
   9   3  -5   67.99    8.70
   8   3  -5   14.60    5.10
   8   3  -5   11.00    4.30
   7   3  -5   93.49    9.10
   7   3  -5   65.39    7.30
   6   3  -5  517.25   21.30
   5   3  -5  113.69    7.90
   5   3  -5  119.59    7.90
   4   3  -5  163.08    9.30
   4   3  -5  182.38    9.30
   3   3  -5  177.88    8.50
   3   3  -5  165.58    8.60
   3   3  -5  158.88    8.80
   2   3  -5  436.26   16.00
   2   3  -5  412.16   16.30
   2   3  -5  417.36   15.60
   2   3  -5  410.76   16.10
   1   3  -5 1323.47   43.10
   1   3  -5 1323.57   43.20
   1   3  -5 1307.27   42.80
   1   3  -5 1268.67   43.20
   0   3  -5  239.38   10.00
   0   3  -5  241.88   10.40
   0   3  -5  240.98   10.30
  -1   3  -5  882.51   29.90
  -1   3  -5  844.72   29.10
  -2   3  -5   39.10    4.10
  -2   3  -5   40.00    2.90
  -2   3  -5   50.99    4.10
  -2   3  -5   41.40    2.90
  -3   3  -5   10.60    2.00
  -3   3  -5    6.30    1.90
  -3   3  -5    8.50    2.60
   3  -3   5    4.80    1.60
  -4   3  -5  118.29    6.40
  -4   3  -5  110.09    6.50
  -4   3  -5  120.99    7.30
   4  -3   5  129.69    6.90
  -5   3  -5  156.18    8.10
  -5   3  -5  148.99    8.70
  -5   3  -5  154.08    8.40
   5  -3   5  161.38    8.60
  -6   3  -5    8.80    3.00
  -6   3  -5    6.90    3.10
   6  -3   5    9.60    3.00
  -7   3  -5  425.76   18.60
  -7   3  -5  451.15   19.10
   7  -3   5  462.45   19.30
  -8   3  -5   11.10    3.70
  -8   3  -5   10.30    3.80
   8  -3   5    9.70    3.40
   8  -3   5    5.70    3.90
  -9   3  -5   31.30    5.80
  -9   3  -5   28.80    5.00
   9  -3   5   23.80    5.70
   9  -3   5   26.20    4.80
 -10   3  -5   23.30    5.90
 -10   3  -5   23.10    5.10
  10  -3   5   24.70    5.70
  10  -3   5   26.30    5.40
  10  -3   5   32.60    6.60
  10  -3   5   22.30    6.30
 -11   3  -5   54.69    8.30
  11  -3   5   51.89    8.50
  11  -3   5   45.20    8.30
  11  -3   5   48.10    7.20
  11  -3   5   45.00    7.30
  10   2  -5   84.39   10.50
  10   2  -5   98.69   11.50
   9   2  -5   91.19   10.00
   9   2  -5  122.09   11.40
   8   2  -5   32.50    6.30
   8   2  -5   44.40    6.70
   7   2  -5  123.99    8.90
   7   2  -5  136.19    9.90
   6   2  -5   -0.80    2.40
   6   2  -5    1.90    3.60
   5   2  -5  163.88    9.40
   5   2  -5  162.38    9.10
   4   2  -5  211.68   10.50
   4   2  -5  220.58   10.40
   3   2  -5   13.50    2.90
   3   2  -5    8.20    2.40
   3   2  -5   12.00    3.20
   2   2  -5   47.30    4.50
   2   2  -5   41.60    4.60
   2   2  -5   30.80    3.50
   1   2  -5  281.77   11.40
   1   2  -5  283.77   11.30
   1   2  -5  277.97   11.20
   1   2  -5  272.57   11.10
   0   2  -5  115.99    6.00
   0   2  -5  146.69    6.60
   0   2  -5  111.49    6.20
   0   2  -5  118.89    6.20
  -1   2  -5  327.07   12.30
  -1   2  -5  310.17   12.70
  -2   2  -5  189.48    7.20
  -2   2  -5  190.58    7.30
  -2   2  -5  184.98    8.80
  -2   2  -5  197.48    8.60
  -3   2  -5  245.98   11.20
  -3   2  -5  264.67   10.30
  -3   2  -5  259.37   10.10
   3  -2   5  273.07   10.70
  -4   2  -5  148.89    7.40
  -4   2  -5  147.19    7.50
  -4   2  -5  150.58    8.10
   4  -2   5  175.68    8.00
  -5   2  -5   69.59    5.50
  -5   2  -5   72.89    5.20
  -5   2  -5   72.79    5.50
   5  -2   5   70.89    5.50
  -6   2  -5   41.40    4.90
  -6   2  -5   34.80    4.40
   6  -2   5   37.50    4.60
  -7   2  -5   41.30    5.40
  -7   2  -5   46.10    5.30
   7  -2   5   38.10    5.00
  -8   2  -5   43.40    6.00
  -8   2  -5   35.50    5.00
   8  -2   5   35.80    6.00
   8  -2   5   30.10    4.80
  -9   2  -5   28.00    5.00
  -9   2  -5   41.70    6.30
   9  -2   5   44.60    7.00
   9  -2   5   45.00    6.20
   9  -2   5   38.80    6.00
   9  -2   5   56.79    7.40
 -10   2  -5   34.50    6.50
 -10   2  -5   27.00    7.30
  10  -2   5   33.80    5.90
  10  -2   5   37.80    6.70
  10  -2   5   22.60    5.20
  10  -2   5   33.40    6.80
 -11   2  -5   57.09    9.10
  11  -2   5   63.89    8.10
  11  -2   5   56.89    9.10
  11  -2   5   58.49    8.70
  10   1  -5   59.59    9.70
  10   1  -5   69.19    9.40
   9   1  -5   11.30    5.60
   9   1  -5   18.20    5.30
   8   1  -5   29.20    6.20
   8   1  -5   37.60    6.40
   7   1  -5  117.79    9.30
   7   1  -5  105.59    8.40
   6   1  -5   29.60    4.90
   6   1  -5   27.20    4.90
   5   1  -5   32.50    4.60
   5   1  -5   33.30    5.20
   4   1  -5   67.39    5.60
   4   1  -5   77.49    5.60
   3   1  -5   60.19    5.30
   3   1  -5   56.29    5.60
   3   1  -5   56.49    4.60
   2   1  -5  137.79    7.40
   2   1  -5  142.99    7.00
   2   1  -5  156.88    7.40
   1   1  -5  563.64   19.30
   1   1  -5  541.75   19.50
   1   1  -5  553.54   19.60
   0   1  -5   52.69    3.80
   0   1  -5   54.99    4.00
   0   1  -5   63.19    4.10
   0   1  -5   51.89    3.80
  -1   1  -5   86.79    4.90
  -1   1  -5   84.09    5.10
  -2   1  -5   22.10    1.90
  -2   1  -5   17.30    2.90
  -2   1  -5   16.20    2.50
  -2   1  -5   20.20    1.90
  -3   1  -5  790.92   25.30
  -3   1  -5  758.62   25.10
  -3   1  -5  817.22   26.40
   3  -1   5  650.03   25.20
  -4   1  -5   98.19    5.70
  -4   1  -5   99.69    5.40
  -4   1  -5   88.79    5.80
   4  -1   5  100.19    5.80
  -5   1  -5  238.28   10.40
  -5   1  -5  226.58   10.40
  -5   1  -5  229.78   10.20
   5  -1   5  217.78   10.40
  -6   1  -5  189.88    9.70
  -6   1  -5  189.68    9.30
   6  -1   5  188.48    9.80
  -7   1  -5  117.09    7.20
  -7   1  -5  112.49    7.80
   7  -1   5  109.69    7.70
   7  -1   5  109.99    7.90
  -8   1  -5  192.88   11.20
  -8   1  -5  187.88    9.90
   8  -1   5  192.78   11.40
   8  -1   5  175.88   10.40
   8  -1   5  197.28   11.20
  -9   1  -5   63.99    7.80
  -9   1  -5   52.99    5.80
   9  -1   5   41.70    6.60
   9  -1   5   58.79    6.90
   9  -1   5   48.00    6.40
   9  -1   5   55.99    7.00
 -10   1  -5   21.30    5.50
  10  -1   5   15.70    5.10
  10  -1   5    6.10    3.70
  10  -1   5   14.90    5.50
 -11   1  -5   60.89   12.10
  11  -1   5   37.90    6.40
  11  -1   5   40.40    8.20
  11  -1   5   41.40    7.30
  10   0  -5    6.70    5.40
  10   0  -5   -2.50    5.60
   9   0  -5   16.30    5.50
   9   0  -5   19.20    5.40
   8   0  -5  117.59    9.80
   8   0  -5   96.99    9.40
   7   0  -5   71.59    8.20
   7   0  -5   91.79    8.60
   6   0  -5  256.97   13.20
   6   0  -5  273.97   12.90
   5   0  -5   14.40    3.40
   5   0  -5    5.50    2.80
   4   0  -5   75.69    5.80
   4   0  -5   72.99    5.40
   3   0  -5  508.15   18.50
   3   0  -5  512.15   19.20
   2   0  -5  108.49    6.30
   2   0  -5  124.39    6.60
   2   0  -5  128.29    6.10
  -2   0   5  126.89    4.50
   1   0  -5  179.88    7.70
   1   0  -5  166.08    7.20
   1   0  -5  164.88    7.50
  -1   0   5  172.08    6.40
   0   0  -5  252.37    9.90
   0   0  -5  241.78    9.50
   0   0  -5  247.18    9.40
  -1   0  -5  423.36   15.20
  -1   0  -5  416.86   15.50
  -2   0  -5 1674.93   52.09
  -2   0  -5 1645.94   52.09
  -2   0  -5 1667.73   53.69
  -2   0  -5 1666.03   53.49
  -3   0  -5  327.87   12.40
  -3   0  -5  338.57   13.40
  -3   0  -5  353.96   12.70
   3   0   5  365.86   13.00
  -4   0  -5  416.06   15.80
  -4   0  -5  417.86   15.90
  -4   0  -5  431.26   15.70
   4   0   5  441.46   16.10
  -5   0  -5  336.77   13.80
  -5   0  -5  360.96   14.20
   5   0   5  347.47   14.10
  -6   0  -5   49.99    4.90
  -6   0  -5   56.59    5.80
   6   0   5   50.29    5.30
   6   0   5   55.39    5.50
   6   0   5   50.09    5.60
  -7   0  -5   26.10    3.80
  -7   0  -5   25.10    4.10
   7   0   5   25.30    4.10
   7   0   5   23.10    4.30
   7   0   5   37.70    5.30
  -8   0  -5   93.59    6.50
  -8   0  -5   97.09    7.90
   8   0   5  104.29    7.40
   8   0   5   91.79    7.10
   8   0   5  104.39    9.50
   8   0   5   85.39    7.40
  -9   0  -5   97.99    6.70
  -9   0  -5   99.19    8.80
   9   0   5   97.09    7.90
   9   0   5   99.29    7.90
   9   0   5   98.39    9.40
 -10   0  -5   73.59    8.90
  10   0   5   70.79    8.30
  10   0   5   74.09    9.10
  10   0   5   75.69    7.90
  11   0   5   21.10    6.10
  11   0   5   17.80    5.00
  11   0   5   20.70    5.70
  12   0   5   26.90    7.40
  12   0   5   31.80    6.50
  10  -1  -5   39.00    8.70
  10  -1  -5   29.30    6.60
   9  -1  -5   89.49    9.90
   9  -1  -5   95.39    9.70
   8  -1  -5    8.30    4.50
   8  -1  -5    4.70    4.00
   7  -1  -5  124.19    8.70
   7  -1  -5  124.69    9.20
   6  -1  -5   44.50    5.50
   6  -1  -5   40.60    6.00
   5  -1  -5   46.40    5.60
   5  -1  -5   72.79    5.60
   4  -1  -5  372.26   15.90
   4  -1  -5  403.46   15.20
   3  -1  -5  177.28    8.80
   3  -1  -5  177.38    8.10
   2  -1  -5  103.69    5.30
   2  -1  -5  109.69    6.00
   2  -1  -5  100.39    5.80
  -2   1   5  102.29    3.90
   1  -1  -5  285.37   10.60
   1  -1  -5  289.47   11.30
   1  -1  -5  290.77   11.20
  -1   1   5  301.77   10.10
   0  -1  -5  391.06   13.40
   0  -1  -5  385.66   13.70
   0  -1  -5  401.86   14.20
   0   1   5  386.96   13.50
  -1  -1  -5  717.63   24.50
  -1  -1  -5  755.22   23.80
   1   1   5  720.83   24.40
  -2  -1  -5 1135.69   37.20
  -2  -1  -5 1104.99   37.30
  -2  -1  -5 1141.99   36.00
  -2  -1  -5 1166.98   36.10
   2   1   5 1127.19   37.10
  -3  -1  -5  399.16   14.90
  -3  -1  -5  419.86   14.50
  -3  -1  -5  410.86   14.30
   3   1   5  373.96   14.80
   3   1   5  410.26   14.60
  -4  -1  -5   88.29    5.30
  -4  -1  -5   82.69    5.10
  -4  -1  -5   88.89    5.20
   4   1   5  108.09    5.70
   4   1   5   98.69    5.90
  -5  -1  -5  142.79    7.10
  -5  -1  -5  144.29    7.60
   5   1   5  136.69    7.50
   5   1   5  157.78    7.80
  -6  -1  -5   25.50    3.20
  -6  -1  -5   21.60    3.70
   6   1   5   20.30    3.90
   6   1   5   21.50    3.80
   6   1   5   18.50    3.20
  -7  -1  -5  198.78   10.70
  -7  -1  -5  205.28    9.30
   7   1   5  199.08   10.50
   7   1   5  190.98   10.10
   7   1   5  202.68   10.60
   7   1   5  208.48    9.90
  -8  -1  -5    0.00    1.90
  -8  -1  -5    3.30    3.10
   8   1   5    1.70    3.00
   8   1   5   -2.00    2.40
   8   1   5    1.40    2.80
  -9  -1  -5  131.59    9.80
  -9  -1  -5  115.69    7.70
   9   1   5  125.99    8.70
   9   1   5  120.39    9.10
   9   1   5  123.49    8.70
 -10  -1  -5   21.10    5.30
  10   1   5   10.70    4.00
  10   1   5   18.10    5.40
  10   1   5   20.40    4.80
  11   1   5   23.00    5.20
  11   1   5   21.30    6.40
  11   1   5   35.20    6.50
  12   1   5   20.30    6.20
  12   1   5   13.60    5.10
  12   1   5   17.60    6.90
  10  -2  -5   39.90    8.50
  10  -2  -5   62.89    8.50
   9  -2  -5   71.39    8.60
   9  -2  -5   70.89    9.50
   8  -2  -5   14.30    4.90
   8  -2  -5    4.20    4.50
   7  -2  -5  120.69    8.50
   7  -2  -5  105.39    9.00
   6  -2  -5  202.58   10.30
   6  -2  -5  176.68   11.10
   5  -2  -5   74.39    5.80
   5  -2  -5   81.49    6.60
   4  -2  -5  208.88   10.40
   4  -2  -5  197.08    9.20
   3  -2  -5  532.85   19.30
   3  -2  -5  566.14   20.50
   2  -2  -5  230.68    9.80
   2  -2  -5  227.58    8.90
   2  -2  -5  220.98    9.70
  -2   2   5  227.88    8.00
   1  -2  -5  709.93   23.60
   1  -2  -5  679.53   22.70
   1  -2  -5  698.43   23.70
  -1   2   5  695.23   22.60
   0  -2  -5  158.58    5.90
   0  -2  -5  153.68    6.40
   0  -2  -5  153.88    6.90
   0   2   5  157.68    6.40
  -1  -2  -5  225.68    9.10
  -1  -2  -5  238.58    8.30
   1   2   5  233.28    9.10
  -2  -2  -5  777.52   26.30
  -2  -2  -5  811.12   27.20
  -2  -2  -5  832.92   26.40
   2   2   5  830.62   27.40
   2   2   5  824.42   27.40
  -3  -2  -5  203.58    8.30
  -3  -2  -5  204.18    8.20
   3   2   5  189.78    8.70
   3   2   5  211.38    8.60
  -4  -2  -5   80.39    5.00
  -4  -2  -5   71.99    4.60
  -4  -2  -5   84.09    4.90
   4   2   5   81.39    5.40
   4   2   5   76.29    4.80
   4   2   5   87.59    5.20
  -5  -2  -5  287.07   11.00
  -5  -2  -5  260.17   11.60
   5   2   5  272.17   11.80
   5   2   5  276.47   11.70
   5   2   5  269.77   11.60
   5   2   5  276.17   10.50
  -6  -2  -5  395.76   16.00
  -6  -2  -5  389.16   14.60
   6   2   5  380.76   15.80
   6   2   5  389.96   14.70
   6   2   5  396.16   15.90
  -7  -2  -5  353.26   13.60
  -7  -2  -5  331.57   15.20
   7   2   5  376.96   15.30
   7   2   5  339.57   14.00
   7   2   5  359.96   15.50
  -8  -2  -5   12.40    3.60
  -8  -2  -5   22.60    3.10
   8   2   5   15.80    3.70
   8   2   5   19.20    4.40
   8   2   5   15.70    3.80
  -9  -2  -5   41.50    6.30
   9   2   5   40.20    5.50
   9   2   5   37.50    5.30
   9   2   5   38.70    6.00
 -10  -2  -5   42.40    7.00
  10   2   5   43.80    7.30
  10   2   5   43.70    6.30
  10   2   5   43.10    6.30
  11   2   5   35.60    6.20
  11   2   5   31.70    7.10
  11   2   5   41.10    6.30
  12   2   5  113.79   12.50
  12   2   5  127.69   10.80
  12   2   5  136.69   10.20
  10  -3  -5   22.10    7.60
  10  -3  -5   36.80    7.20
   9  -3  -5   47.20    7.40
   9  -3  -5   44.90    7.80
   8  -3  -5   12.00    4.30
   8  -3  -5    7.70    4.90
   7  -3  -5   47.80    6.10
   7  -3  -5   36.30    6.00
   6  -3  -5  204.38   11.80
   6  -3  -5  187.78   10.20
   5  -3  -5  211.18   11.10
   5  -3  -5  181.58    9.50
   4  -3  -5  207.48   10.40
   4  -3  -5  197.18    9.20
   3  -3  -5   24.70    3.00
   3  -3  -5   27.10    4.00
   2  -3  -5  178.38    8.50
   2  -3  -5  184.08    7.40
  -2   3   5  187.88    7.10
   1  -3  -5  160.08    7.20
   1  -3  -5  158.68    6.10
   1  -3  -5  163.48    7.10
  -1   3   5  154.78    6.50
   0  -3  -5 1929.61   59.99
   0  -3  -5 1894.51   60.29
   0  -3  -5 1880.41   58.99
   0   3   5 1909.91   60.19
  -1  -3  -5   54.19    2.70
  -1  -3  -5   53.79    2.80
  -1  -3  -5   53.49    3.50
  -1  -3  -5   55.99    2.80
   1   3   5   60.89    3.90
  -2  -3  -5  867.81   28.50
  -2  -3  -5  838.72   28.10
  -2  -3  -5  884.31   28.30
   2   3   5  863.11   28.90
  -3  -3  -5  289.77   11.40
  -3  -3  -5  302.87   11.30
   3   3   5  291.57   11.90
   3   3   5  303.27   10.90
  -4  -3  -5   47.60    4.10
  -4  -3  -5   53.69    4.00
   4   3   5   49.30    3.90
   4   3   5   48.00    2.70
   4   3   5   57.59    5.00
  -5  -3  -5  220.28    9.70
   5   3   5  198.18    9.20
   5   3   5  204.98    9.70
   5   3   5  199.28    8.00
  -6  -3  -5  279.57   12.20
   6   3   5  244.18   11.70
   6   3   5  255.47   10.40
   6   3   5  278.97   12.00
  -7  -3  -5  107.69    7.40
   7   3   5   98.29    7.20
   7   3   5   96.49    6.90
   7   3   5   95.49    5.90
  -8  -3  -5    1.30    2.40
   8   3   5    2.10    2.50
   8   3   5    2.50    2.80
   8   3   5   -1.10    2.80
  -9  -3  -5   15.30    4.30
   9   3   5   20.60    4.40
   9   3   5   12.00    4.50
   9   3   5   13.20    3.60
 -10  -3  -5   31.40    5.80
  10   3   5   19.20    4.70
  10   3   5   52.59    6.40
  10   3   5   35.50    6.50
  11   3   5   53.69    7.20
  11   3   5   56.99    8.40
  11   3   5   47.10    6.80
  12   3   5   13.10    4.90
  12   3   5   21.60    5.90
  12   3   5   23.40    7.50
  10  -4  -5   68.69   11.00
  10  -4  -5   55.99    8.50
   9  -4  -5   33.80    6.50
   9  -4  -5   22.70    6.90
   8  -4  -5    6.40    4.00
   8  -4  -5    9.50    4.90
   7  -4  -5  148.79   11.10
   7  -4  -5  155.38    9.60
   6  -4  -5   61.69    7.50
   6  -4  -5   53.29    6.00
   5  -4  -5   21.80    3.80
   5  -4  -5   20.10    4.80
   4  -4  -5   12.00    2.90
   4  -4  -5    6.70    3.00
   3  -4  -5   95.69    5.20
   3  -4  -5   97.29    6.40
   2  -4  -5   74.79    3.30
   2  -4  -5   80.39    5.30
   2  -4  -5   82.29    4.10
  -2   4   5   74.59    4.30
   1  -4  -5  355.96   12.10
   1  -4  -5  354.66   13.50
   1  -4  -5  364.56   12.10
   1  -4  -5  374.86   13.40
  -1   4   5  359.16   13.10
   0  -4  -5  441.96   15.10
   0  -4  -5  466.65   15.80
   0  -4  -5  453.05   15.60
   0   4   5  447.06   16.00
  -1  -4  -5  599.14   20.00
  -1  -4  -5  600.74   19.40
  -1  -4  -5  596.14   20.10
   1   4   5  602.04   20.80
  -2  -4  -5  108.49    5.60
  -2  -4  -5  112.99    5.50
  -2  -4  -5  119.09    5.60
   2   4   5  122.99    4.70
   2   4   5  129.59    6.30
  -3  -4  -5  935.11   31.30
  -3  -4  -5  926.51   31.10
   3   4   5  924.41   30.30
   3   4   5  958.60   31.80
  -4  -4  -5  108.89    6.20
  -4  -4  -5  109.49    6.30
   4   4   5  104.29    4.00
   4   4   5  107.39    5.50
   4   4   5  106.89    6.20
  -5  -4  -5  164.18    8.50
   5   4   5  171.28    6.70
   5   4   5  168.78    8.20
   5   4   5  168.28    8.70
  -6  -4  -5   62.89    5.40
   6   4   5   54.19    3.90
   6   4   5   62.69    5.80
   6   4   5   68.49    6.10
  -7  -4  -5   40.80    5.30
   7   4   5   41.50    5.20
   7   4   5   44.70    4.30
   7   4   5   44.40    5.50
  -8  -4  -5  176.98   10.60
   8   4   5  175.68   10.60
   8   4   5  189.08    9.20
   8   4   5  198.08   10.40
  -9  -4  -5   72.29    8.00
   9   4   5   52.09    6.30
   9   4   5   41.90    6.30
   9   4   5   57.49    5.90
 -10  -4  -5    5.10    4.00
  10   4   5    5.70    4.20
  10   4   5    6.00    3.70
  10   4   5   -3.50    2.70
  11   4   5   31.00    5.80
  11   4   5   40.90    7.70
  11   4   5   28.40    5.50
  12   4   5   19.40    6.80
  12   4   5   11.60    4.60
   9  -5  -5    6.00    4.80
   9  -5  -5   11.80    6.30
   8  -5  -5   78.79    9.40
   8  -5  -5   88.29    8.70
   7  -5  -5   -3.70    2.70
   7  -5  -5    0.40    3.50
   6  -5  -5   20.90    4.20
   6  -5  -5   17.20    4.80
   5  -5  -5  128.49    7.60
   5  -5  -5  127.19    9.00
   4  -5  -5  200.78   10.70
   4  -5  -5  209.28    9.30
   4  -5  -5  198.88    8.10
   3  -5  -5   57.29    5.70
   3  -5  -5   59.49    3.70
   3  -5  -5   60.89    4.10
   2  -5  -5  423.66   14.80
   2  -5  -5  421.06   16.30
   2  -5  -5  417.86   14.70
  -2   5   5  440.46   15.50
   1  -5  -5    1.30    1.00
   1  -5  -5    3.50    1.40
   1  -5  -5    3.30    1.90
  -1   5   5    4.30    1.80
   0  -5  -5   42.90    3.30
   0  -5  -5   45.10    3.10
   0  -5  -5   45.00    3.20
   0   5   5   44.00    4.10
  -1  -5  -5  216.18    8.80
  -1  -5  -5  220.68    8.00
  -1  -5  -5  221.18    8.30
   1   5   5  217.98    9.40
  -2  -5  -5   28.40    2.60
  -2  -5  -5   31.90    3.30
  -2  -5  -5   24.90    1.50
   2   5   5   21.30    1.70
   2   5   5   26.50    3.50
  -3  -5  -5  145.49    7.30
   3   5   5  160.38    7.90
   3   5   5  151.78    6.20
  -4  -5  -5  201.08    9.30
   4   5   5  197.28    8.30
   4   5   5  195.18    9.40
  -5  -5  -5  172.88    8.70
   5   5   5  171.48    6.60
   5   5   5  162.98    8.00
   5   5   5  170.68    8.90
  -6  -5  -5  576.44   21.30
   6   5   5  530.45   20.30
   6   5   5  536.25   18.70
   6   5   5  534.75   20.90
  -7  -5  -5   78.99    6.80
   7   5   5   79.49    5.20
   7   5   5   91.39    6.70
   7   5   5   85.79    6.70
  -8  -5  -5   47.50    6.10
   8   5   5   41.60    5.70
   8   5   5   41.50    4.70
   8   5   5   37.20    5.40
  -9  -5  -5   40.60    6.10
   9   5   5   44.80    5.30
   9   5   5   35.80    5.80
   9   5   5   37.20    5.60
 -10  -5  -5   46.20    7.00
  10   5   5   45.70    5.80
  10   5   5   38.00    5.60
  10   5   5   32.70    6.60
  11   5   5  133.89    9.90
  11   5   5  109.89   11.70
  12   5   5    2.80    5.60
  12   5   5    6.80    4.70
   9  -6  -5   -0.80    4.20
   9  -6  -5   -0.80    5.40
   8  -6  -5    3.30    3.90
   8  -6  -5    2.50    4.70
   7  -6  -5    8.00    4.30
   7  -6  -5    6.50    3.80
   6  -6  -5   85.49    9.10
   6  -6  -5   94.39    7.10
   5  -6  -5  323.77   12.50
   5  -6  -5  294.07   15.20
   5  -6  -5  337.37   13.80
   4  -6  -5   49.00    3.90
   4  -6  -5   51.49    4.90
   4  -6  -5   56.69    6.30
   3  -6  -5   19.50    2.80
   3  -6  -5   14.70    2.40
   3  -6  -5   12.80    3.40
  -3   6   5    6.40    2.50
   2  -6  -5  168.68    8.80
   2  -6  -5  189.28    8.10
   2  -6  -5  188.48    7.40
  -2   6   5  179.88    8.70
  -2   6   5  184.88    8.50
   1  -6  -5  210.68    7.60
   1  -6  -5  226.28    9.10
  -1   6   5  213.78    9.40
   0  -6  -5  124.19    5.40
   0  -6  -5  114.09    6.00
   0   6   5  119.89    6.50
  -1  -6  -5  147.99    7.20
  -1  -6  -5  158.88    6.20
   1   6   5  156.98    7.80
  -2  -6  -5   38.10    3.90
  -2  -6  -5   35.20    2.50
   2   6   5   32.70    2.00
   2   6   5   30.90    3.80
  -3  -6  -5   41.00    4.20
  -3  -6  -5   49.80    3.30
   3   6   5   48.90    3.10
   3   6   5   45.60    4.80
  -4  -6  -5   69.29    5.20
   4   6   5   56.49    5.50
   4   6   5   65.09    4.10
  -5  -6  -5  143.59    8.00
   5   6   5  134.89    6.90
   5   6   5  129.39    7.70
   5   6   5  142.29    5.60
  -6  -6  -5   60.39    6.10
   6   6   5   48.40    5.50
   6   6   5   50.19    5.00
   6   6   5   48.70    3.60
  -7  -6  -5   45.70    5.80
   7   6   5   39.40    5.30
   7   6   5   43.80    4.10
   7   6   5   35.10    4.90
  -8  -6  -5   18.80    4.50
   8   6   5   20.50    4.30
   8   6   5   26.40    4.80
   8   6   5   17.40    3.40
  -9  -6  -5   11.00    4.10
   9   6   5   11.40    3.40
   9   6   5    8.30    4.10
   9   6   5   15.10    4.40
  10   6   5   26.50    7.40
  10   6   5   19.20    5.00
  10   6   5   15.60    4.90
  11   6   5    5.70    4.40
  11   6   5   11.60    5.20
  12   6   5   24.60    7.60
  12   6   5   35.80    6.60
   9  -7  -5    0.00    4.80
   9  -7  -5   12.90    7.00
   8  -7  -5   34.70    6.30
   8  -7  -5   40.60    8.30
   7  -7  -5   13.10    5.30
   7  -7  -5   -0.30    3.40
   6  -7  -5  150.18    9.20
   6  -7  -5  157.58   11.00
   6  -7  -5  151.28    7.90
   5  -7  -5  126.39    7.50
   5  -7  -5  109.09    6.50
   5  -7  -5   99.49    8.50
   4  -7  -5    6.60    2.70
   4  -7  -5    5.20    3.40
   4  -7  -5    8.60    2.40
   3  -7  -5  136.79    6.50
   3  -7  -5  133.59    8.30
   3  -7  -5  122.99    6.80
  -3   7   5  115.09    8.60
   2  -7  -5    8.20    2.30
   2  -7  -5   16.40    2.30
  -2   7   5   22.10    3.60
  -2   7   5   22.90    3.60
   1  -7  -5   81.79    5.20
   1  -7  -5   80.49    3.70
  -1   7   5   89.79    5.90
   0  -7  -5  198.28    9.10
   0   7   5  207.18    9.60
  -1  -7  -5  236.28    8.30
  -1  -7  -5  226.98   10.10
   1   7   5  225.68   10.50
  -2  -7  -5  119.49    6.70
  -2  -7  -5  113.49    4.80
   2   7   5  114.99    6.80
   2   7   5  114.09    4.60
  -3  -7  -5  150.38    7.70
  -3  -7  -5  133.69    5.90
   3   7   5  142.89    7.90
   3   7   5  130.19    5.80
  -4  -7  -5   93.99    6.40
   4   7   5   86.49    6.50
   4   7   5   94.69    5.10
  -5  -7  -5   85.09    6.40
   5   7   5   89.99    5.60
   5   7   5   81.99    6.30
  -6  -7  -5   73.19    7.10
   6   7   5   71.39    6.70
   6   7   5   58.69    3.90
   6   7   5   62.19    5.10
  -7  -7  -5    6.00    3.00
   7   7   5   13.60    3.40
   7   7   5    9.00    2.40
   7   7   5    8.10    3.40
  -8  -7  -5    0.60    2.80
   8   7   5    1.20    2.20
   8   7   5    6.70    3.40
   8   7   5   -2.70    2.60
  -9  -7  -5   83.09    8.90
   9   7   5   76.59    7.80
   9   7   5   77.19    8.30
  10   7   5   75.39    8.70
  10   7   5   66.49    7.60
  11   7   5   38.30    7.20
  11   7   5   40.60    6.80
   8  -8  -5   38.40    6.50
   8  -8  -5   38.30    8.50
   7  -8  -5   16.90    3.40
   7  -8  -5   15.50    4.60
   7  -8  -5   13.00    5.70
   6  -8  -5   31.30    4.30
   6  -8  -5   29.50    6.10
   6  -8  -5   36.30    5.30
   5  -8  -5   39.90    5.00
   5  -8  -5   42.50    4.80
   5  -8  -5   49.99    7.00
   4  -8  -5   18.20    4.60
   4  -8  -5   24.20    3.80
   4  -8  -5   13.40    2.90
   3  -8  -5  354.46   14.50
   3  -8  -5  347.37   13.40
   2  -8  -5   89.19    5.90
   2  -8  -5   72.79    4.40
  -2   8   5   73.99    6.10
  -2   8   5   77.59    6.00
   1  -8  -5   38.50    2.70
   1  -8  -5   42.50    4.60
  -1   8   5   32.50    4.20
  -1   8   5   47.10    5.10
   0  -8  -5   19.90    3.20
   0   8   5   22.20    3.80
  -1  -8  -5  135.49    7.60
   1   8   5  144.79    8.10
  -2  -8  -5    8.20    1.20
  -2  -8  -5    6.60    2.30
   2   8   5   10.30    1.50
   2   8   5    7.10    2.90
  -3  -8  -5   94.09    4.40
  -3  -8  -5   97.39    6.60
   3   8   5  102.49    7.00
   3   8   5  100.79    4.90
  -4  -8  -5   18.80    3.60
   4   8   5   21.30    4.00
   4   8   5   24.30    3.00
  -5  -8  -5   48.40    5.50
   5   8   5   52.39    4.80
   5   8   5   58.89    6.10
  -6  -8  -5  185.28   10.50
   6   8   5  184.38   10.40
   6   8   5  180.38    9.30
  -7  -8  -5  127.09    9.10
   7   8   5  143.39    6.90
   7   8   5  136.59    8.30
   7   8   5  143.49    9.30
  -8  -8  -5   19.50    4.80
   8   8   5   12.10    4.30
   8   8   5   17.50    4.20
  -9  -8  -5   60.79    7.90
   9   8   5   52.59    7.00
   9   8   5   67.49    7.60
  10   8   5  117.49    9.40
  10   8   5  121.69    9.80
  11   8   5   23.90    5.80
  11   8   5   19.00    5.90
   8  -9  -5   -1.50    5.80
   7  -9  -5   15.70    3.80
   7  -9  -5   18.90    6.30
   7  -9  -5    7.30    4.30
   6  -9  -5   13.20    5.40
   6  -9  -5   24.40    4.10
   6  -9  -5   29.60    5.10
   5  -9  -5    7.00    4.40
   5  -9  -5    3.50    3.00
   5  -9  -5    1.00    2.60
   4  -9  -5   30.20    5.90
   4  -9  -5   36.60    4.40
   4  -9  -5   36.90    4.70
   3  -9  -5  151.28    7.40
   3  -9  -5  140.19    8.30
   2  -9  -5  203.98    8.70
   2  -9  -5  223.68   10.60
  -2   9   5  216.68   11.00
  -2   9   5  213.68   11.30
   1  -9  -5  126.79    5.50
   1  -9  -5  133.19    7.80
  -1   9   5  117.39    7.80
  -1   9   5  113.89    7.90
   0  -9  -5  238.58   11.30
   0   9   5  242.88   11.70
  -1  -9  -5   13.30    3.20
   1   9   5   15.50    3.60
  -2  -9  -5   51.99    5.40
   2   9   5   56.39    6.10
  -3  -9  -5   75.99    3.30
  -3  -9  -5   67.89    5.80
   3   9   5   79.69    6.60
   3   9   5   70.79    4.20
  -4  -9  -5   80.39    6.50
  -4  -9  -5   78.29    4.20
   4   9   5   78.89    5.10
   4   9   5   82.59    7.70
  -5  -9  -5  375.46   16.10
   5   9   5  353.06   16.10
   5   9   5  352.46   14.20
  -6  -9  -5  118.69    8.30
   6   9   5  102.19    6.80
   6   9   5  107.29    8.20
  -7  -9  -5   26.80    4.80
   7   9   5   28.40    5.30
   7   9   5   36.00    5.00
  -8  -9  -5   32.90    5.60
   8   9   5   36.30    5.40
   8   9   5   29.70    5.50
  -9  -9  -5   31.90    7.20
   9   9   5   27.40    5.40
   9   9   5   23.90    5.20
  10   9   5   17.50    5.30
  10   9   5   26.70    6.10
  11   9   5   85.99    9.70
  11   9   5   75.49    9.70
   7 -10  -5   37.70    5.50
   7 -10  -5   26.70    7.30
   6 -10  -5   -4.50    4.30
   6 -10  -5    4.50    2.90
   5 -10  -5   14.60    5.10
   5 -10  -5   22.60    4.20
   4 -10  -5   21.30    4.00
   3 -10  -5   26.60    4.30
   3 -10  -5   33.40    4.80
   2 -10  -5   32.50    3.60
   2 -10  -5   31.50    4.50
  -2  10   5   30.20    4.90
   1 -10  -5  143.49    8.80
  -1  10   5  157.28    9.60
  -1  10   5  137.79    9.20
   0 -10  -5   23.40    4.00
   0  10   5   23.20    4.30
   0  10   5   24.30    4.20
  -1 -10  -5  110.79    7.70
   1  10   5  116.09    8.00
  -2 -10  -5   83.49    6.60
   2  10   5   87.39    7.10
  -3 -10  -5  183.78   10.40
   3  10   5  196.48    8.10
   3  10   5  180.88   10.60
  -4 -10  -5   68.69    6.90
   4  10   5   71.09    7.30
   4  10   5   58.99    4.50
  -5 -10  -5  205.88   11.30
   5  10   5  199.98    9.50
   5  10   5  192.08   11.30
  -6 -10  -5  126.99    9.00
   6  10   5  118.19    8.90
   6  10   5  111.89    7.30
  -7 -10  -5  148.29   10.30
   7  10   5  150.38    9.20
   7  10   5  158.68   10.40
  -8 -10  -5   17.60    4.80
   8  10   5   15.40    4.20
   8  10   5   18.90    5.20
   9  10   5   14.50    4.90
   9  10   5    7.80    4.40
  10  10   5   25.70    5.90
  10  10   5   23.00    6.10
  11  10   5   42.00    8.00
  11  10   5   63.19    9.00
   6 -11  -5   21.40    6.70
   6 -11  -5   19.40    4.80
   5 -11  -5   32.10    6.60
   5 -11  -5   26.60    4.80
   4 -11  -5   47.60    6.10
   3 -11  -5  106.09    8.10
   2 -11  -5   61.29    6.40
  -2  11   5   61.49    7.00
   1 -11  -5    3.40    3.00
  -1  11   5    3.80    2.70
  -1  11   5    3.60    3.40
   0 -11  -5  126.29    8.50
   0  11   5  114.99    8.70
   0  11   5  124.39    8.90
  -1 -11  -5  158.08    9.50
   1  11   5  155.68    9.70
   1  11   5  140.69    9.60
  -2 -11  -5   35.60    5.00
   2  11   5   39.80    5.70
  -3 -11  -5   21.10    4.00
   3  11   5   27.60    3.30
   3  11   5   27.70    4.90
  -4 -11  -5   13.50    3.60
   4  11   5   11.40    4.10
   4  11   5   12.20    2.90
  -5 -11  -5   31.70    5.40
   5  11   5   33.20    4.40
   5  11   5   48.50    6.70
  -6 -11  -5  200.78   11.70
   6  11   5  186.38   11.70
   6  11   5  188.78   10.10
  -7 -11  -5   67.79    7.70
   7  11   5   89.99    9.10
   7  11   5   81.49    7.40
  -8 -11  -5   25.80    5.50
   8  11   5   17.50    4.40
   8  11   5   31.00    6.10
   9  11   5   10.20    4.40
   9  11   5   23.20    6.00
  10  11   5   25.50    6.80
  10  11   5   19.40    5.70
   6 -12  -5   32.90    5.90
   6 -12  -5   53.99    9.50
   5 -12  -5   21.50    6.80
   5 -12  -5   10.80    4.50
   4 -12  -5   13.30    4.30
   3 -12  -5    5.10    3.50
   2 -12  -5   84.49    8.10
   1 -12  -5   62.79    7.10
  -1  12   5   49.30    6.80
   0 -12  -5   33.00    5.10
   0  12   5   42.40    6.40
   0  12   5   29.30    5.20
  -1 -12  -5   15.90    4.10
   1  12   5    5.90    3.30
   1  12   5   13.00    4.40
  -2 -12  -5   -1.90    2.40
   2  12   5    2.70    3.20
   2  12   5    0.20    3.40
  -3 -12  -5    3.10    2.60
   3  12   5    3.30    3.50
  -4 -12  -5  106.19    8.50
   4  12   5   91.79    9.10
   4  12   5   96.09    6.10
  -5 -12  -5   22.20    5.20
   5  12   5   24.60    5.20
   5  12   5   12.90    3.30
  -6 -12  -5  174.58   11.30
   6  12   5  162.88   11.40
   6  12   5  176.18    9.70
  -7 -12  -5    6.60    3.80
   7  12   5   -3.30    3.90
   7  12   5    1.30    3.30
   8  12   5   17.10    5.80
   8  12   5   27.30    5.40
   9  12   5    4.40    5.20
   9  12   5    5.40    4.20
  10  12   5   21.30    6.80
  10  12   5   25.50    6.30
   5 -13  -5   10.40    4.80
   5 -13  -5   20.50    7.50
   4 -13  -5   15.70    5.10
   3 -13  -5    9.60    4.30
   2 -13  -5   -0.80    2.70
   1 -13  -5   -3.70    2.70
  -1  13   5    0.30    3.90
   0 -13  -5   66.29    7.80
   0  13   5   57.99    7.40
  -1 -13  -5    4.60    3.30
   1  13   5   -4.80    3.00
   1  13   5    5.90    3.80
  -2 -13  -5    7.50    3.70
   2  13   5    2.30    3.80
   2  13   5    6.50    3.80
  -3 -13  -5   84.29    8.00
   3  13   5   82.19    8.70
   3  13   5   76.09    8.00
  -4 -13  -5   57.49    7.50
   4  13   5   36.80    6.40
  -5 -13  -5   33.10    5.50
   5  13   5   21.30    5.80
  -6 -13  -5   11.00    4.10
   6  13   5   18.30    6.00
   6  13   5   18.10    5.60
  -7 -13  -5    8.30    4.20
   7  13   5   14.70    5.50
   7  13   5   15.50    4.30
   8  13   5   20.10    6.00
   8  13   5   17.70    4.90
   9  13   5   23.30    5.90
   9  13   5   32.80    7.50
   4 -14  -5    0.40    4.10
   3 -14  -5    8.00    4.30
   2 -14  -5   40.10    6.20
   1 -14  -5   30.90    6.40
   0 -14  -5   43.60    6.80
   0  14   5   31.50    6.30
  -1 -14  -5   17.20    4.80
   1  14   5   18.00    5.40
   1  14   5   19.40    5.50
  -2 -14  -5   39.30    6.70
   2  14   5   41.60    6.80
   2  14   5   31.70    6.30
  -3 -14  -5    6.70    3.60
   3  14   5    6.10    4.30
   3  14   5    6.70    3.70
  -4 -14  -5    4.00    3.40
   4  14   5   -0.30    3.40
   4  14   5    6.80    4.40
  -5 -14  -5    6.20    4.40
   5  14   5   10.60    5.00
  -6 -14  -5   14.90    4.90
   6  14   5    9.70    5.30
   7  14   5    7.30    5.20
   8  14   5   32.90    7.90
   2 -15  -5   28.00    6.00
   1 -15  -5   33.00    6.60
   0 -15  -5   13.50    5.20
   0  15   5   18.50    6.10
  -1 -15  -5   10.40    4.80
   1  15   5   18.70    5.70
   1  15   5   16.50    5.40
  -2 -15  -5   42.80    6.80
   2  15   5   25.70    6.40
   2  15   5   17.40    6.00
  -3 -15  -5   12.70    5.20
   3  15   5    9.30    4.50
   3  15   5   -1.70    4.30
  -4 -15  -5   -2.70    3.40
   4  15   5    3.00    4.40
   4  15   5    2.40    4.70
  -5 -15  -5   32.10    6.40
   5  15   5   18.60    6.70
   5  15   5   29.00    6.00
   6  15   5   -2.40    5.00
   6  15   5   -2.50    3.80
   7  15   5   63.69    9.90
   1 -16  -5    3.20    5.50
   0 -16  -5    5.80    5.30
  -1 -16  -5   14.50    6.00
   1  16   5   20.90    6.70
   1  16   5   19.50    5.70
  -2 -16  -5    0.70    4.20
   2  16   5    6.50    4.70
   2  16   5    7.00    5.80
  -3 -16  -5   10.40    5.30
   3  16   5    7.60    5.50
   3  16   5   14.60    6.40
  -4 -16  -5   37.20    7.30
   4  16   5   42.70    8.50
   4  16   5   38.10    7.50
  -5 -16  -5   37.70    9.10
   5  16   5   43.60    9.00
   5  16   5   41.40    7.80
   6  16   5   15.80    6.30
   6  16   5   12.50    7.30
   4  14  -6    9.50    6.10
   3  14  -6   19.00    5.50
   2  14  -6   36.10    7.10
   1  14  -6    7.20    5.10
   0  14  -6   22.80    3.10
   0  14  -6   19.60    2.80
   0  14  -6   16.70    6.10
  -1  14  -6   -4.30    4.30
  -1  14  -6    2.40    3.40
  -2  14  -6    0.30    3.80
  -2  14  -6   -6.60    4.90
   5  13  -6   -1.00    5.70
   4  13  -6   18.70    6.50
   3  13  -6   21.70    6.40
   3  13  -6   31.80    6.00
   2  13  -6   27.20    5.80
   1  13  -6   40.50    7.20
   0  13  -6    0.80    1.70
   0  13  -6    0.10    4.10
   0  13  -6    1.00    2.10
  -1  13  -6   11.50    5.20
  -1  13  -6   15.00    3.60
  -2  13  -6    7.40    5.40
  -2  13  -6    9.00    3.80
  -3  13  -6   62.69    9.60
  -3  13  -6   55.89    7.00
  -4  13  -6   -0.40    5.80
  -4  13  -6    4.80    4.80
   6  12  -6   35.80    7.50
   5  12  -6   25.80    6.80
   4  12  -6   34.00    7.20
   4  12  -6   37.40    5.90
   3  12  -6   65.09    8.30
   3  12  -6   55.69    7.30
   2  12  -6  123.09   11.50
   2  12  -6  110.29    9.20
   1  12  -6   12.00    4.50
   0  12  -6   29.90    3.20
   0  12  -6   29.20    5.90
   0  12  -6   23.10    2.80
  -1  12  -6    4.60    4.00
  -1  12  -6   -1.20    2.40
  -2  12  -6   33.50    7.00
  -2  12  -6   28.10    4.50
  -3  12  -6   13.40    4.10
  -3  12  -6   -0.40    4.00
  -4  12  -6   35.60    7.80
  -4  12  -6   35.50    6.40
  -5  12  -6   -5.20    4.10
  -5  12  -6   -0.10    5.60
   7  11  -6    6.40    6.30
   6  11  -6   67.49    9.40
   5  11  -6    1.30    4.10
   4  11  -6   55.69    7.90
   4  11  -6   63.29    7.00
   3  11  -6   15.00    4.20
   3  11  -6    6.30    4.10
   2  11  -6  104.79    8.50
   2  11  -6  105.39    7.00
   2  11  -6  116.99    9.20
   1  11  -6   50.89    5.20
   1  11  -6   53.99    7.00
   0  11  -6   69.79    4.30
   0  11  -6   73.49    5.90
   0  11  -6   61.79    7.70
   0  11  -6   64.39    4.10
  -1  11  -6   57.29    5.70
  -1  11  -6   59.19    4.70
  -1  11  -6   50.39    7.30
  -1  11  -6   59.19    5.20
  -2  11  -6   46.10    5.10
  -2  11  -6   40.10    6.90
  -2  11  -6   46.90    5.30
  -3  11  -6   54.39    6.50
  -3  11  -6   53.59    6.20
  -3  11  -6   48.10    7.80
  -4  11  -6   -1.40    4.10
  -4  11  -6    9.80    4.20
  -4  11  -6    2.10    3.30
  -5  11  -6   59.49    7.60
  -5  11  -6   39.50    7.70
  -6  11  -6   23.80    7.50
  -6  11  -6   27.00    6.40
   8  10  -6   -7.10    5.60
   8  10  -6    0.20    5.00
   7  10  -6   74.49   10.00
   7  10  -6   57.59    8.50
   6  10  -6   23.80    6.20
   6  10  -6   37.70    7.00
   5  10  -6   25.80    5.90
   4  10  -6   77.29    7.50
   4  10  -6   63.39    8.10
   3  10  -6   26.50    4.70
   3  10  -6   21.60    5.10
   2  10  -6  132.59    9.80
   2  10  -6  123.09    8.90
   2  10  -6  124.69    7.60
   1  10  -6   11.80    3.00
   1  10  -6   17.60    4.40
   0  10  -6   32.00    4.20
   0  10  -6   42.40    6.30
   0  10  -6   34.60    3.00
   0  10  -6   36.30    2.90
  -1  10  -6   15.50    2.90
  -1  10  -6   19.70    2.90
  -1  10  -6   22.40    3.70
  -1  10  -6   25.90    5.20
  -2  10  -6   51.99    5.10
  -2  10  -6   37.10    4.80
  -2  10  -6   44.00    6.60
  -3  10  -6    0.90    2.70
  -3  10  -6    2.00    2.70
  -3  10  -6   -2.70    2.90
  -4  10  -6   17.30    5.70
  -4  10  -6   26.40    4.60
  -4  10  -6   25.70    4.70
  -5  10  -6    8.70    5.00
  -5  10  -6    9.40    4.00
  -5  10  -6    7.40    3.90
  -6  10  -6    3.40    5.00
  -6  10  -6   16.20    4.90
  -6  10  -6   13.70    4.40
  -7  10  -6    9.50    6.00
  -7  10  -6    8.50    5.30
   8   9  -6   39.40    7.90
   8   9  -6   20.70    6.70
   7   9  -6   61.09    8.80
   7   9  -6   59.69    8.70
   6   9  -6  189.88   12.70
   6   9  -6  170.08   12.10
   5   9  -6   31.90    6.20
   5   9  -6   31.90    6.40
   5   9  -6   32.70    6.30
   4   9  -6    7.40    3.10
   4   9  -6    5.40    4.10
   3   9  -6   88.09    6.60
   3   9  -6   89.59    7.30
   3   9  -6   99.09    9.30
   2   9  -6   82.79    7.20
   2   9  -6  106.59    6.70
   2   9  -6  102.59    8.30
   1   9  -6   63.29    7.40
   1   9  -6   66.59    6.00
   1   9  -6   75.89    7.60
   0   9  -6   62.39    5.70
   0   9  -6   65.79    7.40
   0   9  -6   54.69    3.00
  -1   9  -6   36.40    5.90
  -1   9  -6   39.90    4.60
  -1   9  -6   38.80    3.70
  -1   9  -6   37.50    3.60
  -2   9  -6   33.50    4.00
  -2   9  -6   35.10    4.00
  -2   9  -6   35.70    4.60
  -2   9  -6   38.30    6.40
  -3   9  -6   56.29    5.90
  -3   9  -6   55.09    5.70
  -3   9  -6   57.29    7.70
  -4   9  -6   59.19    6.40
  -4   9  -6   67.79    6.70
  -4   9  -6   63.79    8.40
  -5   9  -6   18.30    4.30
  -5   9  -6   14.40    5.40
  -5   9  -6   20.20    4.30
  -6   9  -6    8.50    5.00
  -6   9  -6   16.70    4.60
  -7   9  -6   16.20    6.00
  -7   9  -6   28.10    6.10
  -8   9  -6    3.60    5.30
  -8   9  -6    1.10    4.90
   9   8  -6   31.40    8.00
   9   8  -6   29.90    7.90
   8   8  -6    1.30    4.90
   8   8  -6    0.70    4.80
   7   8  -6   34.90    6.80
   7   8  -6   33.50    6.60
   6   8  -6   41.20    6.60
   6   8  -6   48.30    7.20
   5   8  -6    3.10    3.60
   5   8  -6    2.00    3.60
   5   8  -6   -0.70    2.10
   4   8  -6   53.89    7.20
   4   8  -6   56.99    5.80
   4   8  -6   60.89    7.70
   3   8  -6   90.99    6.80
   3   8  -6   91.39    6.50
   3   8  -6   91.29    8.70
   2   8  -6  166.08    8.90
   2   8  -6  184.08   10.10
   2   8  -6  170.28   10.20
   1   8  -6   51.59    6.40
   1   8  -6   65.59    5.70
   1   8  -6   51.89    6.20
   0   8  -6   30.60    4.90
   0   8  -6   32.10    4.20
  -1   8  -6   91.99    6.00
  -1   8  -6   82.09    4.60
  -1   8  -6   80.59    4.70
  -1   8  -6   88.69    7.30
  -2   8  -6   32.70    3.80
  -2   8  -6   30.70    4.30
  -2   8  -6   24.80    4.80
  -2   8  -6   26.00    3.30
  -3   8  -6  113.79    7.60
  -3   8  -6  134.59    9.60
  -3   8  -6  119.49    7.40
  -4   8  -6   65.69    6.70
  -4   8  -6   67.59    6.40
  -4   8  -6   63.39    7.90
  -5   8  -6   47.50    7.00
  -5   8  -6   43.30    5.60
  -5   8  -6   48.50    6.10
  -6   8  -6   38.30    7.00
  -6   8  -6   40.60    6.00
  -7   8  -6   10.10    4.90
  -7   8  -6    1.00    3.30
  -8   8  -6   22.40    5.90
  -8   8  -6   21.10    6.10
   9   7  -6   26.00    7.50
   9   7  -6   41.10    8.20
   8   7  -6   32.80    6.80
   8   7  -6   44.60    7.60
   7   7  -6   81.09    9.10
   7   7  -6   95.09    9.80
   6   7  -6   21.00    5.30
   6   7  -6    8.90    4.30
   5   7  -6    8.10    3.80
   5   7  -6   17.30    4.90
   4   7  -6   13.80    4.00
   4   7  -6   10.20    3.00
   4   7  -6    6.10    3.70
   3   7  -6  132.09    9.40
   3   7  -6  153.18    9.40
   3   7  -6  143.99    8.30
   3   7  -6  150.18    8.50
   2   7  -6  175.58    9.70
   2   7  -6  181.88   10.20
   2   7  -6  185.38    9.20
   1   7  -6  198.58   10.60
   1   7  -6  211.68   11.00
   1   7  -6  199.38    9.60
   0   7  -6  158.78    9.40
   0   7  -6  155.48    8.20
  -1   7  -6    5.50    2.40
  -1   7  -6    6.50    1.50
  -1   7  -6    8.00    3.30
  -1   7  -6    8.10    1.60
  -2   7  -6  288.27   12.70
  -2   7  -6  298.27   11.60
  -2   7  -6  283.67   11.50
  -2   7  -6  287.17   14.30
  -3   7  -6   57.49    4.70
  -3   7  -6   58.79    5.80
  -3   7  -6   67.29    7.30
  -3   7  -6   64.69    5.20
  -4   7  -6   18.90    3.60
  -4   7  -6   20.80    3.90
  -4   7  -6   24.70    5.10
  -5   7  -6   35.10    4.90
  -5   7  -6   31.80    6.00
  -6   7  -6  109.99   10.40
  -6   7  -6  109.09    8.50
  -7   7  -6   10.50    4.70
  -7   7  -6   14.20    4.50
  -8   7  -6   95.59    9.90
  -8   7  -6  106.69   10.90
  -9   7  -6  108.09   11.20
  -9   7  -6   72.69    9.60
   9  -7   6   92.89   11.20
  10   6  -6   -3.60    5.90
  10   6  -6    9.00    7.00
   9   6  -6   50.89    9.00
   9   6  -6   61.19    9.20
   8   6  -6   90.69    9.60
   8   6  -6  128.89   10.70
   7   6  -6   30.20    6.60
   7   6  -6   46.20    7.30
   6   6  -6   71.09    7.90
   6   6  -6   65.69    7.90
   5   6  -6  290.17   14.50
   5   6  -6  296.97   14.80
   4   6  -6  178.58   10.50
   4   6  -6  168.28    8.70
   4   6  -6  163.88    9.90
   3   6  -6  184.68    9.20
   3   6  -6  181.18   10.30
   3   6  -6  176.28    9.30
   3   6  -6  189.98   10.60
   2   6  -6  248.18   11.00
   2   6  -6  229.58   11.10
   2   6  -6  237.18   11.70
   1   6  -6  187.28    9.70
   1   6  -6  173.48    9.70
   1   6  -6  179.48    8.80
   0   6  -6  138.09    7.30
   0   6  -6  139.49    8.40
   0   6  -6  131.49    8.10
  -1   6  -6  141.49    5.50
  -1   6  -6  146.79    5.60
  -1   6  -6  149.99    8.70
  -1   6  -6  139.89    7.60
  -2   6  -6  173.98    7.80
  -2   6  -6  185.78    7.90
  -2   6  -6  183.98   10.40
  -2   6  -6  187.98    9.20
   2  -6   6  192.18    9.20
  -3   6  -6   32.50    3.80
  -3   6  -6   37.50    4.60
  -3   6  -6   45.50    4.20
  -3   6  -6   33.30    5.00
   3  -6   6   44.50    5.20
  -4   6  -6   10.30    2.60
  -4   6  -6    1.30    3.00
  -4   6  -6   11.60    2.80
   4  -6   6    9.40    3.20
  -5   6  -6   12.50    4.00
  -5   6  -6    6.90    3.00
  -6   6  -6   88.99    9.00
  -6   6  -6   74.39    7.30
  -7   6  -6    8.80    4.50
  -7   6  -6   13.10    4.50
  -8   6  -6   70.69    8.40
  -8   6  -6   75.59    8.80
  -9   6  -6   10.30    4.80
  -9   6  -6   17.10    5.80
   9  -6   6   14.20    5.60
 -10   6  -6   15.80    6.30
 -10   6  -6   17.10    5.90
  10  -6   6   16.00    7.20
  10  -6   6    7.30    5.20
  10   5  -6   38.80    8.70
  10   5  -6   25.70    7.40
   9   5  -6   54.79    8.60
   9   5  -6   55.09    8.40
   8   5  -6  127.79   10.50
   7   5  -6   18.20    5.10
   7   5  -6   14.30    4.50
   6   5  -6   76.79    8.30
   6   5  -6   41.30    6.10
   5   5  -6   43.00    6.10
   5   5  -6   51.69    6.80
   4   5  -6  158.98    9.70
   4   5  -6  149.49    9.40
   3   5  -6   39.80    5.20
   3   5  -6   29.80    4.70
   3   5  -6   36.10    4.10
   3   5  -6   29.10    4.00
   2   5  -6  190.38   10.40
   2   5  -6  213.18    9.80
   2   5  -6  194.28   10.30
   2   5  -6  208.88    9.90
   1   5  -6  215.28    9.80
   1   5  -6  212.08   10.40
   1   5  -6  214.38   10.50
   0   5  -6   22.60    3.60
   0   5  -6   31.00    4.30
   0   5  -6   24.60    3.40
  -1   5  -6  112.19    7.30
  -1   5  -6  105.09    6.30
  -2   5  -6   12.50    2.90
  -2   5  -6   15.10    3.50
  -2   5  -6   13.60    2.10
  -2   5  -6   18.60    2.20
  -3   5  -6   53.79    5.30
  -3   5  -6   46.70    5.60
  -3   5  -6   62.09    4.30
  -3   5  -6   63.39    4.50
   3  -5   6   56.89    4.70
  -4   5  -6  130.29    7.40
  -4   5  -6  125.49    7.00
  -4   5  -6  122.29    8.30
   4  -5   6  137.19    7.80
  -5   5  -6  129.99    8.10
  -5   5  -6  122.59    8.60
   5  -5   6  143.79    8.50
  -6   5  -6    0.60    2.60
  -6   5  -6    1.90    3.10
   6  -5   6    4.00    3.10
  -7   5  -6   10.20    3.80
  -7   5  -6    6.10    3.80
   7  -5   6    9.70    3.60
  -8   5  -6   14.30    4.60
  -8   5  -6   14.60    4.50
   8  -5   6   11.30    3.80
  -9   5  -6   24.30    5.80
  -9   5  -6   12.90    4.90
   9  -5   6   16.10    5.70
   9  -5   6   28.70    5.80
 -10   5  -6   83.39    9.90
 -10   5  -6   85.09    9.30
  10  -5   6   71.39   10.00
  10  -5   6   63.19    8.70
  10   4  -6   20.00    7.30
  10   4  -6   12.20    6.40
   9   4  -6   65.09    8.60
   9   4  -6   73.49    9.70
   8   4  -6   18.80    5.80
   8   4  -6   17.90    5.50
   7   4  -6   34.90    6.30
   7   4  -6   38.80    6.50
   6   4  -6   73.09    8.10
   6   4  -6   53.89    6.70
   5   4  -6   31.70    5.20
   5   4  -6   25.20    4.80
   4   4  -6  119.19    8.10
   4   4  -6  133.89    8.70
   3   4  -6  119.69    6.70
   3   4  -6  122.89    7.10
   3   4  -6  109.59    7.40
   3   4  -6  121.29    7.60
   2   4  -6  364.46   14.40
   2   4  -6  342.47   14.20
   2   4  -6  356.36   14.90
   2   4  -6  362.06   15.10
   1   4  -6   58.19    5.50
   1   4  -6   60.79    5.10
   1   4  -6   59.79    5.30
   1   4  -6   60.69    5.60
   0   4  -6   94.39    6.30
   0   4  -6  101.49    6.40
   0   4  -6   85.79    5.70
  -1   4  -6  160.08    8.00
  -1   4  -6  176.58    8.90
  -2   4  -6   43.00    4.40
  -2   4  -6   49.50    3.20
  -2   4  -6   53.99    3.10
  -2   4  -6   44.80    5.20
  -3   4  -6  111.59    7.40
  -3   4  -6  105.49    5.60
  -3   4  -6  117.49    6.90
  -3   4  -6  114.59    5.90
   3  -4   6  113.79    6.30
  -4   4  -6   81.09    6.60
  -4   4  -6   88.69    5.80
  -4   4  -6   95.09    5.60
   4  -4   6   90.29    6.20
  -5   4  -6  130.59    7.70
  -5   4  -6  131.79    8.50
  -5   4  -6  120.09    8.20
   5  -4   6  107.59    7.60
  -6   4  -6   60.49    6.70
  -6   4  -6   43.60    5.30
   6  -4   6   64.29    6.90
  -7   4  -6  130.09    9.10
  -7   4  -6  138.39    9.30
   7  -4   6  131.59    9.30
  -8   4  -6   23.90    5.00
  -8   4  -6   22.80    5.30
   8  -4   6   28.10    5.50
  -9   4  -6  122.39    9.50
  -9   4  -6  119.59   10.20
   9  -4   6  106.59   10.50
   9  -4   6  115.59    9.70
 -10   4  -6   60.09    8.10
 -10   4  -6   53.49    7.30
  10  -4   6   61.59    8.50
  10  -4   6   55.59    9.00
  10   3  -6    9.40    6.70
  10   3  -6   19.20    6.80
   9   3  -6   -4.70    4.30
   9   3  -6   -0.90    4.50
   8   3  -6  120.19   11.10
   8   3  -6  122.79   10.40
   7   3  -6    1.40    3.80
   7   3  -6    0.90    3.30
   6   3  -6   48.80    6.90
   6   3  -6   57.89    6.50
   5   3  -6   50.19    5.80
   5   3  -6   59.19    6.40
   4   3  -6   87.29    6.80
   4   3  -6   90.29    6.70
   3   3  -6   84.29    5.80
   3   3  -6   80.09    6.10
   3   3  -6   74.09    5.90
   2   3  -6   71.79    5.60
   2   3  -6   73.49    5.00
   2   3  -6   69.29    5.40
   2   3  -6   65.09    5.00
   1   3  -6  599.24   22.10
   1   3  -6  626.64   22.60
   1   3  -6  622.94   22.40
   1   3  -6  621.94   22.30
   0   3  -6  188.28    8.60
   0   3  -6  167.68    8.50
   0   3  -6  175.78    8.80
  -1   3  -6  157.18    8.30
  -1   3  -6  158.58    7.90
  -2   3  -6  141.59    7.80
  -2   3  -6  148.79    5.60
  -2   3  -6  133.49    5.50
  -2   3  -6  144.99    7.50
  -3   3  -6   24.60    2.70
  -3   3  -6   24.10    2.70
  -3   3  -6   16.30    3.00
  -3   3  -6   18.00    3.40
   3  -3   6   28.70    3.50
  -4   3  -6   47.30    3.80
  -4   3  -6   43.20    4.10
  -4   3  -6   51.99    5.50
  -5   3  -6   -0.70    1.40
  -5   3  -6    2.70    2.00
  -5   3  -6   -2.40    2.00
   5  -3   6   -0.80    1.70
  -6   3  -6  100.49    7.10
  -6   3  -6   84.99    6.90
   6  -3   6   93.29    7.10
  -7   3  -6   60.39    6.60
  -7   3  -6   57.09    6.30
   7  -3   6   48.00    6.20
  -8   3  -6   84.29    8.40
  -8   3  -6   85.99    8.10
   8  -3   6   71.69    7.70
   8  -3   6   60.59    7.50
  -9   3  -6    7.80    4.30
  -9   3  -6    6.10    3.70
   9  -3   6    5.40    3.60
   9  -3   6    4.10    4.40
 -10   3  -6    7.50    4.40
 -10   3  -6    2.00    3.50
  10  -3   6    1.60    3.60
  10  -3   6   13.70    4.70
  10  -3   6    0.10    4.40
  10  -3   6    1.50    4.60
 -11   3  -6   59.59    8.90
  11  -3   6   74.19    9.70
  11  -3   6   51.89    7.80
  11  -3   6   72.29    9.60
  11  -3   6   60.49    9.80
  10   2  -6   17.60    7.40
  10   2  -6   27.10    7.10
   9   2  -6   37.60    7.10
   9   2  -6   28.90    6.40
   8   2  -6   64.99    8.30
   8   2  -6   67.89    8.80
   7   2  -6   31.40    6.10
   7   2  -6   37.90    6.10
   6   2  -6  137.69    9.10
   6   2  -6  121.49    9.30
   5   2  -6   46.70    5.90
   5   2  -6   57.69    6.40
   4   2  -6  171.28    9.20
   4   2  -6  170.48    9.60
   3   2  -6   37.30    4.50
   3   2  -6   33.10    4.20
   3   2  -6   42.70    5.00
   2   2  -6  894.71   30.90
   2   2  -6  886.11   31.10
   2   2  -6  899.21   30.80
   1   2  -6  179.18    8.40
   1   2  -6  168.28    8.20
   1   2  -6  157.48    7.90
   1   2  -6  169.18    8.10
   0   2  -6  200.68    9.10
   0   2  -6  201.48    9.30
   0   2  -6  213.18    9.60
   0   2  -6  212.18    9.20
  -1   2  -6  167.38    8.00
  -1   2  -6  157.68    8.20
  -2   2  -6  117.39    4.40
  -2   2  -6  118.09    6.80
  -2   2  -6  117.89    6.60
  -2   2  -6  116.79    4.40
  -3   2  -6   25.90    2.60
  -3   2  -6   28.20    3.90
  -3   2  -6   23.70    2.60
   3  -2   6   33.20    3.60
  -4   2  -6   40.80    4.50
  -4   2  -6   37.50    3.70
  -4   2  -6   43.00    3.60
   4  -2   6   40.80    4.10
  -5   2  -6   54.99    5.70
  -5   2  -6   52.79    5.00
  -5   2  -6   52.29    5.00
   5  -2   6   48.70    5.20
  -6   2  -6   56.49    6.00
  -6   2  -6   55.59    5.40
   6  -2   6   61.69    5.90
  -7   2  -6  358.26   15.60
  -7   2  -6  334.97   15.20
   7  -2   6  332.07   15.60
  -8   2  -6   69.39    7.20
  -8   2  -6   79.89    6.80
   8  -2   6   57.79    7.60
   8  -2   6   78.89    8.20
  -9   2  -6   46.00    6.50
  -9   2  -6   47.30    6.10
   9  -2   6   47.30    7.10
   9  -2   6   61.19    7.40
   9  -2   6   48.10    6.50
 -10   2  -6   -1.20    2.90
 -10   2  -6    6.40    4.30
  10  -2   6    1.90    4.60
  10  -2   6   -2.60    3.20
  10  -2   6   -2.20    3.00
  10  -2   6    1.80    4.10
 -11   2  -6    8.30    5.20
  11  -2   6    0.30    4.50
  11  -2   6    7.50    4.50
  11  -2   6    8.40    5.40
  10   1  -6   20.80    6.60
  10   1  -6   20.40    7.40
   9   1  -6   13.80    6.30
   9   1  -6   10.50    5.00
   8   1  -6   13.40    4.80
   8   1  -6    9.60    5.10
   7   1  -6   18.80    5.20
   7   1  -6   11.10    4.20
   6   1  -6   37.90    6.00
   6   1  -6   28.20    4.90
   5   1  -6   56.99    6.60
   5   1  -6   51.29    5.70
   4   1  -6   70.09    5.70
   4   1  -6   72.09    6.70
   3   1  -6  478.05   18.50
   3   1  -6  478.65   18.30
   3   1  -6  469.65   17.90
   2   1  -6  248.78   10.60
   2   1  -6  259.47   11.10
   2   1  -6  249.78   11.10
   1   1  -6  230.98    9.80
   1   1  -6  238.38   10.10
   1   1  -6  228.18   10.00
   0   1  -6  155.28    7.50
   0   1  -6  168.98    7.90
   0   1  -6  170.18    8.10
   0   1  -6  159.28    7.40
  -1   1  -6  778.72   27.20
  -1   1  -6  783.22   26.80
  -2   1  -6   79.59    5.50
  -2   1  -6   82.09    5.40
  -3   1  -6   76.99    4.20
  -3   1  -6   80.99    4.10
  -3   1  -6   75.99    5.20
   3  -1   6   69.89    4.50
  -4   1  -6   30.90    3.50
  -4   1  -6   44.70    3.50
  -4   1  -6   31.90    4.00
   4  -1   6   37.80    3.90
  -5   1  -6   16.10    3.10
  -5   1  -6   18.90    2.80
  -5   1  -6   20.20    3.50
   5  -1   6   28.90    3.90
  -6   1  -6  136.39    8.00
  -6   1  -6  144.99    8.30
   6  -1   6  139.09    8.40
  -7   1  -6   34.00    4.70
  -7   1  -6   23.80    4.30
   7  -1   6   35.10    4.80
  -8   1  -6   99.29    7.10
  -8   1  -6   85.59    8.30
   8  -1   6   67.89    7.00
   8  -1   6   80.69    7.80
   8  -1   6  105.79    9.60
  -9   1  -6   39.30    5.50
  -9   1  -6   35.50    5.70
   9  -1   6   27.40    5.50
   9  -1   6   32.40    5.60
   9  -1   6   41.50    6.70
   9  -1   6   27.00    5.60
 -10   1  -6   -3.10    3.50
  10  -1   6    1.30    3.70
  10  -1   6    2.00    3.90
  10  -1   6    6.00    3.50
  10  -1   6    4.90    3.70
 -11   1  -6   35.00    7.30
  11  -1   6   43.70    7.90
  11  -1   6   45.80    7.40
  11  -1   6   32.60    6.40
  10   0  -6   23.60    6.60
  10   0  -6   29.60    7.80
   9   0  -6   22.20    6.60
   9   0  -6    8.90    4.80
   8   0  -6   16.70    4.90
   8   0  -6   23.90    5.70
   7   0  -6   63.39    7.50
   7   0  -6   58.29    6.80
   6   0  -6    8.90    3.60
   6   0  -6    6.10    4.10
   5   0  -6   34.00    4.80
   5   0  -6   27.40    4.90
   4   0  -6    8.40    2.80
   4   0  -6    9.90    3.30
   3   0  -6  193.68    9.50
   3   0  -6  206.48   10.00
   3   0  -6  202.48    9.20
   2   0  -6  153.28    7.60
   2   0  -6  140.69    7.40
   2   0  -6  141.89    6.90
  -2   0   6  140.69    5.30
   1   0  -6  166.88    8.00
   1   0  -6  180.78    8.40
   1   0  -6  187.58    7.80
  -1   0   6  173.58    6.80
   0   0  -6  622.64   21.70
   0   0  -6  624.04   21.30
   0   0  -6  607.84   21.10
  -1   0  -6  511.95   19.20
  -1   0  -6  549.15   19.10
  -2   0  -6  381.16   15.10
  -2   0  -6  404.96   15.10
  -3   0  -6  454.15   15.40
  -3   0  -6  449.36   16.80
  -3   0  -6  436.46   15.40
   3   0   6  428.46   15.90
  -4   0  -6  815.42   28.00
  -4   0  -6  820.22   28.20
  -4   0  -6  835.52   29.10
   4   0   6  864.41   28.80
  -5   0  -6   12.80    2.70
  -5   0  -6   14.90    3.10
  -5   0  -6   15.70    2.70
   5   0   6   11.20    2.50
  -6   0  -6   12.90    3.20
  -6   0  -6   14.30    2.90
  -6   0  -6    5.80    2.10
   6   0   6   16.50    3.50
   6   0   6    9.80    2.70
  -7   0  -6   17.90    4.10
  -7   0  -6   30.00    4.10
   7   0   6   34.00    5.10
   7   0   6   21.20    4.20
   7   0   6   33.00    5.20
  -8   0  -6    9.60    3.10
  -8   0  -6   15.10    4.30
   8   0   6   14.00    3.80
   8   0   6   12.30    3.90
   8   0   6   14.50    4.30
  -9   0  -6    4.80    3.70
  -9   0  -6   -0.30    2.70
   9   0   6    1.70    3.10
   9   0   6    1.50    3.30
   9   0   6    3.60    3.70
   9   0   6    2.80    2.80
 -10   0  -6    5.00    4.00
  10   0   6    8.10    4.00
  10   0   6   15.80    4.50
  10   0   6   13.80    5.50
 -11   0  -6    4.50    5.00
  11   0   6   22.10    6.70
  11   0   6   20.90    5.60
  11   0   6   25.40    5.60
  10  -1  -6  103.49   11.90
  10  -1  -6   98.49   10.60
   9  -1  -6    4.30    4.70
   9  -1  -6   -1.60    4.00
   8  -1  -6   42.50    6.40
   8  -1  -6   51.99    7.70
   7  -1  -6  277.67   14.70
   7  -1  -6  266.47   13.70
   6  -1  -6   60.69    6.60
   6  -1  -6   51.89    6.80
   5  -1  -6  138.49    9.20
   5  -1  -6  143.09    8.30
   4  -1  -6  106.99    7.40
   4  -1  -6  104.79    6.60
   3  -1  -6  512.15   19.30
   3  -1  -6  501.25   18.40
   2  -1  -6   44.30    4.40
   2  -1  -6   53.99    3.90
   2  -1  -6   41.40    4.30
  -2   1   6   51.79    2.50
   1  -1  -6  507.85   18.00
   1  -1  -6  495.15   18.30
   1  -1  -6  508.25   17.50
  -1   1   6  502.75   16.90
   0  -1  -6  258.07   10.10
   0  -1  -6  259.27    9.80
   0  -1  -6  268.77   10.60
   0   1   6  258.57    9.80
  -1  -1  -6  752.52   25.20
  -1  -1  -6  725.53   24.30
   1   1   6  731.93   24.80
  -2  -1  -6  561.04   20.00
  -2  -1  -6  550.64   20.20
  -2  -1  -6  557.84   17.90
  -2  -1  -6  577.74   17.90
   2   1   6  555.04   19.70
  -3  -1  -6  354.86   12.70
  -3  -1  -6  366.26   14.00
  -3  -1  -6  358.76   12.60
   3   1   6  348.67   13.80
   3   1   6  340.67   13.10
  -4  -1  -6  190.28    8.30
  -4  -1  -6  190.88    8.30
  -4  -1  -6  174.68    8.60
   4   1   6  174.08    8.80
   4   1   6  203.18    8.70
  -5  -1  -6  284.57   11.50
  -5  -1  -6  257.97   11.60
  -5  -1  -6  267.37   11.50
   5   1   6  272.57   11.90
   5   1   6  291.87   12.30
  -6  -1  -6   17.30    3.00
  -6  -1  -6   12.00    2.90
   6   1   6   12.20    3.30
   6   1   6   12.10    3.10
   6   1   6   10.40    2.80
  -7  -1  -6   75.69    7.10
  -7  -1  -6   72.89    5.30
   7   1   6   63.89    6.40
   7   1   6   56.19    5.90
   7   1   6   75.69    7.10
  -8  -1  -6   32.30    5.40
  -8  -1  -6   35.60    4.30
   8   1   6   36.80    5.70
   8   1   6   29.20    4.80
   8   1   6   43.20    5.30
  -9  -1  -6  258.47   14.20
  -9  -1  -6  261.57   11.80
   9   1   6  281.47   13.80
   9   1   6  256.57   12.80
   9   1   6  249.18   14.10
 -10  -1  -6   12.90    4.90
  10   1   6   15.40    5.20
  10   1   6   16.80    4.80
  10   1   6   16.60    4.70
 -11  -1  -6   28.00    6.50
  11   1   6   27.10    5.70
  11   1   6   22.10    6.60
  11   1   6   29.20    5.70
  12   1   6   38.20    7.10
  12   1   6   47.50    9.20
  12   1   6   44.40    8.30
  10  -2  -6    3.90    5.40
  10  -2  -6    0.20    6.30
   9  -2  -6   71.09    8.50
   9  -2  -6   43.20    8.00
   8  -2  -6  117.69    9.40
   8  -2  -6   91.39    9.80
   7  -2  -6  129.59    9.00
   7  -2  -6  134.29   10.30
   6  -2  -6  157.38    9.20
   6  -2  -6  150.98   10.20
   5  -2  -6   20.50    3.70
   5  -2  -6   14.70    3.90
   4  -2  -6   97.49    6.20
   4  -2  -6  105.49    7.30
   3  -2  -6  397.26   14.90
   3  -2  -6  397.86   15.90
   2  -2  -6  124.79    6.70
   2  -2  -6  132.09    7.00
   2  -2  -6  120.59    6.00
  -2   2   6  137.99    5.20
   1  -2  -6  139.79    7.10
   1  -2  -6  154.48    7.10
   1  -2  -6  155.88    6.40
  -1   2   6  151.98    6.10
   0  -2  -6  629.44   20.90
   0  -2  -6  610.74   21.50
   0  -2  -6  623.44   20.30
   0   2   6  604.24   20.80
  -1  -2  -6  137.39    6.70
  -1  -2  -6  141.19    5.80
   1   2   6  149.19    6.70
  -2  -2  -6 1886.41   59.79
  -2  -2  -6 1876.91   58.19
  -2  -2  -6 1855.21   58.09
   2   2   6 1828.62   59.69
  -3  -2  -6  599.04   20.20
  -3  -2  -6  583.24   20.10
   3   2   6  572.14   21.10
   3   2   6  615.74   20.70
  -4  -2  -6  254.47   10.50
  -4  -2  -6  264.17   10.80
   4   2   6  279.17   11.20
   4   2   6  261.47   11.30
  -5  -2  -6   65.99    4.80
  -5  -2  -6   71.59    4.90
  -5  -2  -6   67.29    5.10
   5   2   6   70.19    5.20
   5   2   6   72.39    5.60
   5   2   6   68.59    5.00
  -6  -2  -6  219.68   10.50
  -6  -2  -6  204.68    9.50
   6   2   6  199.68   10.20
   6   2   6  215.38   10.50
   6   2   6  217.98    9.20
   6   2   6  216.68   10.40
  -7  -2  -6  420.76   18.30
  -7  -2  -6  464.85   17.20
   7   2   6  454.95   18.60
   7   2   6  461.05   18.70
   7   2   6  464.15   17.20
  -8  -2  -6   74.09    7.40
  -8  -2  -6   59.39    4.90
   8   2   6   60.39    6.50
   8   2   6   49.90    6.40
   8   2   6   61.99    6.00
  -9  -2  -6   51.79    6.90
   9   2   6   56.49    6.20
   9   2   6   43.90    6.00
   9   2   6   35.20    6.40
 -10  -2  -6   70.99    8.60
  10   2   6   58.49    8.00
  10   2   6   54.49    6.80
  10   2   6   49.40    6.70
 -11  -2  -6   36.80    6.80
  11   2   6   35.20    7.00
  11   2   6   51.39    7.00
  11   2   6   37.10    6.40
  12   2   6   88.29   11.40
  12   2   6   58.29    8.10
  12   2   6   68.89    8.60
  10  -3  -6   44.50    9.40
  10  -3  -6   52.59    8.50
   9  -3  -6   21.50    5.70
   9  -3  -6   21.20    6.80
   8  -3  -6   39.60    6.30
   8  -3  -6   49.99    8.20
   7  -3  -6   56.09    7.90
   7  -3  -6   66.09    7.10
   6  -3  -6   13.50    3.80
   6  -3  -6   13.90    4.60
   5  -3  -6   42.80    4.90
   5  -3  -6   38.90    5.50
   4  -3  -6  220.88   10.00
   4  -3  -6  230.78   11.50
   3  -3  -6   70.09    4.60
   3  -3  -6   69.89    5.70
  -3   3   6   68.79    3.50
   2  -3  -6   28.00    2.80
   2  -3  -6   19.60    3.10
   2  -3  -6   25.80    3.60
  -2   3   6   23.20    2.30
   1  -3  -6  501.65   16.80
   1  -3  -6  506.05   17.90
   1  -3  -6  485.35   18.00
  -1   3   6  507.95   17.20
   0  -3  -6  814.02   26.70
   0  -3  -6  822.32   25.80
   0  -3  -6  806.72   27.20
   0   3   6  791.22   26.80
  -1  -3  -6  647.04   21.10
  -1  -3  -6  646.84   22.20
   1   3   6  654.23   22.30
  -2  -3  -6 2215.18   68.39
  -2  -3  -6 2199.18   69.29
  -2  -3  -6 2163.48   68.19
   2   3   6 2135.99   69.49
  -3  -3  -6  355.26   12.90
  -3  -3  -6  350.46   13.00
   3   3   6  351.56   13.80
  -4  -3  -6  221.68    9.40
  -4  -3  -6  234.28    9.80
   4   3   6  221.18    9.30
   4   3   6  223.48    7.90
   4   3   6  222.48   10.00
  -5  -3  -6  188.68    8.90
  -5  -3  -6  188.28    9.10
   5   3   6  201.58    9.00
   5   3   6  191.28    7.50
   5   3   6  185.58    9.40
  -6  -3  -6  164.08    9.00
   6   3   6  179.18    7.60
   6   3   6  183.68    9.40
   6   3   6  167.88    9.00
  -7  -3  -6  143.29    8.90
   7   3   6  144.59    7.40
   7   3   6  164.18    9.10
   7   3   6  147.19    8.80
  -8  -3  -6   72.99    7.60
   8   3   6   53.89    6.30
   8   3   6   54.29    6.60
   8   3   6   67.89    5.40
  -9  -3  -6   13.40    4.30
   9   3   6   10.50    3.90
   9   3   6   14.90    4.00
   9   3   6    9.40    4.10
 -10  -3  -6   49.40    7.20
  10   3   6   50.99    7.20
  10   3   6   45.90    6.30
  10   3   6   53.49    6.50
 -11  -3  -6   23.50    6.00
  11   3   6   18.80    4.80
  11   3   6   21.10    5.10
  11   3   6   24.10    6.10
  12   3   6   37.10    6.90
  12   3   6   32.40    7.70
   9  -4  -6   19.60    5.60
   9  -4  -6   16.80    6.40
   8  -4  -6   12.40    5.20
   8  -4  -6   14.40    4.90
   7  -4  -6   22.90    4.70
   7  -4  -6   19.80    5.60
   6  -4  -6   30.10    5.90
   6  -4  -6   31.50    4.80
   5  -4  -6    2.10    2.50
   5  -4  -6    2.20    3.10
   4  -4  -6   24.30    4.60
   4  -4  -6   27.80    3.70
   3  -4  -6   59.19    4.20
   3  -4  -6   67.59    5.70
  -3   4   6   68.99    3.90
   2  -4  -6   72.09    5.40
   2  -4  -6   74.49    4.00
  -2   4   6   69.09    4.00
   1  -4  -6  627.34   21.80
   1  -4  -6  617.34   21.70
   1  -4  -6  622.64   20.20
  -1   4   6  625.54   21.20
   0  -4  -6  357.06   12.90
   0  -4  -6  362.06   13.30
   0   4   6  352.36   13.30
  -1  -4  -6  194.78    8.20
  -1  -4  -6  197.68    7.30
  -1  -4  -6  198.28    7.20
  -1  -4  -6  191.78    7.20
   1   4   6  191.88    8.50
  -2  -4  -6   56.79    4.00
  -2  -4  -6   56.79    3.60
  -2  -4  -6   62.19    3.80
   2   4   6   63.09    4.60
   2   4   6   60.89    3.00
  -3  -4  -6  189.78    8.10
  -3  -4  -6  187.98    8.20
  -3  -4  -6  181.68    8.00
   3   4   6  192.58    8.80
   3   4   6  180.18    7.30
  -4  -4  -6   16.50    2.80
  -4  -4  -6   10.70    2.20
   4   4   6   16.90    3.30
   4   4   6   16.00    2.50
  -5  -4  -6  133.09    7.70
  -5  -4  -6  146.29    7.60
   5   4   6  145.99    8.10
   5   4   6  150.08    7.40
   5   4   6  147.39    5.70
  -6  -4  -6   88.99    6.60
   6   4   6   94.39    6.20
   6   4   6  100.99    4.90
   6   4   6   87.79    6.70
  -7  -4  -6   85.09    6.80
   7   4   6   67.49    6.70
   7   4   6   77.39    6.40
   7   4   6   85.29    5.00
  -8  -4  -6   29.50    4.90
   8   4   6   38.60    5.60
   8   4   6   37.80    4.30
   8   4   6   38.00    5.60
  -9  -4  -6   85.39    8.60
   9   4   6   93.39    6.50
   9   4   6   92.49    8.50
   9   4   6   93.99    9.20
 -10  -4  -6    0.80    3.70
  10   4   6   -0.50    3.70
  10   4   6    4.50    3.00
  10   4   6    5.30    3.80
 -11  -4  -6   68.09    8.90
  11   4   6   65.09    8.00
  11   4   6   68.89    9.20
  12   4   6    4.50    4.70
  12   4   6    1.70    5.50
   9  -5  -6    2.70    6.10
   9  -5  -6    6.40    4.70
   8  -5  -6   44.80    6.60
   8  -5  -6   45.50    8.00
   7  -5  -6   19.60    4.60
   7  -5  -6   28.60    6.40
   6  -5  -6   29.80    6.10
   6  -5  -6   25.00    4.40
   5  -5  -6   59.99    7.00
   5  -5  -6   69.89    6.20
   4  -5  -6   21.10    3.40
   4  -5  -6   16.10    4.40
   3  -5  -6  328.07   12.50
   3  -5  -6  325.27   14.20
  -3   5   6  332.07   12.40
   2  -5  -6    9.50    2.60
   2  -5  -6   12.20    1.90
  -2   5   6    8.50    2.20
   1  -5  -6  127.29    6.70
   1  -5  -6  131.99    4.90
   1  -5  -6  123.79    6.30
   1  -5  -6  130.09    5.10
  -1   5   6  125.19    6.40
   0  -5  -6   57.39    3.80
   0  -5  -6   59.59    3.30
   0  -5  -6   58.59    3.90
   0   5   6   53.49    4.30
  -1  -5  -6  355.66   12.90
  -1  -5  -6  373.16   13.20
  -1  -5  -6  361.56   12.50
   1   5   6  356.76   14.00
  -2  -5  -6  208.68    8.40
  -2  -5  -6  203.98    8.60
  -2  -5  -6  202.78    8.40
   2   5   6  203.98    7.00
   2   5   6  207.28    9.40
  -3  -5  -6  191.48    8.70
  -3  -5  -6  199.88    8.90
  -3  -5  -6  210.78    8.60
   3   5   6  203.18    9.50
   3   5   6  209.78    7.80
  -4  -5  -6   29.30    3.50
  -4  -5  -6   41.90    3.90
   4   5   6   34.70    3.30
   4   5   6   29.30    3.90
  -5  -5  -6   62.79    5.20
   5   5   6   64.29    5.90
   5   5   6   60.59    4.50
   5   5   6   62.49    2.80
  -6  -5  -6   69.19    6.40
   6   5   6   55.69    5.40
   6   5   6   61.09    3.60
   6   5   6   68.69    6.50
  -7  -5  -6   23.70    4.20
   7   5   6   37.70    5.10
   7   5   6   22.00    4.20
   7   5   6   29.10    3.30
  -8  -5  -6   74.19    7.30
   8   5   6   77.29    7.50
   8   5   6   88.39    8.10
   8   5   6   80.69    5.40
  -9  -5  -6    5.60    3.40
   9   5   6    8.60    3.90
   9   5   6    0.00    3.20
   9   5   6    9.50    3.10
 -10  -5  -6   83.99    8.70
  10   5   6   86.09    8.60
  10   5   6   82.99    9.20
  11   5   6   30.70    5.70
  11   5   6   44.50    7.40
  12   5   6   27.60    7.30
  12   5   6   34.00    6.70
   9  -6  -6   -2.00    4.30
   9  -6  -6   -1.60    6.30
   8  -6  -6    9.10    5.90
   8  -6  -6   10.10    4.80
   7  -6  -6    1.40    3.50
   7  -6  -6    4.10    4.70
   6  -6  -6   52.29    5.80
   6  -6  -6   38.30    6.30
   5  -6  -6    8.40    3.00
   5  -6  -6   -0.60    3.30
   4  -6  -6    9.40    3.80
   4  -6  -6    8.90    2.60
   4  -6  -6    7.10    1.60
   3  -6  -6   57.89    3.60
   3  -6  -6   75.79    6.80
   3  -6  -6   63.29    4.20
  -3   6   6   56.99    4.50
   2  -6  -6   91.59    4.70
   2  -6  -6   94.49    6.30
   2  -6  -6   92.19    4.50
  -2   6   6   82.09    5.30
   1  -6  -6  139.79    7.00
   1  -6  -6  126.29    6.10
   1  -6  -6  142.29    5.00
  -1   6   6  134.09    6.90
   0  -6  -6   31.40    3.10
   0  -6  -6   36.50    3.50
   0  -6  -6   37.60    3.30
   0   6   6   40.30    4.10
  -1  -6  -6   26.50    2.50
  -1  -6  -6   21.60    2.50
  -1  -6  -6   17.80    2.50
   1   6   6   16.20    3.00
  -2  -6  -6   54.09    2.60
  -2  -6  -6   59.19    3.60
  -2  -6  -6   51.59    4.10
   2   6   6   59.89    4.70
  -3  -6  -6  166.78    7.40
  -3  -6  -6  175.68    8.30
   3   6   6  175.68    6.70
   3   6   6  170.58    8.70
  -4  -6  -6   65.29    5.10
  -4  -6  -6   59.59    4.70
   4   6   6   76.19    5.80
   4   6   6   68.29    4.10
  -5  -6  -6  167.88    9.00
   5   6   6  164.58    8.00
   5   6   6  174.78    9.30
  -6  -6  -6   33.50    4.50
   6   6   6   47.10    5.60
   6   6   6   41.30    2.80
   6   6   6   37.60    4.50
  -7  -6  -6  106.29    7.80
   7   6   6  111.49    5.50
   7   6   6  104.49    7.10
   7   6   6   92.29    7.50
  -8  -6  -6   77.99    7.80
   8   6   6   71.19    7.30
   8   6   6   71.99    7.40
   8   6   6   64.49    5.00
  -9  -6  -6   20.90    4.80
   9   6   6   46.30    6.40
   9   6   6   33.20    5.70
 -10  -6  -6   23.70    5.40
  10   6   6   19.80    5.10
  10   6   6   12.00    4.70
  11   6   6   15.80    5.30
  11   6   6   19.10    6.10
  12   6   6    1.80    5.30
  12   6   6    0.20    4.60
   8  -7  -6    3.40    4.10
   8  -7  -6    9.40    5.90
   7  -7  -6   15.70    5.70
   7  -7  -6   10.40    4.10
   6  -7  -6   27.70    4.70
   6  -7  -6   19.00    5.50
   5  -7  -6   94.99    5.20
   5  -7  -6  100.19    6.70
   5  -7  -6   88.39    8.80
   4  -7  -6   68.49    4.60
   4  -7  -6   78.69    7.80
   4  -7  -6   79.09    5.40
   3  -7  -6  116.49    6.10
   3  -7  -6  122.49    6.20
   3  -7  -6  128.89    8.20
  -3   7   6  116.59    6.90
   2  -7  -6  119.99    7.40
   2  -7  -6  124.19    5.50
   2  -7  -6  132.29    6.50
  -2   7   6  130.89    7.20
  -2   7   6  113.49    7.20
   1  -7  -6   55.49    4.60
   1  -7  -6   54.09    2.50
   1  -7  -6   50.59    4.10
  -1   7   6   51.19    4.90
   0  -7  -6    9.70    2.30
   0  -7  -6    4.70    2.00
   0   7   6    5.20    2.50
  -1  -7  -6   70.99    4.90
  -1  -7  -6   64.89    3.70
   1   7   6   68.59    5.30
  -2  -7  -6  253.87   11.00
  -2  -7  -6  258.97    9.60
   2   7   6  259.27   11.70
  -3  -7  -6    8.90    1.80
  -3  -7  -6    9.20    2.40
   3   7   6    5.70    1.50
   3   7   6   10.90    3.20
  -4  -7  -6   85.79    6.10
   4   7   6   93.29    4.90
   4   7   6   89.79    6.60
  -5  -7  -6   96.59    6.80
   5   7   6   91.69    5.50
   5   7   6   91.59    6.90
  -6  -7  -6   54.39    6.00
   6   7   6   42.40    4.80
   6   7   6   46.30    5.60
  -7  -7  -6   79.79    7.60
   7   7   6   76.79    6.30
   7   7   6   73.39    7.30
  -8  -7  -6   12.40    4.00
   8   7   6   18.80    4.50
   8   7   6   17.90    4.10
  -9  -7  -6  132.09   10.10
   9   7   6  127.79    9.40
   9   7   6  127.59    9.20
 -10  -7  -6   75.69    8.80
  10   7   6   66.39    8.00
  10   7   6   67.19    8.10
  11   7   6   66.69    8.60
  11   7   6   58.99    8.40
   8  -8  -6   14.50    6.70
   7  -8  -6    9.70    5.90
   7  -8  -6   10.40    4.20
   6  -8  -6   26.10    4.80
   6  -8  -6   35.80    6.70
   5  -8  -6   66.99    5.10
   5  -8  -6   72.29    6.40
   5  -8  -6   73.59    8.40
   4  -8  -6    7.90    2.80
   4  -8  -6    7.00    3.80
   4  -8  -6    4.30    2.20
   3  -8  -6   28.80    3.40
   3  -8  -6   26.00    4.70
   3  -8  -6   24.60    3.40
  -3   8   6   31.30    4.20
   2  -8  -6   56.19    5.90
   2  -8  -6   58.49    3.60
   2  -8  -6   52.09    4.60
  -2   8   6   66.19    6.10
   1  -8  -6   36.90    2.20
   1  -8  -6   38.10    4.00
  -1   8   6   36.20    4.60
   0  -8  -6  201.98    9.50
   0   8   6  208.68   10.10
  -1  -8  -6  297.27   12.50
  -1  -8  -6  301.07   10.60
   1   8   6  288.37   13.00
  -2  -8  -6  758.12   27.50
  -2  -8  -6  788.82   25.40
   2   8   6  789.22   28.30
  -3  -8  -6   70.99    3.90
  -3  -8  -6   60.39    5.20
   3   8   6   65.79    3.60
   3   8   6   76.89    6.20
  -4  -8  -6  198.18   10.20
  -4  -8  -6  194.38    8.40
   4   8   6  216.68   10.80
   4   8   6  207.28    8.40
  -5  -8  -6   34.70    4.90
   5   8   6   31.10    3.70
   5   8   6   27.70    4.50
  -6  -8  -6  120.89    8.30
   6   8   6  113.69    7.00
   6   8   6  121.99    8.60
  -7  -8  -6   96.49    7.90
   7   8   6   93.99    8.60
   7   8   6   87.69    6.70
  -8  -8  -6    4.00    3.30
   8   8   6    4.90    3.30
   8   8   6   -1.00    3.20
  -9  -8  -6   22.90    5.40
   9   8   6    2.90    3.80
   9   8   6    8.30    4.00
 -10  -8  -6   17.40    5.30
  10   8   6    8.90    4.40
  10   8   6   11.90    4.90
  11   8   6   22.30    6.10
  11   8   6   24.80    6.40
   7  -9  -6   52.49    9.00
   6  -9  -6   16.70    5.50
   6  -9  -6   15.40    3.20
   5  -9  -6   96.69    6.40
   5  -9  -6   97.89    9.40
   4  -9  -6   -0.70    1.90
   4  -9  -6   -0.60    3.30
   3  -9  -6   20.80    4.60
   3  -9  -6   28.90    5.10
   3  -9  -6   23.40    3.70
   2  -9  -6   64.09    5.50
  -2   9   6   52.49    5.80
   1  -9  -6  266.97   11.80
  -1   9   6  257.47   14.90
  -1   9   6  270.37   12.50
   0  -9  -6  157.38    8.50
   0   9   6  155.58    8.90
  -1  -9  -6  714.13   25.50
   1   9   6  679.93   26.00
  -2  -9  -6   77.69    6.00
  -2  -9  -6   78.09    3.50
   2   9   6   71.79    7.00
  -3  -9  -6  170.28    9.50
  -3  -9  -6  172.38    6.70
   3   9   6  165.98    6.90
   3   9   6  186.38   10.10
  -4  -9  -6   90.09    7.00
  -4  -9  -6  101.59    5.00
   4   9   6  105.49    7.70
   4   9   6   95.59    5.30
  -5  -9  -6  318.37   14.40
   5   9   6  303.47   14.50
   5   9   6  293.97   12.20
  -6  -9  -6  183.98   10.60
   6   9   6  165.68   10.50
   6   9   6  179.08    9.00
  -7  -9  -6   13.50    3.90
   7   9   6   13.50    3.50
   7   9   6   15.10    4.40
  -8  -9  -6   26.00    5.00
   8   9   6   27.20    5.40
   8   9   6   18.50    4.50
  -9  -9  -6   10.90    4.20
   9   9   6   20.40    5.30
   9   9   6   14.40    4.50
  10   9   6   10.10    4.70
  10   9   6    8.40    4.80
  11   9   6   19.20    6.10
  11   9   6   33.90    7.00
   7 -10  -6   11.40    6.30
   6 -10  -6    9.90    5.70
   6 -10  -6    9.70    3.40
   5 -10  -6   17.00    3.70
   5 -10  -6   13.10    5.10
   4 -10  -6   24.00    5.40
   4 -10  -6   18.00    3.80
   3 -10  -6  290.07   13.40
   3 -10  -6  313.67   15.00
   2 -10  -6  428.36   17.00
  -2  10   6  394.16   17.50
   1 -10  -6   23.20    4.00
  -1  10   6   23.80    4.60
   0 -10  -6   60.89    5.90
   0  10   6   60.09    6.50
  -1 -10  -6  138.59    8.50
   1  10   6  156.48    9.30
  -2 -10  -6   56.39    5.80
   2  10   6   55.89    6.40
  -3 -10  -6  223.18   11.20
   3  10   6  214.08   11.70
   3  10   6  211.48    8.30
  -4 -10  -6   55.29    6.30
   4  10   6   56.79    6.60
   4  10   6   50.89    3.90
  -5 -10  -6  132.09    9.00
  -5 -10  -6  139.19    6.60
   5  10   6  147.09    9.70
   5  10   6  146.19    7.40
  -6 -10  -6   63.99    7.30
   6  10   6   66.39    7.70
   6  10   6   60.99    5.70
  -7 -10  -6   24.80    4.90
   7  10   6   28.60    4.70
   7  10   6   29.60    5.80
  -8 -10  -6   13.80    4.30
   8  10   6    0.50    3.20
   8  10   6   11.40    4.40
  -9 -10  -6   65.29    8.60
   9  10   6   58.09    7.10
   9  10   6   54.39    7.70
  10  10   6   10.40    4.60
  10  10   6    1.90    4.50
  11  10   6   -0.50    5.30
  11  10   6   -4.50    4.40
   6 -11  -6   36.20    5.10
   6 -11  -6   50.29    8.50
   5 -11  -6   14.00    5.50
   5 -11  -6    4.80    3.30
   4 -11  -6   73.09    8.60
   4 -11  -6   73.69    6.90
   3 -11  -6  109.19    7.90
   2 -11  -6   20.40    4.00
  -2  11   6   14.40    4.30
   1 -11  -6   23.40    4.40
  -1  11   6   14.30    4.10
   0 -11  -6  142.39    8.90
   0  11   6  136.99    9.40
  -1 -11  -6   -4.60    2.10
   1  11   6    3.00    3.20
  -2 -11  -6  118.09    8.20
   2  11   6  107.29    8.20
  -3 -11  -6  129.69    8.70
   3  11   6  135.49    9.30
  -4 -11  -6    4.60    2.70
   4  11   6    6.90    2.30
   4  11   6   -1.00    3.10
  -5 -11  -6   46.50    6.20
   5  11   6   43.00    4.50
   5  11   6   35.00    5.80
  -6 -11  -6   56.19    7.30
   6  11   6   65.29    6.00
   6  11   6   65.49    7.60
  -7 -11  -6   13.50    4.30
   7  11   6    6.80    4.20
   7  11   6   16.70    3.90
  -8 -11  -6   92.79    9.90
   8  11   6   90.19    9.50
   8  11   6   89.79    8.40
  -9 -11  -6   11.10    4.40
   9  11   6   16.00    4.80
   9  11   6    6.00    5.00
  10  11   6    5.50    4.60
  10  11   6    0.20    4.40
   5 -12  -6   15.40    6.40
   5 -12  -6   14.20    4.60
   4 -12  -6   86.39    9.50
   4 -12  -6   68.09    7.00
   3 -12  -6   17.90    4.10
   2 -12  -6   54.89    6.20
  -2  12   6   59.99    7.40
   1 -12  -6   15.90    4.20
  -1  12   6   17.70    4.60
   0 -12  -6   23.20    4.40
   0  12   6   10.90    4.30
  -1 -12  -6   31.10    4.90
   1  12   6   19.90    4.90
   1  12   6   23.30    4.50
  -2 -12  -6  173.48   10.60
   2  12   6  170.28   10.90
  -3 -12  -6  125.19    9.10
   3  12   6  132.89    9.70
  -4 -12  -6   62.29    7.50
   4  12   6   50.09    7.10
  -5 -12  -6   12.50    3.90
   5  12   6    6.50    4.10
  -6 -12  -6   65.09    8.10
   6  12   6   65.59    8.60
   6  12   6   77.99    7.50
  -7 -12  -6    3.50    3.40
   7  12   6   11.00    3.90
   7  12   6    8.40    4.90
  -8 -12  -6   18.20    5.50
   8  12   6    6.20    4.60
   8  12   6    8.40    3.80
   9  12   6    5.70    4.10
   9  12   6    6.30    5.30
  10  12   6   13.00    6.60
  10  12   6   19.80    5.80
   4 -13  -6   12.20    4.50
   4 -13  -6   11.40    5.80
   3 -13  -6   24.80    5.00
   2 -13  -6   40.20    5.80
   1 -13  -6   41.80    6.10
  -1  13   6   40.90    6.70
   0 -13  -6   27.90    5.50
   0  13   6   20.80    5.20
  -1 -13  -6    7.10    3.50
   1  13   6    5.50    4.00
  -2 -13  -6    9.70    3.90
   2  13   6   21.60    4.90
   2  13   6   11.20    4.50
  -3 -13  -6   24.60    4.80
   3  13   6   44.00    6.60
  -4 -13  -6   21.30    4.70
   4  13   6   14.70    4.70
  -5 -13  -6   29.40    5.90
   5  13   6   32.40    6.40
  -6 -13  -6    6.90    4.00
   6  13   6    7.40    4.50
  -7 -13  -6   26.00    5.90
   7  13   6   36.80    7.20
  -8 -13  -6   10.30    4.90
   8  13   6   15.60    6.10
   9  13   6    9.80    6.30
   3 -14  -6   39.80    6.40
   2 -14  -6   24.80    5.50
   1 -14  -6   -0.30    3.60
  -1  14   6    9.80    4.70
   0 -14  -6   10.50    4.30
   0  14   6   11.60    5.00
  -1 -14  -6   17.20    4.80
   1  14   6   13.50    5.30
  -2 -14  -6  152.28   10.80
   2  14   6  134.09   10.90
   2  14   6  153.28   11.40
  -3 -14  -6   20.40    5.40
   3  14   6   17.60    5.80
   3  14   6   11.00    4.30
  -4 -14  -6    7.70    3.90
   4  14   6    7.60    4.70
  -5 -14  -6   61.39    8.20
   5  14   6   63.69    8.80
  -6 -14  -6   16.50    5.20
   6  14   6   19.80    6.00
  -7 -14  -6   12.70    5.10
   7  14   6   10.10    5.70
   8  14   6    8.00    6.10
   2 -15  -6   19.80    5.60
   1 -15  -6    4.50    4.70
   0 -15  -6   26.50    6.30
   0  15   6   21.40    6.10
  -1 -15  -6   61.19    8.20
   1  15   6   62.89    9.20
  -2 -15  -6    2.00    3.80
   2  15   6   -0.30    4.70
   2  15   6    3.40    4.60
  -3 -15  -6   37.80    6.80
   3  15   6   34.20    7.30
   3  15   6   36.30    6.90
  -4 -15  -6   22.70    5.90
   4  15   6   17.80    5.10
   4  15   6   20.30    6.40
  -5 -15  -6   34.10    6.40
   5  15   6   32.80    7.50
   5  15   6   27.90    6.40
  -6 -15  -6    3.20    4.30
   6  15   6    2.60    5.30
   7  15   6   41.90    8.80
   0 -16  -6   52.19    8.40
   0  16   6   48.40    9.00
  -1 -16  -6   12.10    5.20
   1  16   6    1.00    5.20
  -2 -16  -6    9.30    5.00
   2  16   6   18.10    6.50
  -3 -16  -6    4.70    4.90
   3  16   6    8.60    5.00
   3  16   6   -2.10    5.30
  -4 -16  -6   15.30    5.70
   4  16   6   15.70    6.40
   4  16   6   19.40    6.00
  -5 -16  -6    0.80    4.70
   5  16   6    2.70    4.70
   5  16   6    6.80    6.30
   1  14  -7   10.30    5.50
   0  14  -7   12.40    6.40
   4  13  -7   14.90    6.60
   3  13  -7   81.59    9.40
   3  13  -7   84.99   10.70
   2  13  -7   17.10    5.10
   1  13  -7    9.90    5.00
   0  13  -7    4.40    4.60
  -1  13  -7    0.00    4.30
  -2  13  -7   13.80    6.10
  -2  13  -7   11.70    3.50
  -3  13  -7   13.80    6.80
  -3  13  -7   17.40    4.50
   6  12  -7   15.60    7.40
   5  12  -7    9.00    6.20
   4  12  -7   10.50    5.90
   4  12  -7   16.30    6.10
   3  12  -7   47.10    6.90
   3  12  -7   58.49    8.40
   2  12  -7   31.80    6.00
   1  12  -7   17.20    5.10
   0  12  -7   10.50    4.70
  -1  12  -7   26.30    6.50
  -2  12  -7   14.20    3.30
  -2  12  -7   13.00    5.50
  -3  12  -7   62.19    9.30
  -3  12  -7   58.99    6.20
  -4  12  -7   43.90    6.30
  -4  12  -7   46.40    8.80
   7  11  -7  141.29   13.90
   6  11  -7   80.59   11.10
   5  11  -7   14.50    5.90
   4  11  -7   44.50    7.70
   4  11  -7   56.89    6.90
   3  11  -7   60.69    7.30
   3  11  -7   53.19    8.10
   2  11  -7   51.99    8.00
   2  11  -7   57.19    7.30
   2  11  -7   55.69    5.80
   1  11  -7   14.30    4.60
   1  11  -7    5.70    3.10
   0  11  -7   54.29    5.90
   0  11  -7   53.99    7.40
  -1  11  -7   62.09    6.20
  -1  11  -7   47.90    7.60
  -2  11  -7   15.10    3.70
  -2  11  -7    7.30    2.60
  -2  11  -7    2.70    4.10
  -2  11  -7    6.90    2.30
  -3  11  -7   27.60    6.50
  -3  11  -7   15.90    3.70
  -3  11  -7   23.20    4.50
  -4  11  -7   11.80    5.50
  -4  11  -7    1.40    3.20
  -4  11  -7   11.10    3.90
  -5  11  -7   -2.90    4.80
  -5  11  -7    0.60    5.50
  -5  11  -7    1.00    4.00
  -6  11  -7   57.69    7.90
  -6  11  -7   45.20    9.00
   7  10  -7   72.39    9.80
   7  10  -7   56.59    9.50
   6  10  -7    3.40    5.10
   5  10  -7   47.50    7.70
   4  10  -7    5.20    3.10
   4  10  -7    4.80    4.40
   3  10  -7   18.50    4.50
   3  10  -7   19.20    5.20
   3  10  -7   20.60    4.30
   2  10  -7   65.19    8.40
   2  10  -7   57.59    5.90
   2  10  -7   57.49    7.10
   1  10  -7   48.90    6.70
   1  10  -7   55.49    5.70
   0  10  -7   46.60    5.30
   0  10  -7   47.80    6.90
  -1  10  -7   14.10    4.70
  -1  10  -7    9.10    3.10
  -2  10  -7   20.80    4.10
  -2  10  -7   18.00    2.90
  -2  10  -7   15.50    4.90
  -2  10  -7   15.40    2.60
  -3  10  -7    6.00    3.20
  -3  10  -7    2.20    2.40
  -3  10  -7    5.40    4.40
  -4  10  -7   73.09    7.00
  -4  10  -7   70.29    9.30
  -4  10  -7   62.09    6.80
  -5  10  -7   14.20    4.30
  -5  10  -7   22.20    4.80
  -5  10  -7   13.80    5.90
  -6  10  -7   38.90    7.80
  -6  10  -7   45.30    6.60
  -6  10  -7   47.40    7.10
  -7  10  -7   44.30    8.60
  -7  10  -7   46.10    7.50
  -7  10  -7   41.20    7.10
   8   9  -7   36.00    7.90
   8   9  -7   50.49    9.30
   7   9  -7   34.40    7.80
   7   9  -7   49.20    8.30
   6   9  -7   21.80    6.20
   6   9  -7   17.50    5.60
   5   9  -7    2.10    4.50
   5   9  -7    9.10    4.30
   4   9  -7   34.20    5.20
   4   9  -7   31.90    6.10
   3   9  -7   18.70    4.40
   3   9  -7   15.60    4.50
   3   9  -7   25.00    4.40
   2   9  -7  137.69    9.80
   2   9  -7  133.19    9.20
   2   9  -7  132.39    8.10
   1   9  -7   20.50    4.80
   1   9  -7   24.50    4.20
   1   9  -7   29.70    5.70
   0   9  -7   11.40    3.10
   0   9  -7   13.90    4.10
  -1   9  -7  129.19    9.70
  -1   9  -7  128.99    8.10
  -2   9  -7  185.98    9.80
  -2   9  -7  169.98   11.50
  -2   9  -7  159.98    7.70
  -2   9  -7  183.88    8.10
  -3   9  -7   13.10    4.60
  -3   9  -7   24.90    3.70
  -3   9  -7   26.40    4.50
  -4   9  -7   15.70    5.00
  -4   9  -7   34.10    4.80
  -4   9  -7   25.90    4.80
  -5   9  -7   86.99    7.80
  -5   9  -7  103.79    8.20
  -5   9  -7  105.09   10.90
  -6   9  -7   47.50    6.70
  -6   9  -7   48.80    6.70
  -6   9  -7   54.29    8.20
  -7   9  -7   16.10    5.00
  -7   9  -7   20.20    5.50
  -7   9  -7    8.80    5.50
   8   8  -7   48.70    8.40
   8   8  -7   61.39    9.50
   7   8  -7  104.29   10.80
   7   8  -7  101.69   10.70
   6   8  -7  117.99   11.20
   6   8  -7  109.99   10.60
   5   8  -7   55.79    7.80
   5   8  -7   57.79    7.80
   4   8  -7   10.70    4.60
   4   8  -7    6.70    4.20
   4   8  -7   15.10    3.70
   3   8  -7    7.50    3.10
   3   8  -7    7.80    3.20
   3   8  -7    9.50    4.10
   2   8  -7   59.29    7.10
   2   8  -7   76.79    6.20
   2   8  -7   68.69    7.00
   1   8  -7  221.68   10.90
   1   8  -7  218.28   11.90
   1   8  -7  216.88   12.20
   0   8  -7   18.20    4.00
   0   8  -7   16.90    3.40
  -1   8  -7   39.60    5.80
  -1   8  -7   54.99    5.70
  -2   8  -7   90.79    6.70
  -2   8  -7   84.69    8.70
  -2   8  -7   74.79    4.70
  -2   8  -7   82.19    4.70
  -3   8  -7  108.29    7.70
  -3   8  -7  111.29    6.30
  -3   8  -7  100.39    8.80
  -3   8  -7  109.09    6.50
  -4   8  -7   78.69    6.40
  -4   8  -7   76.29    8.40
  -4   8  -7  102.69    7.60
  -5   8  -7   63.09    7.20
  -5   8  -7   67.49    8.60
  -5   8  -7   67.69    6.80
  -6   8  -7   34.70    5.80
  -6   8  -7   37.50    7.00
  -6   8  -7   33.60    5.20
  -7   8  -7   -2.90    3.40
  -7   8  -7   -3.50    3.70
  -8   8  -7   29.40    6.70
  -8   8  -7   28.40    7.10
   9   7  -7   13.70    6.50
   9   7  -7    9.10    6.50
   8   7  -7   88.89   10.20
   8   7  -7   83.09   10.00
   7   7  -7   89.89   10.30
   7   7  -7   84.39    9.30
   6   7  -7  119.49   10.10
   6   7  -7  142.29   10.70
   5   7  -7   30.80    5.90
   5   7  -7   33.10    6.10
   4   7  -7   13.90    4.30
   4   7  -7   16.20    4.70
   4   7  -7   14.80    3.50
   3   7  -7  479.95   19.60
   3   7  -7  490.05   21.10
   3   7  -7  504.55   19.70
   3   7  -7  471.15   20.70
   2   7  -7   23.90    4.40
   2   7  -7   25.50    5.00
   2   7  -7   26.50    4.00
   1   7  -7   69.39    5.60
   1   7  -7   59.39    6.70
   1   7  -7   64.09    6.70
   0   7  -7   39.80    5.50
   0   7  -7   36.10    4.50
  -1   7  -7    2.50    2.40
  -1   7  -7   -0.40    2.50
  -2   7  -7   58.49    6.90
  -2   7  -7   64.69    3.90
  -2   7  -7   61.49    3.70
  -2   7  -7   66.89    6.00
  -3   7  -7   41.30    5.90
  -3   7  -7   52.49    5.80
  -3   7  -7   41.30    4.10
  -3   7  -7   49.80    4.00
  -4   7  -7   92.49    6.40
  -4   7  -7   93.09    7.10
  -4   7  -7   73.19    7.90
  -5   7  -7   35.80    6.20
  -5   7  -7   46.50    5.50
  -5   7  -7   37.70    5.40
  -6   7  -7   -0.50    3.70
  -6   7  -7    7.90    3.50
  -7   7  -7    9.80    4.20
  -7   7  -7    4.00    4.10
  -8   7  -7   44.30    6.90
  -8   7  -7   33.60    6.60
  -9   7  -7    7.40    5.30
  -9   7  -7    1.90    4.80
   9   6  -7   36.80    8.50
   9   6  -7   16.30    6.90
   8   6  -7   34.00    7.20
   8   6  -7   31.20    6.80
   7   6  -7    1.70    3.50
   7   6  -7   -6.00    3.60
   6   6  -7   16.40    4.70
   6   6  -7   10.50    4.70
   5   6  -7   18.70    5.10
   5   6  -7   16.80    4.40
   4   6  -7    3.60    2.60
   4   6  -7    9.50    4.00
   4   6  -7   -1.80    3.10
   3   6  -7   18.50    4.50
   3   6  -7    9.80    3.70
   3   6  -7   20.00    3.80
   3   6  -7   12.50    3.20
   2   6  -7   -2.00    2.10
   2   6  -7    1.80    2.70
   2   6  -7   -4.50    1.70
   1   6  -7  131.39    8.50
   1   6  -7  137.49    8.30
   1   6  -7  123.49    7.50
   0   6  -7   14.60    3.40
   0   6  -7   21.00    4.20
   0   6  -7   10.50    2.80
  -1   6  -7   67.89    7.00
  -1   6  -7   60.99    5.60
  -2   6  -7  320.07   11.30
  -2   6  -7  329.97   14.00
  -2   6  -7  331.97   11.40
  -2   6  -7  296.97   14.80
  -3   6  -7  110.69    8.30
  -3   6  -7  124.29    7.90
  -3   6  -7  124.29    6.30
  -3   6  -7  123.89    6.40
  -4   6  -7    5.90    2.90
  -4   6  -7   12.80    3.90
  -4   6  -7    7.70    2.60
  -4   6  -7    8.90    2.50
  -5   6  -7  218.08   10.80
  -5   6  -7  201.28   12.00
  -6   6  -7   10.60    4.10
  -6   6  -7   13.90    3.70
  -7   6  -7   70.29    7.60
  -7   6  -7   70.99    8.70
  -8   6  -7    8.80    4.50
  -8   6  -7   17.50    5.10
  -9   6  -7   36.30    6.90
  -9   6  -7   23.80    6.00
   9   5  -7   98.19   11.00
   9   5  -7   90.09   11.20
   8   5  -7   20.90    6.50
   8   5  -7   19.50    5.80
   7   5  -7  147.29   10.80
   7   5  -7  135.79   11.00
   6   5  -7   64.79    7.70
   6   5  -7   50.99    7.10
   5   5  -7  112.49    8.70
   5   5  -7  101.69    8.50
   4   5  -7   64.29    7.50
   4   5  -7   65.99    7.00
   3   5  -7   54.69    5.60
   3   5  -7   43.90    4.90
   3   5  -7   50.59    6.30
   3   5  -7   42.90    5.50
   2   5  -7   41.90    5.50
   2   5  -7   31.80    4.40
   2   5  -7   48.70    6.00
   2   5  -7   30.30    4.10
   1   5  -7  170.48    8.70
   1   5  -7  166.38    9.20
   1   5  -7  153.48    8.90
   0   5  -7   26.80    3.90
   0   5  -7   15.40    3.40
   0   5  -7   22.60    4.10
  -1   5  -7   71.29    5.40
  -1   5  -7   64.69    6.40
  -2   5  -7    6.20    2.80
  -2   5  -7    9.60    1.20
  -2   5  -7    6.50    2.50
  -3   5  -7  105.29    5.40
  -3   5  -7  112.39    5.80
  -3   5  -7  101.59    7.80
  -3   5  -7  110.19    7.20
  -4   5  -7   43.30    5.90
  -4   5  -7   50.99    4.20
  -4   5  -7   37.50    4.10
  -4   5  -7   44.40    5.20
  -5   5  -7   73.69    7.80
  -5   5  -7   77.49    6.10
  -6   5  -7   10.20    3.40
  -6   5  -7   15.30    4.50
  -7   5  -7   60.39    6.90
  -7   5  -7   59.09    7.50
  -8   5  -7    5.70    3.90
  -8   5  -7    3.40    3.90
  -9   5  -7   65.69    8.60
  -9   5  -7   85.19    9.30
   9  -5   7   75.39    9.60
 -10   5  -7   25.60    6.10
 -10   5  -7   36.70    7.30
  10  -5   7   15.50    6.90
   9   4  -7    8.10    5.60
   9   4  -7    5.10    5.60
   8   4  -7    1.80    4.30
   8   4  -7    7.50    5.00
   7   4  -7  111.79   10.30
   7   4  -7  106.49   10.40
   6   4  -7   43.60    6.40
   6   4  -7   62.39    7.60
   5   4  -7   49.80    6.60
   5   4  -7   62.89    6.90
   4   4  -7   24.60    5.00
   4   4  -7   24.10    4.90
   3   4  -7   83.69    6.70
   3   4  -7   84.19    6.70
   3   4  -7   90.39    6.60
   2   4  -7   30.00    4.60
   2   4  -7   27.70    4.00
   2   4  -7   25.30    4.30
   2   4  -7   23.50    3.70
   1   4  -7   73.39    5.50
   1   4  -7   70.99    6.70
   1   4  -7   67.29    5.50
   1   4  -7   71.49    5.80
   0   4  -7   17.60    3.20
   0   4  -7   17.20    3.50
   0   4  -7   17.90    3.00
  -1   4  -7   16.00    3.10
  -1   4  -7   18.80    3.80
  -2   4  -7  127.49    7.10
  -2   4  -7  107.19    7.50
  -3   4  -7   39.00    3.30
  -3   4  -7   37.70    4.70
  -3   4  -7   39.70    3.10
  -3   4  -7   37.30    4.90
   3  -4   7   46.10    4.50
  -4   4  -7  180.88    8.30
  -4   4  -7  177.78    8.50
  -4   4  -7  175.88    9.60
  -4   4  -7  171.38   10.10
   4  -4   7  180.08    9.20
  -5   4  -7   26.60    3.70
  -5   4  -7   22.50    3.50
  -5   4  -7   29.10    4.80
   5  -4   7   20.70    3.80
  -6   4  -7  144.49    9.80
  -6   4  -7  157.88    9.10
  -7   4  -7   15.50    3.90
  -7   4  -7    9.50    3.80
  -8   4  -7   40.40    6.30
  -8   4  -7   48.50    6.50
  -9   4  -7    5.60    4.20
  -9   4  -7    8.30    4.30
   9  -4   7    2.70    4.50
 -10   4  -7    4.30    4.20
 -10   4  -7   16.90    5.90
  10  -4   7    6.70    6.10
  10   3  -7   34.30    8.50
  10   3  -7   24.70    7.60
   9   3  -7   49.40    8.10
   9   3  -7   40.00    8.40
   8   3  -7   85.09    9.00
   8   3  -7   88.39    9.90
   7   3  -7   74.89    9.00
   7   3  -7   81.49    8.90
   6   3  -7   14.60    4.20
   6   3  -7   15.00    5.00
   5   3  -7   21.80    4.80
   5   3  -7   16.50    4.10
   4   3  -7   24.40    4.40
   4   3  -7   26.80    5.00
   3   3  -7   64.29    6.30
   3   3  -7   56.99    5.90
   3   3  -7   39.00    4.80
   2   3  -7  188.58    9.40
   2   3  -7  180.58    9.60
   2   3  -7  178.98    9.20
   2   3  -7  177.58    9.10
   1   3  -7    7.10    2.60
   1   3  -7    5.80    2.50
   1   3  -7    6.30    2.50
   1   3  -7    2.70    2.50
   0   3  -7   45.90    5.00
   0   3  -7   69.89    5.90
   0   3  -7   54.79    5.20
  -1   3  -7  368.46   14.80
  -1   3  -7  365.76   15.40
  -2   3  -7  303.17   12.80
  -2   3  -7  290.77   13.30
  -3   3  -7   25.70    3.80
  -3   3  -7   25.70    2.50
  -3   3  -7   25.20    4.20
  -3   3  -7   21.30    2.30
  -4   3  -7   68.29    4.60
  -4   3  -7   76.89    6.30
  -4   3  -7   76.99    5.00
  -5   3  -7  164.98    8.80
  -5   3  -7  180.58    8.60
  -5   3  -7  167.28    9.90
   5  -3   7  186.18    9.60
  -6   3  -7   72.09    6.80
  -6   3  -7   70.59    7.40
   6  -3   7   75.89    7.50
  -7   3  -7   80.99    8.00
  -7   3  -7   87.19    8.00
   7  -3   7   92.79    7.80
  -8   3  -7    3.10    3.50
  -8   3  -7    3.70    3.30
   8  -3   7    6.50    3.30
  -9   3  -7   -1.60    3.40
  -9   3  -7    7.50    3.60
   9  -3   7    6.70    3.80
   9  -3   7    1.90    4.10
 -10   3  -7    7.90    4.30
 -10   3  -7    6.80    4.70
  10  -3   7    4.00    4.00
  10  -3   7    2.60    3.80
  10  -3   7    1.30    4.80
 -11   3  -7   32.10    7.50
  11  -3   7   50.29    8.10
  11  -3   7   33.20    7.60
  11  -3   7   38.30    8.80
  11  -3   7   42.60    7.90
  10   2  -7   -1.90    5.50
  10   2  -7   -2.90    5.70
   9   2  -7   54.69    8.60
   9   2  -7   58.19    8.50
   8   2  -7   11.70    4.80
   8   2  -7    5.90    4.60
   7   2  -7   31.70    6.00
   7   2  -7   35.60    6.00
   6   2  -7  298.47   14.70
   5   2  -7    0.70    3.00
   5   2  -7    2.20    3.10
   4   2  -7    9.70    3.40
   4   2  -7    5.10    2.90
   3   2  -7  283.97   12.80
   3   2  -7  289.97   13.10
   3   2  -7  303.37   13.50
   2   2  -7  293.87   12.50
   2   2  -7  273.17   12.60
   2   2  -7  283.77   12.20
   1   2  -7   34.90    4.00
   1   2  -7   46.90    4.80
   1   2  -7   44.50    4.90
   1   2  -7   47.30    4.90
   0   2  -7  334.57   14.20
   0   2  -7  346.47   13.70
   0   2  -7  359.96   14.00
   0   2  -7  325.97   13.70
  -1   2  -7   41.70    4.50
  -1   2  -7   55.39    5.10
  -2   2  -7    0.90    2.20
  -2   2  -7    0.20    1.80
  -3   2  -7  117.29    7.10
  -3   2  -7  114.69    5.00
  -3   2  -7  113.29    5.10
  -3   2  -7  111.89    7.20
  -4   2  -7  213.88    8.70
  -4   2  -7  179.18   10.10
   4  -2   7  205.98    9.50
  -5   2  -7   31.40    3.60
  -5   2  -7   34.90    4.10
  -5   2  -7   30.10    4.30
   5  -2   7   29.80    4.10
  -6   2  -7   84.59    6.80
  -6   2  -7   86.29    6.50
   6  -2   7   86.19    6.90
  -7   2  -7  160.08    9.70
  -7   2  -7  151.98    9.70
   7  -2   7  173.58   10.30
  -8   2  -7   -4.50    2.60
  -8   2  -7    2.20    3.00
   8  -2   7    3.20    2.50
  -9   2  -7   26.90    5.60
  -9   2  -7   40.00    5.80
   9  -2   7   34.30    6.60
   9  -2   7   35.70    5.60
   9  -2   7   39.40    6.30
 -10   2  -7   30.70    6.40
 -10   2  -7   34.30    6.00
  10  -2   7   22.40    5.40
  10  -2   7   27.20    6.10
  10  -2   7   31.90    6.60
  10  -2   7   31.40    6.00
 -11   2  -7   14.50    6.10
  11  -2   7    7.60    5.30
  11  -2   7   13.80    5.30
  11  -2   7   15.90    6.50
  11  -2   7   10.70    4.90
  10   1  -7   35.10    7.80
  10   1  -7   28.00    8.50
   9   1  -7  102.49   10.70
   9   1  -7   83.99   10.20
   8   1  -7   51.89    7.20
   8   1  -7   46.80    7.80
   7   1  -7   12.00    4.30
   7   1  -7   11.40    5.00
   6   1  -7   35.00    5.80
   6   1  -7   36.80    5.60
   5   1  -7  235.68   12.50
   5   1  -7  241.68   12.00
   4   1  -7  294.57   12.70
   4   1  -7  255.07   12.80
   3   1  -7  238.48   11.40
   3   1  -7  246.08   11.10
   3   1  -7  256.17   11.80
  -3  -1   7  242.78    8.30
   2   1  -7   85.79    5.60
   2   1  -7   81.59    5.90
   2   1  -7   83.39    5.90
   1   1  -7   52.49    4.80
   1   1  -7   60.99    5.40
   1   1  -7   61.09    4.90
   0   1  -7  399.56   14.90
   0   1  -7  373.86   14.60
   0   1  -7  379.26   15.00
   0   1  -7  395.06   15.50
  -1   1  -7   -0.70    1.50
  -1   1  -7    2.30    1.90
  -2   1  -7  875.01   29.60
  -2   1  -7  822.62   29.80
  -3   1  -7  151.18    8.20
  -3   1  -7  157.88    6.20
  -3   1  -7  157.18    6.30
  -3   1  -7  154.98    8.10
  -4   1  -7  151.48    7.10
  -4   1  -7  156.98    8.50
  -4   1  -7  156.58    7.00
   4  -1   7  141.09    7.50
  -5   1  -7   55.39    5.20
  -5   1  -7   63.29    4.70
  -5   1  -7   63.99    6.00
   5  -1   7   64.49    5.30
  -6   1  -7  243.38   11.70
  -6   1  -7  239.48   11.30
   6  -1   7  216.28   11.40
  -7   1  -7   36.50    5.10
  -7   1  -7   45.00    5.50
   7  -1   7   40.10    5.50
  -8   1  -7   18.50    4.00
  -8   1  -7   15.50    4.20
   8  -1   7   15.30    4.70
   8  -1   7   13.00    3.80
   8  -1   7   15.70    4.20
  -9   1  -7   33.20    5.30
  -9   1  -7   45.00    6.70
   9  -1   7   38.30    6.70
   9  -1   7   39.00    6.20
   9  -1   7   38.00    6.80
 -10   1  -7   92.89    9.70
 -10   1  -7  105.39   10.30
  10  -1   7  107.59   10.20
  10  -1   7  107.19   10.10
  10  -1   7  103.59   10.60
  10  -1   7   88.59   10.00
 -11   1  -7   51.59    8.70
  11  -1   7   40.60    8.40
  11  -1   7   63.69    8.50
  11  -1   7   47.70    7.70
  10   0  -7  157.78   15.50
  10   0  -7  114.19   12.00
   9   0  -7    7.80    5.80
   9   0  -7    3.90    4.30
   8   0  -7   34.80    6.10
   8   0  -7   36.20    6.80
   7   0  -7   38.50    6.10
   7   0  -7   32.50    6.80
   6   0  -7  138.29    9.00
   6   0  -7  103.69    8.70
   5   0  -7  185.48   10.70
   5   0  -7  188.08   10.20
   4   0  -7   74.39    6.40
   4   0  -7   88.39    6.20
   3   0  -7   59.79    5.80
   3   0  -7   57.29    4.80
   3   0  -7   66.89    6.30
   2   0  -7   34.10    4.40
   2   0  -7   19.50    3.50
   2   0  -7   22.30    3.20
  -2   0   7   26.50    2.20
   1   0  -7   89.79    5.70
   1   0  -7   91.89    5.20
   1   0  -7   84.49    5.60
  -1   0   7   91.19    4.40
   0   0  -7   82.89    4.80
   0   0  -7   84.49    5.60
   0   0  -7   88.79    5.20
   0   0   7   78.59    4.70
  -1   0  -7  511.45   19.20
  -1   0  -7  530.05   19.60
  -1   0  -7  523.15   18.50
  -2   0  -7  184.98    8.80
  -2   0  -7  196.38    9.40
  -3   0  -7  459.45   17.80
  -3   0  -7  478.15   17.70
  -3   0  -7  454.45   15.40
  -3   0  -7  447.76   15.50
  -4   0  -7   27.90    3.10
  -4   0  -7   35.90    3.10
  -4   0  -7   25.60    3.60
   4   0   7   31.90    3.80
  -5   0  -7  522.95   19.60
  -5   0  -7  535.35   20.30
  -5   0  -7  534.95   19.40
   5   0   7  534.45   20.20
  -6   0  -7  150.38    8.30
  -6   0  -7  141.79    8.40
  -6   0  -7  150.88    8.20
   6   0   7  151.48    8.90
   6   0   7  144.79    8.50
  -7   0  -7  195.08   10.40
  -7   0  -7  184.88   10.00
   7   0   7  184.88   10.40
   7   0   7  194.28   10.60
  -8   0  -7   49.00    5.60
  -8   0  -7   43.20    5.70
   8   0   7   41.20    5.70
   8   0   7   46.00    5.90
   8   0   7   41.90    6.10
  -9   0  -7   76.39    8.20
  -9   0  -7   78.69    6.70
   9   0   7   83.89    9.00
   9   0   7   92.29    9.50
   9   0   7   86.79    8.10
   9   0   7   65.89    7.70
 -10   0  -7  138.99   11.00
  10   0   7  136.09   10.20
  10   0   7  129.59   10.30
  10   0   7  133.69    9.80
 -11   0  -7   18.50    6.00
  11   0   7   14.20    6.20
  11   0   7   14.20    5.00
  11   0   7   18.00    5.40
  10  -1  -7   27.80    8.90
   9  -1  -7   15.30    6.00
   9  -1  -7   22.70    6.00
   8  -1  -7   12.30    4.50
   8  -1  -7    9.10    4.80
   7  -1  -7  287.17   14.30
   7  -1  -7  267.57   15.10
   6  -1  -7  140.19    9.20
   6  -1  -7  147.09   10.30
   5  -1  -7  199.68   10.40
   5  -1  -7  209.28   11.60
   4  -1  -7  112.89    7.80
   4  -1  -7   99.59    6.60
   3  -1  -7   39.80    5.00
   3  -1  -7   47.20    4.60
   3  -1  -7   32.50    4.40
   2  -1  -7  377.36   15.40
   2  -1  -7  393.56   14.70
   2  -1  -7  398.86   15.50
  -2   1   7  391.36   13.10
   1  -1  -7  663.13   22.30
   1  -1  -7  620.04   23.10
   1  -1  -7  652.03   22.90
  -1   1   7  659.63   21.60
   0  -1  -7  256.17   10.30
   0  -1  -7  248.88    9.90
   0  -1  -7  262.37   11.00
   0   1   7  259.57   10.00
  -1  -1  -7  273.87   10.60
  -1  -1  -7  288.97   11.60
   1   1   7  276.57   11.00
  -2  -1  -7  462.25   17.00
   2   1   7  435.56   16.60
  -3  -1  -7  725.63   25.60
  -3  -1  -7  687.13   25.20
  -3  -1  -7  723.33   23.50
  -3  -1  -7  725.03   23.50
   3   1   7  711.83   25.20
  -4  -1  -7  152.98    7.20
  -4  -1  -7  160.78    8.30
  -4  -1  -7  152.28    7.00
   4   1   7  160.18    7.70
   4   1   7  161.78    8.40
  -5  -1  -7  419.86   16.30
  -5  -1  -7  388.36   15.50
  -5  -1  -7  392.46   15.40
   5   1   7  393.26   16.40
   5   1   7  433.06   16.30
  -6  -1  -7  213.78   10.30
  -6  -1  -7  219.78   10.50
  -6  -1  -7  200.68   10.00
   6   1   7  212.88   10.60
   6   1   7  216.68   10.90
  -7  -1  -7  108.79    7.10
  -7  -1  -7  109.29    7.70
   7   1   7  105.29    7.90
   7   1   7  138.39    8.50
   7   1   7  115.59    8.00
  -8  -1  -7   26.20    4.00
  -8  -1  -7   21.10    4.40
   8   1   7   21.70    4.20
   8   1   7   22.80    4.20
   8   1   7   26.00    4.80
   8   1   7   24.60    5.10
  -9  -1  -7  139.19    8.40
  -9  -1  -7  141.49   10.10
   9   1   7  133.39    8.80
   9   1   7  128.19    9.30
   9   1   7  136.19    9.90
 -10  -1  -7  135.79   10.70
  10   1   7  135.49   12.30
  10   1   7  124.39    9.10
  10   1   7  124.19    9.60
 -11  -1  -7   17.70    5.50
  11   1   7   12.30    5.30
  11   1   7   22.60    5.50
  11   1   7   22.80    5.50
   9  -2  -7   23.80    6.60
   9  -2  -7   28.60    6.40
   8  -2  -7   43.40    8.00
   8  -2  -7   45.30    6.80
   7  -2  -7    1.80    3.30
   7  -2  -7    1.00    3.90
   6  -2  -7   29.80    5.80
   6  -2  -7   30.60    5.00
   5  -2  -7  104.99    8.30
   5  -2  -7  105.49    7.10
   4  -2  -7  216.78   11.50
   4  -2  -7  236.28   10.60
   3  -2  -7   10.30    2.60
   3  -2  -7    6.00    2.90
   2  -2  -7   78.39    5.60
   2  -2  -7   83.39    4.80
   2  -2  -7   84.49    5.90
  -2   2   7   82.69    3.90
   1  -2  -7  491.85   18.00
   1  -2  -7  496.85   17.20
   1  -2  -7  497.05   18.50
  -1   2   7  500.75   17.00
   0  -2  -7  382.06   14.10
   0  -2  -7  367.06   14.70
   0  -2  -7  380.86   13.50
   0   2   7  409.86   14.10
  -1  -2  -7  327.47   13.00
  -1  -2  -7  323.17   11.80
   1   2   7  335.27   12.60
  -2  -2  -7 1338.57   43.60
   2   2   7 1300.87   43.40
  -3  -2  -7  400.96   15.70
  -3  -2  -7  409.16   14.10
  -3  -2  -7  411.16   14.20
   3   2   7  405.66   15.80
  -4  -2  -7  680.23   23.30
  -4  -2  -7  680.63   23.10
   4   2   7  680.73   24.40
   4   2   7  645.44   23.60
  -5  -2  -7  352.96   14.50
  -5  -2  -7  366.86   14.80
  -5  -2  -7  368.16   14.40
   5   2   7  388.16   15.10
   5   2   7  367.76   15.30
  -6  -2  -7   67.89    5.60
  -6  -2  -7   63.99    5.10
  -6  -2  -7   73.69    5.40
   6   2   7   67.79    6.30
   6   2   7   69.09    5.70
   6   2   7   68.09    5.80
  -7  -2  -7  153.88    9.20
  -7  -2  -7  158.88    8.50
   7   2   7  160.58    9.30
   7   2   7  159.68    7.90
   7   2   7  154.48    9.40
  -8  -2  -7  107.69    6.70
  -8  -2  -7   95.09    7.90
   8   2   7   87.99    8.10
   8   2   7   88.09    6.50
   8   2   7  101.19    7.90
  -9  -2  -7   28.70    4.10
  -9  -2  -7   28.10    5.30
   9   2   7   27.80    5.70
   9   2   7   35.80    4.90
   9   2   7   36.00    5.70
 -10  -2  -7   17.00    4.70
  10   2   7   27.40    5.60
  10   2   7   23.60    4.70
  10   2   7   18.00    5.60
 -11  -2  -7    6.10    4.80
  11   2   7   15.30    5.10
  11   2   7    8.60    4.70
  11   2   7   24.40    6.70
 -12  -2  -7   10.80    6.10
  12   2   7   20.80    7.10
  12   2   7   12.70    5.50
   9  -3  -7    9.30    5.30
   9  -3  -7    4.90    5.90
   8  -3  -7    5.60    5.60
   8  -3  -7    0.20    3.90
   7  -3  -7  124.89    8.80
   7  -3  -7   93.69    9.80
   6  -3  -7   52.89    6.80
   6  -3  -7   66.39    6.90
   5  -3  -7   61.59    7.00
   5  -3  -7   76.79    6.10
   4  -3  -7    1.90    2.10
   4  -3  -7    1.10    2.50
   3  -3  -7   79.99    5.20
   3  -3  -7   99.49    6.60
  -3   3   7   89.79    4.10
   2  -3  -7   55.09    3.80
   2  -3  -7   63.29    4.90
   2  -3  -7   60.69    5.40
  -2   3   7   55.39    3.40
   1  -3  -7  123.59    5.50
   1  -3  -7  133.29    6.90
   1  -3  -7  127.19    6.60
  -1   3   7  122.79    5.70
   0  -3  -7  585.94   21.20
   0  -3  -7  613.94   20.60
   0  -3  -7  606.64   19.70
   0   3   7  588.34   20.60
  -1  -3  -7 1644.64   51.89
  -1  -3  -7 1658.63   53.09
   1   3   7 1609.44   52.89
  -2  -3  -7   71.29    3.20
  -2  -3  -7   67.49    4.80
  -2  -3  -7   75.19    3.20
   2   3   7   72.09    5.00
  -3  -3  -7    6.60    2.20
  -3  -3  -7    5.80    1.50
  -3  -3  -7    7.30    1.60
   3   3   7    9.70    2.70
  -4  -3  -7   47.40    4.00
  -4  -3  -7   48.50    3.70
   4   3   7   47.60    4.80
  -5  -3  -7   10.50    2.50
  -5  -3  -7   15.10    2.90
   5   3   7   12.60    2.80
   5   3   7   13.90    3.40
  -6  -3  -7  206.78   10.10
  -6  -3  -7  211.28   10.00
   6   3   7  195.18   10.40
   6   3   7  204.08    8.30
   6   3   7  192.18    9.80
  -7  -3  -7   86.29    6.80
   7   3   7   86.39    5.30
   7   3   7   84.09    6.70
   7   3   7   86.19    6.90
  -8  -3  -7   58.69    6.80
   8   3   7   53.49    6.50
   8   3   7   44.70    4.80
   8   3   7   48.50    6.10
  -9  -3  -7  119.19    9.30
   9   3   7  105.29    7.30
   9   3   7  121.79    8.90
   9   3   7  107.89    8.90
 -10  -3  -7   -1.60    3.10
  10   3   7   -1.00    3.10
  10   3   7    4.00    4.00
  10   3   7    3.30    4.30
 -11  -3  -7   20.30    5.70
  11   3   7   11.90    4.60
  11   3   7   24.30    6.50
 -12  -3  -7    5.40    5.70
  12   3   7   -2.80    5.30
  12   3   7    0.60    4.40
   9  -4  -7    6.30    6.20
   9  -4  -7    2.90    4.70
   8  -4  -7   16.90    5.00
   8  -4  -7    7.70    5.20
   7  -4  -7  107.19    8.30
   7  -4  -7   92.59    9.90
   6  -4  -7   49.50    5.90
   6  -4  -7   44.20    6.50
   5  -4  -7   54.19    5.50
   5  -4  -7   45.90    6.40
   4  -4  -7   19.80    4.30
   4  -4  -7   22.90    3.60
   3  -4  -7   15.20    3.70
   3  -4  -7   10.00    2.40
  -3   4   7   17.70    2.20
   2  -4  -7  118.89    5.50
   2  -4  -7  115.39    6.80
   2  -4  -7  109.29    6.60
  -2   4   7  109.59    5.40
   1  -4  -7  107.49    4.60
   1  -4  -7  104.09    5.80
   1  -4  -7   99.59    5.90
  -1   4   7  103.79    5.40
   0  -4  -7   56.29    4.20
   0  -4  -7   57.29    3.90
   0   4   7   58.09    4.10
  -1  -4  -7  317.27   12.40
  -1  -4  -7  335.57   11.40
   1   4   7  305.57   12.50
  -2  -4  -7   37.10    2.60
  -2  -4  -7   35.90    2.00
  -2  -4  -7   41.30    3.90
  -2  -4  -7   35.70    2.70
   2   4   7   39.20    4.30
  -3  -4  -7   16.80    2.30
  -3  -4  -7    9.80    2.30
  -3  -4  -7   11.90    2.20
   3   4   7   15.10    3.10
   3   4   7   13.10    2.00
  -4  -4  -7  177.18    8.10
  -4  -4  -7  179.28    8.30
   4   4   7  176.18    7.80
   4   4   7  182.98    9.10
  -5  -4  -7   91.69    6.10
  -5  -4  -7   95.19    5.90
   5   4   7   92.99    3.90
   5   4   7  100.39    5.80
   5   4   7   96.29    6.70
  -6  -4  -7  101.69    6.80
   6   4   7   84.39    6.10
   6   4   7   76.89    7.30
   6   4   7  102.89    4.70
  -7  -4  -7   80.09    6.70
   7   4   7   80.49    6.40
   7   4   7   79.99    4.80
   7   4   7   70.39    7.00
  -8  -4  -7    3.40    2.90
   8   4   7   11.20    3.80
   8   4   7    3.90    3.20
   8   4   7   10.80    2.60
  -9  -4  -7   54.39    7.10
   9   4   7   42.00    6.20
   9   4   7   63.09    5.90
   9   4   7   49.20    6.60
 -10  -4  -7   11.60    4.70
  10   4   7   14.90    4.80
  10   4   7   11.90    4.70
 -11  -4  -7    8.30    4.60
  11   4   7    8.60    4.80
  11   4   7    9.80    4.70
 -12  -4  -7    5.80    8.30
  12   4   7    0.00    5.10
  12   4   7    5.40    4.90
   9  -5  -7   25.60    8.10
   9  -5  -7   26.90    6.30
   8  -5  -7   72.39    8.10
   8  -5  -7   63.69    8.90
   7  -5  -7    2.90    3.30
   7  -5  -7   -0.60    4.20
   6  -5  -7   50.59    6.00
   6  -5  -7   52.09    7.30
   5  -5  -7   92.39    6.30
   5  -5  -7   62.89    7.40
   4  -5  -7   60.09    5.30
   4  -5  -7   51.39    6.30
   3  -5  -7  132.69    8.20
   3  -5  -7  135.59    6.60
  -3   5   7  133.89    6.40
   2  -5  -7   56.59    3.40
   2  -5  -7   54.59    5.40
  -2   5   7   49.40    3.80
   1  -5  -7   20.00    1.80
   1  -5  -7   14.40    2.80
   1  -5  -7   20.70    3.10
  -1   5   7   19.10    2.90
   0  -5  -7  110.19    5.80
   0  -5  -7  106.19    5.50
   0   5   7  115.69    6.20
  -1  -5  -7   81.39    4.00
  -1  -5  -7   78.09    3.90
  -1  -5  -7   74.59    4.70
  -1  -5  -7   80.09    3.90
   1   5   7   82.29    5.40
  -2  -5  -7   68.99    4.10
  -2  -5  -7   78.09    4.30
  -2  -5  -7   77.99    4.60
   2   5   7   70.89    3.10
   2   5   7   70.79    5.30
  -3  -5  -7   29.50    3.40
  -3  -5  -7   33.60    3.40
  -3  -5  -7   39.30    3.40
   3   5   7   41.20    4.70
   3   5   7   39.80    2.70
  -4  -5  -7   88.39    5.60
  -4  -5  -7   93.89    5.60
   4   5   7   88.09    6.20
   4   5   7   85.39    4.80
  -5  -5  -7  150.78    8.30
  -5  -5  -7  172.38    8.20
   5   5   7  151.88    8.80
   5   5   7  152.68    7.60
  -6  -5  -7  102.99    7.00
   6   5   7   93.19    6.30
   6   5   7   95.69    4.20
   6   5   7   96.09    7.20
  -7  -5  -7  113.19    7.90
   7   5   7  106.69    5.20
   7   5   7   91.39    7.50
   7   5   7   94.59    6.90
  -8  -5  -7  114.19    8.70
   8   5   7  120.39    8.70
   8   5   7  118.29    6.70
   8   5   7  115.69    8.20
  -9  -5  -7  203.78   12.00
   9   5   7  182.18   11.30
   9   5   7  177.48   11.10
 -10  -5  -7   76.69    8.40
  10   5   7   89.19    9.10
  10   5   7   85.19    8.90
 -11  -5  -7    6.40    4.80
  11   5   7    6.00    4.70
  11   5   7    7.50    4.60
  12   5   7   40.60    8.50
  12   5   7   26.10    6.30
   8  -6  -7    6.20    4.30
   8  -6  -7    7.20    6.00
   7  -6  -7   50.89    8.20
   7  -6  -7   49.50    6.40
   6  -6  -7   12.60    3.90
   6  -6  -7   14.50    5.40
   5  -6  -7  132.89    9.60
   5  -6  -7  120.59    7.60
   4  -6  -7  217.18   11.70
   4  -6  -7  210.48    9.70
   3  -6  -7   55.19    4.10
   3  -6  -7   63.99    6.60
  -3   6   7   58.59    4.50
   2  -6  -7  239.28    8.90
   2  -6  -7  229.68   11.00
  -2   6   7  236.78   10.20
   1  -6  -7   43.50    2.10
   1  -6  -7   42.10    2.60
   1  -6  -7   49.30    4.70
   1  -6  -7   51.09    4.10
  -1   6   7   47.50    4.40
   0  -6  -7  157.08    7.10
   0  -6  -7  147.49    7.10
   0  -6  -7  151.48    6.30
   0   6   7  157.48    7.80
  -1  -6  -7  527.05   17.90
  -1  -6  -7  525.45   18.60
  -1  -6  -7  541.35   18.40
   1   6   7  520.35   19.60
  -2  -6  -7   12.70    2.30
  -2  -6  -7   18.90    2.60
  -2  -6  -7   15.30    2.30
  -2  -6  -7   20.40    1.60
   2   6   7   21.10    3.50
  -3  -6  -7   27.80    3.20
  -3  -6  -7   17.70    2.80
  -3  -6  -7   20.30    2.80
   3   6   7   23.10    2.10
   3   6   7   16.50    3.30
  -4  -6  -7   15.90    2.80
  -4  -6  -7   15.40    2.90
  -4  -6  -7   12.10    2.50
   4   6   7   10.90    2.00
   4   6   7    9.40    2.90
  -5  -6  -7  299.57   13.10
  -5  -6  -7  295.17   12.80
   5   6   7  304.47   13.70
   5   6   7  303.17   12.00
  -6  -6  -7   75.89    6.90
   6   6   7   78.19    7.40
   6   6   7   62.49    5.20
  -7  -6  -7   85.49    7.10
   7   6   7   74.19    6.20
   7   6   7   72.69    7.50
  -8  -6  -7   23.20    4.60
   8   6   7   19.80    4.60
   8   6   7   14.20    3.90
  -9  -6  -7   65.69    7.60
   9   6   7   60.69    7.20
   9   6   7   72.49    8.00
 -10  -6  -7  184.38   12.40
  10   6   7  157.58   11.00
  10   6   7  185.28   11.80
 -11  -6  -7   28.80    6.50
  11   6   7   28.50    6.40
  11   6   7   26.00    6.20
   8  -7  -7   -0.20    6.10
   7  -7  -7   38.10    7.50
   7  -7  -7   50.69    6.50
   6  -7  -7   46.80    5.60
   6  -7  -7   32.20    6.70
   5  -7  -7   73.29    6.30
   5  -7  -7   68.09    8.20
   4  -7  -7  133.49    9.30
   4  -7  -7  132.49    7.10
   3  -7  -7   31.60    3.40
   3  -7  -7   33.90    5.00
   3  -7  -7   31.70    2.60
  -3   7   7   41.40    4.50
   2  -7  -7  266.87   10.10
   2  -7  -7  269.67    9.90
   2  -7  -7  265.77   12.30
  -2   7   7  291.57   12.00
   1  -7  -7  140.39    7.50
   1  -7  -7  135.29    6.20
  -1   7   7  131.49    7.50
   0  -7  -7   19.70    2.60
   0  -7  -7   26.10    3.00
   0  -7  -7   23.00    3.20
   0   7   7   24.50    3.80
  -1  -7  -7  468.55   17.10
  -1  -7  -7  473.65   16.40
  -1  -7  -7  471.25   16.70
   1   7   7  473.65   18.40
  -2  -7  -7   53.59    4.30
  -2  -7  -7   54.69    3.70
  -2  -7  -7   51.19    2.80
   2   7   7   43.30    4.90
  -3  -7  -7   87.79    5.80
  -3  -7  -7   90.19    5.10
   3   7   7   87.19    3.90
   3   7   7   96.29    6.80
  -4  -7  -7  182.48    9.10
  -4  -7  -7  191.58    8.60
  -4  -7  -7  200.28    9.60
   4   7   7  190.58   10.10
   4   7   7  192.68    7.80
  -5  -7  -7  127.19    8.00
   5   7   7  142.49    7.00
   5   7   7  148.89    8.90
  -6  -7  -7    8.80    3.10
   6   7   7   18.20    3.20
   6   7   7   24.10    4.40
  -7  -7  -7  223.38   11.80
   7   7   7  213.28   11.90
   7   7   7  214.58   10.70
  -8  -7  -7  239.28   13.20
   8   7   7  249.08   13.20
   8   7   7  240.48   12.30
  -9  -7  -7    5.60    3.80
   9   7   7    8.50    3.80
   9   7   7    7.40    4.20
 -10  -7  -7    1.20    3.70
  10   7   7   -2.50    3.40
  10   7   7    2.80    4.00
 -11  -7  -7   50.39    8.30
  11   7   7   45.70    7.60
  11   7   7   47.30    7.80
   8  -8  -7   80.29   11.00
   7  -8  -7   56.99    8.80
   6  -8  -7  131.69   10.90
   5  -8  -7   13.40    4.90
   4  -8  -7    0.20    1.50
   4  -8  -7   -3.40    3.10
   3  -8  -7   93.29    7.20
   3  -8  -7  106.99    7.80
   3  -8  -7  100.29    5.50
  -3   8   7   97.59    6.60
   2  -8  -7   67.99    4.60
   2  -8  -7   72.69    6.10
  -2   8   7   70.29    5.80
   1  -8  -7   91.49    5.50
   1  -8  -7   82.79    6.00
  -1   8   7   77.99    6.10
   0  -8  -7   20.50    3.10
   0  -8  -7   20.00    3.10
   0   8   7   23.50    3.90
  -1  -8  -7  289.07   11.30
  -1  -8  -7  296.27   11.00
  -1  -8  -7  305.07   12.30
   1   8   7  291.27   13.20
  -2  -8  -7   35.60    4.00
  -2  -8  -7   40.50    2.80
  -2  -8  -7   37.30    3.20
   2   8   7   39.40    5.20
  -3  -8  -7   77.89    4.40
  -3  -8  -7   63.99    5.50
   3   8   7   85.79    6.70
   3   8   7   83.09    3.50
  -4  -8  -7   52.49    4.10
  -4  -8  -7   52.29    5.50
   4   8   7   53.59    3.60
   4   8   7   48.40    5.80
  -5  -8  -7  209.48   10.90
   5   8   7  217.78    9.40
   5   8   7  232.48   11.90
  -6  -8  -7  157.18    9.60
   6   8   7  158.78   10.00
   6   8   7  154.18    8.10
  -7  -8  -7   48.40    6.00
   7   8   7   39.10    5.00
   7   8   7   38.80    5.70
  -8  -8  -7  108.89    9.00
   8   8   7  131.79    9.50
   8   8   7  103.59    7.80
  -9  -8  -7   26.10    5.70
   9   8   7   31.60    5.80
   9   8   7   43.10    6.20
 -10  -8  -7   77.99    9.30
  10   8   7   88.89    9.60
  10   8   7   81.39    8.90
 -11  -8  -7    8.20    5.80
  11   8   7   13.80    5.40
  11   8   7    8.40    5.00
   7  -9  -7    3.50    5.70
   6  -9  -7   19.70    5.80
   5  -9  -7   26.70    5.80
   5  -9  -7   25.40    3.00
   4  -9  -7    4.30    2.10
   4  -9  -7    7.80    4.20
   3  -9  -7  122.89    6.80
   3  -9  -7  122.59    8.70
  -3   9   7  125.39    8.10
   2  -9  -7   80.09    7.30
   2  -9  -7   66.99    5.30
  -2   9   7   74.89    6.80
   1  -9  -7  148.79    7.70
   1  -9  -7  128.29    7.80
  -1   9   7  132.99    8.50
   0  -9  -7   78.49    5.90
   0  -9  -7   72.59    5.50
   0   9   7   86.99    6.80
  -1  -9  -7  215.68   10.10
   1   9   7  199.88   10.70
  -2  -9  -7   82.29    4.10
  -2  -9  -7   82.39    6.20
   2   9   7   69.79    6.80
  -3  -9  -7   79.29    6.20
  -3  -9  -7   82.79    4.30
   3   9   7   68.59    6.80
   3   9   7   80.09    3.80
  -4  -9  -7  103.89    5.40
  -4  -9  -7   92.69    7.00
   4   9   7   99.49    5.10
   4   9   7  100.49    7.90
  -5  -9  -7   68.39    4.80
  -5  -9  -7   88.69    6.90
   5   9   7   58.19    6.60
   5   9   7   79.69    5.10
  -6  -9  -7    4.70    2.70
   6   9   7    6.50    2.80
   6   9   7    2.70    3.40
  -7  -9  -7    8.10    3.50
   7   9   7   18.50    3.90
   7   9   7   12.80    4.30
  -8  -9  -7   26.50    5.30
   8   9   7   16.10    4.10
   8   9   7   13.50    4.50
  -9  -9  -7    4.60    3.60
   9   9   7    5.10    4.40
   9   9   7   -3.50    2.90
 -10  -9  -7   66.59    8.70
  10   9   7   41.00    6.80
  10   9   7   63.29    8.40
  11   9   7   28.30    6.80
  11   9   7   28.00    6.80
   6 -10  -7   41.60    7.70
   5 -10  -7   41.20    7.30
   5 -10  -7   28.60    3.70
   4 -10  -7    6.30    2.50
   4 -10  -7    2.00    3.90
   3 -10  -7   19.70    4.80
   3 -10  -7   17.70    3.40
   2 -10  -7  139.79    8.00
   2 -10  -7  141.69    9.20
  -2  10   7  152.68    9.30
   1 -10  -7  232.68   11.10
   1 -10  -7  232.18   11.50
  -1  10   7  240.08   12.20
   0 -10  -7   37.60    4.70
   0  10   7   36.30    5.30
  -1 -10  -7   39.80    4.80
   1  10   7   38.00    5.40
  -2 -10  -7  143.09    8.50
   2  10   7  127.49    8.90
  -3 -10  -7   21.50    3.90
   3  10   7   24.30    4.70
  -4 -10  -7   78.59    7.50
   4  10   7   74.69    7.60
  -5 -10  -7   42.50    5.50
  -5 -10  -7   42.90    3.90
   5  10   7   28.00    5.40
   5  10   7   49.90    4.40
  -6 -10  -7   38.20    5.40
   6  10   7   45.00    4.80
   6  10   7   49.70    6.70
  -7 -10  -7   53.29    7.00
   7  10   7   55.19    6.00
   7  10   7   41.60    6.60
  -8 -10  -7   17.20    4.40
   8  10   7   11.80    4.60
   8  10   7   24.10    4.50
  -9 -10  -7   11.60    4.70
   9  10   7   14.20    5.20
   9  10   7    7.60    4.10
 -10 -10  -7    1.10    4.00
  10  10   7   10.70    4.60
  10  10   7   -2.10    4.50
  11  10   7   -3.20    4.20
  11  10   7   -7.80    4.50
   6 -11  -7   39.70    4.70
   6 -11  -7   44.30    8.20
   5 -11  -7   16.10    3.70
   5 -11  -7   19.40    6.10
   4 -11  -7   46.60    5.30
   4 -11  -7   49.40    7.40
   3 -11  -7    7.20    2.90
   3 -11  -7    2.20    3.70
   2 -11  -7    6.20    3.10
   2 -11  -7   11.50    4.20
  -2  11   7    8.60    3.80
   1 -11  -7   12.10    3.40
  -1  11   7   15.10    4.40
   0 -11  -7   54.69    6.00
   0  11   7   57.39    6.90
  -1 -11  -7   25.20    4.40
   1  11   7   24.60    4.70
  -2 -11  -7   22.30    4.40
   2  11   7   18.20    4.60
  -3 -11  -7   39.80    5.50
   3  11   7   38.20    5.70
  -4 -11  -7   76.89    7.20
   4  11   7   63.39    7.20
  -5 -11  -7   91.39    8.90
   5  11   7   88.79    9.00
  -6 -11  -7   34.90    5.40
   6  11   7   25.70    5.40
   6  11   7   31.00    4.50
  -7 -11  -7   49.60    7.20
   7  11   7   45.10    6.90
   7  11   7   68.39    6.40
  -8 -11  -7  253.07   14.50
   8  11   7  265.27   15.10
   8  11   7  233.18   12.40
  -9 -11  -7    8.50    4.60
   9  11   7    9.50    4.00
   9  11   7   11.20    5.30
 -10 -11  -7   -4.10    4.40
  10  11   7   -0.30    3.70
  10  11   7    7.70    5.70
   5 -12  -7    0.30    5.10
   5 -12  -7    3.10    3.40
   4 -12  -7   42.90    7.30
   4 -12  -7   43.10    5.40
   3 -12  -7   78.19    8.60
   3 -12  -7   60.09    6.30
   2 -12  -7  124.99    9.00
   2 -12  -7  164.88   10.50
  -2  12   7  162.68   10.60
   1 -12  -7   11.90    3.80
  -1  12   7    6.90    3.80
   0 -12  -7   69.89    7.00
   0  12   7   62.49    7.40
  -1 -12  -7  102.39    8.10
   1  12   7  115.59    9.00
  -2 -12  -7   10.10    3.60
   2  12   7    4.90    3.70
  -3 -12  -7   13.30    4.00
   3  12   7    4.00    3.80
  -4 -12  -7    9.90    3.70
   4  12   7    7.60    4.30
  -5 -12  -7    7.50    3.60
   5  12   7    2.30    3.60
  -6 -12  -7   20.30    4.90
   6  12   7   25.40    6.00
  -7 -12  -7   64.19    8.30
   7  12   7   68.89    8.90
  -8 -12  -7   35.00    6.10
   8  12   7   40.00    7.40
  -9 -12  -7   13.40    5.20
   9  12   7    9.30    5.80
   9  12   7   22.50    7.10
  10  12   7    2.80    4.90
  10  12   7    2.80    6.20
   4 -13  -7   45.20    6.10
   4 -13  -7   41.60    7.80
   3 -13  -7   25.90    4.90
   3 -13  -7   25.60    6.30
   2 -13  -7   46.50    6.20
   1 -13  -7   20.80    4.70
  -1  13   7   13.10    4.70
   0 -13  -7   21.70    4.60
   0  13   7   14.40    4.70
  -1 -13  -7   21.10    4.60
   1  13   7   25.00    5.60
  -2 -13  -7    3.20    3.20
   2  13   7    6.70    4.30
  -3 -13  -7   51.79    6.90
   3  13   7   52.39    7.20
  -4 -13  -7   54.69    7.00
   4  13   7   49.10    7.40
  -5 -13  -7   97.49   10.10
   5  13   7  106.39   10.30
  -6 -13  -7    8.40    4.00
   6  13   7   11.70    4.90
  -7 -13  -7    2.80    3.90
   7  13   7   16.40    5.70
  -8 -13  -7    9.40    4.70
   8  13   7   20.20    6.40
  -9 -13  -7   11.30    5.30
   9  13   7   13.70    6.70
   3 -14  -7   34.60    6.10
   3 -14  -7   28.50    6.80
   2 -14  -7    0.40    3.40
   1 -14  -7   28.60    5.70
  -1  14   7   20.00    5.40
   0 -14  -7   31.40    6.10
   0  14   7   34.40    6.50
  -1 -14  -7   56.69    7.20
   1  14   7   33.60    6.60
  -2 -14  -7   15.30    4.50
   2  14   7   10.50    5.20
  -3 -14  -7    1.70    3.80
   3  14   7    4.10    4.50
  -4 -14  -7    1.10    3.60
   4  14   7   -5.20    3.60
  -5 -14  -7   26.30    5.50
   5  14   7   18.90    5.90
  -6 -14  -7  101.69   10.00
   6  14   7  104.09   10.90
  -7 -14  -7   48.50    8.20
   7  14   7   59.59    9.10
  -8 -14  -7   -2.20    4.10
   8  14   7    0.30    5.70
   2 -15  -7   22.90    6.10
   1 -15  -7  168.28   11.60
  -1  15   7  118.39   12.00
   0 -15  -7   17.40    5.80
   0  15   7   15.00    5.90
  -1 -15  -7   25.30    5.90
   1  15   7   23.80    6.40
  -2 -15  -7   18.50    5.30
   2  15   7   15.60    5.80
  -3 -15  -7    6.70    4.40
   3  15   7    5.10    5.30
  -4 -15  -7   20.20    5.50
   4  15   7   30.60    7.30
   4  15   7   28.80    6.50
  -5 -15  -7   54.59    8.20
   5  15   7   32.10    7.40
  -6 -15  -7   13.70    5.30
   6  15   7   13.20    6.30
  -7 -15  -7    6.80    5.30
   7  15   7   14.20    7.20
   0  16   7    7.20    6.00
  -1 -16  -7    7.40    5.50
   1  16   7    2.20    5.70
  -2 -16  -7   23.30    6.20
   2  16   7   21.40    7.10
  -3 -16  -7   19.60    5.80
   3  16   7   22.60    7.20
  -4 -16  -7    8.90    5.30
   4  16   7   -0.50    5.60
  -5 -16  -7   55.19    8.60
   5  16   7   55.89    8.50
   5  16   7   65.39   10.40
   3  13  -8   75.59    9.20
   3  13  -8   76.09   10.60
   2  13  -8   48.60    8.20
   1  13  -8   11.20    5.50
   0  13  -8   32.20    7.20
  -1  13  -8    2.10    5.10
  -2  13  -8   12.10    6.30
   5  12  -8    6.70    6.40
   4  12  -8   73.89   10.10
   3  12  -8   70.59    8.50
   3  12  -8   65.49    9.90
   2  12  -8   72.29    9.10
   1  12  -8   11.70    5.10
   0  12  -8    4.70    4.40
  -1  12  -8   29.30    6.80
  -2  12  -8    9.90    5.40
  -3  12  -8   62.09    5.30
  -3  12  -8   56.29    9.40
  -4  12  -8    6.90    6.20
  -4  12  -8   -0.90    3.60
   6  11  -8   46.80    9.50
   5  11  -8   35.70    7.40
   4  11  -8   16.80    4.50
   4  11  -8   13.10    5.90
   3  11  -8   90.89    9.20
   3  11  -8   86.99    8.10
   3  11  -8   80.09    9.90
   2  11  -8   22.50    5.80
   2  11  -8   31.20    5.90
   2  11  -8   30.90    4.90
   1  11  -8   19.00    5.10
   1  11  -8   22.60    4.50
   0  11  -8   53.39    6.10
   0  11  -8   54.89    7.80
  -1  11  -8   22.30    4.50
  -1  11  -8    8.00    4.60
  -2  11  -8    1.10    4.40
  -2  11  -8    2.70    2.90
  -3  11  -8    2.70    2.50
  -3  11  -8    5.30    2.20
  -3  11  -8    6.10    4.50
  -3  11  -8    7.00    3.60
  -4  11  -8   14.90    3.90
  -4  11  -8   12.50    5.20
  -4  11  -8   14.10    4.60
  -5  11  -8   47.80    9.30
  -5  11  -8   61.89    9.70
  -5  11  -8   51.29    6.60
   7  10  -8   11.60    6.80
   7  10  -8    1.30    6.40
   6  10  -8    9.70    6.20
   5  10  -8    3.80    4.90
   4  10  -8  131.39   10.60
   4  10  -8  117.39    8.90
   3  10  -8   10.40    4.90
   3  10  -8   21.40    4.40
   3  10  -8   21.20    5.00
   2  10  -8   79.39    7.20
   2  10  -8   49.40    7.40
   2  10  -8   74.19    8.10
   1  10  -8   13.70    4.70
   1  10  -8   23.20    4.50
   0  10  -8   22.00    4.30
   0  10  -8   19.70    5.10
  -1  10  -8   11.90    4.50
  -1  10  -8   18.80    4.10
  -2  10  -8   80.59    9.20
  -2  10  -8   66.09    7.00
  -3  10  -8   54.19    6.60
  -3  10  -8   59.89    4.80
  -3  10  -8   42.80    7.40
  -3  10  -8   54.39    4.30
  -4  10  -8   47.50    5.30
  -4  10  -8   47.50    6.50
  -4  10  -8   54.79    8.20
  -5  10  -8    5.60    5.20
  -5  10  -8   21.10    5.10
  -5  10  -8   25.10    4.80
  -6  10  -8    1.50    5.20
  -6  10  -8    0.00    3.80
  -6  10  -8    7.20    4.40
   7   9  -8   47.30    8.90
   7   9  -8   41.80    8.70
   6   9  -8   14.60    5.90
   6   9  -8   22.50    6.70
   5   9  -8   32.00    6.80
   5   9  -8   34.50    7.00
   4   9  -8   31.10    5.30
   4   9  -8   21.50    5.70
   3   9  -8   38.20    5.70
   3   9  -8   24.50    5.90
   3   9  -8   33.00    5.20
   2   9  -8   16.00    4.40
   2   9  -8   11.30    4.30
   2   9  -8   17.90    4.10
   1   9  -8   68.59    6.80
   1   9  -8   64.69    7.60
   1   9  -8   70.09    8.50
   0   9  -8   85.89    9.00
   0   9  -8   82.69    6.80
  -1   9  -8   39.30    5.30
  -1   9  -8   40.60    6.70
  -2   9  -8   35.70    6.40
  -2   9  -8   38.20    5.40
  -3   9  -8    0.70    1.90
  -3   9  -8    3.80    3.10
  -3   9  -8    2.10    3.90
  -3   9  -8    3.00    1.80
  -4   9  -8    3.10    3.20
  -4   9  -8    1.00    2.30
  -4   9  -8    5.00    3.70
  -5   9  -8   41.50    5.40
  -5   9  -8   37.70    7.20
  -5   9  -8   28.30    5.50
  -6   9  -8   70.19    8.20
  -6   9  -8   80.89    7.90
  -6   9  -8   65.79    9.20
  -7   9  -8   -4.20    3.60
  -7   9  -8   -2.00    4.80
  -7   9  -8   -0.30    4.00
   8   8  -8   52.29    9.60
   8   8  -8   35.60    8.30
   7   8  -8   54.39    8.90
   7   8  -8   26.90    7.10
   6   8  -8   56.89    8.30
   6   8  -8   63.59    8.50
   5   8  -8   71.19    9.20
   5   8  -8   70.09    9.00
   4   8  -8  143.99    9.20
   4   8  -8  152.48   11.00
   3   8  -8   55.19    7.40
   3   8  -8   76.49    7.50
   3   8  -8   68.69    6.90
   2   8  -8  124.79    9.00
   2   8  -8  121.99    9.10
   2   8  -8  137.39    8.50
   1   8  -8  336.67   15.10
   1   8  -8  340.97   16.50
   1   8  -8  347.67   16.40
   0   8  -8  111.19    8.70
   0   8  -8  105.59    7.40
  -1   8  -8  219.88   12.60
  -1   8  -8  196.38   10.80
  -2   8  -8   18.60    5.10
  -2   8  -8   29.30    4.70
  -3   8  -8  125.39    6.30
  -3   8  -8  122.69    6.10
  -3   8  -8  122.79    8.60
  -3   8  -8  113.09    9.60
  -4   8  -8   17.40    5.30
  -4   8  -8   18.90    4.40
  -4   8  -8   23.00    3.50
  -5   8  -8   56.99    7.30
  -5   8  -8   43.50    7.30
  -5   8  -8   57.89    6.00
  -6   8  -8  112.39    9.10
  -6   8  -8  120.29    8.80
  -6   8  -8   96.19   10.20
  -7   8  -8   20.20    6.10
  -7   8  -8   16.70    5.00
  -7   8  -8    7.00    4.40
  -8   8  -8   28.80    7.40
  -8   8  -8   32.00    6.60
   8   7  -8   73.19   10.50
   8   7  -8   77.99   10.50
   7   7  -8   12.80    5.80
   7   7  -8   26.10    6.60
   6   7  -8   24.40    5.70
   6   7  -8   26.60    6.30
   5   7  -8   37.20    6.60
   5   7  -8   45.30    7.00
   4   7  -8   22.80    4.20
   4   7  -8   15.60    4.90
   4   7  -8   12.30    4.40
   3   7  -8   22.00    4.90
   3   7  -8   20.80    4.20
   3   7  -8   20.50    4.30
   3   7  -8   17.50    5.10
   2   7  -8   58.69    6.10
   2   7  -8   54.19    6.60
   2   7  -8   55.69    6.30
   1   7  -8   57.19    6.20
   1   7  -8   52.59    6.30
   1   7  -8   63.89    7.40
   0   7  -8  150.58    8.70
   0   7  -8  133.89    9.40
  -1   7  -8  103.79    7.40
  -1   7  -8   95.99    8.10
  -2   7  -8   38.10    5.10
  -2   7  -8   32.90    5.80
  -3   7  -8   25.80    2.80
  -3   7  -8   19.80    4.60
  -3   7  -8   25.60    2.90
  -3   7  -8   17.80    4.00
  -4   7  -8   51.49    6.20
  -4   7  -8   49.70    4.80
  -4   7  -8   53.79    7.10
  -4   7  -8   48.90    4.30
  -5   7  -8  316.67   15.20
  -5   7  -8  313.67   13.70
  -5   7  -8  293.57   16.20
  -6   7  -8   12.50    4.70
  -6   7  -8   13.60    3.80
  -6   7  -8    9.50    4.00
  -7   7  -8   21.70    5.10
  -7   7  -8   21.10    5.60
  -8   7  -8   12.30    5.00
  -8   7  -8   10.00    5.10
   9   6  -8    9.60    7.00
   9   6  -8   13.00    7.50
   8   6  -8   -7.10    4.80
   8   6  -8   -2.90    4.90
   7   6  -8   88.79   10.20
   7   6  -8   86.89    9.80
   6   6  -8   39.90    7.20
   6   6  -8   44.90    7.00
   5   6  -8    5.90    3.90
   5   6  -8    5.70    4.30
   4   6  -8  125.09    9.50
   4   6  -8  123.39    8.80
   3   6  -8  135.89    8.80
   3   6  -8  139.19    8.70
   3   6  -8  134.69    9.40
   2   6  -8   38.00    5.20
   2   6  -8   42.90    5.70
   2   6  -8   39.10    5.10
   1   6  -8   42.90    6.00
   1   6  -8   40.60    5.40
   1   6  -8   40.20    5.10
   0   6  -8   65.89    6.30
   0   6  -8   62.89    7.00
  -1   6  -8   36.10    5.20
  -1   6  -8   48.60    5.40
  -2   6  -8    5.30    2.90
  -2   6  -8    5.90    3.50
  -3   6  -8  110.59    5.20
  -3   6  -8  109.89    8.60
  -3   6  -8   94.89    7.40
  -3   6  -8  101.19    4.90
  -4   6  -8   79.89    7.60
  -4   6  -8  102.29    8.60
  -4   6  -8   97.49    5.60
  -4   6  -8   89.19    5.80
  -5   6  -8  160.98   11.00
  -5   6  -8  171.98   10.30
  -5   6  -8  149.29    8.60
  -6   6  -8   17.10    4.00
  -6   6  -8   22.00    5.40
  -7   6  -8   -3.60    2.80
  -7   6  -8    5.10    4.00
  -8   6  -8   47.80    6.80
  -8   6  -8   36.60    7.00
  -9   6  -8   82.09    9.50
  -9   6  -8   39.40    7.70
   9   5  -8   25.60    7.50
   9   5  -8   27.60    8.30
   8   5  -8   50.09    8.80
   8   5  -8   38.30    7.30
   7   5  -8   12.70    5.20
   7   5  -8   22.80    5.80
   6   5  -8    2.60    3.70
   6   5  -8    0.00    3.80
   5   5  -8  113.99   10.50
   5   5  -8  116.19    8.90
   4   5  -8  120.99    8.60
   4   5  -8  123.89    9.30
   4   5  -8  119.19    8.90
   3   5  -8   50.99    5.60
   3   5  -8   48.10    6.40
   3   5  -8   47.20    6.30
   3   5  -8   50.39    6.00
   2   5  -8  458.55   19.20
   2   5  -8  484.85   19.00
   2   5  -8  435.96   19.30
   2   5  -8  457.75   18.80
   1   5  -8   88.69    6.60
   1   5  -8   96.59    7.10
   1   5  -8   93.29    7.20
   0   5  -8    8.50    3.20
   0   5  -8    9.60    3.20
   0   5  -8    8.30    2.90
  -1   5  -8    3.10    2.90
  -1   5  -8    4.60    2.60
  -2   5  -8   23.20    4.70
  -2   5  -8   21.10    4.00
  -3   5  -8  151.18    6.20
  -3   5  -8  159.18    8.90
  -3   5  -8  141.19    9.40
  -3   5  -8  157.18    6.30
  -4   5  -8  137.99    7.00
  -4   5  -8  129.59    9.40
  -4   5  -8  138.59    6.80
  -4   5  -8  131.99    8.50
  -5   5  -8   35.10    4.30
  -5   5  -8   29.00    5.50
  -5   5  -8   36.10    5.90
  -5   5  -8   46.30    6.00
  -6   5  -8   26.10    4.30
  -6   5  -8   17.10    4.80
  -7   5  -8   21.20    4.60
  -7   5  -8   17.50    5.20
  -8   5  -8  103.29    9.50
  -8   5  -8   86.79    9.70
  -9   5  -8   31.90    6.60
  -9   5  -8   40.90    7.10
 -10   5  -8   31.30    7.60
  10  -5   8   19.80    7.80
   9   4  -8   28.40    8.50
   9   4  -8   24.30    7.20
   8   4  -8   17.10    6.20
   8   4  -8   86.19    9.70
   7   4  -8   41.80    6.90
   7   4  -8   47.90    7.70
   6   4  -8   -2.10    3.40
   6   4  -8    1.10    3.70
   5   4  -8   24.40    4.80
   5   4  -8   13.00    4.70
   4   4  -8   32.50    5.60
   4   4  -8   36.90    5.20
   4   4  -8   61.69    6.90
   3   4  -8   14.60    4.20
   3   4  -8   24.60    4.60
   3   4  -8   18.10    4.00
   2   4  -8   77.29    6.10
   2   4  -8   88.69    8.00
   2   4  -8   81.69    6.60
   2   4  -8   83.29    7.40
   1   4  -8   81.59    6.00
   1   4  -8   74.79    6.20
   1   4  -8   80.39    6.70
   1   4  -8   88.29    6.60
   0   4  -8   65.49    5.60
   0   4  -8   64.29    6.10
   0   4  -8   73.09    5.90
  -1   4  -8   95.29    6.70
  -1   4  -8   98.59    7.00
  -2   4  -8  138.49    8.80
  -2   4  -8  130.99    8.10
  -3   4  -8  162.48    9.40
  -3   4  -8  172.48   10.10
  -3   4  -8  168.08    6.40
  -3   4  -8  176.98    6.40
  -4   4  -8   97.09    5.40
  -4   4  -8   90.09    7.30
  -4   4  -8   85.19    5.10
  -4   4  -8   89.39    7.00
  -5   4  -8   61.39    6.90
  -5   4  -8   85.59    5.60
  -5   4  -8   79.59    5.80
  -6   4  -8    2.40    2.60
  -6   4  -8    0.80    3.10
  -7   4  -8   23.80    4.70
  -7   4  -8   23.60    5.00
  -8   4  -8  124.89    9.70
  -8   4  -8  124.69    9.60
  -9   4  -8   27.70    5.90
  -9   4  -8   17.10    4.90
 -10   4  -8    3.30    4.90
 -10   4  -8    9.00    4.90
  10  -4   8    0.30    5.20
   9   3  -8   93.19   11.40
   9   3  -8   89.29   10.80
   8   3  -8   60.69    8.40
   8   3  -8   52.99    8.40
   7   3  -8   13.40    4.60
   7   3  -8    9.80    5.00
   6   3  -8    9.80    4.80
   6   3  -8   14.60    4.40
   5   3  -8   -4.00    2.70
   5   3  -8   -0.20    2.70
   4   3  -8  363.66   16.30
   4   3  -8  372.46   16.40
   4   3  -8  358.46   16.80
   3   3  -8  136.99    8.50
   3   3  -8  140.79    9.10
   3   3  -8  132.49    8.30
   2   3  -8   36.60    4.80
   2   3  -8   43.00    5.00
   2   3  -8   45.40    5.60
   1   3  -8   29.30    4.30
   1   3  -8   19.60    3.80
   1   3  -8   21.20    3.80
   1   3  -8   17.80    3.40
   0   3  -8  136.09    7.80
   0   3  -8  125.59    7.60
   0   3  -8  139.79    8.20
  -1   3  -8  152.58    8.60
  -1   3  -8  131.49    8.00
  -2   3  -8  142.49    8.20
  -2   3  -8  141.59    8.70
  -3   3  -8   89.19    6.70
  -3   3  -8   92.29    7.00
  -4   3  -8   45.80    3.80
  -4   3  -8   42.50    5.40
  -4   3  -8   44.80    3.50
  -4   3  -8   52.69    6.30
  -5   3  -8   36.20    4.00
  -5   3  -8   32.60    3.90
  -5   3  -8   32.30    4.80
  -6   3  -8  109.59    8.40
  -6   3  -8  118.39    7.60
  -7   3  -8   85.19    7.20
  -7   3  -8   81.19    8.10
  -8   3  -8    8.90    3.90
  -8   3  -8    5.40    3.60
  -9   3  -8   76.19    8.50
  -9   3  -8   74.39    8.30
   9  -3   8   58.49    8.20
 -10   3  -8   38.20    7.10
 -10   3  -8   37.90    6.80
  10  -3   8   40.90    8.20
  10  -3   8   39.90    7.00
   9   2  -8    0.40    5.80
   9   2  -8    5.20    5.20
   8   2  -8   30.20    6.90
   8   2  -8   29.90    6.30
   7   2  -8   14.30    4.80
   7   2  -8   30.00    6.60
   6   2  -8  172.28   11.60
   6   2  -8  179.18   10.90
   5   2  -8  151.98   10.40
   5   2  -8  159.68    9.70
   4   2  -8    1.20    3.70
   4   2  -8    3.20    3.00
   3   2  -8   26.20    4.70
   3   2  -8   32.50    4.60
   3   2  -8   29.50    4.80
   2   2  -8  245.98   11.40
   2   2  -8  236.28   11.40
   2   2  -8  220.78   10.90
   1   2  -8  431.96   17.00
   1   2  -8  430.16   17.20
   1   2  -8  424.66   17.10
   0   2  -8  129.29    7.30
   0   2  -8  128.39    7.40
   0   2  -8  133.49    7.80
   0   2  -8  130.09    7.90
  -1   2  -8  685.23   25.30
  -1   2  -8  674.23   24.70
  -2   2  -8  138.49    8.10
  -2   2  -8  140.69    8.00
  -3   2  -8   72.69    6.80
  -3   2  -8   56.99    6.00
  -4   2  -8  154.68    9.20
  -4   2  -8  161.88    6.90
  -4   2  -8  149.39    8.70
  -4   2  -8  155.48    7.00
   4  -2   8  154.38    8.10
  -5   2  -8   29.10    4.80
  -5   2  -8   27.40    3.40
  -5   2  -8   30.10    3.70
   5  -2   8   25.80    4.70
  -6   2  -8   50.89    6.10
  -6   2  -8   64.99    5.70
  -7   2  -8    6.10    3.00
  -7   2  -8    4.80    3.30
  -8   2  -8   14.90    4.20
  -8   2  -8   12.10    4.00
  -9   2  -8    9.10    4.30
  -9   2  -8    9.30    3.90
   9  -2   8    5.10    3.80
   9  -2   8   16.40    5.40
 -10   2  -8   -0.10    3.40
 -10   2  -8   -6.70    3.80
  10  -2   8   -3.40    4.00
  10  -2   8    3.10    4.30
 -11   2  -8   10.90    5.80
  11  -2   8   16.60    6.10
  11  -2   8   19.60    5.90
  11  -2   8   22.10    6.70
   9   1  -8   12.60    6.80
   9   1  -8   15.60    5.80
   8   1  -8   12.20    5.10
   8   1  -8   14.10    5.10
   7   1  -8   19.00    5.60
   7   1  -8   22.50    5.40
   6   1  -8  115.49    9.50
   6   1  -8  122.49    8.90
   5   1  -8  106.09    8.50
   5   1  -8   85.19    7.80
   4   1  -8  354.86   15.20
   4   1  -8  342.47   15.90
   3   1  -8  105.09    6.80
   3   1  -8   91.09    6.80
   3   1  -8  104.59    7.20
  -3  -1   8  100.29    4.10
   2   1  -8   52.79    5.80
   2   1  -8   41.20    4.90
   2   1  -8   44.80    4.70
  -2  -1   8   44.90    3.00
   1   1  -8   31.60    4.20
   1   1  -8   26.40    3.60
   1   1  -8   27.40    4.00
   0   1  -8   68.59    6.00
   0   1  -8   56.89    5.60
   0   1  -8   63.09    4.80
   0   1  -8   56.49    5.40
  -1   1  -8   71.09    5.50
  -1   1  -8   59.59    5.90
  -2   1  -8  204.48   10.20
  -2   1  -8  206.18   10.00
  -3   1  -8  173.88    9.20
  -3   1  -8  173.28    9.40
  -4   1  -8  125.89    5.80
  -4   1  -8  131.89    7.90
  -4   1  -8  120.49    7.80
  -4   1  -8  121.99    5.90
   4  -1   8  116.69    6.70
  -5   1  -8   93.69    5.90
  -5   1  -8  101.59    5.80
  -5   1  -8   84.69    6.90
   5  -1   8  109.19    6.80
  -6   1  -8   10.80    2.90
  -6   1  -8    9.20    3.40
   6  -1   8   15.40    3.30
  -7   1  -8   19.10    4.00
  -7   1  -8   17.70    4.10
   7  -1   8   31.40    7.20
  -8   1  -8   84.09    7.30
  -8   1  -8   96.69    8.00
   8  -1   8   96.59    8.90
  -9   1  -8    3.10    3.40
  -9   1  -8   16.70    4.70
   9  -1   8    6.30    4.10
   9  -1   8    8.60    4.50
 -10   1  -8   19.80    5.50
 -10   1  -8   28.20    5.40
  10  -1   8   46.80    7.10
  10  -1   8   30.10    6.50
  10  -1   8   27.70    6.00
 -11   1  -8   21.60    7.00
  11  -1   8   31.20    7.70
  11  -1   8   20.00    6.00
  11  -1   8   53.59    7.80
   9   0  -8    0.70    5.10
   9   0  -8   -3.50    4.80
   8   0  -8    1.70    4.00
   8   0  -8    2.30    4.40
   7   0  -8   21.20    5.10
   7   0  -8   30.80    6.50
   6   0  -8    3.10    3.40
   6   0  -8   -1.20    3.70
   5   0  -8  109.99    7.90
   5   0  -8  102.09    8.50
   4   0  -8  217.38   10.70
   3   0  -8   68.99    5.50
   3   0  -8   74.69    5.90
   3   0  -8   61.49    6.40
   2   0  -8   81.99    5.40
   2   0  -8   77.19    6.00
   2   0  -8   80.99    5.90
  -2   0   8   81.79    4.00
   1   0  -8   22.20    3.10
   1   0  -8   16.40    3.30
   1   0  -8   13.80    3.00
  -1   0   8   19.10    2.40
   0   0  -8   71.99    5.40
   0   0  -8   73.09    5.00
   0   0  -8   88.29    5.20
   0   0   8   70.99    4.50
  -1   0  -8  514.75   19.50
  -1   0  -8  518.75   18.70
  -2   0  -8   25.50    3.60
  -2   0  -8   23.10    3.70
  -3   0  -8  224.78   10.50
  -3   0  -8  216.48   10.60
  -4   0  -8  146.19    6.60
  -4   0  -8  149.39    8.40
  -4   0  -8  140.49    6.50
  -4   0  -8  146.29    8.40
   4   0   8  161.58    7.80
  -5   0  -8   56.39    5.80
  -5   0  -8   53.69    4.40
  -5   0  -8   59.19    4.40
   5   0   8   56.49    5.30
   5   0   8   52.99    5.60
  -6   0  -8   60.79    6.10
  -6   0  -8   61.69    5.40
  -6   0  -8   47.30    4.70
   6   0   8   76.69    7.30
   6   0   8   52.29    5.40
  -7   0  -8   16.90    3.70
  -7   0  -8   21.50    4.20
   7   0   8   29.20    5.10
   7   0   8   18.20    3.70
  -8   0  -8  158.98    9.80
  -8   0  -8  150.68    9.20
   8   0   8  131.39    9.50
   8   0   8  135.89    9.80
   8   0   8  141.89    9.80
  -9   0  -8   16.00    4.10
  -9   0  -8    5.50    3.70
   9   0   8    9.90    3.70
   9   0   8   13.10    4.30
   9   0   8   17.20    4.40
   9   0   8    9.70    4.10
 -10   0  -8  119.49   10.20
  10   0   8  111.99   10.70
  10   0   8  120.99    9.20
  10   0   8  112.29   11.20
 -11   0  -8   -2.80    4.10
  11   0   8    3.00    5.40
  11   0   8    2.60    4.50
  11   0   8    7.30    4.30
   9  -1  -8   27.10    7.90
   9  -1  -8   35.70    7.10
   8  -1  -8   27.50    6.90
   8  -1  -8   16.30    5.10
   7  -1  -8   39.60    7.40
   7  -1  -8   50.49    6.70
   6  -1  -8   80.29    7.70
   6  -1  -8   84.39    9.10
   5  -1  -8  112.39    8.90
   5  -1  -8  115.29    7.80
   4  -1  -8  106.79    8.10
   4  -1  -8  114.19    7.20
   3  -1  -8  115.39    7.70
   3  -1  -8  115.39    7.70
   3  -1  -8  108.89    6.60
   2  -1  -8   40.40    4.60
   2  -1  -8   48.70    4.50
   2  -1  -8   44.90    5.20
  -2   1   8   37.60    2.60
   1  -1  -8   28.20    3.80
   1  -1  -8   35.40    3.70
   1  -1  -8   37.30    4.40
  -1   1   8   35.80    3.10
   0  -1  -8  364.96   15.00
   0  -1  -8  381.76   14.10
   0  -1  -8  384.36   14.50
   0   1   8  380.26   14.00
  -1  -1  -8  131.89    7.40
  -1  -1  -8  134.89    6.60
   1   1   8  144.69    7.00
  -2  -1  -8  417.36   16.30
   2   1   8  412.46   15.90
  -3  -1  -8  303.37   10.20
  -3  -1  -8  315.17   10.20
  -3  -1  -8  305.97   13.20
  -3  -1  -8  300.77   13.30
   3   1   8  319.97   13.10
  -4  -1  -8   65.49    4.20
  -4  -1  -8   67.69    4.10
  -4  -1  -8   66.09    5.50
  -4  -1  -8   70.79    5.70
   4   1   8   68.29    5.60
   4   1   8   74.19    5.00
  -5  -1  -8  405.56   15.50
  -5  -1  -8  427.46   15.90
  -5  -1  -8  401.96   16.80
   5   1   8  418.86   17.10
   5   1   8  411.36   16.50
  -6  -1  -8   44.20    4.60
  -6  -1  -8   29.20    4.50
  -6  -1  -8   40.30    4.60
   6   1   8   28.50    4.60
   6   1   8   23.80    3.80
  -7  -1  -8   71.89    6.00
  -7  -1  -8   68.19    6.60
   7   1   8   62.59    6.90
   7   1   8   54.59    6.40
   7   1   8   65.29    7.00
  -8  -1  -8   75.59    6.30
  -8  -1  -8   59.19    6.50
   8   1   8   56.99    6.50
   8   1   8   57.59    7.00
   8   1   8   53.49    7.00
  -9  -1  -8   23.80    4.30
  -9  -1  -8   29.80    5.70
   9   1   8   26.50    5.60
   9   1   8   28.90    5.50
   9   1   8   38.90    5.30
 -10  -1  -8   77.59    8.60
  10   1   8   90.69    8.50
  10   1   8   71.49    8.50
  10   1   8   86.59    9.40
 -11  -1  -8   11.90    5.20
  11   1   8   15.40    5.30
  11   1   8   11.20    5.20
  11   1   8   16.30    5.10
   9  -2  -8    7.80    5.30
   9  -2  -8    4.20    6.30
   8  -2  -8   78.89    9.80
   8  -2  -8  104.59   10.00
   7  -2  -8  117.39    8.90
   7  -2  -8  107.19   11.00
   6  -2  -8    7.20    3.50
   6  -2  -8    9.20    4.10
   5  -2  -8    6.10    4.10
   5  -2  -8   13.90    3.60
   4  -2  -8   74.49    5.90
   4  -2  -8   82.39    7.80
   3  -2  -8  119.79    6.80
   3  -2  -8  117.29    7.90
   3  -2  -8  141.19    8.30
  -3   2   8  127.59    4.80
   2  -2  -8    0.60    2.30
   2  -2  -8    5.80    2.00
   2  -2  -8    2.20    2.20
  -2   2   8    5.00    1.40
   1  -2  -8  146.39    7.40
   1  -2  -8  130.49    7.60
   1  -2  -8  141.09    6.60
  -1   2   8  142.89    6.30
   0  -2  -8   74.39    5.40
   0  -2  -8   74.09    4.30
   0   2   8   78.89    4.60
  -1  -2  -8   28.70    3.60
  -1  -2  -8   37.90    3.50
   1   2   8   41.00    3.90
  -2  -2  -8  542.15   20.50
   2   2   8  580.44   20.50
  -3  -2  -8  353.36   14.50
  -3  -2  -8  348.87   12.00
  -3  -2  -8  357.96   12.00
   3   2   8  350.56   14.40
  -4  -2  -8  156.98    8.20
  -4  -2  -8  148.29    6.80
  -4  -2  -8  152.28    7.00
   4   2   8  150.88    8.40
   4   2   8  156.58    7.70
  -5  -2  -8  141.09    7.00
  -5  -2  -8  132.49    7.00
   5   2   8  121.89    7.40
   5   2   8  139.59    8.30
  -6  -2  -8   35.00    4.40
  -6  -2  -8   33.70    4.40
  -6  -2  -8   28.30    3.90
   6   2   8   22.30    3.70
   6   2   8   33.30    5.10
  -7  -2  -8    3.70    2.50
  -7  -2  -8    5.40    2.90
   7   2   8   -2.60    2.40
   7   2   8    0.70    2.90
   7   2   8    4.20    2.50
  -8  -2  -8    0.30    2.70
  -8  -2  -8    4.20    2.60
   8   2   8    4.60    3.50
   8   2   8    1.80    3.20
   8   2   8    8.00    2.90
  -9  -2  -8  150.68   10.40
  -9  -2  -8  132.79    8.30
   9   2   8  135.59    8.20
   9   2   8  131.89    9.90
   9   2   8  150.28   10.30
 -10  -2  -8   21.90    5.30
  10   2   8   16.60    5.10
  10   2   8   14.80    4.40
  10   2   8   10.80    4.40
 -11  -2  -8   88.09    9.70
  11   2   8   47.10    7.50
  11   2   8   65.59    9.50
   9  -3  -8    7.10    6.00
   9  -3  -8   11.10    5.30
   8  -3  -8   34.50    7.00
   8  -3  -8   40.20    6.40
   7  -3  -8   17.40    4.80
   7  -3  -8   21.20    5.40
   6  -3  -8    6.40    4.20
   6  -3  -8   -0.40    2.80
   5  -3  -8   72.69    8.00
   5  -3  -8   73.99    6.10
   4  -3  -8  171.98   10.30
   4  -3  -8  184.98    9.10
   3  -3  -8  445.46   18.00
   3  -3  -8  444.46   16.50
  -3   3   8  433.86   14.80
   2  -3  -8  142.19    7.80
   2  -3  -8  123.09    7.60
   2  -3  -8  131.09    6.40
  -2   3   8  133.79    5.90
   1  -3  -8  119.79    5.60
   1  -3  -8  128.69    7.20
   1  -3  -8  118.89    6.70
  -1   3   8  125.99    5.90
   0  -3  -8  145.99    7.00
   0  -3  -8  154.88    7.60
   0  -3  -8  146.39    6.20
   0   3   8  143.59    6.90
  -1  -3  -8   33.20    3.90
  -1  -3  -8   37.30    3.00
   1   3   8   45.30    4.20
  -2  -3  -8  306.87   12.60
   2   3   8  297.97   12.50
  -3  -3  -8   61.59    4.80
  -3  -3  -8   63.49    3.40
  -3  -3  -8   63.89    3.50
   3   3   8   66.19    5.20
  -4  -3  -8  163.28    9.00
  -4  -3  -8  192.68    8.10
  -4  -3  -8  175.78    8.10
   4   3   8  198.28    9.60
   4   3   8  197.98    8.90
  -5  -3  -8   92.29    5.80
  -5  -3  -8   79.99    5.30
   5   3   8   89.49    6.60
  -6  -3  -8  185.28    9.40
  -6  -3  -8  186.48    9.50
   6   3   8  169.68    9.80
   6   3   8  178.88    7.50
   6   3   8  179.78    9.30
  -7  -3  -8  427.96   17.80
   7   3   8  425.46   15.70
   7   3   8  408.86   18.10
   7   3   8  428.76   17.80
  -8  -3  -8   92.99    7.70
   8   3   8   95.49    6.10
   8   3   8   94.69    7.70
   8   3   8   90.99    8.40
  -9  -3  -8  300.87   15.10
   9   3   8  298.97   15.00
   9   3   8  275.77   12.70
   9   3   8  287.17   14.80
 -10  -3  -8    0.10    3.40
  10   3   8    0.50    3.60
  10   3   8   -0.80    3.50
 -11  -3  -8    8.20    4.90
  11   3   8   13.60    6.00
  11   3   8    4.50    4.50
   9  -4  -8   26.40    8.50
   9  -4  -8   26.20    6.60
   8  -4  -8   28.10    7.30
   8  -4  -8   16.50    5.30
   7  -4  -8   35.40    6.60
   7  -4  -8   19.30    4.90
   6  -4  -8   25.90    5.50
   6  -4  -8   27.60    4.90
   5  -4  -8  163.38   10.70
   5  -4  -8  174.88    9.40
   4  -4  -8   89.19    7.50
   4  -4  -8   93.99    6.00
   3  -4  -8  223.68   11.10
   3  -4  -8  208.48    9.30
  -3   4   8  216.98    8.50
   2  -4  -8   14.90    3.30
   2  -4  -8   13.20    3.20
   2  -4  -8   14.50    2.30
  -2   4   8   10.80    2.20
   1  -4  -8   57.79    5.00
   1  -4  -8   50.69    3.20
   1  -4  -8   47.50    4.80
  -1   4   8   53.79    4.00
   0  -4  -8  196.88    8.50
   0  -4  -8  189.08    9.00
   0   4   8  206.48    8.80
  -1  -4  -8  827.52   27.40
  -1  -4  -8  864.11   28.90
   1   4   8  819.32   28.70
  -2  -4  -8  696.43   22.40
  -2  -4  -8  690.53   24.40
   2   4   8  686.93   24.60
  -3  -4  -8  263.77   11.10
  -3  -4  -8  260.27    9.80
  -3  -4  -8  249.97    9.70
   3   4   8  255.87   11.50
  -4  -4  -8   22.70    3.00
  -4  -4  -8   28.30    3.90
  -4  -4  -8   28.20    3.10
   4   4   8   26.40    3.00
   4   4   8   20.90    3.50
  -5  -4  -8   38.60    4.30
  -5  -4  -8   48.10    4.50
   5   4   8   46.30    4.50
   5   4   8   46.40    5.50
  -6  -4  -8   75.49    5.90
   6   4   8   68.09    5.60
   6   4   8   67.69    3.70
   6   4   8   68.19    7.00
  -7  -4  -8  136.19    8.40
   7   4   8  113.89    8.40
   7   4   8  114.19    7.60
   7   4   8  110.09    5.70
  -8  -4  -8  278.97   13.60
   8   4   8  243.88   13.40
   8   4   8  265.37   13.30
   8   4   8  263.67   13.10
  -9  -4  -8   84.09    8.60
   9   4   8   68.99    7.90
   9   4   8   83.29    8.40
 -10  -4  -8   42.00    6.70
  10   4   8   57.59    7.50
  10   4   8   58.99    7.60
 -11  -4  -8   58.29    8.30
  11   4   8   51.49    8.20
  11   4   8   48.20    7.60
   8  -5  -8   56.29    9.30
   8  -5  -8   66.49    8.00
   7  -5  -8   58.19    6.90
   7  -5  -8   50.19    8.20
   6  -5  -8   11.30    3.80
   6  -5  -8    5.90    4.20
   5  -5  -8   17.10    4.60
   5  -5  -8   14.90    3.60
   4  -5  -8  168.18    8.40
   4  -5  -8  166.28   10.40
   3  -5  -8  188.78   10.40
   3  -5  -8  200.88    8.70
  -3   5   8  204.38    8.50
   2  -5  -8   37.80    4.60
   2  -5  -8   40.60    3.40
  -2   5   8   44.10    3.90
   1  -5  -8  207.78    7.60
   1  -5  -8  206.08    9.50
   1  -5  -8  203.98    9.60
  -1   5   8  211.48    9.10
   0  -5  -8    2.30    1.80
   0  -5  -8    4.50    2.10
   0   5   8    4.10    2.00
  -1  -5  -8   38.80    3.20
  -1  -5  -8   30.50    3.70
   1   5   8   31.30    3.90
  -2  -5  -8  133.49    6.90
  -2  -5  -8  127.19    5.50
  -2  -5  -8  128.09    4.90
  -2  -5  -8  127.59    5.40
   2   5   8  131.39    7.40
   2   5   8  128.19    4.90
  -3  -5  -8   91.99    5.70
  -3  -5  -8   90.59    4.90
  -3  -5  -8   89.59    5.10
   3   5   8   93.09    4.40
   3   5   8   89.39    6.30
  -4  -5  -8   17.00    3.10
  -4  -5  -8   15.20    2.60
  -4  -5  -8   17.00    2.80
   4   5   8   18.80    2.60
   4   5   8   12.20    3.20
  -5  -5  -8   23.90    3.50
  -5  -5  -8   29.50    3.80
   5   5   8   30.60    4.60
   5   5   8   32.40    3.70
  -6  -5  -8   28.00    4.20
   6   5   8   45.50    5.90
   6   5   8   52.29    5.10
  -7  -5  -8   77.19    6.80
   7   5   8   91.99    7.20
   7   5   8   79.09    6.30
  -8  -5  -8  317.37   15.20
   8   5   8  305.67   15.20
   8   5   8  312.47   14.60
  -9  -5  -8   35.80    6.00
   9   5   8   18.50    4.90
   9   5   8   32.60    5.60
 -10  -5  -8   25.30    5.80
  10   5   8   34.50    6.20
  10   5   8   18.10    5.10
 -11  -5  -8   95.49   10.80
  11   5   8   92.39   10.30
  11   5   8   97.99   10.10
   8  -6  -8   -2.50    5.60
   8  -6  -8   -2.90    6.60
   7  -6  -8   67.39    7.50
   7  -6  -8   65.49    9.10
   6  -6  -8   53.49    6.20
   6  -6  -8   62.09    8.50
   5  -6  -8   99.09    7.00
   5  -6  -8  110.29    9.10
   4  -6  -8  118.39    8.90
   4  -6  -8  123.19    6.90
   3  -6  -8  315.67   12.30
   3  -6  -8  323.47   14.80
  -3   6   8  335.77   12.90
   2  -6  -8  260.17    9.60
   2  -6  -8  271.67   12.10
  -2   6   8  247.98   10.80
   1  -6  -8   83.39    5.70
   1  -6  -8   92.69    5.90
  -1   6   8   85.29    5.60
   0  -6  -8  124.19    6.60
   0  -6  -8  119.69    6.20
   0   6   8  123.19    6.90
  -1  -6  -8  254.37   10.60
  -1  -6  -8  256.77    9.30
  -1  -6  -8  259.77    9.70
  -1  -6  -8  248.28    9.30
   1   6   8  250.27   11.30
  -2  -6  -8   -0.30    0.80
  -2  -6  -8    0.70    1.60
  -2  -6  -8   -0.60    1.40
  -2  -6  -8    0.00    1.30
   2   6   8   -1.60    2.00
  -3  -6  -8  188.68    8.60
  -3  -6  -8  182.18    8.70
  -3  -6  -8  198.28    8.60
   3   6   8  189.58    9.80
   3   6   8  201.08    7.20
  -4  -6  -8  173.68    8.60
  -4  -6  -8  161.18    8.30
  -4  -6  -8  176.58    8.40
   4   6   8  181.88    9.70
   4   6   8  171.68    7.30
  -5  -6  -8   27.30    3.80
  -5  -6  -8   32.20    3.90
   5   6   8   36.50    3.80
   5   6   8   15.70    3.80
  -6  -6  -8   60.29    6.20
   6   6   8   51.19    5.10
   6   6   8   53.29    6.40
  -7  -6  -8  121.19    8.40
   7   6   8  106.59    7.40
   7   6   8  135.59    9.00
  -8  -6  -8  105.69    8.40
   8   6   8   94.49    7.50
   8   6   8   94.09    8.90
  -9  -6  -8  114.89    9.40
   9   6   8   90.39    8.70
   9   6   8  113.39    9.10
 -10  -6  -8   47.50    7.40
  10   6   8   56.09    7.70
  10   6   8   42.50    6.60
 -11  -6  -8   36.20    7.20
  11   6   8   36.60    7.00
  11   6   8   42.80    7.40
   8  -7  -8   64.99   10.60
   7  -7  -8   23.90    6.50
   6  -7  -8  122.79   11.70
   5  -7  -8    6.80    4.50
   4  -7  -8  126.29    9.10
   4  -7  -8  123.09    7.40
   3  -7  -8   16.60    2.80
   3  -7  -8   12.40    3.90
  -3   7   8   19.20    3.40
   2  -7  -8   15.20    3.80
  -2   7   8   26.40    3.80
   1  -7  -8  151.48    8.10
  -1   7   8  144.39    8.00
   0  -7  -8   71.09    5.00
   0  -7  -8   86.39    4.30
   0  -7  -8   77.69    5.10
   0  -7  -8   73.19    3.90
   0   7   8   83.29    6.10
  -1  -7  -8  171.38    7.40
  -1  -7  -8  171.98    7.40
  -1  -7  -8  176.58    7.60
  -1  -7  -8  173.98    8.00
   1   7   8  185.48    9.40
  -2  -7  -8  628.14   20.40
  -2  -7  -8  640.64   22.00
  -2  -7  -8  607.14   21.90
  -2  -7  -8  641.84   22.20
   2   7   8  635.24   23.60
  -3  -7  -8  823.02   27.70
  -3  -7  -8  788.62   27.30
  -3  -7  -8  803.52   27.80
   3   7   8  786.22   29.00
   3   7   8  797.52   25.40
  -4  -7  -8   38.50    4.30
  -4  -7  -8   41.50    4.20
  -4  -7  -8   48.10    4.70
   4   7   8   43.40    3.20
   4   7   8   41.70    5.20
  -5  -7  -8  296.87   12.70
  -5  -7  -8  306.27   13.40
   5   7   8  313.57   12.00
   5   7   8  284.77   14.00
  -6  -7  -8   18.00    3.90
   6   7   8   11.90    4.00
   6   7   8   16.80    3.20
  -7  -7  -8  150.98    9.60
   7   7   8  145.99    8.50
   7   7   8  143.59    9.80
  -8  -7  -8  228.78   12.60
   8   7   8  210.88   11.40
   8   7   8  218.38   12.60
  -9  -7  -8   12.90    4.60
   9   7   8   12.20    4.70
   9   7   8   12.40    4.10
 -10  -7  -8   55.89    7.80
  10   7   8   51.99    7.40
  10   7   8   55.59    7.90
 -11  -7  -8    3.80    4.70
  11   7   8    1.70    4.90
  11   7   8    2.60    4.30
   7  -8  -8    3.80    5.90
   6  -8  -8   47.20    8.00
   5  -8  -8   67.89    8.30
   4  -8  -8   23.90    5.30
   3  -8  -8   27.30    5.20
  -3   8   8   32.50    4.40
   2  -8  -8  256.27   12.20
   2  -8  -8  254.07    9.20
  -2   8   8  255.27   11.80
   1  -8  -8   34.10    4.60
   1  -8  -8   38.40    3.40
  -1   8   8   41.20    4.90
   0  -8  -8  344.17   13.60
   0  -8  -8  361.46   14.00
   0  -8  -8  359.36   13.30
   0   8   8  345.97   14.90
  -1  -8  -8  123.79    6.60
  -1  -8  -8  131.79    6.40
  -1  -8  -8  128.99    6.20
   1   8   8  117.39    7.70
  -2  -8  -8   93.39    4.30
  -2  -8  -8   90.69    5.20
  -2  -8  -8   96.09    6.10
   2   8   8   96.29    7.00
  -3  -8  -8   63.49    4.90
  -3  -8  -8   77.89    5.60
  -3  -8  -8   73.69    4.70
   3   8   8   59.79    6.40
  -4  -8  -8   53.99    4.70
  -4  -8  -8   48.40    5.10
   4   8   8   42.60    5.90
   4   8   8   58.39    3.50
  -5  -8  -8  161.58    9.20
  -5  -8  -8  150.28    8.00
   5   8   8  158.18    7.40
   5   8   8  171.88   10.10
  -6  -8  -8   18.00    3.60
   6   8   8   26.50    3.70
   6   8   8   17.60    4.50
  -7  -8  -8  152.58    9.60
   7   8   8  131.29    9.60
   7   8   8  136.59    8.10
  -8  -8  -8  195.88   12.00
   8   8   8  197.58   10.80
   8   8   8  206.08   12.20
  -9  -8  -8  100.59    9.90
   9   8   8   80.49    9.00
   9   8   8   76.39    7.90
 -10  -8  -8   19.80    5.90
  10   8   8   13.10    5.30
  10   8   8   24.00    5.50
 -11  -8  -8   43.10    8.10
  11   8   8   55.49    8.60
  11   8   8   51.89    8.40
   7  -9  -8   33.30    8.70
   6  -9  -8   -0.40    4.60
   5  -9  -8    2.70    4.30
   4  -9  -8    2.10    3.80
   3  -9  -8   54.39    3.70
   3  -9  -8   50.59    6.70
  -3   9   8   72.59    6.50
   2  -9  -8   65.19    4.50
   2  -9  -8   67.99    6.80
  -2   9   8   53.99    6.00
   1  -9  -8   75.79    6.10
   1  -9  -8   75.99    5.10
  -1   9   8   70.09    6.90
   0  -9  -8   88.99    5.80
   0  -9  -8  107.69    6.40
   0   9   8   94.69    7.10
  -1  -9  -8   25.60    3.20
  -1  -9  -8   20.10    3.40
  -1  -9  -8   25.00    2.90
   1   9   8   25.10    4.50
  -2  -9  -8   42.10    4.70
  -2  -9  -8   43.10    3.60
  -2  -9  -8   36.10    3.00
   2   9   8   29.70    5.00
  -3  -9  -8  286.17   12.70
  -3  -9  -8  273.77   10.90
   3   9   8  279.17   13.70
  -4  -9  -8   23.00    4.10
  -4  -9  -8   25.80    3.20
   4   9   8   25.00    5.00
  -5  -9  -8   51.99    5.70
  -5  -9  -8   59.69    4.70
   5   9   8   63.49    4.40
   5   9   8   56.39    6.70
  -6  -9  -8   34.60    4.20
  -6  -9  -8   32.90    4.90
   6   9   8   41.80    4.50
   6   9   8   32.40    5.70
  -7  -9  -8   61.99    7.40
   7   9   8   55.39    5.80
   7   9   8   58.59    7.50
  -8  -9  -8   24.10    5.30
   8   9   8   18.00    5.00
   8   9   8   18.50    4.20
  -9  -9  -8   62.09    8.30
   9   9   8   69.69    7.30
   9   9   8   68.89    8.80
 -10  -9  -8    2.30    4.10
  10   9   8    0.30    3.80
  10   9   8    1.20    4.30
 -11  -9  -8   12.10    5.70
  11   9   8    7.60    6.30
  11   9   8    3.80    5.00
   6 -10  -8    1.40    5.00
   5 -10  -8   -1.10    4.00
   4 -10  -8   23.30    5.60
   4 -10  -8   32.00    3.10
   3 -10  -8   51.89    6.60
   3 -10  -8   42.10    4.10
  -3  10   8   45.40    5.70
   2 -10  -8   45.90    6.10
   2 -10  -8   41.90    4.30
  -2  10   8   35.20    5.20
   1 -10  -8   55.79    5.10
   1 -10  -8   46.60    5.70
  -1  10   8   57.89    6.60
   0 -10  -8   81.99    5.90
   0 -10  -8   75.19    5.80
   0  10   8   89.89    7.30
  -1 -10  -8   68.39    4.90
  -1 -10  -8   60.69    5.70
   1  10   8   66.39    7.00
  -2 -10  -8   23.40    3.80
   2  10   8   25.10    4.80
  -3 -10  -8   69.39    6.70
   3  10   8   78.99    7.90
  -4 -10  -8   75.89    6.60
  -4 -10  -8   67.79    6.20
   4  10   8   82.99    8.30
  -5 -10  -8   20.70    4.30
  -5 -10  -8   19.20    2.90
   5  10   8   19.90    4.90
  -6 -10  -8   23.60    4.80
  -6 -10  -8   25.10    3.70
   6  10   8   24.00    5.50
   6  10   8   28.50    3.90
  -7 -10  -8   36.80    6.10
   7  10   8   42.50    5.20
   7  10   8   46.50    7.10
  -8 -10  -8  108.99    9.30
   8  10   8   88.99    7.30
   8  10   8   85.99    9.40
  -9 -10  -8   52.39    7.90
   9  10   8   40.90    7.50
   9  10   8   68.49    7.30
 -10 -10  -8   25.40    6.00
  10  10   8   20.70    6.60
  10  10   8   28.70    5.90
   5 -11  -8    5.90    5.20
   4 -11  -8   92.39    9.50
   4 -11  -8   94.19    6.00
   3 -11  -8    4.30    2.60
   3 -11  -8    3.60    4.10
   2 -11  -8    5.30    2.60
   2 -11  -8    6.10    3.80
  -2  11   8    6.70    3.60
   1 -11  -8   88.69    6.60
   1 -11  -8   96.79    7.40
  -1  11   8  106.19    8.40
   0 -11  -8  116.19    7.40
   0 -11  -8  127.19    7.90
   0  11   8  111.79    8.70
  -1 -11  -8  112.49    7.70
  -1 -11  -8  117.49    6.90
   1  11   8  120.89    9.00
  -2 -11  -8   59.79    6.20
   2  11   8   65.99    7.30
  -3 -11  -8   46.30    5.50
   3  11   8   46.80    6.40
  -4 -11  -8   20.60    4.40
   4  11   8   20.40    5.00
  -5 -11  -8   36.80    5.50
   5  11   8   47.10    6.80
  -6 -11  -8   56.19    6.90
   6  11   8   58.49    7.40
  -7 -11  -8   14.00    4.40
   7  11   8   16.80    5.10
  -8 -11  -8   32.20    6.20
   8  11   8   38.40    6.80
  -9 -11  -8   22.80    5.80
   9  11   8   31.70    6.70
   9  11   8   24.40    5.20
 -10 -11  -8   33.20    7.40
  10  11   8   17.80    5.30
  10  11   8   28.00    7.30
   5 -12  -8   16.40    3.40
   5 -12  -8   20.70    6.80
   4 -12  -8    5.70    3.20
   4 -12  -8    9.60    5.00
   3 -12  -8   15.20    3.60
   3 -12  -8   18.00    5.20
   2 -12  -8    3.40    3.70
   2 -12  -8    0.50    2.60
  -2  12   8   -3.10    2.90
   1 -12  -8   55.39    5.90
   1 -12  -8   69.39    7.30
  -1  12   8   59.89    7.40
   0 -12  -8   45.90    5.60
   0 -12  -8   43.00    5.40
   0  12   8   42.20    6.40
  -1 -12  -8   26.80    4.60
   1  12   8   28.00    5.50
  -2 -12  -8   20.00    4.20
   2  12   8   17.70    4.90
  -3 -12  -8   69.69    7.30
   3  12   8   51.99    7.20
  -4 -12  -8   37.90    5.60
   4  12   8   38.60    6.40
  -5 -12  -8   78.79    8.40
   5  12   8   60.89    7.70
  -6 -12  -8   51.29    7.20
   6  12   8   50.69    7.50
  -7 -12  -8   25.90    5.60
   7  12   8   37.40    7.20
  -8 -12  -8   10.20    4.50
   8  12   8    9.50    5.40
  -9 -12  -8   49.50    7.90
   9  12   8   69.09    9.70
   4 -13  -8   55.09    6.10
   4 -13  -8   56.39    8.80
   3 -13  -8   42.10    5.60
   3 -13  -8   44.60    7.50
   2 -13  -8   -0.80    3.00
   2 -13  -8    5.90    4.20
  -2  13   8    7.50    4.10
   1 -13  -8   23.70    5.30
   1 -13  -8   16.30    4.10
  -1  13   8   21.60    5.40
   0 -13  -8  159.08   10.20
   0  13   8  157.18   11.10
  -1 -13  -8  141.99    9.70
   1  13   8  132.69   10.50
  -2 -13  -8   18.20    4.40
   2  13   8   22.20    5.60
  -3 -13  -8   15.70    4.50
   3  13   8   17.30    4.90
  -4 -13  -8   43.10    6.50
   4  13   8   29.70    6.10
  -5 -13  -8   19.10    4.90
   5  13   8   30.10    6.50
  -6 -13  -8   19.90    5.20
   6  13   8    9.00    4.90
  -7 -13  -8   56.59    7.80
   7  13   8   58.19    8.60
  -8 -13  -8   28.20    6.50
   8  13   8   11.70    6.30
  -9 -13  -8   93.49   10.80
   9  13   8   88.59   11.20
   3 -14  -8   73.39    7.70
   2 -14  -8   31.90    6.50
   2 -14  -8   37.20    5.90
   1 -14  -8   -3.50    3.50
  -1  14   8    8.30    4.40
   0 -14  -8  124.69    9.80
   0  14   8  104.19   10.50
  -1 -14  -8   16.50    4.70
   1  14   8   30.80    6.80
  -2 -14  -8   30.00    5.70
   2  14   8   25.70    6.30
  -3 -14  -8    3.50    3.70
   3  14   8    7.10    4.70
  -4 -14  -8    3.00    3.30
   4  14   8   -2.40    4.00
  -5 -14  -8    8.90    4.30
   5  14   8    9.90    5.20
  -6 -14  -8   20.30    5.60
   6  14   8   14.10    6.00
  -7 -14  -8   26.40    6.40
   7  14   8   20.20    7.00
  -8 -14  -8   14.70    6.00
   8  14   8   13.70    7.10
   1 -15  -8   -3.00    3.80
  -1  15   8    2.90    5.00
   0 -15  -8   -0.70    4.20
   0  15   8   -2.10    4.40
  -1 -15  -8    7.30    4.70
   1  15   8   11.50    5.50
  -2 -15  -8    5.60    4.40
   2  15   8   13.30    5.80
  -3 -15  -8    2.30    3.90
   3  15   8    8.90    5.40
  -4 -15  -8    0.20    4.20
   4  15   8    6.70    5.40
  -5 -15  -8   38.60    7.20
   5  15   8   26.60    7.20
  -6 -15  -8   18.40    6.00
   6  15   8   17.20    7.00
  -7 -15  -8   49.60    8.70
   7  15   8   32.60    8.40
  -1 -16  -8   17.70    6.10
   1  16   8   15.20    6.90
  -2 -16  -8    1.80    4.70
   2  16   8    3.30    5.60
  -3 -16  -8    8.20    5.20
   3  16   8    2.10    5.90
  -4 -16  -8   35.90    7.70
   4  16   8   32.40    8.40
   3  12  -9  121.59   10.50
   3  12  -9  118.29   12.90
   2  12  -9   15.80    5.40
   1  12  -9   28.10    6.50
   0  12  -9    4.10    4.80
  -1  12  -9   10.90    5.70
  -2  12  -9    5.50    5.30
  -3  12  -9    4.10    5.80
   5  11  -9   -0.80    5.90
   4  11  -9    7.70    5.40
   3  11  -9   43.90    7.00
   3  11  -9   50.39    6.80
   3  11  -9   45.50    8.20
   2  11  -9    1.00    3.20
   2  11  -9    8.80    4.30
   1  11  -9    2.40    3.40
   1  11  -9    0.80    4.00
   0  11  -9  121.89    8.90
   0  11  -9  114.29   11.40
  -1  11  -9   47.30    7.90
  -1  11  -9   51.19    6.50
  -2  11  -9   19.40    6.30
  -2  11  -9   12.20    4.20
  -3  11  -9   15.00    5.60
  -3  11  -9   11.70    4.40
  -4  11  -9    6.00    4.20
  -4  11  -9    7.50    2.30
  -4  11  -9   15.00    3.20
  -4  11  -9   10.10    6.30
   6  10  -9   42.20    8.30
   5  10  -9   25.10    7.40
   4  10  -9   -2.90    4.30
   4  10  -9   -1.00    3.20
   3  10  -9    8.90    5.10
   3  10  -9   15.10    4.40
   3  10  -9   13.80    4.50
   2  10  -9   38.60    7.60
   2  10  -9   50.89    7.30
   2  10  -9   54.99    6.60
   1  10  -9   44.30    7.00
   1  10  -9   47.80    6.30
   0  10  -9    2.10    2.90
   0  10  -9    1.80    3.60
  -1  10  -9   32.50    6.70
  -1  10  -9   28.60    5.10
  -2  10  -9   42.30    5.90
  -2  10  -9   32.70    7.00
  -3  10  -9    6.20    3.90
  -3  10  -9   16.20    5.80
  -4  10  -9   65.09    5.20
  -4  10  -9   50.09    8.20
  -4  10  -9   73.59    8.00
  -4  10  -9   65.39    4.60
  -5  10  -9   10.70    5.70
  -5  10  -9    5.80    4.30
  -5  10  -9    9.70    3.80
  -6  10  -9   35.10    8.60
  -6  10  -9   40.90    6.40
  -6  10  -9   31.20    6.70
   7   9  -9   45.80    9.20
   7   9  -9   71.39   10.60
   6   9  -9    7.10    6.20
   6   9  -9   -5.30    5.00
   5   9  -9   13.20    5.70
   4   9  -9   14.50    5.40
   4   9  -9   16.00    4.40
   3   9  -9   19.20    5.40
   3   9  -9   29.90    5.50
   3   9  -9   25.70    5.10
   2   9  -9   17.10    4.30
   2   9  -9   13.40    4.60
   2   9  -9   20.20    5.00
   1   9  -9   26.50    5.10
   1   9  -9   42.10    6.40
   0   9  -9   43.20    6.90
   0   9  -9   50.29    6.00
  -1   9  -9   31.70    6.10
  -1   9  -9   26.90    4.90
  -2   9  -9    8.40    3.60
  -2   9  -9    6.90    3.90
  -3   9  -9   34.90    5.60
  -3   9  -9   26.50    6.10
  -4   9  -9   16.50    5.20
  -4   9  -9   12.60    4.30
  -4   9  -9   15.90    2.90
  -4   9  -9   15.70    2.60
  -5   9  -9   36.30    4.80
  -5   9  -9   32.70    6.90
  -5   9  -9   39.90    6.30
  -6   9  -9   46.60    7.20
  -6   9  -9   45.70    6.20
  -6   9  -9   39.70    8.10
  -7   9  -9   44.60    7.50
  -7   9  -9   39.60    8.50
  -7   9  -9   40.60    6.90
   7   8  -9   12.50    6.40
   7   8  -9   16.20    6.90
   6   8  -9    4.80    4.80
   6   8  -9    1.00    4.10
   5   8  -9    5.90    4.90
   5   8  -9    5.70    4.90
   4   8  -9    4.00    3.10
   4   8  -9   -0.80    3.60
   3   8  -9   15.90    4.90
   3   8  -9   26.10    5.10
   3   8  -9   26.90    5.20
   2   8  -9   -5.20    3.10
   2   8  -9    2.90    3.20
   2   8  -9    1.90    3.00
   1   8  -9    6.80    3.80
   1   8  -9   21.90    4.30
   1   8  -9   16.70    5.20
   0   8  -9   18.90    4.80
   0   8  -9   11.80    3.70
  -1   8  -9   63.89    6.90
  -1   8  -9   67.29    7.80
  -2   8  -9   23.70    4.60
  -2   8  -9   21.30    5.30
  -3   8  -9   50.29    6.30
  -3   8  -9   54.89    7.70
  -4   8  -9   -0.30    1.50
  -4   8  -9    0.30    1.80
  -4   8  -9    3.00    4.20
  -4   8  -9   -1.90    2.70
  -5   8  -9    8.30    4.10
  -5   8  -9   13.90    5.60
  -5   8  -9   23.90    3.90
  -6   8  -9   17.30    5.00
  -6   8  -9   22.70    4.60
  -6   8  -9   13.10    5.50
  -7   8  -9   31.10    6.40
  -7   8  -9   30.80    7.80
  -7   8  -9   31.50    6.00
   8   7  -9   37.90    8.70
   8   7  -9   28.10    8.10
   7   7  -9  131.29   13.00
   7   7  -9  113.49   12.30
   6   7  -9  145.19   11.40
   6   7  -9  101.29   10.70
   5   7  -9   48.40    7.40
   5   7  -9   37.50    6.60
   4   7  -9   42.30    7.10
   4   7  -9   32.90    6.60
   4   7  -9   40.00    6.00
   3   7  -9   17.10    4.20
   3   7  -9   18.50    5.00
   3   7  -9   20.00    4.30
   2   7  -9   22.40    4.50
   2   7  -9   22.20    5.40
   2   7  -9   25.60    4.80
   1   7  -9   61.89    6.70
   1   7  -9   59.79    7.50
   1   7  -9   49.70    6.50
   0   7  -9   49.60    6.00
   0   7  -9   37.00    5.90
  -1   7  -9   20.20    5.20
  -1   7  -9   27.70    4.80
  -2   7  -9   50.59    7.00
  -2   7  -9   52.59    6.20
  -3   7  -9    0.90    3.70
  -3   7  -9    1.40    2.80
  -4   7  -9    9.20    2.00
  -4   7  -9    7.80    4.00
  -4   7  -9   10.90    3.90
  -4   7  -9   10.80    2.30
  -5   7  -9   87.79    8.80
  -5   7  -9  101.99   10.60
  -5   7  -9  100.19    6.60
  -6   7  -9   31.20    7.00
  -6   7  -9   25.80    5.40
  -6   7  -9   40.90    5.30
  -7   7  -9    5.70    4.90
  -7   7  -9   -1.70    3.50
  -7   7  -9    1.70    3.60
  -8   7  -9   98.19    9.40
  -8   7  -9   71.69    9.80
  -8   7  -9   83.79    9.60
   8   6  -9   33.00    8.60
   8   6  -9   31.00    7.40
   7   6  -9   19.50    6.00
   7   6  -9   15.80    6.10
   6   6  -9    6.60    4.50
   6   6  -9    1.80    4.10
   5   6  -9   10.90    4.60
   5   6  -9    7.40    4.80
   4   6  -9   49.00    6.60
   4   6  -9   46.00    7.00
   4   6  -9   67.29    8.20
   3   6  -9  301.37   15.40
   3   6  -9  313.77   14.80
   3   6  -9  310.47   15.00
   2   6  -9  111.89    8.20
   2   6  -9  116.79    8.30
   2   6  -9  123.99    9.00
   1   6  -9  110.49    8.20
   1   6  -9  103.89    8.40
   1   6  -9  119.99    8.10
   0   6  -9   30.00    4.70
   0   6  -9   15.50    4.30
  -1   6  -9  115.49    8.00
  -1   6  -9  116.09    8.50
  -2   6  -9   94.39    7.30
  -2   6  -9   89.39    8.80
  -3   6  -9  123.29    9.20
  -3   6  -9  125.29    8.60
  -4   6  -9  184.18    7.70
  -4   6  -9  189.48   12.00
  -4   6  -9  175.18    7.50
  -4   6  -9  170.18   10.30
  -5   6  -9   72.99    8.70
  -5   6  -9   64.19    5.00
  -5   6  -9   71.89    7.80
  -5   6  -9   75.19    5.60
  -6   6  -9  168.68    9.50
  -6   6  -9  150.28   11.40
  -6   6  -9  155.38   10.80
  -7   6  -9   11.60    3.90
  -7   6  -9    7.10    4.50
  -7   6  -9    7.70    4.00
  -8   6  -9   36.00    7.50
  -8   6  -9   58.59    7.60
  -9   6  -9   16.30    6.10
  -9   6  -9   10.50    5.90
   8   5  -9   25.10    7.50
   8   5  -9   33.00    8.30
   7   5  -9    3.20    4.80
   7   5  -9    8.10    4.90
   6   5  -9  154.38   11.40
   6   5  -9  147.79   11.10
   5   5  -9   27.10    5.60
   5   5  -9   24.20    5.60
   4   5  -9  125.29    9.10
   4   5  -9  110.79    9.00
   4   5  -9  123.49    9.40
   3   5  -9   85.49    8.70
   3   5  -9   72.59    7.70
   3   5  -9   89.29    8.10
   2   5  -9    2.40    3.30
   2   5  -9    6.40    2.90
   2   5  -9    2.20    3.10
   2   5  -9   12.60    3.50
   1   5  -9   12.80    3.70
   1   5  -9   10.70    3.50
   1   5  -9   10.50    3.60
   0   5  -9  178.58   10.50
   0   5  -9  188.48   10.30
  -1   5  -9  162.18   10.40
  -1   5  -9  177.68    9.70
  -2   5  -9  501.05   20.10
  -2   5  -9  487.15   21.00
  -3   5  -9  113.39    8.90
  -3   5  -9  124.29    8.40
  -4   5  -9  236.88   13.00
  -4   5  -9  221.98   12.10
  -4   5  -9  222.48    8.80
  -4   5  -9  221.68    8.70
  -5   5  -9  218.08    9.40
  -5   5  -9  199.58   11.50
  -5   5  -9  176.08    9.20
  -5   5  -9  230.98   12.90
  -6   5  -9   16.00    4.90
  -6   5  -9   15.30    4.70
  -6   5  -9   14.60    3.50
  -7   5  -9  100.39    8.00
  -7   5  -9   83.69    9.00
  -8   5  -9   20.70    5.20
  -8   5  -9   13.50    5.20
  -9   5  -9   37.90    7.20
  -9   5  -9   49.60    7.50
   8   4  -9   41.70    7.80
   8   4  -9   32.90    8.00
   7   4  -9  232.68   14.20
   6   4  -9  116.19   11.20
   6   4  -9  122.39   11.40
   5   4  -9   57.59    7.10
   5   4  -9   53.69    7.70
   4   4  -9   12.20    4.20
   4   4  -9   20.70    4.90
   4   4  -9   18.20    4.40
   3   4  -9  106.09    8.00
   3   4  -9  103.39    8.40
   3   4  -9   92.49    7.70
   2   4  -9  209.28   11.50
   2   4  -9  219.38   11.80
   2   4  -9  207.98   11.40
   2   4  -9  226.18   11.40
   1   4  -9    6.70    3.10
   1   4  -9    1.30    2.70
   1   4  -9    0.60    2.60
   1   4  -9    4.80    2.90
   0   4  -9  324.17   14.90
   0   4  -9  334.97   14.80
   0   4  -9  322.57   15.00
  -1   4  -9  114.69    8.20
  -1   4  -9  121.99    7.80
  -2   4  -9   91.59    7.70
  -2   4  -9  110.29    7.60
  -3   4  -9  175.78   10.00
  -3   4  -9  190.28   10.80
  -4   4  -9  255.77    9.70
  -4   4  -9  259.87    9.70
  -4   4  -9  270.47   13.30
  -4   4  -9  267.57   14.00
  -5   4  -9   30.30    3.50
  -5   4  -9   23.30    5.00
  -5   4  -9   34.60    5.40
  -5   4  -9   29.20    3.60
  -6   4  -9   31.40    5.40
  -6   4  -9   32.10    5.80
  -6   4  -9   41.40    4.80
  -7   4  -9  122.89    9.70
  -7   4  -9  114.79    8.40
  -8   4  -9    2.30    3.50
  -8   4  -9    5.80    4.20
  -9   4  -9   17.40    5.40
  -9   4  -9    9.20    4.90
 -10   4  -9   11.30    5.40
 -10   4  -9   14.40    5.90
  10  -4   9   18.00    6.90
  10  -4   9    9.50    5.70
   9   3  -9   12.90    6.00
   9   3  -9    6.10    7.00
   8   3  -9   99.39   11.80
   8   3  -9   94.79   10.70
   7   3  -9   68.09    9.50
   7   3  -9   68.59    8.70
   6   3  -9    3.50    4.60
   6   3  -9   13.20    4.60
   5   3  -9   83.79    8.60
   5   3  -9   82.89    8.90
   4   3  -9   68.29    7.30
   4   3  -9   85.59    8.10
   4   3  -9   82.39    8.20
   3   3  -9   86.99    7.80
   3   3  -9   79.29    8.00
   3   3  -9   66.29    6.80
   2   3  -9   55.99    5.90
   2   3  -9   42.70    5.30
   2   3  -9   44.50    5.50
   1   3  -9  314.27   14.50
   1   3  -9  326.57   14.40
   1   3  -9  310.37   14.40
   1   3  -9  323.87   14.20
   0   3  -9   73.79    6.80
   0   3  -9   50.89    5.60
   0   3  -9   50.69    6.10
  -1   3  -9  551.34   21.50
  -1   3  -9  509.15   20.60
  -2   3  -9  173.88    9.80
  -2   3  -9  197.78   10.60
  -3   3  -9   37.90    5.10
  -3   3  -9   39.00    5.30
  -4   3  -9  235.08    8.70
  -4   3  -9  238.98   12.60
  -4   3  -9  215.28   12.00
  -4   3  -9  238.28    8.80
  -5   3  -9   26.00    4.70
  -5   3  -9   38.80    3.90
  -5   3  -9   43.40    5.80
  -5   3  -9   44.10    4.10
  -6   3  -9   26.20    5.20
  -6   3  -9   25.80    3.90
  -7   3  -9    9.50    3.20
  -7   3  -9    3.20    3.60
  -8   3  -9   20.10    4.70
  -8   3  -9   18.50    5.00
  -9   3  -9    8.80    4.50
  -9   3  -9   14.40    5.00
 -10   3  -9   16.20    5.60
 -10   3  -9   18.90    6.00
  10  -3   9   19.10    7.10
  10  -3   9   13.50    5.60
   9   2  -9   33.80    7.90
   9   2  -9   32.10    8.80
   8   2  -9   10.80    5.90
   8   2  -9    9.70    5.10
   7   2  -9    5.70    4.10
   7   2  -9    4.00    4.80
   6   2  -9    7.80    4.00
   6   2  -9   17.30    5.30
   5   2  -9   67.49    7.90
   5   2  -9   53.79    6.70
   4   2  -9   59.99    7.10
   4   2  -9   80.99    7.90
   4   2  -9   74.69    7.70
   3   2  -9   42.50    5.50
   3   2  -9   46.70    6.00
   3   2  -9   44.60    6.20
  -3  -2   9   49.80    3.20
   2   2  -9   70.09    6.90
   2   2  -9   78.39    6.20
   2   2  -9   55.89    6.00
   1   2  -9  119.79    7.70
   1   2  -9  119.69    7.60
   1   2  -9  107.79    7.10
   0   2  -9   29.00    4.50
   0   2  -9   32.60    4.40
   0   2  -9   20.30    3.70
   0   2  -9   24.50    4.40
  -1   2  -9  102.59    6.90
  -1   2  -9   81.79    6.70
  -2   2  -9   53.69    5.50
  -2   2  -9   64.99    6.60
  -3   2  -9  231.78   11.80
  -4   2  -9  472.15   16.20
  -4   2  -9  494.85   16.30
  -4   2  -9  470.05   20.10
  -4   2  -9  489.65   19.80
  -5   2  -9  211.08    9.10
  -5   2  -9  197.38   11.30
  -5   2  -9  210.58   11.70
  -5   2  -9  210.58    9.20
  -6   2  -9   50.89    5.20
  -6   2  -9   69.79    8.50
  -6   2  -9   63.39    7.20
  -7   2  -9   37.70    5.90
  -7   2  -9   52.29    5.70
  -8   2  -9    6.80    3.70
  -8   2  -9    2.20    3.30
  -9   2  -9   74.99    8.20
  -9   2  -9   85.09    8.90
   9  -2   9   92.59    9.50
   9  -2   9   80.09    9.00
 -10   2  -9    7.40    4.50
 -10   2  -9   27.60    6.10
  10  -2   9   12.10    5.20
  10  -2   9   10.80    6.40
   9   1  -9   60.29   10.30
   9   1  -9   55.59    8.60
   8   1  -9    5.50    4.60
   8   1  -9    6.50    6.00
   7   1  -9   19.60    6.00
   7   1  -9   20.90    5.40
   6   1  -9   22.30    5.60
   6   1  -9   14.70    4.50
   5   1  -9    9.30    4.50
   5   1  -9    7.10    3.60
   4   1  -9  121.19    8.10
   4   1  -9  104.99    8.50
   3   1  -9   31.60    4.90
   3   1  -9   26.80    4.40
   3   1  -9   31.60    5.00
  -3  -1   9   27.00    2.20
   2   1  -9   96.99    6.60
   2   1  -9   89.99    7.00
   2   1  -9   96.89    7.10
  -2  -1   9   96.79    4.90
   1   1  -9  404.06   15.90
   1   1  -9  388.56   16.40
   1   1  -9  390.26   16.20
   0   1  -9   42.90    4.90
   0   1  -9   59.49    5.60
   0   1  -9   56.29    5.50
  -1   1  -9   74.19    6.30
  -1   1  -9   90.69    6.20
  -2   1  -9   30.20    4.20
  -2   1  -9   32.40    4.70
  -3   1  -9    4.70    2.70
  -3   1  -9    6.30    3.00
  -4   1  -9  246.98   11.80
  -4   1  -9  229.28    8.70
  -4   1  -9  237.78    8.60
  -4   1  -9  239.28   12.10
  -5   1  -9   11.00    2.20
  -5   1  -9    3.90    2.90
  -5   1  -9    7.30    2.10
  -5   1  -9    5.90    3.40
  -6   1  -9  138.29    7.60
  -6   1  -9  146.69    8.00
  -6   1  -9  151.18    9.40
  -7   1  -9  234.28   12.50
  -7   1  -9  227.38   11.60
   7  -1   9  230.08   12.80
  -8   1  -9   50.79    6.30
  -8   1  -9   39.10    5.80
   8  -1   9   39.70    6.20
  -9   1  -9   11.10    3.90
  -9   1  -9   -0.10    3.50
   9  -1   9    3.70    3.80
   9  -1   9    0.50    3.80
 -10   1  -9   12.70    4.90
 -10   1  -9   11.70    4.50
  10  -1   9   11.70    5.00
  10  -1   9   14.30    5.70
  10  -1   9   15.70    5.20
 -11   1  -9   19.00    6.30
  11  -1   9   15.50    5.50
  11  -1   9   26.40    7.40
  11  -1   9   16.70    6.10
   9   0  -9   25.20    7.10
   9   0  -9   16.30    7.90
   8   0  -9   46.80    8.30
   8   0  -9   26.10    6.10
   7   0  -9    7.50    4.50
   7   0  -9    4.10    3.90
   6   0  -9   36.10    5.70
   6   0  -9   31.80    6.20
   5   0  -9  101.69    7.60
   5   0  -9   94.49    9.20
   4   0  -9  186.18   10.00
   4   0  -9  170.98   10.70
   3   0  -9  408.66   17.20
   3   0  -9  410.16   17.30
   3   0  -9  401.76   16.30
  -3   0   9  381.66   13.10
   2   0  -9   27.50    4.00
   2   0  -9   34.40    4.90
   2   0  -9   37.20    5.00
  -2   0   9   31.90    2.90
   1   0  -9   70.39    5.40
   1   0  -9   79.99    6.00
   1   0  -9   76.89    5.90
  -1   0   9   82.49    4.60
   0   0  -9  131.89    6.90
   0   0  -9  119.79    6.90
   0   0  -9  122.39    7.50
   0   0   9  124.39    6.40
  -1   0  -9  115.89    7.20
   1   0   9  103.49    6.20
  -2   0  -9    9.50    2.90
  -2   0  -9   16.70    3.60
   2   0   9   15.80    3.20
  -3   0  -9   31.60    4.60
  -3   0  -9   31.90    4.40
   3   0   9   45.70    5.20
  -4   0  -9  948.31   30.70
  -4   0  -9  956.60   30.70
  -4   0  -9  905.81   34.10
  -4   0  -9  994.90   34.20
   4   0   9  963.20   33.90
  -5   0  -9  194.18    8.40
  -5   0  -9  189.08    8.50
  -5   0  -9  183.78   10.20
  -5   0  -9  198.18   10.60
   5   0   9  177.28   10.20
  -6   0  -9   48.60    4.70
  -6   0  -9   45.10    5.80
  -6   0  -9   35.60    4.20
   6   0   9   36.80    5.30
  -7   0  -9   50.19    5.50
  -7   0  -9   50.59    6.20
   7   0   9   58.49    7.00
  -8   0  -9   50.79    6.10
  -8   0  -9   55.09    6.50
   8   0   9   61.69    7.30
   8   0   9   60.19    7.40
  -9   0  -9   36.90    5.90
  -9   0  -9   36.50    5.60
   9   0   9   29.30    5.80
   9   0   9   36.50    6.30
 -10   0  -9   16.40    4.70
 -10   0  -9   19.00    5.60
  10   0   9   11.50    5.00
  10   0   9   17.30    4.90
  10   0   9   22.00    5.80
 -11   0  -9   68.19    9.40
  11   0   9   57.59    9.40
  11   0   9   65.39    9.10
   9  -1  -9   11.20    5.40
   9  -1  -9   32.90    8.60
   8  -1  -9   58.39    9.20
   8  -1  -9   54.69    7.70
   7  -1  -9   38.20    6.40
   7  -1  -9   34.90    6.60
   6  -1  -9   53.29    7.60
   6  -1  -9   37.90    6.00
   5  -1  -9   37.40    6.40
   5  -1  -9   37.20    5.40
   4  -1  -9  105.89    8.10
   4  -1  -9  115.39    7.50
   3  -1  -9  451.35   17.60
   3  -1  -9  453.45   18.70
   3  -1  -9  440.66   18.80
   2  -1  -9   18.70    3.20
   2  -1  -9   14.50    3.60
   2  -1  -9   21.10    4.00
  -2   1   9   23.40    2.40
   1  -1  -9  266.57   11.80
   1  -1  -9  275.07   12.50
   1  -1  -9  265.47   11.20
  -1   1   9  272.57   10.50
   0  -1  -9   93.19    5.50
   0  -1  -9   94.89    6.60
   0  -1  -9   98.59    6.00
   0   1   9   93.49    5.40
  -1  -1  -9  216.98   10.30
  -1  -1  -9  204.28    9.20
   1   1   9  203.48    9.40
  -2  -1  -9   67.49    5.40
   2   1   9   62.29    5.10
  -3  -1  -9  135.09    7.80
   3   1   9  128.79    7.60
  -4  -1  -9  156.68    9.00
  -4  -1  -9  169.68    6.70
  -4  -1  -9  151.08    8.90
  -4  -1  -9  160.18    6.50
   4   1   9  156.28    9.00
  -5  -1  -9  116.19    6.20
  -5  -1  -9  113.69    7.70
  -5  -1  -9  112.89    6.00
   5   1   9  105.39    7.70
  -6  -1  -9   21.90    3.30
  -6  -1  -9   21.00    3.40
  -6  -1  -9   24.30    4.30
   6   1   9   23.90    4.60
  -7  -1  -9   75.69    7.10
  -7  -1  -9   56.19    5.60
   7   1   9   49.90    6.20
  -8  -1  -9   22.50    4.40
  -8  -1  -9   25.00    4.50
   8   1   9   20.40    4.90
   8   1   9   26.70    5.40
  -9  -1  -9   22.60    5.00
  -9  -1  -9   37.50    5.60
   9   1   9   42.20    6.60
   9   1   9   40.00    5.50
   9   1   9   36.30    6.20
 -10  -1  -9    9.90    4.40
  10   1   9    0.60    4.10
  10   1   9    6.10    4.70
  10   1   9    9.10    4.00
 -11  -1  -9   19.70    5.80
  11   1   9   11.70    6.00
  11   1   9   13.60    5.20
   9  -2  -9   20.30    8.00
   8  -2  -9   31.00    7.70
   8  -2  -9   19.60    5.60
   7  -2  -9  135.99    9.70
   7  -2  -9  131.29   12.50
   6  -2  -9   48.90    6.40
   6  -2  -9   43.90    7.30
   5  -2  -9   91.89    7.20
   5  -2  -9  101.19    9.60
   4  -2  -9  193.88    9.90
   4  -2  -9  197.78   11.10
   3  -2  -9  287.27   13.20
   3  -2  -9  271.07   11.80
   3  -2  -9  271.97   13.30
  -3   2   9  266.57    9.40
   2  -2  -9  417.86   15.80
   2  -2  -9  407.36   16.90
   2  -2  -9  414.36   17.20
  -2   2   9  434.06   14.70
   1  -2  -9   27.80    3.90
   1  -2  -9   27.20    3.30
   1  -2  -9   31.40    4.40
  -1   2   9   20.40    2.70
   0  -2  -9  353.56   14.50
   0  -2  -9  357.06   13.70
   0  -2  -9  336.97   13.00
   0   2   9  341.87   13.30
  -1  -2  -9  102.39    6.80
  -1  -2  -9  111.69    5.80
   1   2   9  114.89    6.40
  -2  -2  -9  345.87   14.30
   2   2   9  333.97   13.80
  -3  -2  -9   14.80    3.30
   3   2   9   17.60    3.50
  -4  -2  -9   85.19    4.40
  -4  -2  -9   88.39    4.40
  -4  -2  -9   83.69    6.50
   4   2   9   82.69    6.40
  -5  -2  -9  104.79    5.80
  -5  -2  -9   99.89    7.10
  -5  -2  -9  111.79    6.10
   5   2   9  104.99    7.50
   5   2   9  103.29    6.80
  -6  -2  -9   52.99    5.20
  -6  -2  -9   45.70    4.60
   6   2   9   59.69    6.50
  -7  -2  -9   37.10    4.90
   7   2   9   24.60    4.70
   7   2   9   30.20    5.00
  -8  -2  -9    8.60    3.40
   8   2   9    0.10    3.30
   8   2   9    5.60    3.60
   8   2   9    6.00    2.80
  -9  -2  -9    3.10    3.30
   9   2   9    1.90    2.90
   9   2   9    5.00    4.00
   9   2   9   -0.20    3.20
 -10  -2  -9    1.30    3.70
  10   2   9    3.90    4.10
  10   2   9    4.70    4.00
 -11  -2  -9   32.20    6.80
  11   2   9   30.20    6.80
  11   2   9   36.70    7.60
   8  -3  -9   42.80    8.50
   8  -3  -9   56.69    7.70
   7  -3  -9   70.29    7.80
   7  -3  -9   44.10    7.60
   6  -3  -9   14.70    4.20
   6  -3  -9   10.70    4.80
   5  -3  -9    1.10    3.60
   5  -3  -9   -0.50    2.80
   4  -3  -9   12.90    4.20
   4  -3  -9   13.00    3.20
   3  -3  -9   38.50    4.20
   3  -3  -9   46.10    5.70
  -3   3   9   38.80    2.80
   2  -3  -9    5.70    2.00
   2  -3  -9    5.50    2.70
   2  -3  -9    7.20    3.00
  -2   3   9    6.40    1.80
   1  -3  -9   35.40    4.40
   1  -3  -9   34.10    3.30
   1  -3  -9   33.70    4.30
  -1   3   9   33.40    3.40
   0  -3  -9   43.40    4.80
   0  -3  -9   41.60    4.10
   0   3   9   36.70    3.80
  -1  -3  -9  239.28    9.70
  -1  -3  -9  250.77   11.10
   1   3   9  242.68   10.50
  -2  -3  -9   37.00    4.20
   2   3   9   37.10    4.30
  -3  -3  -9    3.60    2.60
   3   3   9    6.30    2.50
  -4  -3  -9  276.37   10.70
  -4  -3  -9  281.87   10.60
  -4  -3  -9  262.17   12.60
   4   3   9  291.77   12.90
   4   3   9  296.07   12.10
  -5  -3  -9  359.56   15.80
  -5  -3  -9  397.26   14.70
  -5  -3  -9  378.86   14.70
   5   3   9  365.26   16.20
   5   3   9  387.56   15.60
  -6  -3  -9  143.09    7.60
  -6  -3  -9  141.89    8.00
   6   3   9  137.79    8.00
   6   3   9  128.59    8.80
  -7  -3  -9   34.50    4.70
   7   3   9   49.70    4.20
   7   3   9   36.20    5.20
   7   3   9   39.40    5.40
  -8  -3  -9   17.50    4.20
   8   3   9   17.10    4.30
   8   3   9   11.90    4.10
  -9  -3  -9   31.70    5.70
   9   3   9   29.10    5.80
   9   3   9   32.20    6.00
 -10  -3  -9   34.20    6.40
  10   3   9   40.40    6.70
  10   3   9   33.10    6.30
 -11  -3  -9   -1.20    4.10
  11   3   9   -0.10    4.60
  11   3   9    4.20    4.60
   8  -4  -9   26.40    5.80
   8  -4  -9   14.50    6.70
   7  -4  -9  114.49    9.00
   7  -4  -9  134.99   11.30
   6  -4  -9   19.90    4.50
   6  -4  -9   23.40    5.80
   5  -4  -9    7.50    4.50
   5  -4  -9   12.10    3.60
   4  -4  -9   19.10    4.60
   4  -4  -9   29.90    4.20
   3  -4  -9   33.30    3.80
   3  -4  -9   42.50    5.60
  -3   4   9   38.80    3.20
   2  -4  -9   61.99    6.20
   2  -4  -9   57.59    4.10
   2  -4  -9   67.99    6.40
  -2   4   9   62.49    4.20
   1  -4  -9   95.19    6.50
   1  -4  -9  104.69    6.40
   1  -4  -9   96.69    4.80
  -1   4   9   93.19    5.50
   0  -4  -9  227.08   10.20
   0  -4  -9  210.18    9.20
   0   4   9  200.28    9.20
  -1  -4  -9   19.30    2.60
  -1  -4  -9   19.10    3.30
   1   4   9   20.20    3.30
  -2  -4  -9  182.88    7.10
  -2  -4  -9  168.68    8.80
   2   4   9  186.08    9.10
  -3  -4  -9   49.70    4.80
  -3  -4  -9   45.70    2.80
  -3  -4  -9   45.20    2.70
   3   4   9   51.19    5.50
  -4  -4  -9   29.10    3.00
  -4  -4  -9   28.70    3.00
  -4  -4  -9   23.00    3.80
   4   4   9   28.90    4.30
  -5  -4  -9   83.89    5.80
  -5  -4  -9  105.09    6.80
  -5  -4  -9   95.39    5.80
   5   4   9   97.69    6.00
   5   4   9   99.29    7.40
  -6  -4  -9  127.59    7.80
   6   4   9  134.69    9.00
   6   4   9  136.19    7.80
  -7  -4  -9   18.30    3.90
   7   4   9   16.00    3.80
   7   4   9   17.10    4.50
  -8  -4  -9  167.98   10.20
   8   4   9  163.58   10.70
   8   4   9  162.98   10.00
  -9  -4  -9   64.79    7.70
   9   4   9   62.99    7.80
   9   4   9   65.39    7.70
 -10  -4  -9  100.29    9.90
  10   4   9   82.59    9.10
  10   4   9  109.19   10.30
 -11  -4  -9    3.00    4.70
  11   4   9    7.30    4.80
  11   4   9   -2.90    4.30
   8  -5  -9    3.00    6.30
   8  -5  -9    0.30    4.80
   7  -5  -9   47.30    6.70
   7  -5  -9   47.50    7.90
   6  -5  -9    3.10    4.40
   6  -5  -9    5.50    3.40
   5  -5  -9   87.69    6.60
   5  -5  -9   77.89    8.60
   4  -5  -9   45.80    6.40
   4  -5  -9   43.20    4.80
   3  -5  -9  528.55   21.00
   3  -5  -9  509.05   18.60
  -3   5   9  514.15   18.20
   2  -5  -9  888.61   31.60
   2  -5  -9  870.81   29.10
   2  -5  -9  879.11   31.30
  -2   5   9  893.41   29.80
   1  -5  -9  309.17   10.90
   1  -5  -9  316.27   12.90
   1  -5  -9  311.67   13.30
  -1   5   9  302.97   12.40
   0  -5  -9   42.10    4.50
   0  -5  -9   47.30    4.30
   0   5   9   39.40    4.30
  -1  -5  -9  173.88    7.60
  -1  -5  -9  206.18    9.20
   1   5   9  185.48    9.10
  -2  -5  -9   11.80    2.90
  -2  -5  -9   14.10    1.80
   2   5   9   14.20    3.10
  -3  -5  -9   89.49    4.70
  -3  -5  -9   94.39    6.20
  -3  -5  -9   92.69    4.60
   3   5   9   99.09    6.80
   3   5   9   91.99    4.50
  -4  -5  -9  228.88   11.00
  -4  -5  -9  245.08   10.00
  -4  -5  -9  236.08   10.00
   4   5   9  236.98    9.70
   4   5   9  248.58   11.70
  -5  -5  -9   25.80    3.40
  -5  -5  -9   29.60    4.10
  -5  -5  -9   21.50    3.50
   5   5   9   24.30    4.50
   5   5   9   24.80    3.40
  -6  -5  -9  134.69    8.10
   6   5   9  134.09    9.10
   6   5   9  141.19    7.80
  -7  -5  -9   79.89    6.80
   7   5   9   80.99    6.50
   7   5   9   85.29    8.20
  -8  -5  -9   23.40    4.70
   8   5   9   29.50    5.00
   8   5   9   26.70    5.20
  -9  -5  -9   42.60    6.40
   9   5   9   51.19    7.20
   9   5   9   40.50    6.10
 -10  -5  -9   16.30    5.10
  10   5   9    8.30    4.30
  10   5   9   15.60    5.10
 -11  -5  -9   53.99    8.40
  11   5   9   46.60    7.80
  11   5   9   38.00    7.30
   8  -6  -9  108.59   12.40
   7  -6  -9    7.10    5.20
   6  -6  -9    8.50    5.20
   5  -6  -9   21.70    5.40
   5  -6  -9   36.20    5.20
   4  -6  -9   54.29    5.10
   4  -6  -9   50.09    6.60
   3  -6  -9   15.90    4.10
   3  -6  -9   17.10    2.80
  -3   6   9   15.60    2.90
   2  -6  -9   34.70    4.80
   2  -6  -9   34.50    2.80
  -2   6   9   35.40    4.00
   1  -6  -9  161.08    8.50
   1  -6  -9  161.18    8.60
  -1   6   9  164.18    8.20
   0  -6  -9  240.48   10.60
   0  -6  -9  227.48    9.80
   0   6   9  222.68   10.40
  -1  -6  -9   45.40    4.50
  -1  -6  -9   38.90    3.20
   1   6   9   38.60    4.60
  -2  -6  -9  120.29    5.10
  -2  -6  -9  119.69    4.80
  -2  -6  -9  106.49    6.50
  -2  -6  -9  120.89    5.20
   2   6   9  111.39    7.20
  -3  -6  -9  421.66   15.30
  -3  -6  -9  415.96   15.30
  -3  -6  -9  422.06   16.30
   3   6   9  420.76   14.20
   3   6   9  436.26   17.50
  -4  -6  -9  176.98    8.30
  -4  -6  -9  183.78    9.00
  -4  -6  -9  165.18    8.30
   4   6   9  182.18    7.50
   4   6   9  176.98    9.90
  -5  -6  -9  442.96   17.50
  -5  -6  -9  448.86   17.80
  -5  -6  -9  451.65   18.10
   5   6   9  479.05   19.40
   5   6   9  469.75   16.90
  -6  -6  -9   45.20    5.50
   6   6   9   57.19    6.40
   6   6   9   61.29    5.00
  -7  -6  -9    4.80    2.80
   7   6   9   -2.30    3.00
   7   6   9   -0.30    2.50
  -8  -6  -9   91.59    8.00
   8   6   9   90.99    9.00
   8   6   9   96.79    7.50
  -9  -6  -9   13.70    4.60
   9   6   9    9.80    4.30
   9   6   9    4.10    3.40
 -10  -6  -9   84.49    9.10
  10   6   9   60.49    7.60
  10   6   9   65.09    8.20
 -11  -6  -9   15.10    5.90
  11   6   9   13.10    5.50
  11   6   9   18.70    5.70
   7  -7  -9   10.80    5.90
   6  -7  -9    7.60    5.10
   5  -7  -9   29.60    6.00
   4  -7  -9   48.60    6.80
   3  -7  -9  201.28   11.40
  -3   7   9  206.88    9.70
   2  -7  -9   92.69    6.90
  -2   7   9   90.99    6.10
   1  -7  -9   -2.00    2.20
   1  -7  -9    1.40    2.20
  -1   7   9   -0.80    2.10
   0  -7  -9   65.49    4.90
   0  -7  -9   63.59    5.00
   0   7   9   72.29    5.60
  -1  -7  -9  349.96   12.30
  -1  -7  -9  355.06   12.30
  -1  -7  -9  368.16   13.20
  -1  -7  -9  359.16   14.20
   1   7   9  370.56   15.20
  -2  -7  -9   33.40    2.30
  -2  -7  -9   28.10    3.00
  -2  -7  -9   30.60    3.80
  -2  -7  -9   29.00    3.00
   2   7   9   31.20    4.70
  -3  -7  -9  273.27   11.40
  -3  -7  -9  265.07   11.00
  -3  -7  -9  259.67   10.80
   3   7   9  262.97   12.60
  -4  -7  -9  107.09    6.30
  -4  -7  -9  103.09    6.50
  -4  -7  -9  110.39    6.70
   4   7   9  101.59    7.60
   4   7   9  116.79    5.20
  -5  -7  -9  138.19    7.90
  -5  -7  -9  131.79    7.90
   5   7   9  134.79    6.70
   5   7   9  127.59    8.70
  -6  -7  -9  376.26   15.90
  -6  -7  -9  354.26   15.40
   6   7   9  365.36   16.80
   6   7   9  365.96   14.50
  -7  -7  -9   49.20    5.80
   7   7   9   66.09    5.90
   7   7   9   49.10    6.80
  -8  -7  -9  122.79    9.30
   8   7   9  124.79    9.60
   8   7   9  119.59    8.20
  -9  -7  -9   68.99    8.20
   9   7   9   47.90    7.50
   9   7   9   73.29    7.70
 -10  -7  -9    0.60    4.00
  10   7   9   15.50    5.50
  10   7   9    4.40    3.90
 -11  -7  -9   67.19    9.00
  11   7   9   47.80    8.10
  11   7   9   68.79    9.40
   7  -8  -9   -0.80    5.60
   6  -8  -9    2.30    4.70
   5  -8  -9  160.38   11.60
   4  -8  -9   29.50    5.60
   3  -8  -9   81.89    8.30
  -3   8   9   80.89    6.20
   2  -8  -9   29.40    4.90
  -2   8   9   31.30    4.50
   1  -8  -9   87.49    6.40
  -1   8   9   87.79    6.50
   0  -8  -9  451.75   15.20
   0  -8  -9  437.96   15.10
   0  -8  -9  437.86   16.90
   0  -8  -9  444.86   17.00
   0   8   9  478.05   18.40
  -1  -8  -9  293.37   10.90
  -1  -8  -9  275.87   10.90
  -1  -8  -9  282.97   11.00
  -1  -8  -9  286.27   11.70
   1   8   9  270.57   12.90
  -2  -8  -9   69.39    4.80
  -2  -8  -9   70.59    4.00
  -2  -8  -9   70.89    4.80
  -2  -8  -9   71.39    4.70
   2   8   9   67.29    6.80
  -3  -8  -9  338.47   13.80
  -3  -8  -9  336.47   13.60
  -3  -8  -9  337.17   13.50
   3   8   9  364.46   15.70
  -4  -8  -9   10.00    3.30
  -4  -8  -9    8.70    2.70
  -4  -8  -9   10.30    2.80
   4   8   9   15.50    4.20
  -5  -8  -9  279.47   12.90
  -5  -8  -9  285.27   12.30
   5   8   9  275.67   11.00
   5   8   9  281.17   13.90
  -6  -8  -9   28.20    4.20
  -6  -8  -9   27.20    4.50
   6   8   9   27.70    5.50
   6   8   9   26.70    3.70
  -7  -8  -9  139.49    9.50
   7   8   9  138.89   10.10
   7   8   9  155.38    8.30
  -8  -8  -9   73.79    7.90
   8   8   9   86.59    6.90
   8   8   9   84.59    9.20
  -9  -8  -9   88.09    8.90
   9   8   9   85.09    8.20
   9   8   9   81.79    9.40
 -10  -8  -9   15.60    5.20
  10   8   9   24.90    5.30
  10   8   9   18.90    6.00
 -11  -8  -9   37.10    7.60
  11   8   9   38.50    8.10
  11   8   9   32.10    6.70
   6  -9  -9    3.80    5.40
   5  -9  -9   25.10    6.40
   4  -9  -9   25.20    5.60
   3  -9  -9    4.50    3.60
  -3   9   9    8.30    3.20
   2  -9  -9   58.79    6.40
  -2   9   9   42.30    5.30
   1  -9  -9  129.39    5.80
   1  -9  -9  133.69    8.20
  -1   9   9  134.39    8.40
   0  -9  -9  121.79    7.00
   0  -9  -9  113.69    6.00
   0   9   9  114.69    7.80
  -1  -9  -9  375.66   14.20
  -1  -9  -9  367.76   14.30
  -1  -9  -9  376.36   14.00
   1   9   9  360.96   16.20
  -2  -9  -9   24.50    3.10
  -2  -9  -9   16.30    2.90
  -2  -9  -9   23.40    3.20
   2   9   9   15.10    4.10
  -3  -9  -9   93.89    5.40
  -3  -9  -9   92.39    9.80
  -3  -9  -9   79.79    6.20
   3   9   9   86.59    8.00
  -4  -9  -9  123.69    6.50
  -4  -9  -9  101.49    7.20
   4   9   9  109.89    8.20
  -5  -9  -9  182.08   10.00
  -5  -9  -9  175.28    8.70
   5   9   9  185.48   11.20
  -6  -9  -9  133.59    9.20
  -6  -9  -9  152.68    8.30
   6   9   9  150.68    7.70
   6   9   9  161.38   10.60
  -7  -9  -9  146.89    9.80
   7   9   9  140.89   10.20
   7   9   9  144.49    8.20
  -8  -9  -9  138.59   10.30
   8   9   9  131.99   10.50
   8   9   9  147.19    8.90
  -9  -9  -9   17.80    5.30
   9   9   9   18.30    4.60
   9   9   9   26.30    6.20
 -10  -9  -9   19.70    5.80
  10   9   9   15.00    6.40
  10   9   9   25.90    5.60
 -11  -9  -9  116.99   12.20
  11   9   9  120.79   12.80
   6 -10  -9   15.20    6.70
   5 -10  -9   18.80    5.70
   4 -10  -9   12.70    4.90
   3 -10  -9   37.80    6.30
  -3  10   9   52.09    6.30
   2 -10  -9  112.79    8.40
   2 -10  -9  107.99    5.30
  -2  10   9  113.69    8.30
   1 -10  -9    0.30    2.80
   1 -10  -9   -0.60    1.80
  -1  10   9    0.10    3.00
   0 -10  -9  156.08    7.80
   0 -10  -9  155.28    8.40
   0  10   9  154.28    9.70
  -1 -10  -9  144.69    7.40
  -1 -10  -9  138.99    7.90
   1  10   9  151.98    9.70
  -2 -10  -9   46.70    4.90
   2  10   9   49.70    6.40
  -3 -10  -9   96.69    7.00
   3  10   9  105.19    8.30
  -4 -10  -9  127.09    6.90
  -4 -10  -9  129.19    8.30
   4  10   9  130.99    9.40
  -5 -10  -9   38.90    5.40
  -5 -10  -9   33.30    3.90
   5  10   9   29.80    5.90
  -6 -10  -9   32.90    4.30
  -6 -10  -9   35.70    5.40
   6  10   9   26.20    5.70
  -7 -10  -9   13.90    3.60
  -7 -10  -9   19.00    4.50
   7  10   9   19.70    5.60
  -8 -10  -9   78.69    8.50
   8  10   9   83.59    9.80
   8  10   9   84.69    9.40
  -9 -10  -9    2.10    4.00
   9  10   9    8.40    5.20
   9  10   9   -3.10    3.00
 -10 -10  -9  152.68   13.90
  10  10   9  148.69   13.60
  10  10   9  150.28   10.70
   5 -11  -9   23.00    6.70
   4 -11  -9   64.99    8.50
   3 -11  -9   42.90    6.70
   2 -11  -9    3.70    2.20
   2 -11  -9    4.40    3.90
  -2  11   9   13.70    4.20
   1 -11  -9    6.20    2.50
   1 -11  -9    8.90    3.90
  -1  11   9   12.30    4.10
   0 -11  -9   15.90    3.30
   0 -11  -9   12.10    3.40
   0  11   9   25.10    5.10
  -1 -11  -9  242.38   11.50
   1  11   9  234.08   12.90
  -2 -11  -9   76.89    6.40
   2  11   9   78.49    8.20
  -3 -11  -9   29.80    4.70
   3  11   9   36.20    6.00
  -4 -11  -9    7.90    3.30
   4  11   9    9.70    4.40
  -5 -11  -9   82.19    7.90
   5  11   9   91.89    9.30
  -6 -11  -9  206.98   12.10
   6  11   9  203.78   12.80
  -7 -11  -9   56.19    7.40
   7  11   9   48.80    7.40
  -8 -11  -9   81.59    9.00
   8  11   9   75.69    9.50
  -9 -11  -9   18.30    5.70
   9  11   9   13.60    6.30
 -10 -11  -9   55.39    8.90
  10  11   9   52.29    9.20
   4 -12  -9    7.20    5.30
   3 -12  -9    1.20    2.40
   3 -12  -9    6.10    4.40
   2 -12  -9   12.70    3.20
   2 -12  -9   23.40    5.20
  -2  12   9   13.20    4.40
   1 -12  -9   84.09    8.10
   1 -12  -9   96.99    6.80
  -1  12   9   97.99    9.30
   0 -12  -9   72.69    6.30
   0  12   9   60.29    7.60
  -1 -12  -9   40.90    5.30
   1  12   9   47.00    6.60
  -2 -12  -9   18.80    4.20
   2  12   9    8.30    4.10
  -3 -12  -9   16.60    4.10
   3  12   9   15.70    4.70
  -4 -12  -9   10.20    3.90
   4  12   9   11.40    4.50
  -5 -12  -9   97.49    8.60
   5  12   9  114.19   10.80
  -6 -12  -9    8.80    3.90
   6  12   9   15.10    5.20
  -7 -12  -9    1.50    3.70
   7  12   9    3.30    4.60
  -8 -12  -9  134.79   12.50
   8  12   9  115.69   11.70
  -9 -12  -9   63.49    8.60
   9  12   9   88.09   10.80
   3 -13  -9   76.59    6.60
   3 -13  -9   69.29    9.10
   2 -13  -9   52.69    5.50
   2 -13  -9   47.50    7.10
  -2  13   9   47.80    7.30
   1 -13  -9    5.70    3.20
  -1  13   9   12.10    4.90
   0 -13  -9    4.70    3.20
   0  13   9   -1.90    3.70
  -1 -13  -9   -0.60    3.00
   1  13   9    0.20    3.80
  -2 -13  -9   48.50    6.20
   2  13   9   39.30    6.70
  -3 -13  -9   92.09    8.00
   3  13   9   75.79    8.70
  -4 -13  -9    2.70    3.20
   4  13   9    4.90    4.40
  -5 -13  -9    9.90    4.10
   5  13   9    7.70    4.60
  -6 -13  -9   30.60    6.00
   6  13   9   22.10    6.30
  -7 -13  -9   -1.90    3.80
   7  13   9    4.00    5.30
  -8 -13  -9   49.20    8.00
   8  13   9   43.50    8.60
   2 -14  -9    1.70    3.60
   1 -14  -9    3.90    3.90
  -1  14   9    1.90    4.70
   0 -14  -9   27.00    5.30
   0  14   9   29.10    6.30
  -1 -14  -9   16.60    4.80
   1  14   9   13.80    5.50
  -2 -14  -9   30.30    5.60
   2  14   9   18.30    5.90
  -3 -14  -9   -0.30    3.30
   3  14   9    3.30    4.80
  -4 -14  -9   24.00    5.70
   4  14   9   16.40    5.60
  -5 -14  -9   24.40    5.90
   5  14   9   27.70    6.70
  -6 -14  -9   17.70    5.40
   6  14   9   14.90    6.40
  -7 -14  -9   35.30    7.30
   7  14   9    8.40    6.60
   8  14   9   62.79   10.60
   0 -15  -9   18.60    5.00
   0  15   9   16.60    6.40
  -1 -15  -9   23.50    5.70
   1  15   9   34.70    7.40
  -2 -15  -9   19.10    5.50
   2  15   9    6.50    5.20
  -3 -15  -9   40.20    6.70
   3  15   9   36.50    7.40
  -4 -15  -9    5.60    5.10
   4  15   9   14.30    6.00
  -5 -15  -9   18.00    6.20
   5  15   9   11.30    6.70
  -6 -15  -9   13.50    5.60
   6  15   9   27.50    8.10
   1  12 -10   26.00    6.70
   0  12 -10   22.20    7.00
  -1  12 -10    2.20    5.10
   4  11 -10   47.20    9.30
   3  11 -10   51.09    7.20
   3  11 -10   37.80    8.10
   3  11 -10   43.30    7.20
   2  11 -10    9.40    4.70
   2  11 -10    1.20    3.60
   1  11 -10    8.20    5.00
   1  11 -10   -0.90    3.60
   0  11 -10   47.10    8.00
   0  11 -10   51.09    7.10
  -1  11 -10   15.00    6.00
  -1  11 -10   27.20    5.30
  -2  11 -10   45.80    6.70
  -2  11 -10   33.00    7.50
  -3  11 -10   45.90    7.00
  -3  11 -10   39.60    8.80
   5  10 -10   38.10    8.80
   4  10 -10   13.80    6.50
   4  10 -10   14.60    5.20
   3  10 -10    2.70    5.50
   3  10 -10   14.00    4.60
   3  10 -10    9.20    4.30
   2  10 -10    3.10    3.70
   2  10 -10    4.60    4.90
   2  10 -10   -2.50    3.40
   1  10 -10   18.40    4.80
   1  10 -10    9.00    4.70
   0  10 -10    6.60    4.20
   0  10 -10    4.20    3.80
  -1  10 -10   35.30    7.30
  -1  10 -10   45.60    6.50
  -2  10 -10   12.80    5.60
  -2  10 -10   22.20    5.00
  -3  10 -10   24.60    5.20
  -3  10 -10   18.50    6.30
  -4  10 -10   -2.50    5.00
  -4  10 -10    1.20    3.70
  -5  10 -10   14.60    5.30
  -5  10 -10   13.60    6.80
   6   9 -10    0.10    5.70
   6   9 -10    9.70    6.60
   5   9 -10   31.50    7.80
   4   9 -10   12.10    5.90
   4   9 -10   15.90    4.40
   3   9 -10   10.90    4.50
   3   9 -10   17.00    5.80
   3   9 -10    8.30    4.30
   2   9 -10   21.90    5.10
   2   9 -10   15.90    5.00
   2   9 -10   23.60    5.60
   1   9 -10   33.40    5.80
   1   9 -10   33.20    6.30
   0   9 -10   31.90    6.30
   0   9 -10   21.90    4.90
  -1   9 -10   29.70    5.30
  -1   9 -10   23.30    6.00
  -2   9 -10   -2.80    2.90
  -2   9 -10    2.60    3.80
  -3   9 -10    6.80    3.90
  -3   9 -10   11.30    5.40
  -4   9 -10   10.20    5.40
  -4   9 -10   10.00    4.30
  -5   9 -10    5.20    2.00
  -5   9 -10    9.10    4.30
  -5   9 -10    9.20    6.00
  -5   9 -10    6.00    2.40
  -6   9 -10   25.00    6.00
  -6   9 -10   27.50    4.70
  -6   9 -10   12.50    6.60
   6   8 -10   10.70    6.20
   6   8 -10    0.00    5.90
   5   8 -10   36.80    7.30
   5   8 -10   41.60    7.80
   4   8 -10   20.30    6.00
   3   8 -10    3.20    3.50
   3   8 -10   -3.00    2.80
   3   8 -10    6.40    4.20
   2   8 -10  106.89    8.50
   2   8 -10   90.19    9.10
   2   8 -10   98.79   10.30
   1   8 -10   74.09    8.30
   1   8 -10   91.29    8.50
   0   8 -10   19.60    4.70
   0   8 -10   14.80    4.90
  -1   8 -10   73.69    8.50
  -1   8 -10   73.19    7.70
  -2   8 -10   72.09    8.90
  -2   8 -10   59.89    6.90
  -3   8 -10   12.00    4.90
  -3   8 -10   11.60    3.90
  -4   8 -10   27.30    5.40
  -4   8 -10   33.60    6.80
  -5   8 -10   41.80    7.20
  -5   8 -10   48.30    6.90
  -5   8 -10   42.60    3.70
  -5   8 -10   49.40    4.30
  -6   8 -10   43.70    6.90
  -6   8 -10   50.79    5.60
  -6   8 -10   40.80    8.30
  -7   8 -10   48.30    8.90
  -7   8 -10   65.49    7.20
  -7   8 -10   64.29    8.90
   7   7 -10    6.10    5.80
   7   7 -10   15.50    6.80
   6   7 -10   13.20    5.90
   6   7 -10   13.90    5.60
   5   7 -10   53.29    8.20
   5   7 -10   44.00    7.90
   4   7 -10   71.99    9.00
   4   7 -10   60.99    7.50
   4   7 -10   67.59    8.80
   3   7 -10   30.40    6.30
   3   7 -10   31.90    5.50
   3   7 -10   37.40    5.80
   2   7 -10   87.49    9.40
   2   7 -10   54.09    6.90
   2   7 -10   50.19    6.70
   1   7 -10  135.89    9.40
   1   7 -10  133.89   10.30
   1   7 -10  139.19    9.90
   0   7 -10   32.80    6.00
   0   7 -10   33.70    5.60
  -1   7 -10   63.99    8.00
  -1   7 -10   69.99    7.20
  -2   7 -10  100.29   10.00
  -2   7 -10   99.69    8.00
  -3   7 -10   60.39    7.10
  -3   7 -10   64.99    8.40
  -4   7 -10    7.60    4.00
  -4   7 -10   13.40    4.60
  -5   7 -10   87.79    9.00
  -5   7 -10   89.29    5.30
  -5   7 -10   88.39    5.10
  -5   7 -10   85.09    9.80
  -6   7 -10   47.80    7.30
  -6   7 -10   43.20    7.70
  -6   7 -10   63.79    6.00
  -7   7 -10   40.20    7.70
  -7   7 -10   33.90    6.50
  -7   7 -10   25.70    5.20
  -8   7 -10   49.99    8.90
  -8   7 -10   41.90    7.00
  -8   7 -10   42.00    7.40
   7   6 -10   35.30    7.80
   7   6 -10   24.40    7.50
   6   6 -10   -0.80    4.00
   6   6 -10   -0.60    4.90
   5   6 -10   77.39    9.40
   5   6 -10  100.79   10.50
   4   6 -10  132.39   10.30
   4   6 -10  163.68   11.60
   4   6 -10  153.08   10.60
   3   6 -10   29.70    6.20
   3   6 -10   23.10    5.20
   3   6 -10   39.90    6.10
   2   6 -10    5.40    3.60
   2   6 -10   11.60    3.80
   2   6 -10    7.80    4.30
   1   6 -10   20.70    4.60
   1   6 -10   20.30    4.70
   1   6 -10   34.40    5.50
   0   6 -10   75.59    8.00
   0   6 -10   57.69    6.60
  -1   6 -10  189.98   11.90
  -1   6 -10  211.48   11.40
  -2   6 -10  235.08   12.50
  -2   6 -10  253.07   14.00
  -3   6 -10  107.89    8.90
  -3   6 -10  105.29    8.30
  -4   6 -10   14.50    4.60
  -4   6 -10   14.40    4.50
  -5   6 -10  131.29    6.10
  -5   6 -10  113.99    9.30
  -5   6 -10  111.49   11.10
  -5   6 -10  117.39    6.10
  -6   6 -10    1.30    3.90
  -6   6 -10    5.00    2.60
  -6   6 -10    1.90    3.50
  -7   6 -10   59.39    8.50
  -7   6 -10   83.19    7.50
  -7   6 -10   77.69    9.20
  -8   6 -10   34.20    7.20
  -8   6 -10   37.90    6.10
  -8   6 -10   24.50    6.80
   8   5 -10    2.60    6.50
   8   5 -10   -1.00    6.80
   7   5 -10   27.80    7.10
   7   5 -10   34.90    7.70
   6   5 -10   58.19    8.30
   6   5 -10   54.79    8.20
   5   5 -10  169.78   12.10
   5   5 -10  191.08   12.30
   4   5 -10   60.99    7.90
   4   5 -10   77.39    8.40
   4   5 -10   60.69    7.50
   3   5 -10   16.30    4.60
   3   5 -10   13.30    4.60
   3   5 -10   18.70    5.00
   2   5 -10   73.99    7.50
   2   5 -10   64.39    7.00
   2   5 -10   75.69    8.10
   2   5 -10   72.29    8.00
   1   5 -10  147.79    9.80
   1   5 -10  166.58   10.30
   1   5 -10  160.78   10.20
   0   5 -10   11.10    3.80
   0   5 -10    7.10    3.30
  -1   5 -10  102.99    8.20
  -1   5 -10   83.39    7.80
  -2   5 -10   64.59    7.00
  -2   5 -10   71.39    8.00
  -3   5 -10    5.60    3.50
  -3   5 -10    3.80    3.20
  -4   5 -10    0.80    3.40
  -4   5 -10    4.50    3.10
  -5   5 -10  206.78    8.60
  -5   5 -10  201.08   11.90
  -5   5 -10  195.18   12.50
  -5   5 -10  213.68    8.60
  -6   5 -10   27.10    6.00
  -6   5 -10   31.40    5.90
  -6   5 -10   35.40    4.40
  -7   5 -10   53.29    7.30
  -7   5 -10   43.40    7.40
  -7   5 -10   51.99    5.80
  -8   5 -10   -2.50    3.20
  -8   5 -10   -2.00    3.90
  -9   5 -10   38.00    7.90
  -9   5 -10   28.00    6.50
   8   4 -10   28.70    8.10
   8   4 -10   19.90    7.30
   7   4 -10   55.59    8.80
   7   4 -10   40.80    7.90
   6   4 -10   77.69    9.50
   6   4 -10  100.39   10.30
   5   4 -10   63.49    8.00
   5   4 -10   39.80    6.90
   4   4 -10   67.19    7.90
   4   4 -10   53.29    7.30
   4   4 -10   46.80    6.80
   3   4 -10   14.80    4.30
   3   4 -10    8.90    4.10
   3   4 -10   12.50    4.10
   2   4 -10   55.79    6.80
   2   4 -10   53.39    6.50
   2   4 -10   38.00    5.70
   1   4 -10   54.69    6.30
   1   4 -10   41.70    5.60
   1   4 -10   62.49    7.10
   0   4 -10   17.30    4.00
   0   4 -10   23.30    4.70
  -1   4 -10  324.37   15.60
  -1   4 -10  320.77   15.00
  -2   4 -10  187.58   10.60
  -2   4 -10  190.38   11.30
  -3   4 -10  209.98   11.50
  -3   4 -10  199.58   11.90
  -4   4 -10  123.19    9.50
  -4   4 -10  122.29    8.80
  -5   4 -10   59.69    3.90
  -5   4 -10   57.29    6.90
  -5   4 -10   61.29    7.40
  -5   4 -10   60.09    4.10
  -6   4 -10   24.80    3.70
  -6   4 -10   23.60    5.20
  -6   4 -10   27.10    5.70
  -6   4 -10   30.10    4.60
  -7   4 -10   20.80    5.30
  -7   4 -10   21.50    4.10
  -7   4 -10   15.20    5.00
  -8   4 -10    1.00    3.90
  -8   4 -10   -2.10    2.90
  -9   4 -10    0.50    3.90
  -9   4 -10   -0.70    3.90
   8   3 -10   11.50    6.80
   8   3 -10   19.80    6.10
   7   3 -10  152.08   12.50
   7   3 -10  128.99   12.10
   6   3 -10   -1.00    4.30
   6   3 -10    6.80    4.50
   5   3 -10  106.99   10.60
   5   3 -10   98.39    9.40
   4   3 -10   16.40    4.40
   4   3 -10   12.20    4.10
   4   3 -10    9.40    4.50
   3   3 -10  112.09    8.50
   3   3 -10   92.89    9.10
   3   3 -10   99.49    9.00
   2   3 -10  165.68    9.90
   2   3 -10  169.38   10.20
   2   3 -10  157.68   10.10
   1   3 -10   49.30    6.40
   1   3 -10   73.39    7.10
   1   3 -10   61.99    6.50
   0   3 -10  123.39    8.20
   0   3 -10  121.49    8.60
   0   3 -10  116.59    8.40
  -1   3 -10  949.51   34.30
  -1   3 -10  945.91   35.00
  -2   3 -10   16.70    4.00
  -2   3 -10   14.10    4.10
  -3   3 -10   40.90    5.70
  -3   3 -10   34.30    5.60
  -4   3 -10    7.50    3.30
  -4   3 -10    8.00    3.90
  -5   3 -10   39.60    5.90
  -5   3 -10   44.00    3.60
  -5   3 -10   41.20    6.50
  -5   3 -10   45.40    3.40
  -6   3 -10  143.09    7.30
  -6   3 -10  121.99    9.80
  -6   3 -10  132.59    7.30
  -6   3 -10  126.79    9.60
  -7   3 -10   71.69    8.40
  -7   3 -10   74.89    6.90
  -8   3 -10   54.79    7.70
  -8   3 -10   43.30    6.00
  -9   3 -10   25.80    6.10
  -9   3 -10   25.30    5.40
   9  -3  10   11.30    5.30
 -10   3 -10   18.20    5.90
 -10   3 -10   17.10    6.00
  10  -3  10    5.70    5.40
  10  -3  10   12.90    6.30
   8   2 -10   33.20    7.10
   8   2 -10   25.90    7.80
   7   2 -10   21.90    5.70
   7   2 -10   21.80    6.30
   6   2 -10   68.39    9.20
   6   2 -10   95.79    9.30
   5   2 -10   12.30    5.10
   5   2 -10   15.50    4.50
   4   2 -10  166.28   10.90
   4   2 -10  152.98   10.20
   4   2 -10  150.68    9.80
   3   2 -10  274.27   13.90
   3   2 -10  267.87   13.20
   3   2 -10  270.47   14.00
   2   2 -10  104.39    8.00
   2   2 -10   92.69    7.70
   2   2 -10  109.69    7.50
   1   2 -10  211.88   11.00
   1   2 -10  187.98   10.10
   1   2 -10  183.18   10.40
   0   2 -10  624.84   24.20
   0   2 -10  692.83   25.20
   0   2 -10  634.94   24.50
   0   2 -10  628.94   25.10
  -1   2 -10  123.19    8.10
  -1   2 -10  126.19    8.50
  -2   2 -10  290.77   14.20
  -2   2 -10  283.37   13.40
  -3   2 -10   10.20    3.40
  -3   2 -10   15.40    4.10
  -4   2 -10  137.69    9.40
  -5   2 -10  417.26   14.30
  -5   2 -10  390.06   14.10
  -5   2 -10  374.16   17.80
  -6   2 -10   24.30    3.20
  -6   2 -10   30.20    5.40
  -6   2 -10   21.40    3.40
  -6   2 -10   17.70    4.60
  -7   2 -10    9.10    3.00
  -7   2 -10    8.00    3.90
  -8   2 -10  159.68   10.00
  -8   2 -10  162.68   11.00
   8  -2  10  160.58   11.30
  -9   2 -10  138.29   10.50
  -9   2 -10  144.59   10.60
   9  -2  10  140.79   12.70
 -10   2 -10  114.89   11.10
 -10   2 -10  132.39   11.30
  10  -2  10  128.49   12.30
  10  -2  10  118.69   12.40
   8   1 -10   58.99    9.30
   8   1 -10   58.99    8.20
   7   1 -10    6.10    4.40
   7   1 -10    9.10    5.30
   6   1 -10   14.50    4.90
   6   1 -10   17.20    4.70
   5   1 -10    1.20    4.10
   5   1 -10    7.20    3.90
   4   1 -10  148.59    9.30
   4   1 -10  145.49    9.80
   3   1 -10  444.96   18.90
   3   1 -10  419.46   17.70
   3   1 -10  410.06   18.60
   2   1 -10   72.69    7.50
   2   1 -10   63.99    6.60
   2   1 -10   82.59    7.30
  -2  -1  10   70.59    4.40
   1   1 -10  113.39    7.80
   1   1 -10  116.09    8.10
   1   1 -10  108.89    7.20
  -1  -1  10  124.99    6.30
   0   1 -10  192.08   10.50
   0   1 -10  196.08   10.10
   0   1 -10  187.18    9.70
  -1   1 -10  458.15   18.70
  -1   1 -10  447.06   19.10
  -2   1 -10  166.18    9.60
  -2   1 -10  175.88   10.20
  -3   1 -10  345.27   15.30
  -3   1 -10  328.77   15.50
  -4   1 -10   39.70    5.20
  -4   1 -10   40.20    5.40
  -5   1 -10   23.60    4.80
  -5   1 -10   27.20    2.70
  -5   1 -10   26.40    2.80
  -5   1 -10   24.30    5.00
  -6   1 -10   83.49    8.20
  -6   1 -10   79.49    5.60
  -6   1 -10   75.49    5.10
  -6   1 -10   88.19    8.40
  -7   1 -10   36.70    5.90
  -7   1 -10   28.90    4.20
   7  -1  10   34.90    6.10
  -8   1 -10   35.90    5.20
  -8   1 -10   37.10    6.00
   8  -1  10   34.30    6.00
  -9   1 -10   26.60    5.40
  -9   1 -10   20.60    5.00
   9  -1  10   17.20    5.40
   9  -1  10   18.80    5.30
 -10   1 -10   10.80    5.00
 -10   1 -10   14.50    4.90
  10  -1  10   24.80    7.00
  10  -1  10   14.40    5.70
   8   0 -10   28.90    8.10
   8   0 -10   23.30    6.20
   7   0 -10   15.90    5.40
   7   0 -10   23.20    5.50
   6   0 -10   56.89    8.30
   6   0 -10   43.40    6.30
   5   0 -10   38.80    5.70
   5   0 -10   46.80    7.10
   4   0 -10  110.49    8.90
   4   0 -10  107.19    7.70
   3   0 -10   94.49    7.90
   3   0 -10   91.89    6.80
   3   0 -10   96.89    7.60
   2   0 -10    9.70    3.60
   2   0 -10   19.30    3.80
   2   0 -10   10.70    3.90
  -2   0  10   12.70    2.20
   1   0 -10  112.09    7.30
   1   0 -10  108.69    7.60
   1   0 -10  102.19    6.60
  -1   0  10  105.39    5.80
   0   0 -10  339.37   14.90
   0   0 -10  331.57   14.10
   0   0 -10  342.07   14.00
   0   0  10  341.37   13.50
  -1   0 -10  108.69    7.60
   1   0  10  119.09    6.90
  -2   0 -10  166.38    9.40
   2   0  10  167.78    8.80
  -3   0 -10   92.89    7.00
  -3   0 -10   78.69    6.60
   3   0  10   73.09    6.10
  -4   0 -10   49.99    6.20
  -4   0 -10   46.40    6.00
   4   0  10   51.69    5.90
  -5   0 -10  135.69    8.80
  -5   0 -10  115.79    5.80
  -5   0 -10  111.69    8.40
  -5   0 -10  117.99    5.70
   5   0  10  109.59    8.10
  -6   0 -10  110.49    8.20
  -6   0 -10  112.19    6.50
  -6   0 -10  103.49    6.10
  -6   0 -10  103.99    8.10
   6   0  10   89.79    8.40
  -7   0 -10   58.29    5.80
  -7   0 -10   55.99    6.80
   7   0  10   79.69    8.40
  -8   0 -10   23.40    4.30
  -8   0 -10   28.30    5.30
   8   0  10   22.40    5.40
  -9   0 -10   17.10    4.40
  -9   0 -10   12.50    4.30
   9   0  10   18.50    5.30
   9   0  10   17.40    5.30
 -10   0 -10   23.90    5.10
 -10   0 -10   23.10    5.50
  10   0  10   21.50    6.10
  10   0  10   19.80    5.90
 -11   0 -10   34.70    7.30
  11   0  10   35.30    8.00
  11   0  10   43.90    8.20
   8  -1 -10   17.50    7.50
   8  -1 -10    9.10    4.90
   7  -1 -10   13.20    4.80
   7  -1 -10    9.20    5.80
   6  -1 -10   34.30    6.80
   6  -1 -10   28.80    5.50
   5  -1 -10   41.70    6.80
   5  -1 -10   35.40    5.30
   4  -1 -10   93.59    7.20
   4  -1 -10   88.29    8.80
   3  -1 -10  584.44   23.50
   3  -1 -10  579.24   22.10
   3  -1 -10  603.54   23.50
   2  -1 -10   19.00    4.20
   2  -1 -10   13.30    3.80
   2  -1 -10   14.80    3.20
  -2   1  10    8.80    1.90
   1  -1 -10  137.09    8.60
   1  -1 -10  135.39    8.10
   1  -1 -10  134.09    7.30
  -1   1  10  136.29    6.60
   0  -1 -10  103.29    6.30
   0  -1 -10  106.99    6.60
   0  -1 -10  123.39    7.70
   0   1  10  107.19    6.20
  -1  -1 -10   57.89    5.30
  -1  -1 -10   53.09    5.80
   1   1  10   46.20    4.80
  -2  -1 -10   72.29    6.70
   2   1  10   72.89    5.60
  -3  -1 -10  179.48    9.70
   3   1  10  166.78    9.30
  -4  -1 -10  260.67   12.60
   4   1  10  241.48   12.20
  -5  -1 -10  230.88   11.90
  -5  -1 -10  205.38   11.60
  -5  -1 -10  221.18    9.20
  -5  -1 -10  239.48    9.20
   5   1  10  215.18   11.60
  -6  -1 -10   44.20    4.30
  -6  -1 -10   40.50    5.60
  -6  -1 -10   33.20    4.00
   6   1  10   54.49    6.70
  -7  -1 -10    7.00    3.50
  -7  -1 -10    9.60    3.00
   7   1  10   10.80    4.00
  -8  -1 -10  114.69    8.70
  -8  -1 -10  130.29    8.60
   8   1  10  133.99    9.80
   8   1  10  118.89    9.10
  -9  -1 -10   49.90    6.40
  -9  -1 -10   55.89    6.80
   9   1  10   56.09    7.50
   9   1  10   75.09   10.00
   9   1  10   56.19    7.80
 -10  -1 -10  152.68   11.10
  10   1  10  120.19   11.60
  10   1  10  137.69   11.30
 -11  -1 -10   26.40    6.50
  11   1  10   31.40    7.10
  11   1  10   23.80    6.90
   8  -2 -10   27.60    8.00
   8  -2 -10   39.60    7.00
   7  -2 -10   10.80    5.60
   7  -2 -10   14.70    4.80
   6  -2 -10   21.50    4.80
   6  -2 -10   30.70    6.70
   5  -2 -10   60.79    7.80
   5  -2 -10   65.89    6.80
   4  -2 -10   97.89    8.20
   4  -2 -10   87.39    6.70
   3  -2 -10   74.29    7.40
   3  -2 -10   92.09    7.50
   3  -2 -10   88.99    6.10
   2  -2 -10   99.09    6.20
   2  -2 -10  108.29    7.70
   2  -2 -10   92.89    7.10
  -2   2  10  110.69    5.20
   1  -2 -10  113.29    7.50
   1  -2 -10  104.39    6.00
   1  -2 -10   97.89    6.70
  -1   2  10   94.69    5.40
   0  -2 -10  219.28   10.80
   0  -2 -10  229.88   10.20
   0   2  10  213.58    9.60
  -1  -2 -10   82.99    6.20
  -1  -2 -10   72.79    5.00
   1   2  10   78.79    5.40
  -2  -2 -10   69.09    5.50
   2   2  10   47.70    5.10
  -3  -2 -10   95.49    6.80
   3   2  10  108.89    7.10
  -4  -2 -10   40.90    5.40
   4   2  10   53.99    6.10
  -5  -2 -10   42.10    5.70
  -5  -2 -10   42.40    3.70
  -5  -2 -10   52.19    3.70
   5   2  10   39.50    5.40
  -6  -2 -10   21.00    3.20
  -6  -2 -10   19.20    3.30
   6   2  10   16.80    4.40
  -7  -2 -10   35.00    4.60
   7   2  10   39.30    6.20
   7   2  10   45.90    5.90
  -8  -2 -10   20.60    4.30
   8   2  10   19.50    4.90
   8   2  10   25.30    5.30
  -9  -2 -10   30.70    5.60
   9   2  10   33.40    6.10
   9   2  10   31.90    6.10
 -10  -2 -10   17.20    5.20
  10   2  10   20.80    5.70
  10   2  10   20.30    5.90
 -11  -2 -10   49.80    7.90
  11   2  10   53.29    8.40
  11   2  10   50.79    8.60
   8  -3 -10    6.50    6.70
   8  -3 -10    5.10    4.90
   7  -3 -10   -5.80    4.10
   7  -3 -10    0.90    3.80
   6  -3 -10   28.90    5.30
   6  -3 -10   17.60    6.10
   5  -3 -10   23.50    4.50
   5  -3 -10   30.50    6.10
   4  -3 -10   31.00    5.60
   4  -3 -10   44.70    5.10
   3  -3 -10  124.59    8.60
   3  -3 -10  107.39    8.20
   3  -3 -10  109.09    6.70
   2  -3 -10  171.68    8.20
   2  -3 -10  185.08   10.10
   2  -3 -10  170.58    9.50
  -2   3  10  173.78    7.50
   1  -3 -10  179.38    8.20
   1  -3 -10  206.88    9.70
   1  -3 -10  176.38    9.90
  -1   3  10  190.78    8.40
   0  -3 -10   27.10    3.60
   0  -3 -10   27.80    4.20
   0   3  10   22.10    3.30
  -1  -3 -10   49.99    4.40
  -1  -3 -10   46.00    5.30
   1   3  10   44.60    4.60
  -2  -3 -10   12.40    3.20
   2   3  10   11.20    3.00
  -3  -3 -10   22.30    4.20
   3   3  10   32.80    4.50
  -4  -3 -10   80.39    6.40
  -4  -3 -10   72.79    3.50
  -4  -3 -10   74.49    3.60
   4   3  10   56.99    6.20
  -5  -3 -10    5.60    1.90
  -5  -3 -10   -0.10    2.20
  -5  -3 -10    1.80    1.60
   5   3  10    3.20    3.00
  -6  -3 -10  141.99    8.90
  -6  -3 -10  137.79    7.40
  -6  -3 -10  143.89    7.80
   6   3  10  120.89    8.50
  -7  -3 -10   68.79    6.00
   7   3  10   48.30    6.40
   7   3  10   79.39    7.40
  -8  -3 -10   52.59    6.20
   8   3  10   45.50    6.50
   8   3  10   56.09    6.90
  -9  -3 -10   47.00    6.50
   9   3  10   60.09    7.50
   9   3  10   41.60    6.80
 -10  -3 -10   16.60    5.00
  10   3  10    9.80    4.50
  10   3  10    9.00    4.60
 -11  -3 -10   39.30    7.60
  11   3  10   39.00    7.80
  11   3  10   56.09    9.20
   8  -4 -10    2.10    5.90
   8  -4 -10   -3.60    4.00
   7  -4 -10    7.70    5.60
   7  -4 -10    2.70    3.80
   6  -4 -10   14.00    5.50
   6  -4 -10   14.40    4.30
   5  -4 -10   79.39    8.80
   5  -4 -10   61.09    6.20
   4  -4 -10   99.29    8.20
   4  -4 -10   89.49    6.30
   3  -4 -10   11.60    4.00
   3  -4 -10   17.80    3.20
   2  -4 -10  297.67   13.80
   2  -4 -10  288.37   11.60
   2  -4 -10  294.07   13.50
  -2   4  10  297.97   11.50
   1  -4 -10  208.78   10.10
   1  -4 -10  206.38   10.60
   1  -4 -10  210.78    8.50
  -1   4  10  205.78    9.20
   0  -4 -10   41.50    4.90
   0  -4 -10   58.79    5.10
   0   4  10   40.30    4.20
  -1  -4 -10   15.50    3.50
  -1  -4 -10   22.40    3.00
   1   4  10   18.70    3.30
  -2  -4 -10   45.40    5.10
   2   4  10   31.60    4.30
  -3  -4 -10  106.99    7.10
   3   4  10  110.49    7.20
  -4  -4 -10   15.60    2.10
  -4  -4 -10   14.20    3.40
  -4  -4 -10   12.70    1.90
   4   4  10   19.40    4.20
  -5  -4 -10  132.19    7.00
  -5  -4 -10  142.99    7.10
  -5  -4 -10  144.89    8.60
   5   4  10  135.69    9.10
   5   4  10  151.68    7.60
  -6  -4 -10  114.29    8.10
  -6  -4 -10  109.19    6.90
  -6  -4 -10  103.29    6.50
   6   4  10  107.39    8.30
   6   4  10  115.39    7.20
  -7  -4 -10   13.90    3.40
   7   4  10    6.40    3.10
   7   4  10    7.80    3.80
  -8  -4 -10   66.89    6.90
   8   4  10   57.79    7.40
   8   4  10   78.99    7.80
  -9  -4 -10   57.49    7.00
   9   4  10   57.59    7.30
   9   4  10   63.09    7.90
 -10  -4 -10   14.20    4.90
  10   4  10   15.90    5.10
  10   4  10    9.00    4.80
 -11  -4 -10    4.30    5.30
  11   4  10   -0.40    5.20
  11   4  10    2.20    5.20
   7  -5 -10   17.70    6.20
   6  -5 -10   15.20    5.60
   5  -5 -10   29.90    6.20
   5  -5 -10   46.90    5.40
   4  -5 -10  109.49    6.80
   4  -5 -10  119.39    9.20
   3  -5 -10    8.00    3.60
   3  -5 -10   16.50    2.90
   2  -5 -10   15.30    3.80
   2  -5 -10   16.80    2.50
   2  -5 -10    9.50    3.50
  -2   5  10    9.40    2.60
   1  -5 -10   50.49    3.20
   1  -5 -10   53.79    5.40
   1  -5 -10   43.30    5.10
  -1   5  10   49.80    4.70
   0  -5 -10   36.20    4.10
   0  -5 -10   48.60    5.20
   0   5  10   46.70    4.70
  -1  -5 -10  171.88    8.90
  -1  -5 -10  165.78    7.50
   1   5  10  172.48    8.80
  -2  -5 -10   45.70    3.00
  -2  -5 -10   40.70    4.80
   2   5  10   42.70    4.90
  -3  -5 -10  195.48    9.80
   3   5  10  189.68   10.10
  -4  -5 -10   45.90    5.20
  -4  -5 -10   55.09    3.80
  -4  -5 -10   55.89    3.90
   4   5  10   61.39    4.20
   4   5  10   55.79    6.10
  -5  -5 -10  134.79    6.90
  -5  -5 -10  127.59    8.20
  -5  -5 -10  121.29    6.90
   5   5  10  125.39    6.90
   5   5  10  118.19    8.60
  -6  -5 -10  219.08   11.40
  -6  -5 -10  224.38   10.50
   6   5  10  200.58   11.60
   6   5  10  211.48   10.20
  -7  -5 -10   39.70    5.20
   7   5  10   38.50    5.70
   7   5  10   48.40    5.70
  -8  -5 -10    1.70    3.00
   8   5  10    2.20    3.70
   8   5  10    7.60    3.50
  -9  -5 -10   37.00    6.10
   9   5  10   27.40    5.30
   9   5  10   28.60    6.00
 -10  -5 -10   12.60    4.70
  10   5  10   14.30    5.30
  10   5  10   14.00    4.80
 -11  -5 -10   80.29    9.80
  11   5  10   52.39    8.40
  11   5  10   73.59    9.30
   7  -6 -10   43.80    8.50
   6  -6 -10   92.59   10.40
   5  -6 -10   46.80    7.40
   4  -6 -10    7.00    4.20
   3  -6 -10  145.79    9.40
   2  -6 -10   -1.00    2.60
  -2   6  10   -0.40    2.00
   1  -6 -10   66.99    5.50
   1  -6 -10   64.09    6.10
  -1   6  10   69.29    5.40
   0  -6 -10   65.39    4.90
   0  -6 -10   57.79    5.60
   0   6  10   62.19    5.70
  -1  -6 -10   26.90    3.20
  -1  -6 -10   23.60    3.70
   1   6  10   30.20    4.20
  -2  -6 -10   55.49    5.30
  -2  -6 -10   64.79    3.40
   2   6  10   82.79    7.10
  -3  -6 -10  116.59    5.10
  -3  -6 -10   98.79    6.70
  -3  -6 -10  110.49    5.10
   3   6  10  106.39    4.80
   3   6  10  116.59    7.80
  -4  -6 -10   47.60    4.00
  -4  -6 -10   43.90    5.10
  -4  -6 -10   44.40    3.80
   4   6  10   49.40    3.50
   4   6  10   32.50    5.00
  -5  -6 -10  629.84   22.70
  -5  -6 -10  639.94   24.00
  -5  -6 -10  600.64   22.80
   5   6  10  641.94   25.00
   5   6  10  649.93   22.30
  -6  -6 -10   54.39    6.10
  -6  -6 -10   51.09    5.40
   6   6  10   60.19    7.10
   6   6  10   54.79    5.30
  -7  -6 -10  104.09    7.60
   7   6  10   90.29    8.80
   7   6  10   92.59    6.70
  -8  -6 -10    1.40    3.20
   8   6  10    4.50    4.00
   8   6  10    6.80    3.30
  -9  -6 -10   10.60    4.30
   9   6  10    3.80    3.50
   9   6  10    4.30    4.00
 -10  -6 -10  121.89   11.20
  10   6  10   91.69   10.20
  10   6  10  112.79    9.20
 -11  -6 -10   15.90    6.00
  11   6  10   14.90    6.00
  11   6  10   20.50    6.00
   7  -7 -10   82.49   11.10
   6  -7 -10   11.00    5.40
   5  -7 -10   26.80    5.90
   4  -7 -10    8.30    4.40
   3  -7 -10   91.59    8.60
   2  -7 -10  159.08    9.40
  -2   7  10  179.38    8.90
   1  -7 -10  263.97   12.40
   1  -7 -10  268.47   12.20
  -1   7  10  282.97   12.30
   0  -7 -10  110.79    6.90
   0  -7 -10  108.89    6.40
   0   7  10  111.79    7.20
  -1  -7 -10  134.29    6.50
  -1  -7 -10  127.49    7.50
   1   7  10  150.18    8.50
  -2  -7 -10  158.58    6.00
  -2  -7 -10  156.68    8.20
   2   7  10  155.08    9.30
  -3  -7 -10   36.40    3.30
  -3  -7 -10   31.90    4.10
  -3  -7 -10   36.00    3.40
   3   7  10   37.70    5.30
  -4  -7 -10  129.29    7.70
  -4  -7 -10  122.39    6.90
  -4  -7 -10  124.29    6.80
   4   7  10  136.19    5.90
   4   7  10  136.89    9.00
  -5  -7 -10   61.69    8.50
  -5  -7 -10   77.09    5.80
  -5  -7 -10   80.59    6.30
   5   7  10   78.59    4.90
   5   7  10   69.49    7.30
  -6  -7 -10  212.48   11.10
  -6  -7 -10  213.08   10.90
   6   7  10  212.48    9.80
   6   7  10  211.98   12.10
  -7  -7 -10   12.10    3.60
   7   7  10   10.80    4.20
   7   7  10   17.00    3.60
  -8  -7 -10   11.90    3.90
   8   7  10   15.00    5.00
   8   7  10   15.80    3.80
  -9  -7 -10  176.28   11.80
   9   7  10  185.08   12.30
   9   7  10  159.28   10.30
 -10  -7 -10   35.60    6.90
  10   7  10   24.10    5.50
  10   7  10   25.90    6.60
 -11  -7 -10   42.50    8.10
  11   7  10   30.30    7.40
  11   7  10   28.00    6.50
   6  -8 -10   23.40    6.90
   5  -8 -10    2.10    4.30
   4  -8 -10  158.08   11.10
   3  -8 -10   74.89    8.00
  -3   8  10   74.19    8.30
   2  -8 -10    1.20    3.00
  -2   8  10    3.50    2.80
   1  -8 -10  103.89    7.30
  -1   8  10  132.69    7.80
   0  -8 -10   31.90    4.10
   0  -8 -10   28.40    3.90
   0   8  10   36.50    5.00
  -1  -8 -10  475.95   17.50
  -1  -8 -10  522.15   18.80
   1   8  10  482.25   19.80
  -2  -8 -10    5.50    1.90
  -2  -8 -10    6.20    1.90
  -2  -8 -10    9.20    2.60
   2   8  10   10.90    3.50
  -3  -8 -10  118.09    6.50
  -3  -8 -10  124.59    7.00
  -3  -8 -10  125.29    6.40
   3   8  10  114.79    8.40
  -4  -8 -10  294.87   12.50
  -4  -8 -10  295.87   12.40
  -4  -8 -10  267.37   11.90
   4   8  10  292.17   14.30
  -5  -8 -10   60.79    5.90
  -5  -8 -10   53.49    5.50
   5   8  10   56.49    6.90
  -6  -8 -10   32.10    4.60
  -6  -8 -10   27.40    4.40
   6   8  10   26.70    3.60
   6   8  10   13.50    4.30
  -7  -8 -10  333.77   15.60
  -7  -8 -10  329.17   15.20
   7   8  10  344.37   14.30
   7   8  10  340.87   16.80
  -8  -8 -10  102.29    8.60
   8   8  10   80.99    9.00
   8   8  10   85.89    7.10
  -9  -8 -10   35.90    6.20
   9   8  10   20.90    5.70
   9   8  10   22.80    4.90
 -10  -8 -10   43.40    7.50
  10   8  10   34.40    6.20
  10   8  10   32.10    7.00
 -11  -8 -10    7.20    5.90
  11   8  10    0.90    5.50
  11   8  10    4.30    4.80
   6  -9 -10    6.50    6.00
   5  -9 -10   43.30    7.40
   4  -9 -10   38.80    6.80
   3  -9 -10   56.89    7.10
  -3   9  10   46.50    7.00
   2  -9 -10   46.40    5.90
  -2   9  10   55.19    6.10
   1  -9 -10  101.49    7.30
  -1   9  10  103.29    7.50
   0  -9 -10  117.19    6.90
   0   9  10  111.99    7.80
  -1  -9 -10   45.40    3.50
  -1  -9 -10   44.60    3.40
  -1  -9 -10   49.30    4.70
   1   9  10   40.50    5.70
  -2  -9 -10   94.19    5.90
  -2  -9 -10   77.69    5.30
  -2  -9 -10   92.49    5.40
   2   9  10   83.29    7.70
  -3  -9 -10  186.88    9.00
  -3  -9 -10  181.88    9.00
  -3  -9 -10  194.08    9.10
   3   9  10  199.08   11.30
  -4  -9 -10    3.20    2.20
  -4  -9 -10    4.60    2.40
   4   9  10    2.20    3.30
  -5  -9 -10    8.70    3.20
  -5  -9 -10    6.90    2.80
   5   9  10    6.80    3.80
  -6  -9 -10  125.59    7.90
  -6  -9 -10  137.09    8.80
   6   9  10  120.09    9.50
  -7  -9 -10  106.99    7.70
  -7  -9 -10  110.69    8.60
   7   9  10  101.79   10.20
  -8  -9 -10  130.69    9.80
   8   9  10  104.19   10.20
   8   9  10  130.19    8.80
  -9  -9 -10   15.80    4.90
   9   9  10    8.30    5.00
   9   9  10    5.70    3.70
 -10  -9 -10   44.00    7.70
  10   9  10   26.50    5.70
  10   9  10   37.00    7.70
   5 -10 -10   23.90    7.00
   4 -10 -10    6.90    4.80
   3 -10 -10   24.60    5.70
  -3  10  10   24.20    6.20
   2 -10 -10   20.40    4.90
  -2  10  10   27.40    5.10
   1 -10 -10   70.59    7.00
  -1  10  10   70.79    7.30
   0 -10 -10   89.39    6.50
   0 -10 -10   92.29    4.90
   0 -10 -10   96.19    5.00
   0  10  10   93.49    8.40
  -1 -10 -10  140.99    7.10
  -1 -10 -10  148.69    7.30
   1  10  10  147.09    9.70
  -2 -10 -10   30.80    3.80
  -2 -10 -10   31.80    4.00
   2  10  10   27.60    5.30
  -3 -10 -10   88.19    6.20
  -3 -10 -10   86.99    6.30
   3  10  10   75.49    8.00
  -4 -10 -10  133.79    8.30
  -4 -10 -10  147.29    7.50
   4  10  10  140.59   10.00
  -5 -10 -10   23.40    4.30
  -5 -10 -10   19.30    3.50
   5  10  10   18.00    4.90
  -6 -10 -10   29.40    4.40
  -6 -10 -10   23.80    4.70
   6  10  10   29.00    5.90
  -7 -10 -10   36.30    5.10
  -7 -10 -10   23.90    5.00
   7  10  10   29.70    6.30
  -8 -10 -10   28.60    5.20
  -8 -10 -10   31.50    5.70
   8  10  10   42.20    7.20
  -9 -10 -10   28.20    6.00
   9  10  10   19.60    6.50
 -10 -10 -10   29.60    7.20
  10  10  10   12.30    6.70
   4 -11 -10   29.30    6.70
   3 -11 -10   91.59    9.40
   2 -11 -10   19.30    4.80
  -2  11  10   12.70    4.20
   1 -11 -10    6.50    1.80
   1 -11 -10    5.60    1.90
   1 -11 -10    4.40    3.00
  -1  11  10   10.90    4.20
   0 -11 -10   52.19    4.60
   0  11  10   49.30    6.50
  -1 -11 -10   33.80    4.00
   1  11  10   33.10    5.80
  -2 -11 -10   55.29    5.50
   2  11  10   57.49    7.30
  -3 -11 -10   60.79    6.00
   3  11  10   63.99    7.60
  -4 -11 -10    6.40    3.10
   4  11  10    1.30    3.70
  -5 -11 -10   21.80    4.60
   5  11  10   15.10    4.70
  -6 -11 -10   14.10    4.30
   6  11  10   12.50    4.90
  -7 -11 -10   52.59    7.00
   7  11  10   75.19    9.10
  -8 -11 -10   -5.20    3.00
   8  11  10    3.30    4.60
  -9 -11 -10   47.70    7.60
   9  11  10   50.59    9.00
   4 -12 -10   35.10    7.50
   3 -12 -10    9.30    4.70
   2 -12 -10   10.90    4.40
  -2  12  10   11.90    4.50
   1 -12 -10   52.99    4.60
  -1  12  10   54.89    7.20
   0 -12 -10   53.79    5.20
   0  12  10   54.99    7.60
  -1 -12 -10    2.40    2.70
   1  12  10    2.90    3.50
  -2 -12 -10   68.59    6.50
   2  12  10   68.69    8.10
  -3 -12 -10   10.10    3.40
   3  12  10   17.30    5.10
  -4 -12 -10    2.50    3.10
   4  12  10   12.90    4.70
  -5 -12 -10   -0.90    2.60
   5  12  10    3.10    4.30
  -6 -12 -10   20.50    4.90
   6  12  10   10.00    5.00
  -7 -12 -10    4.90    4.20
   7  12  10    9.20    5.10
  -8 -12 -10   28.80    6.40
   8  12  10   25.80    6.80
  -9 -12 -10    5.80    4.90
   9  12  10   -1.20    6.00
   2 -13 -10   22.50    3.40
  -2  13  10    8.60    4.80
   1 -13 -10   22.10    3.90
  -1  13  10   16.60    5.10
   0 -13 -10   38.30    4.80
   0  13  10   52.29    7.50
  -1 -13 -10    4.30    3.00
   1  13  10    9.30    4.80
  -2 -13 -10    8.40    3.60
   2  13  10    2.80    3.90
  -3 -13 -10   -2.80    2.80
   3  13  10    3.20    4.60
  -4 -13 -10   25.70    5.40
   4  13  10   27.10    6.70
  -5 -13 -10   47.20    6.60
   5  13  10   43.20    7.30
  -6 -13 -10  109.69   10.20
   6  13  10  105.29   11.50
  -7 -13 -10  100.29   10.20
   7  13  10  104.09   11.60
  -8 -13 -10   28.10    6.80
   8  13  10   25.50    7.60
   1 -14 -10    9.90    3.90
  -1  14  10   13.60    5.70
   0 -14 -10   29.70    4.90
   0  14  10   23.40    6.30
  -1 -14 -10   43.80    6.00
   1  14  10   48.50    7.90
  -2 -14 -10   14.30    4.70
   2  14  10   24.40    6.10
  -3 -14 -10   44.70    6.40
   3  14  10   35.90    7.40
  -4 -14 -10   52.59    7.00
   4  14  10   35.90    7.50
  -5 -14 -10   18.20    5.60
   5  14  10   16.00    6.10
  -6 -14 -10    0.50    4.80
   6  14  10   10.20    6.20
  -7 -14 -10   35.70    7.60
   7  14  10   33.80    7.90
  -1 -15 -10   42.90    6.50
   1  15  10   27.80    7.20
  -2 -15 -10    2.80    4.40
   2  15  10    5.30    5.90
  -3 -15 -10    3.80    4.70
   3  15  10   18.50    6.70
  -4 -15 -10   17.50    5.60
   4  15  10   14.80    6.50
  -5 -15 -10   -3.40    4.40
   5  15  10   -1.40    5.60
   2  11 -11   91.49    9.60
   2  11 -11   84.19   10.00
   1  11 -11   31.30    6.30
   1  11 -11   37.70    7.50
   0  11 -11   22.10    5.80
   0  11 -11   30.80    7.30
  -1  11 -11    3.40    4.00
  -1  11 -11   14.00    6.10
  -2  11 -11   21.10    7.40
  -2  11 -11   19.40    5.50
   4  10 -11   32.70    8.50
   3  10 -11   19.00    5.60
   3  10 -11    9.30    4.90
   3  10 -11   11.00    6.40
   2  10 -11   60.79    8.40
   2  10 -11   74.69    8.70
   1  10 -11   43.40    7.50
   1  10 -11   35.30    6.40
   0  10 -11   29.40    7.10
   0  10 -11   38.60    6.60
  -1  10 -11   48.00    6.80
  -1  10 -11   47.10    8.10
  -2  10 -11    9.60    4.60
  -2  10 -11    4.50    5.30
  -3  10 -11   76.69   11.00
  -3  10 -11   76.69    8.80
  -4  10 -11   52.59    7.80
  -4  10 -11   58.39   10.00
   5   9 -11    7.50    6.60
   4   9 -11   20.20    7.00
   3   9 -11   36.60    6.70
   3   9 -11   35.30    7.90
   3   9 -11   19.00    5.40
   2   9 -11   -1.30    3.50
   2   9 -11    1.50    3.60
   2   9 -11   11.90    5.50
   1   9 -11    5.70    4.00
   1   9 -11   -1.80    3.40
   0   9 -11   20.60    5.60
   0   9 -11   35.50    6.30
  -1   9 -11   81.09   10.00
  -1   9 -11   95.69    9.30
  -2   9 -11   13.80    4.30
  -2   9 -11    3.20    4.40
  -3   9 -11   50.79    7.10
  -3   9 -11   54.99    8.80
  -4   9 -11   21.80    6.50
  -4   9 -11   31.90    6.10
  -5   9 -11    9.40    6.20
  -5   9 -11    5.90    4.60
   5   8 -11    5.30    5.70
   5   8 -11   -1.40    5.50
   4   8 -11   16.30    5.70
   4   8 -11   12.30    5.20
   3   8 -11    7.30    4.80
   3   8 -11   13.50    5.00
   3   8 -11   13.40    4.50
   2   8 -11   11.70    4.70
   2   8 -11    9.90    5.00
   2   8 -11   14.90    4.90
   1   8 -11   25.40    5.50
   1   8 -11   24.60    5.40
   0   8 -11   54.39    7.60
   0   8 -11   44.30    6.60
  -1   8 -11   28.70    5.50
  -1   8 -11   26.40    6.30
  -2   8 -11    2.50    3.60
  -2   8 -11   13.60    4.70
  -3   8 -11   60.29    7.80
  -3   8 -11   35.90    7.20
  -4   8 -11   41.20    7.50
  -4   8 -11   29.90    5.80
  -5   8 -11  100.29   10.00
  -5   8 -11   95.69   11.40
  -6   8 -11    8.40    5.80
  -6   8 -11   10.10    5.10
   6   7 -11   30.60    8.00
   6   7 -11   42.20    8.90
   5   7 -11   26.90    7.00
   5   7 -11   21.70    7.00
   4   7 -11   13.00    5.00
   4   7 -11   16.00    5.90
   4   7 -11   21.90    6.30
   3   7 -11   -0.50    3.50
   3   7 -11    4.50    4.10
   2   7 -11   78.39    8.60
   2   7 -11   97.49   10.20
   2   7 -11   71.99    8.10
   1   7 -11    1.00    3.90
   1   7 -11    9.30    3.90
   1   7 -11    2.40    3.80
   0   7 -11  130.19    9.40
   0   7 -11  120.19    9.50
  -1   7 -11  251.27   13.60
  -1   7 -11  260.77   14.90
  -2   7 -11   55.59    7.10
  -2   7 -11   39.90    6.90
  -3   7 -11   40.80    7.20
  -3   7 -11   58.59    7.10
  -4   7 -11   69.39    9.00
  -4   7 -11   47.60    6.80
  -5   7 -11   69.89    8.50
  -5   7 -11   79.19   10.00
  -6   7 -11   15.80    5.30
  -6   7 -11   28.70    3.00
  -6   7 -11   27.80    7.10
  -6   7 -11   30.20    3.30
  -7   7 -11    6.40    5.50
  -7   7 -11    4.50    4.60
  -7   7 -11    8.10    3.70
   7   6 -11   28.00    8.70
   7   6 -11   35.60    8.10
   6   6 -11   -1.90    4.60
   6   6 -11    4.00    5.10
   5   6 -11    0.00    4.00
   5   6 -11    6.70    4.60
   4   6 -11   14.40    5.30
   4   6 -11   10.30    5.00
   4   6 -11   12.90    5.50
   3   6 -11   63.39    8.40
   3   6 -11   66.49    8.00
   3   6 -11   53.09    7.60
   2   6 -11    1.40    3.40
   2   6 -11    8.60    4.30
   2   6 -11    3.50    3.40
   1   6 -11   79.09    9.30
   1   6 -11   95.69    9.00
   1   6 -11   75.09    8.40
   0   6 -11   23.60    5.20
   0   6 -11   26.80    5.50
  -1   6 -11   60.19    7.10
  -1   6 -11   61.39    7.80
  -2   6 -11   14.80    4.50
  -2   6 -11   17.40    4.50
  -3   6 -11    7.70    3.80
  -3   6 -11    5.20    4.10
  -4   6 -11   39.50    6.90
  -4   6 -11   31.20    5.80
  -5   6 -11  133.59   10.10
  -5   6 -11  117.99   11.60
  -6   6 -11   50.99    4.20
  -6   6 -11   30.70    6.30
  -6   6 -11   28.10    6.80
  -6   6 -11   48.00    3.80
  -7   6 -11   18.10    4.00
  -7   6 -11    7.80    4.70
  -7   6 -11   22.60    6.30
  -8   6 -11    6.40    5.70
  -8   6 -11    7.20    4.30
  -8   6 -11   11.50    5.30
   7   5 -11    4.40    6.10
   7   5 -11   -3.20    5.50
   6   5 -11   -1.50    4.20
   6   5 -11   -3.60    4.50
   5   5 -11   -1.80    4.10
   5   5 -11    3.50    5.10
   4   5 -11    1.70    3.90
   4   5 -11    1.90    3.50
   4   5 -11    9.80    4.50
   3   5 -11    6.00    3.90
   3   5 -11    0.50    3.30
   3   5 -11    0.40    3.60
   2   5 -11   10.40    4.60
   2   5 -11    6.00    3.50
   2   5 -11   13.00    4.20
   1   5 -11   61.49    7.00
   1   5 -11   77.29    8.20
   1   5 -11   68.49    8.00
   0   5 -11   16.20    4.30
   0   5 -11   11.20    4.50
  -1   5 -11   14.60    4.20
  -1   5 -11    7.20    4.00
  -2   5 -11    3.40    3.40
  -2   5 -11    6.10    3.20
  -3   5 -11   31.70    5.60
  -3   5 -11   30.10    5.70
  -4   5 -11  115.49   11.20
  -4   5 -11  131.99    9.50
  -5   5 -11   23.20    5.40
  -5   5 -11   28.00    6.30
  -6   5 -11   19.20    3.00
  -6   5 -11   23.60    5.80
  -6   5 -11   23.00    2.80
  -6   5 -11   21.90    5.50
  -7   5 -11   32.10    6.70
  -7   5 -11   28.40    6.00
  -7   5 -11   29.60    4.30
  -8   5 -11    0.00    3.50
  -8   5 -11    0.00    4.20
  -8   5 -11    4.20    5.10
   7   4 -11   42.60    9.10
   7   4 -11   67.49    9.60
   6   4 -11   16.90    6.40
   6   4 -11   18.60    5.60
   5   4 -11   -2.10    3.50
   5   4 -11   11.00    4.90
   4   4 -11   24.30    5.70
   4   4 -11   24.20    5.80
   4   4 -11   15.80    5.10
   3   4 -11   52.39    7.20
   3   4 -11   62.89    7.50
   3   4 -11   61.89    7.90
   2   4 -11    4.50    3.50
   2   4 -11   -0.40    3.20
   2   4 -11   -2.50    2.90
   1   4 -11   46.20    6.20
   1   4 -11   57.49    7.20
   1   4 -11   48.20    6.20
   0   4 -11   72.89    7.80
   0   4 -11   70.39    7.70
  -1   4 -11  331.07   15.40
  -1   4 -11  318.07   16.00
  -2   4 -11   68.59    7.10
  -2   4 -11   76.59    8.40
  -3   4 -11   47.60    6.40
  -3   4 -11   64.79    7.70
  -4   4 -11   74.59    8.50
  -4   4 -11   58.19    7.10
  -5   4 -11   84.59    8.80
  -5   4 -11   82.09    8.80
  -6   4 -11   47.60    7.80
  -6   4 -11   56.29    4.40
  -6   4 -11   48.80    4.00
  -6   4 -11   64.79    8.00
  -7   4 -11   37.40    7.00
  -7   4 -11   31.00    6.30
  -7   4 -11   37.80    4.60
  -8   4 -11   -1.30    3.90
  -8   4 -11    1.00    3.90
  -8   4 -11    2.00    3.20
  -9   4 -11    4.60    4.20
  -9   4 -11   -2.50    5.00
   7   3 -11   13.10    6.60
   7   3 -11   15.90    6.20
   6   3 -11   43.00    7.70
   6   3 -11   54.49    7.90
   5   3 -11  114.89   11.30
   5   3 -11   78.99    8.70
   4   3 -11  168.28   11.60
   4   3 -11  169.28   11.00
   4   3 -11  166.48   11.50
   3   3 -11   25.80    5.00
   3   3 -11   22.90    4.80
   3   3 -11   21.20    5.30
   2   3 -11   35.10    5.60
   2   3 -11   30.70    5.40
   2   3 -11   28.00    5.20
   1   3 -11  237.88   12.70
   1   3 -11  230.48   12.40
   1   3 -11  258.87   13.20
   0   3 -11  138.59    9.40
   0   3 -11  115.69    8.40
  -1   3 -11   65.49    7.10
  -1   3 -11   50.59    6.10
  -2   3 -11    5.90    3.40
  -2   3 -11    6.40    3.50
  -3   3 -11  167.98   10.60
  -3   3 -11  174.98   11.10
  -4   3 -11   68.59    7.60
  -4   3 -11   56.99    7.40
  -5   3 -11    4.70    3.90
  -5   3 -11    8.00    4.20
  -6   3 -11  139.29   10.30
  -6   3 -11  132.09   10.30
  -6   3 -11  142.49    6.90
  -6   3 -11  148.89    6.90
  -7   3 -11   71.49    5.90
  -7   3 -11   65.49    8.30
  -7   3 -11   79.19    9.00
  -8   3 -11   77.99    9.00
  -8   3 -11   80.69    7.40
  -8   3 -11   83.79    9.40
  -9   3 -11   16.00    5.00
  -9   3 -11   26.50    6.30
   9  -3  11    7.00    5.20
   7   2 -11   22.40    7.00
   7   2 -11   35.80    7.30
   6   2 -11  194.18   12.50
   6   2 -11  178.88   13.20
   5   2 -11    8.10    4.10
   5   2 -11   15.00    5.20
   4   2 -11   66.49    8.30
   4   2 -11   70.99    8.50
   4   2 -11   91.99    9.00
   3   2 -11  157.08    9.90
   3   2 -11  148.59   10.10
   3   2 -11  157.38   10.50
   2   2 -11  223.28   12.50
   2   2 -11  224.28   11.80
   2   2 -11  202.28   11.90
  -2  -2  11  239.08    9.70
   1   2 -11  157.48   10.10
   1   2 -11  160.18    9.50
   1   2 -11  169.78   10.10
   0   2 -11  288.97   14.00
  -1   2 -11  154.38    9.60
  -1   2 -11  148.29    9.90
  -2   2 -11   52.29    6.80
  -2   2 -11   44.10    5.80
  -3   2 -11  268.77   14.10
  -3   2 -11  265.87   13.60
  -4   2 -11  610.84   24.70
  -4   2 -11  623.14   25.50
  -5   2 -11  123.59    9.10
  -5   2 -11  118.09    9.10
  -6   2 -11    6.40    1.80
  -6   2 -11    6.00    3.70
  -6   2 -11    4.70    2.00
  -6   2 -11    3.70    3.50
  -7   2 -11   21.30    5.20
  -7   2 -11   22.20    3.70
  -7   2 -11   15.00    5.00
  -8   2 -11   14.40    4.80
  -8   2 -11   18.00    3.90
   8  -2  11   13.60    5.00
  -9   2 -11    1.10    3.60
  -9   2 -11    3.10    4.30
   9  -2  11    3.00    4.50
 -10   2 -11  152.28   12.00
 -10   2 -11  165.48   12.20
  10  -2  11  154.78   12.80
  10  -2  11  131.19   12.90
   8   1 -11   65.59   10.50
   8   1 -11   51.89    8.40
   7   1 -11   63.69    8.60
   7   1 -11   55.29    9.20
   6   1 -11   37.50    6.80
   6   1 -11   19.00    6.30
   5   1 -11  128.89    9.60
   5   1 -11  151.48   11.10
   4   1 -11   97.19    9.60
   4   1 -11  104.29    7.90
   4   1 -11   76.59    8.40
   3   1 -11  201.08   11.20
   3   1 -11  232.08   12.60
   3   1 -11  194.38   11.90
   2   1 -11  452.85   19.30
   2   1 -11  448.46   18.60
   2   1 -11  435.46   19.40
  -2  -1  11  459.65   16.40
   1   1 -11   58.19    6.80
   1   1 -11   47.50    5.60
   1   1 -11   53.09    6.20
  -1  -1  11   51.59    4.70
   0   1 -11   45.90    5.60
   0   1 -11   52.79    6.00
   0  -1  11   63.09    5.00
  -1   1 -11   89.39    7.00
  -2   1 -11  172.78   10.10
  -2   1 -11  178.48   10.60
  -3   1 -11  741.53   28.90
  -3   1 -11  738.53   28.30
  -4   1 -11  414.16   18.20
  -4   1 -11  422.06   19.00
  -5   1 -11   61.89    7.50
  -5   1 -11   59.19    6.90
  -6   1 -11    0.30    1.50
  -6   1 -11    2.60    1.80
  -6   1 -11   -5.30    2.40
  -6   1 -11    1.50    3.40
   6  -1  11    3.40    3.40
  -7   1 -11   61.09    7.60
  -7   1 -11   45.40    4.90
  -7   1 -11   48.80    7.10
   7  -1  11   47.70    6.90
  -8   1 -11   80.09    7.00
  -8   1 -11   71.99    8.50
   8  -1  11   66.29    8.30
  -9   1 -11  140.09    9.90
  -9   1 -11  144.49   10.70
   9  -1  11  133.79   11.00
   9  -1  11  111.09   11.00
 -10   1 -11    5.80    4.70
 -10   1 -11    2.10    4.20
  10  -1  11   10.40    5.70
  10  -1  11   -1.60    4.80
   8   0 -11   16.10    5.90
   8   0 -11   24.30    8.10
   7   0 -11   40.00    7.60
   7   0 -11   54.69    7.50
   6   0 -11   17.70    6.10
   6   0 -11   27.20    5.80
   5   0 -11   76.79    8.90
   5   0 -11   65.59    7.50
   4   0 -11  256.37   13.10
   4   0 -11  267.47   14.40
   3   0 -11  110.09    8.70
   3   0 -11  110.59    8.80
   3   0 -11   97.89    7.50
   2   0 -11   77.39    6.90
   2   0 -11   87.59    7.40
   2   0 -11   76.29    7.50
  -2   0  11   86.09    4.90
   1   0 -11    7.20    3.50
   1   0 -11    9.60    3.00
   1   0 -11    8.10    3.30
  -1   0  11    6.90    2.20
   0   0 -11   78.69    6.20
   0   0 -11   72.99    7.20
   0   0  11   68.09    5.30
  -1   0 -11  363.36   15.90
   1   0  11  351.76   14.70
  -2   0 -11  145.39    9.40
   2   0  11  166.18    9.00
  -3   0 -11   78.59    7.30
  -3   0 -11   74.89    7.40
   3   0  11   73.59    6.90
  -4   0 -11   79.69    7.70
  -4   0 -11   58.79    6.70
   4   0  11   90.19    7.10
  -5   0 -11   30.40    5.40
  -5   0 -11   34.30    5.60
   5   0  11   35.10    5.70
  -6   0 -11  127.09    9.10
  -6   0 -11  112.39    6.30
  -6   0 -11  129.99    9.10
  -6   0 -11  119.39    6.20
   6   0  11  121.49    9.10
  -7   0 -11   21.40    5.30
  -7   0 -11   18.30    4.90
  -7   0 -11   19.40    3.50
   7   0  11   16.30    4.70
  -8   0 -11   85.59    7.30
  -8   0 -11   98.69    9.50
   8   0  11  109.89   10.30
  -9   0 -11  158.78   11.10
  -9   0 -11  156.68   10.70
   9   0  11  173.28   12.30
   9   0  11  171.68   11.80
 -10   0 -11   73.09    8.70
 -10   0 -11   68.69    8.20
  10   0  11   62.99    9.10
  10   0  11   73.69    9.70
   8  -1 -11    6.50    7.20
   7  -1 -11   39.60    6.70
   7  -1 -11   71.99   10.00
   6  -1 -11   43.20    7.70
   6  -1 -11   59.19    7.30
   5  -1 -11   18.50    4.40
   5  -1 -11   28.50    6.30
   4  -1 -11    8.50    4.30
   4  -1 -11    9.90    3.60
   3  -1 -11   34.60    5.90
   3  -1 -11   37.40    5.00
   3  -1 -11   32.70    5.70
   2  -1 -11  191.98   11.10
   2  -1 -11  209.68   10.40
   2  -1 -11  226.18   12.00
  -2   1  11  213.88    8.70
   1  -1 -11    4.00    2.40
   1  -1 -11    2.50    2.60
   1  -1 -11    7.30    3.10
  -1   1  11    5.20    2.10
   0  -1 -11  284.17   13.80
   0  -1 -11  298.07   13.00
   0   1  11  290.97   12.20
  -1  -1 -11   43.70    5.30
  -1  -1 -11   54.49    5.40
   1   1  11   46.20    5.00
  -2  -1 -11   43.60    5.60
   2   1  11   47.10    5.30
  -3  -1 -11   76.39    7.40
   3   1  11   67.89    6.80
  -4  -1 -11  181.18   10.40
   4   1  11  185.98   10.40
  -5  -1 -11   54.29    6.50
   5   1  11   69.39    7.20
  -6  -1 -11   24.20    4.80
  -6  -1 -11   25.10    3.20
  -6  -1 -11   30.50    3.30
  -6  -1 -11   28.00    5.30
   6   1  11   34.10    5.90
  -7  -1 -11   43.40    6.10
  -7  -1 -11   46.80    6.80
  -7  -1 -11   43.70    4.90
   7   1  11   46.00    6.80
  -8  -1 -11   48.20    5.80
  -8  -1 -11   53.59    6.90
   8   1  11   47.10    7.30
   8   1  11   49.50    6.90
  -9  -1 -11    7.00    3.90
  -9  -1 -11   12.00    4.20
   9   1  11   11.10    4.80
   9   1  11   12.70    4.50
 -10  -1 -11    5.20    4.40
  10   1  11    0.10    5.00
  10   1  11    6.10    4.60
   7  -2 -11    0.20    5.50
   7  -2 -11    3.30    3.80
   6  -2 -11    4.90    5.00
   6  -2 -11    5.20    3.80
   5  -2 -11   -2.60    3.50
   5  -2 -11    3.20    3.30
   4  -2 -11   37.40    6.40
   4  -2 -11   22.70    4.40
   3  -2 -11   17.80    4.40
   3  -2 -11   20.90    4.70
   3  -2 -11   27.10    4.20
   2  -2 -11    6.10    2.80
   2  -2 -11    9.80    3.40
   2  -2 -11   11.30    3.00
  -2   2  11    9.00    2.10
   1  -2 -11   46.60    6.00
   1  -2 -11   60.89    5.40
   1  -2 -11   57.49    6.10
  -1   2  11   58.99    4.40
   0  -2 -11   66.39    6.80
   0  -2 -11   63.79    5.40
   0   2  11   63.59    5.00
  -1  -2 -11   31.60    4.80
  -1  -2 -11   31.50    4.10
   1   2  11   27.90    4.00
  -2  -2 -11  128.09    8.20
   2   2  11  131.89    7.90
  -3  -2 -11   86.49    7.10
   3   2  11   88.59    6.80
  -4  -2 -11  346.17   15.80
   4   2  11  369.06   16.00
  -5  -2 -11  293.67   10.60
  -5  -2 -11  303.67   10.70
  -5  -2 -11  327.47   15.00
   5   2  11  294.67   14.50
  -6  -2 -11   28.00    5.20
  -6  -2 -11   23.00    3.20
  -6  -2 -11   25.60    3.20
   6   2  11   22.00    4.80
  -7  -2 -11   60.39    5.70
  -7  -2 -11   59.79    7.40
   7   2  11   63.89    7.70
  -8  -2 -11   26.60    4.60
   8   2  11   29.40    5.40
   8   2  11   37.70    6.60
  -9  -2 -11   85.99    8.20
   9   2  11   86.39    9.60
   9   2  11   97.19    9.40
 -10  -2 -11    2.70    3.90
  10   2  11    3.50    4.60
  10   2  11    9.50    5.00
 -11  -2 -11   18.20    6.30
  11   2  11   31.40    7.20
  11   2  11   34.90    7.80
   7  -3 -11   13.60    6.60
   7  -3 -11   25.20    5.50
   6  -3 -11   15.70    5.80
   6  -3 -11   12.60    4.40
   5  -3 -11   56.79    7.70
   5  -3 -11   58.19    6.40
   4  -3 -11   32.50    4.70
   4  -3 -11   32.60    5.90
   3  -3 -11  100.69    6.60
   3  -3 -11   96.59    7.90
   3  -3 -11  101.09    7.90
   2  -3 -11    4.80    2.40
   2  -3 -11    0.80    2.90
   2  -3 -11   12.40    3.80
  -2   3  11    5.40    2.00
   1  -3 -11    5.90    2.30
   1  -3 -11    5.50    3.30
   1  -3 -11    5.30    3.10
  -1   3  11    6.40    2.10
   0  -3 -11   98.39    7.30
   0  -3 -11  103.69    6.60
   0   3  11   99.09    6.20
  -1  -3 -11   16.70    3.00
  -1  -3 -11   22.20    4.20
   1   3  11   24.30    3.70
  -2  -3 -11   49.60    5.50
   2   3  11   50.59    5.40
  -3  -3 -11   35.40    5.10
   3   3  11   45.10    5.40
  -4  -3 -11   42.70    5.40
   4   3  11   35.20    5.10
  -5  -3 -11   18.90    2.30
  -5  -3 -11   17.70    2.30
  -5  -3 -11   21.80    4.20
   5   3  11   12.20    3.60
  -6  -3 -11   72.49    7.50
  -6  -3 -11   70.79    4.90
  -6  -3 -11   61.59    4.90
   6   3  11   68.19    7.60
  -7  -3 -11   14.40    3.40
  -7  -3 -11   13.50    4.70
   7   3  11   21.30    4.40
   7   3  11   20.10    4.80
  -8  -3 -11  130.19    8.80
   8   3  11  132.89   10.00
   8   3  11  130.69    9.20
  -9  -3 -11   38.00    5.80
   9   3  11   48.00    7.40
   9   3  11   46.80    6.70
 -10  -3 -11   -0.50    3.70
  10   3  11    5.90    4.70
  10   3  11   -0.40    3.70
 -11  -3 -11   79.59    9.60
  11   3  11   82.39   10.30
  11   3  11   65.09    9.50
   7  -4 -11   22.00    7.10
   6  -4 -11   39.80    7.30
   6  -4 -11   32.10    5.90
   5  -4 -11   85.39    6.90
   5  -4 -11   82.89    9.30
   4  -4 -11   51.39    5.70
   4  -4 -11   53.89    7.10
   3  -4 -11   17.00    3.20
   3  -4 -11   10.90    4.20
   2  -4 -11   49.80    6.00
   2  -4 -11   36.60    5.50
   2  -4 -11   39.20    4.10
  -2   4  11   36.60    3.70
   1  -4 -11   33.40    3.50
   1  -4 -11   33.10    4.70
   1  -4 -11   34.90    5.10
  -1   4  11   32.50    3.80
   0  -4 -11   21.40    3.60
   0  -4 -11   23.40    4.20
   0   4  11   14.30    3.00
  -1  -4 -11   19.70    4.10
  -1  -4 -11   21.00    3.20
   1   4  11   17.30    3.40
  -2  -4 -11   19.30    3.90
   2   4  11   19.50    3.70
  -3  -4 -11  194.78   10.20
   3   4  11  195.88   10.50
  -4  -4 -11   17.50    4.00
   4   4  11   11.10    3.70
  -5  -4 -11  183.68   10.30
  -5  -4 -11  185.48    7.80
  -5  -4 -11  188.78    7.90
   5   4  11  173.78   10.70
  -6  -4 -11   23.90    4.90
  -6  -4 -11   21.20    3.10
  -6  -4 -11   20.20    3.20
   6   4  11   28.80    5.40
   6   4  11   18.30    3.70
  -7  -4 -11  131.89    9.50
  -7  -4 -11  125.59    7.90
   7   4  11  137.39    9.80
   7   4  11  127.89    8.20
  -8  -4 -11  187.48   10.90
   8   4  11  206.88   12.50
   8   4  11  195.88   11.10
  -9  -4 -11   53.09    6.70
   9   4  11   57.89    7.80
   9   4  11   50.29    6.90
 -10  -4 -11   14.20    5.00
  10   4  11    1.50    4.30
  10   4  11    5.40    4.10
 -11  -4 -11   -0.10    4.70
  11   4  11    8.90    5.50
  11   4  11    2.30    5.20
   7  -5 -11   69.39   10.40
   6  -5 -11    0.70    4.90
   5  -5 -11  122.19   11.50
   4  -5 -11  156.38   10.90
   3  -5 -11    8.80    3.80
   2  -5 -11   83.49    7.60
   2  -5 -11   76.29    7.50
  -2   5  11   77.99    5.30
   1  -5 -11    5.80    3.10
   1  -5 -11   12.80    3.60
  -1   5  11    7.90    2.60
   0  -5 -11   95.69    6.10
   0  -5 -11   96.39    7.00
   0   5  11   93.89    6.40
  -1  -5 -11   32.80    3.70
  -1  -5 -11   29.20    4.30
   1   5  11   30.90    4.30
  -2  -5 -11  181.08   10.00
  -2  -5 -11  199.88    8.00
   2   5  11  198.08   10.30
  -3  -5 -11   12.30    3.40
   3   5  11   14.30    3.80
  -4  -5 -11   51.09    2.80
  -4  -5 -11   52.19    2.80
  -4  -5 -11   50.49    5.60
   4   5  11   56.39    4.10
   4   5  11   58.69    6.60
  -5  -5 -11  241.88   12.00
  -5  -5 -11  237.88    9.70
  -5  -5 -11  222.48    9.60
   5   5  11  235.58   10.30
   5   5  11  223.98   12.30
  -6  -5 -11   24.40    4.60
  -6  -5 -11   21.20    3.50
  -6  -5 -11   30.90    3.90
   6   5  11   28.60    4.20
   6   5  11   25.10    4.80
  -7  -5 -11   17.60    3.80
  -7  -5 -11   17.00    4.50
   7   5  11   19.70    4.80
   7   5  11   20.70    4.10
  -8  -5 -11   81.79    7.60
   8   5  11   90.89    9.00
   8   5  11   91.99    8.20
  -9  -5 -11   16.70    4.60
   9   5  11   17.70    5.40
   9   5  11   20.50    4.90
 -10  -5 -11   11.40    4.90
  10   5  11    9.30    5.40
  10   5  11    7.50    4.60
 -11  -5 -11   35.10    7.30
  11   5  11   56.49    8.50
  11   5  11   39.20    8.00
   6  -6 -11    1.60    5.00
   5  -6 -11   38.90    6.80
   4  -6 -11   19.60    5.40
   3  -6 -11   87.89    8.60
   2  -6 -11   84.39    7.10
  -2   6  11   87.89    5.80
   1  -6 -11   68.69    6.30
   1  -6 -11   63.09    6.40
  -1   6  11   65.69    5.40
   0  -6 -11   66.59    5.80
   0  -6 -11   56.49    5.80
   0   6  11   60.99    5.80
  -1  -6 -11   31.60    4.50
  -1  -6 -11   38.50    3.90
   1   6  11   32.10    4.60
  -2  -6 -11  243.68   11.70
   2   6  11  267.77   12.50
  -3  -6 -11  226.78   11.20
   3   6  11  240.58   12.00
  -4  -6 -11  145.89    6.20
  -4  -6 -11  128.69    8.30
  -4  -6 -11  137.59    6.10
   4   6  11  137.59    6.40
   4   6  11  129.39    8.90
  -5  -6 -11   60.09    4.50
  -5  -6 -11   51.49    4.50
  -5  -6 -11   43.80    5.70
   5   6  11   39.60    6.00
   5   6  11   53.39    4.70
  -6  -6 -11   32.90    5.40
  -6  -6 -11   38.50    4.60
   6   6  11   44.90    4.70
   6   6  11   36.00    5.90
  -7  -6 -11   56.39    6.80
  -7  -6 -11   59.79    6.20
   7   6  11   65.09    6.30
   7   6  11   54.49    6.90
  -8  -6 -11   12.30    3.80
   8   6  11    8.50    4.40
   8   6  11    9.20    3.40
  -9  -6 -11   24.30    5.40
   9   6  11   18.20    5.20
   9   6  11   21.00    4.70
 -10  -6 -11   52.99    7.60
  10   6  11   50.29    7.20
  10   6  11   60.89    8.90
 -11  -6 -11   15.10    6.10
  11   6  11   21.90    6.70
  11   6  11   13.20    5.50
   6  -7 -11   32.00    7.40
   5  -7 -11   16.30    5.40
   4  -7 -11   13.80    4.70
   3  -7 -11   19.00    5.00
   2  -7 -11  156.08    9.50
  -2   7  11  163.48    8.50
   1  -7 -11   39.00    5.00
   1  -7 -11   33.80    5.00
  -1   7  11   29.50    4.30
   0  -7 -11  104.39    6.50
   0  -7 -11  103.59    7.20
   0   7  11  106.49    7.30
  -1  -7 -11   39.40    5.00
  -1  -7 -11   47.10    4.20
   1   7  11   40.00    5.10
  -2  -7 -11   55.19    5.70
   2   7  11   56.69    6.20
  -3  -7 -11  212.68   10.80
   3   7  11  250.07   12.30
  -4  -7 -11   88.89    6.30
  -4  -7 -11   70.69    4.60
  -4  -7 -11   70.69    4.70
   4   7  11   69.69    7.40
  -5  -7 -11  108.79    7.40
  -5  -7 -11  103.39    6.50
  -5  -7 -11   97.59    6.10
   5   7  11  103.29    8.40
  -6  -7 -11   24.10    4.60
  -6  -7 -11   24.10    3.90
   6   7  11   29.30    5.50
   6   7  11   31.10    4.00
  -7  -7 -11  211.88   10.90
  -7  -7 -11  184.78   11.30
   7   7  11  186.88    9.90
   7   7  11  199.38   12.30
  -8  -7 -11  143.89    9.90
  -8  -7 -11  137.19    9.70
   8   7  11  135.49    8.70
   8   7  11  148.69   10.80
  -9  -7 -11   93.39    9.50
   9   7  11   96.99   10.20
   9   7  11   90.79    8.60
 -10  -7 -11   28.70    6.20
  10   7  11   26.50    5.60
  10   7  11   27.90    6.50
   6  -8 -11    5.40    5.80
   5  -8 -11    0.70    4.50
   4  -8 -11   33.90    6.40
   3  -8 -11   34.80    5.80
   2  -8 -11   27.60    5.00
  -2   8  11   32.10    4.70
   1  -8 -11   47.20    5.60
  -1   8  11   44.70    5.50
   0  -8 -11   23.90    4.10
   0  -8 -11   24.30    3.70
   0   8  11   25.30    4.50
  -1  -8 -11    5.20    2.60
   1   8  11    5.10    3.10
  -2  -8 -11  147.59    8.10
   2   8  11  135.19    9.00
  -3  -8 -11   33.60    4.50
  -3  -8 -11   39.30    3.40
  -3  -8 -11   36.90    3.20
   3   8  11   44.60    6.20
  -4  -8 -11   98.99    6.90
  -4  -8 -11   90.99    5.80
  -4  -8 -11   92.69    5.60
   4   8  11  108.79    8.30
  -5  -8 -11    3.30    2.30
  -5  -8 -11    0.80    2.60
   5   8  11   10.80    3.80
  -6  -8 -11   83.99    7.70
  -6  -8 -11   75.59    6.40
   6   8  11   81.89    8.60
  -7  -8 -11  171.28   10.10
  -7  -8 -11  144.89    9.60
   7   8  11  166.38   11.40
  -8  -8 -11   81.09    8.10
  -8  -8 -11   67.89    7.60
   8   8  11   81.09    9.10
   8   8  11   78.09    7.10
  -9  -8 -11  113.89   10.40
   9   8  11  113.69   11.20
   9   8  11  121.89    8.80
 -10  -8 -11    8.20    4.90
  10   8  11    5.10    4.00
  10   8  11   11.50    6.00
   5  -9 -11    4.00    5.20
   4  -9 -11    5.70    4.30
   3  -9 -11   13.80    4.70
   2  -9 -11   43.10    6.10
  -2   9  11   48.00    5.70
   1  -9 -11    1.90    3.00
  -1   9  11    4.60    3.20
   0  -9 -11   51.69    5.80
   0  -9 -11   39.00    4.80
   0   9  11   35.90    5.40
  -1  -9 -11   33.50    4.40
   1   9  11   37.40    5.60
  -2  -9 -11   43.70    3.20
  -2  -9 -11   46.70    4.90
  -2  -9 -11   40.70    3.10
   2   9  11   48.50    6.20
  -3  -9 -11   19.10    2.90
  -3  -9 -11   22.60    3.60
  -3  -9 -11   26.20    3.10
   3   9  11   20.90    4.80
  -4  -9 -11  105.09    6.70
  -4  -9 -11  114.59    6.80
  -4  -9 -11  105.09    6.90
   4   9  11  110.89    8.80
  -5  -9 -11  146.99    8.70
  -5  -9 -11  163.98    9.00
   5   9  11  163.98   10.80
  -6  -9 -11   60.19    6.50
  -6  -9 -11   62.49    6.20
   6   9  11   52.69    7.00
  -7  -9 -11   12.10    3.90
  -7  -9 -11   18.40    4.20
   7   9  11   21.60    5.50
  -8  -9 -11   84.89    8.60
  -8  -9 -11  107.99    9.30
   8   9  11   73.39    8.90
  -9  -9 -11   66.99    8.10
  -9  -9 -11   61.09    7.40
   9   9  11   50.29    8.40
 -10  -9 -11   15.20    6.00
  10   9  11   19.80    7.10
   4 -10 -11    0.50    4.30
   3 -10 -11   30.10    6.00
   2 -10 -11   20.80    4.70
  -2  10  11   14.90    4.50
   1 -10 -11   27.80    4.70
  -1  10  11   22.10    4.60
   0  10  11   63.09    7.00
  -1 -10 -11   44.00    7.10
   1  10  11   54.09    7.00
  -2 -10 -11   40.20    3.80
  -2 -10 -11   53.09    6.70
  -2 -10 -11   43.60    3.80
   2  10  11   44.30    6.30
  -3 -10 -11   20.90    3.70
  -3 -10 -11   23.50    3.50
  -3 -10 -11   17.30    3.00
   3  10  11   18.50    4.70
  -4 -10 -11   74.39    6.20
  -4 -10 -11   86.89    6.00
   4  10  11   75.69    8.40
  -5 -10 -11   20.70    3.80
  -5 -10 -11   15.00    3.60
   5  10  11   19.10    5.10
  -6 -10 -11   14.80    4.10
  -6 -10 -11    6.20    3.20
   6  10  11    8.90    4.50
  -7 -10 -11  123.79    8.40
  -7 -10 -11  117.29    9.30
   7  10  11  130.89   12.00
  -8 -10 -11  183.38   11.10
  -8 -10 -11  190.48   12.30
   8  10  11  178.28   13.00
  -9 -10 -11   60.99    8.00
  -9 -10 -11   49.60    7.00
   9  10  11   46.40    8.10
 -10 -10 -11    4.60    5.30
  10  10  11    9.10    6.80
   4 -11 -11   90.49   10.40
   3 -11 -11   14.10    5.20
   2 -11 -11    6.10    4.00
  -2  11  11   -0.60    3.50
  -1  11  11   55.59    7.00
   0  11  11   15.50    4.50
  -1 -11 -11   13.60    2.60
  -1 -11 -11   12.90    2.30
   1  11  11   12.90    4.20
  -2 -11 -11   40.60    4.10
  -2 -11 -11   35.60    4.10
   2  11  11   21.10    5.20
  -3 -11 -11   52.69    5.40
   3  11  11   67.59    8.00
  -4 -11 -11    4.20    2.90
   4  11  11   -1.20    3.60
  -5 -11 -11    0.20    2.70
   5  11  11    5.40    4.50
  -6 -11 -11   10.20    3.90
   6  11  11    4.70    4.50
  -7 -11 -11   68.79    7.70
   7  11  11   55.29    8.00
  -8 -11 -11  141.69   11.40
  -9 -11 -11   17.90    5.90
   9  11  11    8.90    6.10
   3 -12 -11   39.90    7.40
  -2  12  11   -5.50    3.20
  -1  12  11   11.00    4.60
   0 -12 -11   96.09    5.10
   0 -12 -11   90.29    4.90
   0  12  11   94.09    9.50
  -1 -12 -11   63.69    5.10
  -1 -12 -11   60.09    5.20
   1  12  11   65.29    8.00
  -2 -12 -11    1.10    2.40
   2  12  11    2.50    3.90
  -3 -12 -11   37.10    5.00
   3  12  11   29.00    6.20
  -4 -12 -11    8.40    3.50
   4  12  11   20.30    5.50
  -5 -12 -11   13.30    4.10
   5  12  11   22.30    5.60
  -6 -12 -11    0.10    3.50
   6  12  11    1.00    4.30
  -7 -12 -11   24.90    6.00
   7  12  11   25.80    7.30
  -8 -12 -11   41.60    7.40
   8  12  11   43.50    8.70
  -2  13  11    6.00    4.50
  -1  13  11   19.80    5.50
   0 -13 -11    2.70    2.60
   0 -13 -11    3.70    2.90
   0  13  11   -1.60    3.90
  -1 -13 -11   20.00    3.70
   1  13  11   25.00    5.90
  -2 -13 -11  178.98    9.90
   2  13  11  169.68   12.10
  -3 -13 -11   35.60    5.30
   3  13  11   34.30    6.80
  -4 -13 -11   36.00    5.50
   4  13  11   31.60    6.50
  -5 -13 -11   35.20    6.00
   5  13  11   41.20    8.00
  -6 -13 -11   11.50    4.70
   6  13  11    5.00    5.70
  -7 -13 -11   91.59    9.80
   7  13  11   83.19   10.70
  -8 -13 -11   13.40    6.10
   8  13  11    7.00    7.00
   0 -14 -11   35.40    4.70
   0  14  11   47.90    7.90
  -1 -14 -11   -2.90    3.00
   1  14  11   -5.30    4.40
  -2 -14 -11   65.39    6.90
   2  14  11   56.39    8.40
  -3 -14 -11   15.30    4.50
   3  14  11   13.30    6.00
  -4 -14 -11   27.10    5.70
   4  14  11   24.50    6.70
  -5 -14 -11   -1.40    4.00
   5  14  11   13.00    6.50
  -6 -14 -11   36.60    6.90
   6  14  11    8.20    6.40
  -2 -15 -11   20.90    5.50
   2  15  11   21.30    7.00
  -3 -15 -11   18.70    5.40
   3  15  11   27.20    7.30
  -4 -15 -11   11.90    5.30
   4  15  11    8.90    6.40
   2  10 -12   10.30    5.70
   2  10 -12   14.90    5.90
   1  10 -12   38.70    7.60
   1  10 -12   45.40    7.60
   0  10 -12   26.20    6.40
   0  10 -12   12.90    6.30
  -1  10 -12   52.39    7.70
  -1  10 -12   81.39   11.00
  -2  10 -12   -0.60    5.50
  -2  10 -12    9.60    5.10
   3   9 -12   13.00    5.20
   3   9 -12   25.30    7.30
   3   9 -12   11.40    5.30
   2   9 -12   86.39    9.60
   2   9 -12   44.50    7.70
   1   9 -12   12.50    5.20
   1   9 -12    8.80    5.10
   0   9 -12  116.59   12.10
   0   9 -12  117.99   11.10
  -1   9 -12    3.20    3.90
  -1   9 -12   -1.50    4.10
  -2   9 -12   44.50    7.00
  -2   9 -12   49.20    8.50
  -3   9 -12   22.00    7.30
  -3   9 -12   25.70    6.10
  -4   9 -12    9.00    5.00
  -4   9 -12    1.00    5.00
   4   8 -12    1.30    4.60
   4   8 -12   12.70    6.30
   3   8 -12   -2.30    5.10
   3   8 -12    2.60    4.80
   2   8 -12   51.79    7.70
   2   8 -12   36.10    6.80
   2   8 -12   43.50    7.80
   1   8 -12   26.20    6.00
   1   8 -12   19.50    5.80
   0   8 -12  197.68   12.40
   0   8 -12  173.38   12.70
  -1   8 -12    5.40    4.60
  -1   8 -12    2.80    3.80
  -2   8 -12   23.90    5.50
  -2   8 -12   27.50    7.00
  -3   8 -12   13.30    5.80
  -3   8 -12   12.80    4.90
  -4   8 -12   11.60    4.80
  -4   8 -12   14.00    6.00
  -5   8 -12   58.79    9.70
  -5   8 -12   70.79    8.70
   5   7 -12   52.89    9.40
   5   7 -12   50.39    9.60
   4   7 -12    3.90    4.70
   4   7 -12   -4.00    4.50
   3   7 -12   17.20    5.60
   3   7 -12   16.20    6.00
   2   7 -12   65.89    8.50
   2   7 -12   44.90    7.50
   2   7 -12   43.10    6.90
   1   7 -12   19.50    5.20
   1   7 -12    7.00    4.30
   0   7 -12   29.80    6.20
   0   7 -12   27.70    5.20
  -1   7 -12    8.10    4.90
  -1   7 -12    6.70    4.20
  -2   7 -12   26.10    6.50
  -2   7 -12   45.90    6.90
  -3   7 -12  100.39    9.90
  -3   7 -12   90.39   10.80
  -4   7 -12   20.60    5.30
  -4   7 -12   14.70    5.90
  -5   7 -12   50.49    8.70
  -5   7 -12   33.90    6.60
  -6   7 -12    8.10    6.00
  -6   7 -12    6.60    5.00
   6   6 -12    0.20    5.60
   6   6 -12    0.10    6.10
   5   6 -12   15.80    6.40
   5   6 -12   17.00    6.60
   4   6 -12   60.39    9.50
   4   6 -12   62.59    8.70
   4   6 -12   64.89    9.30
   3   6 -12   34.30    6.80
   3   6 -12   18.70    5.70
   2   6 -12   37.70    6.70
   2   6 -12   32.90    6.20
   1   6 -12   38.90    6.30
   1   6 -12   41.90    6.60
   0   6 -12   22.50    5.70
   0   6 -12   21.40    4.90
  -1   6 -12    1.30    3.00
  -1   6 -12    2.80    3.90
  -2   6 -12   52.39    7.20
  -2   6 -12   68.49    8.70
  -3   6 -12   96.39    9.30
  -3   6 -12   68.79    8.50
  -4   6 -12   48.10    6.90
  -4   6 -12   48.40    7.80
  -5   6 -12   10.10    4.80
  -5   6 -12   14.60    5.80
  -6   6 -12    2.70    5.50
  -6   6 -12    3.80    4.40
  -7   6 -12    1.60    4.50
  -7   6 -12    8.50    5.80
   6   5 -12   50.29    9.00
   6   5 -12   75.79   10.20
   5   5 -12   19.00    6.40
   5   5 -12   33.40    7.30
   4   5 -12   16.30    6.00
   4   5 -12   10.40    4.90
   4   5 -12   26.80    6.30
   3   5 -12   15.70    5.60
   3   5 -12   13.30    5.00
   3   5 -12   13.80    4.50
   2   5 -12    1.00    3.90
   2   5 -12    3.70    3.90
   1   5 -12   80.49    8.90
   1   5 -12   82.69    9.00
   1   5 -12   80.09    8.80
   0   5 -12    1.00    3.30
   0   5 -12    4.40    3.80
  -1   5 -12   87.79    8.60
  -1   5 -12   92.69    9.50
  -2   5 -12   68.39    8.20
  -2   5 -12   72.29    8.20
  -3   5 -12   20.00    5.40
  -3   5 -12   27.90    5.70
  -4   5 -12   85.89    8.70
  -4   5 -12   91.99    9.90
  -5   5 -12   24.30    5.50
  -5   5 -12   16.60    5.70
  -6   5 -12    8.10    4.40
  -6   5 -12    0.80    4.20
  -7   5 -12    4.60    4.90
  -7   5 -12    4.40    1.90
  -7   5 -12    5.60    2.40
  -7   5 -12    5.00    4.60
  -8   5 -12    4.60    5.80
  -8   5 -12   10.80    5.70
  -8   5 -12    4.90    3.50
   6   4 -12    6.30    5.40
   6   4 -12   -7.30    4.30
   5   4 -12   26.50    6.50
   5   4 -12   25.40    6.70
   4   4 -12    4.60    4.40
   4   4 -12   -3.30    3.50
   4   4 -12   -0.20    3.60
   3   4 -12   59.49    8.20
   3   4 -12   74.39    8.70
   3   4 -12   55.69    7.80
   2   4 -12  245.48   13.10
   2   4 -12  199.08   12.70
   2   4 -12  212.98   13.20
   1   4 -12  117.09    9.30
   1   4 -12   94.09    9.50
   0   4 -12  113.39    8.60
   0   4 -12  101.09    8.50
  -1   4 -12   13.00    5.00
  -1   4 -12   15.90    4.60
  -2   4 -12   21.10    5.10
  -2   4 -12   24.90    5.30
  -3   4 -12   49.20    6.80
  -3   4 -12   51.69    7.20
  -4   4 -12    5.20    4.40
  -4   4 -12    5.20    3.90
  -5   4 -12   12.70    4.90
  -5   4 -12   14.90    4.40
  -6   4 -12    0.00    3.90
  -6   4 -12    7.40    4.20
  -7   4 -12   24.90    3.10
  -7   4 -12   26.70    3.50
  -7   4 -12   31.30    6.30
  -7   4 -12   20.30    5.90
  -8   4 -12   83.19    7.10
  -8   4 -12   74.99    9.60
  -8   4 -12   67.09    9.50
   7   3 -12   28.90    7.10
   7   3 -12   22.10    7.50
   6   3 -12   41.80    7.60
   6   3 -12   34.60    7.40
   5   3 -12   66.99    9.10
   5   3 -12   74.19    8.90
   4   3 -12   90.69    9.90
   4   3 -12   61.59    8.20
   4   3 -12   82.69    9.00
   3   3 -12   72.69    8.40
   3   3 -12   94.69    9.60
   3   3 -12   83.59    8.70
   2   3 -12   16.50    4.40
   2   3 -12    7.70    4.00
   2   3 -12   12.70    4.40
   1   3 -12   69.89    8.10
   1   3 -12   48.30    6.80
   1   3 -12   64.19    7.70
   0   3 -12  178.48   11.10
  -1   3 -12   -0.60    3.10
  -1   3 -12    0.40    3.00
  -2   3 -12  136.09   10.10
  -2   3 -12  126.49    9.40
  -3   3 -12  153.18   10.00
  -3   3 -12  146.79   10.30
  -4   3 -12  131.09    9.90
  -4   3 -12  134.29    9.90
  -5   3 -12   20.70    5.30
  -5   3 -12   15.60    4.80
  -6   3 -12   55.69    7.70
  -6   3 -12   40.60    7.10
  -7   3 -12   18.40    5.50
  -7   3 -12   26.10    3.10
  -7   3 -12   16.90    5.50
  -7   3 -12   27.00    3.50
  -8   3 -12   68.49    9.10
  -8   3 -12   80.79    6.90
  -8   3 -12   56.29    8.30
   8  -3  12   61.49    9.10
  -9   3 -12    6.10    5.80
  -9   3 -12    6.70    4.20
  -9   3 -12    2.20    5.10
   9  -3  12   13.80    6.00
   7   2 -12   26.50    8.30
   7   2 -12   40.60    8.00
   6   2 -12    3.90    4.60
   6   2 -12    9.60    5.50
   5   2 -12   55.59    8.10
   5   2 -12   61.89    7.90
   4   2 -12   50.29    7.00
   4   2 -12   43.70    7.20
   4   2 -12   57.09    7.80
   3   2 -12   26.30    5.30
   3   2 -12   35.20    6.20
   3   2 -12   34.40    6.60
   2   2 -12   30.80    5.60
   2   2 -12   26.60    5.10
   2   2 -12   28.70    5.20
   1   2 -12  100.09    8.20
   1   2 -12   83.79    8.60
   1   2 -12   97.19    7.80
  -1  -2  12  111.39    6.60
   0   2 -12  127.09    9.20
  -1   2 -12    4.00    3.60
  -2   2 -12   27.50    5.60
  -2   2 -12   13.20    4.20
  -3   2 -12   65.49    7.10
  -4   2 -12   41.00    6.80
  -4   2 -12   42.20    6.30
  -5   2 -12   41.00    6.70
  -5   2 -12   32.40    5.50
  -6   2 -12  173.78   12.00
  -6   2 -12  188.38   12.10
  -7   2 -12   94.39   10.10
  -7   2 -12   81.39    9.00
  -7   2 -12   93.89    5.80
  -7   2 -12   88.39    5.40
   7  -2  12   85.89    9.50
  -8   2 -12   70.79    9.00
  -8   2 -12   65.99    9.00
  -8   2 -12   51.59    5.70
   8  -2  12   54.29    7.80
  -9   2 -12   39.80    6.10
  -9   2 -12   41.60    7.30
  -9   2 -12   40.60    7.40
   9  -2  12   47.30    8.40
   7   1 -12   52.29    9.20
   7   1 -12   30.60    7.20
   6   1 -12   57.79    8.00
   6   1 -12   45.40    8.20
   5   1 -12   26.10    5.70
   5   1 -12   22.30    6.20
   4   1 -12   20.00    5.60
   4   1 -12   27.60    5.40
   4   1 -12   25.90    6.00
   3   1 -12    6.70    3.70
   3   1 -12    3.90    3.60
   3   1 -12    0.90    3.60
   2   1 -12  183.38   10.60
   2   1 -12  170.98   11.00
   2   1 -12  193.48   11.20
   1   1 -12   37.40    5.80
   1   1 -12   45.00    5.80
   1   1 -12   35.30    5.70
  -1  -1  12   43.00    4.60
   0   1 -12  131.79    9.20
   0   1 -12  123.99    8.60
   0  -1  12  128.19    7.50
  -1   1 -12  126.99    9.10
   1  -1  12  116.59    7.60
  -2   1 -12   39.90    6.20
   2  -1  12   44.60    5.40
  -3   1 -12  293.07   15.30
  -3   1 -12  293.47   14.70
   3  -1  12  297.77   14.20
  -4   1 -12   70.59    8.00
  -4   1 -12   76.59    8.10
   4  -1  12   63.79    7.20
  -5   1 -12   25.90    5.00
  -5   1 -12   26.10    5.70
   5  -1  12   30.80    5.60
  -6   1 -12   10.10    4.20
  -6   1 -12   26.60    5.50
   6  -1  12   12.00    4.80
  -7   1 -12   25.90    5.70
  -7   1 -12   35.80    6.50
  -7   1 -12   38.10    3.80
  -7   1 -12   32.80    3.80
   7  -1  12   26.50    5.90
  -8   1 -12   24.20    5.90
  -8   1 -12   23.10    4.00
  -8   1 -12   24.60    6.20
   8  -1  12   20.90    5.50
  -9   1 -12   81.09    9.40
  -9   1 -12   68.59    9.30
  -9   1 -12   84.29    8.10
   9  -1  12   86.49   10.30
 -10   1 -12   62.09    7.90
  10  -1  12   44.40    8.60
  10  -1  12   56.79    9.40
   7   0 -12   32.90    7.00
   7   0 -12   29.80    7.60
   6   0 -12   -2.80    3.70
   6   0 -12    1.10    5.20
   5   0 -12   53.99    8.40
   5   0 -12   78.49    8.30
   4   0 -12   12.10    5.00
   4   0 -12    4.50    3.50
   3   0 -12   41.70    6.30
   3   0 -12   38.50    5.60
   3   0 -12   30.90    5.80
   2   0 -12  175.48   10.70
   2   0 -12  158.38    9.50
   2   0 -12  156.58   10.20
   1   0 -12   10.70    4.10
   1   0 -12   11.50    3.80
   1   0 -12    4.40    2.80
  -1   0  12    8.10    2.40
   0   0 -12  205.08   11.60
   0   0 -12  195.48   10.70
   0   0  12  200.08    9.80
  -1   0 -12   33.60    5.50
   1   0  12   43.10    5.20
  -2   0 -12   59.49    6.70
   2   0  12   47.90    5.60
  -3   0 -12   91.39    8.60
   3   0  12   91.99    8.30
  -4   0 -12  160.98   10.60
  -4   0 -12  176.18   10.70
   4   0  12  157.98   10.20
  -5   0 -12    7.00    3.90
  -5   0 -12    7.60    3.80
   5   0  12    8.40    3.80
  -6   0 -12    2.50    3.40
  -6   0 -12    6.60    3.80
   6   0  12    0.70    3.60
  -7   0 -12  130.39    7.00
  -7   0 -12  145.59    7.50
  -7   0 -12  148.29   10.80
  -7   0 -12  144.29   10.50
   7   0  12  134.09   10.40
  -8   0 -12   42.70    7.40
  -8   0 -12   44.90    5.20
  -8   0 -12   34.70    6.40
   8   0  12   28.40    6.30
  -9   0 -12    0.70    3.40
  -9   0 -12    8.20    4.40
   9   0  12    3.20    4.60
   9   0  12    5.50    4.30
 -10   0 -12   27.10    6.20
 -10   0 -12   29.70    6.40
  10   0  12   33.70    7.50
  10   0  12   41.60    8.10
   7  -1 -12   44.30    7.70
   7  -1 -12   27.50    7.80
   6  -1 -12   62.59    8.00
   6  -1 -12   53.09    8.60
   5  -1 -12   -0.30    3.80
   5  -1 -12   11.80    4.20
   4  -1 -12   47.10    6.00
   4  -1 -12   38.10    6.50
   3  -1 -12   11.50    3.60
   3  -1 -12    8.50    4.10
   3  -1 -12   18.30    4.90
   2  -1 -12   60.89    7.40
   2  -1 -12   65.69    6.40
   2  -1 -12   56.69    6.80
   1  -1 -12   72.09    5.90
   1  -1 -12   71.99    7.60
   1  -1 -12   81.59    7.50
  -1   1  12   75.59    5.10
   0  -1 -12   54.39    5.80
   0  -1 -12   57.79    6.70
   0   1  12   57.09    5.30
  -1  -1 -12   37.00    5.80
   1   1  12   34.80    4.70
  -2  -1 -12   51.89    6.50
   2   1  12   44.40    5.30
  -3  -1 -12   12.50    3.90
   3   1  12   16.80    4.20
  -4  -1 -12  125.69    8.90
   4   1  12  112.09    8.40
  -5  -1 -12   18.20    4.70
   5   1  12   19.40    4.80
  -6  -1 -12   33.00    2.80
  -6  -1 -12   24.50    5.30
  -6  -1 -12   30.30    2.60
   6   1  12   33.00    6.00
  -7  -1 -12   -1.00    3.30
  -7  -1 -12    8.40    2.30
  -7  -1 -12    3.60    2.20
   7   1  12    2.70    3.70
  -8  -1 -12   13.60    3.60
  -8  -1 -12   14.00    5.10
   8   1  12   11.00    4.80
  -9  -1 -12  121.99    9.10
   9   1  12  114.69   11.70
   9   1  12  109.29   10.90
 -10  -1 -12   -1.00    4.00
  10   1  12   -7.80    4.20
  10   1  12    5.60    5.40
   7  -2 -12    8.50    5.30
   7  -2 -12    0.40    5.40
   6  -2 -12    4.00    4.00
   6  -2 -12    1.60    5.30
   5  -2 -12   33.50    6.60
   5  -2 -12   33.70    5.50
   4  -2 -12   24.10    5.60
   4  -2 -12   24.00    4.70
   3  -2 -12  404.76   16.70
   3  -2 -12  395.56   18.70
   3  -2 -12  397.46   18.20
   2  -2 -12   54.29    6.90
   2  -2 -12   60.79    6.00
   2  -2 -12   53.59    6.40
   1  -2 -12  217.78   11.90
   1  -2 -12  212.98   10.00
   1  -2 -12  199.68   10.90
  -1   2  12  189.68    9.10
   0  -2 -12  167.68   10.10
   0  -2 -12  161.98    9.00
   0   2  12  171.68    8.60
  -1  -2 -12   64.39    5.40
  -1  -2 -12   71.79    7.20
   1   2  12   68.19    6.20
  -2  -2 -12    6.30    3.40
   2   2  12   12.30    3.40
  -3  -2 -12   35.90    5.20
   3   2  12   42.00    5.30
  -4  -2 -12    6.60    3.60
   4   2  12   14.40    4.10
  -5  -2 -12  186.68   11.20
   5   2  12  214.78   11.90
  -6  -2 -12   91.29    8.90
  -6  -2 -12   98.59    5.00
  -6  -2 -12   96.99    4.80
   6   2  12   99.19    9.80
  -7  -2 -12    1.40    2.10
  -7  -2 -12    2.70    2.00
  -7  -2 -12    1.90    3.70
   7   2  12    1.10    3.60
  -8  -2 -12   31.40    5.90
  -8  -2 -12   26.60    4.40
   8   2  12   28.70    6.10
   8   2  12   23.60    5.10
  -9  -2 -12   10.80    3.90
   9   2  12    4.80    4.60
   9   2  12   13.10    4.50
 -10  -2 -12   48.00    7.10
  10   2  12   54.19    8.30
  10   2  12   40.20    7.60
   7  -3 -12   56.09   10.00
   6  -3 -12   11.90    6.00
   6  -3 -12    8.90    4.60
   5  -3 -12   29.40    6.60
   5  -3 -12   40.40    5.80
   4  -3 -12  166.28    9.50
   4  -3 -12  160.88   11.20
   3  -3 -12   94.19    9.00
   3  -3 -12  118.49    9.20
   3  -3 -12   96.99    6.80
   2  -3 -12  119.19    8.50
   2  -3 -12  129.39    7.30
   2  -3 -12  111.09    8.80
   1  -3 -12   98.49    8.10
   1  -3 -12  107.49    7.60
   1  -3 -12  102.69    6.30
  -1   3  12  103.99    6.10
   0  -3 -12  225.18   10.60
   0  -3 -12  206.88   11.40
   0   3  12  210.88   10.00
  -1  -3 -12  100.49    6.40
   1   3  12   97.79    6.70
  -2  -3 -12  227.98   11.80
   2   3  12  201.58   10.70
  -3  -3 -12  211.38   11.70
   3   3  12  238.18   11.70
  -4  -3 -12   38.80    5.70
   4   3  12   29.50    5.00
  -5  -3 -12  224.08   12.60
   5   3  12  254.67   13.10
  -6  -3 -12   15.10    2.40
  -6  -3 -12   16.30    2.50
  -6  -3 -12   16.10    4.70
   6   3  12   22.20    5.00
  -7  -3 -12   27.80    5.50
  -7  -3 -12   29.80    4.00
   7   3  12   26.30    5.50
   7   3  12   33.20    5.20
  -8  -3 -12   35.80    6.50
  -8  -3 -12   21.20    4.10
   8   3  12   24.60    5.10
   8   3  12   24.40    5.70
  -9  -3 -12   -0.30    3.20
   9   3  12    1.90    3.60
   9   3  12    4.00    4.30
 -10  -3 -12   62.79    8.00
  10   3  12   37.80    7.80
  10   3  12   55.69    7.90
   6  -4 -12   12.70    6.00
   5  -4 -12  121.49   11.70
   4  -4 -12  119.49    9.90
   3  -4 -12   12.70    4.50
   2  -4 -12  183.08   10.60
   2  -4 -12  181.38   11.00
   2  -4 -12  183.38    9.00
   1  -4 -12   86.39    5.30
   1  -4 -12   96.49    6.90
   1  -4 -12   75.29    7.40
  -1   4  12   79.19    5.70
   0  -4 -12   19.20    3.70
   0  -4 -12   14.80    4.00
   0   4  12   12.50    3.10
  -1  -4 -12    9.30    3.30
  -1  -4 -12    9.30    2.70
   1   4  12    6.50    2.80
  -2  -4 -12   34.90    5.10
   2   4  12   57.39    6.00
  -3  -4 -12  129.09    8.70
   3   4  12  119.69    8.20
  -4  -4 -12  105.79    7.80
   4   4  12  107.79    8.10
  -5  -4 -12  113.19    8.50
   5   4  12  108.39    8.70
  -6  -4 -12  137.59    6.80
  -6  -4 -12  135.69    9.80
  -6  -4 -12  141.49    6.90
   6   4  12  141.09   10.00
   6   4  12  132.49    8.10
  -7  -4 -12   50.39    6.90
  -7  -4 -12   38.50    4.60
   7   4  12   51.49    6.00
   7   4  12   39.50    6.40
  -8  -4 -12  178.98   11.70
  -8  -4 -12  181.78   10.10
   8   4  12  178.68   10.60
   8   4  12  181.78   12.20
  -9  -4 -12   12.20    4.20
   9   4  12   10.40    4.90
   9   4  12    7.80    4.10
 -10  -4 -12    6.70    4.50
  10   4  12   12.40    5.70
  10   4  12    9.40    5.00
   6  -5 -12   19.00    6.50
   5  -5 -12   12.60    5.50
   4  -5 -12  132.49   10.20
   3  -5 -12    6.60    4.00
   2  -5 -12   27.90    5.00
   2  -5 -12   18.20    4.50
   1  -5 -12   59.59    6.70
   1  -5 -12   61.19    6.30
  -1   5  12   58.39    5.40
   0  -5 -12   75.39    7.30
   0  -5 -12   72.79    5.70
   0   5  12   65.49    6.00
  -1  -5 -12   46.10    5.70
  -1  -5 -12   56.09    4.90
   1   5  12   50.19    5.50
  -2  -5 -12  150.78    9.00
   2   5  12  138.09    8.70
  -3  -5 -12   56.49    6.40
   3   5  12   52.49    6.30
  -4  -5 -12   19.20    4.30
   4   5  12   13.00    4.20
  -5  -5 -12   30.60    2.60
  -5  -5 -12   27.00    4.80
  -5  -5 -12   30.30    2.50
   5   5  12   27.30    5.30
   5   5  12   37.10    4.30
  -6  -5 -12   21.40    4.90
  -6  -5 -12   21.00    3.10
  -6  -5 -12   14.50    2.70
   6   5  12   16.30    3.50
   6   5  12   12.40    4.10
  -7  -5 -12   49.90    6.60
  -7  -5 -12   53.69    5.40
   7   5  12   71.99    6.90
   7   5  12   61.99    7.80
  -8  -5 -12   35.90    5.20
  -8  -5 -12   49.50    7.30
   8   5  12   38.00    5.70
   8   5  12   41.10    6.90
  -9  -5 -12   42.80    6.10
   9   5  12   42.60    7.10
   9   5  12   46.90    6.60
 -10  -5 -12    8.00    5.00
  10   5  12   17.20    5.10
  10   5  12   13.10    6.00
   6  -6 -12    9.90    6.10
   5  -6 -12   55.19    8.20
   4  -6 -12   46.80    7.40
   3  -6 -12    1.50    3.80
   2  -6 -12  180.78   10.90
   2  -6 -12  177.38   10.50
   1  -6 -12   13.90    3.80
   1  -6 -12   15.40    3.70
  -1   6  12    6.60    2.80
   0  -6 -12   86.89    6.90
   0  -6 -12   74.69    5.80
   0   6  12   87.59    6.50
  -1  -6 -12   43.10    5.40
  -1  -6 -12   51.49    4.60
   1   6  12   39.60    5.10
  -2  -6 -12    2.00    2.60
   2   6  12    2.10    2.60
  -3  -6 -12   19.40    4.20
   3   6  12   30.20    4.90
  -4  -6 -12  159.88    9.60
   4   6  12  174.18   10.60
  -5  -6 -12    8.00    3.60
  -5  -6 -12   13.90    2.30
  -5  -6 -12   13.90    2.20
   5   6  12   12.80    4.30
   5   6  12   15.70    2.90
  -6  -6 -12   12.20    4.30
  -6  -6 -12   14.20    2.80
  -6  -6 -12   12.60    2.80
   6   6  12   14.30    4.60
   6   6  12    7.90    2.80
  -7  -6 -12   11.00    3.20
  -7  -6 -12    6.70    3.90
   7   6  12    5.20    4.00
   7   6  12    6.70    3.10
  -8  -6 -12   21.20    5.40
  -8  -6 -12   16.20    4.10
   8   6  12   17.80    4.20
   8   6  12   12.50    5.10
  -9  -6 -12   28.00    5.50
  -9  -6 -12   22.40    5.80
   9   6  12   28.20    6.40
   9   6  12   20.70    4.70
 -10  -6 -12   44.40    7.30
  10   6  12   30.20    6.00
  10   6  12   32.50    7.10
   5  -7 -12   51.09    8.00
   4  -7 -12    3.50    4.30
   3  -7 -12   34.40    6.00
   2  -7 -12    8.10    3.90
   1  -7 -12  136.39    8.40
   1  -7 -12  135.19    9.10
  -1   7  12  149.09    8.50
   0  -7 -12  151.08    9.40
   0  -7 -12  161.78    8.40
   0   7  12  169.98    9.40
  -1  -7 -12   20.20    4.10
   1   7  12   16.00    3.80
  -2  -7 -12    5.80    2.80
   2   7  12    3.20    3.00
  -3  -7 -12   30.30    4.70
   3   7  12   29.80    5.30
  -4  -7 -12   10.90    3.60
   4   7  12   11.40    4.10
  -5  -7 -12   24.40    3.00
  -5  -7 -12   31.90    5.10
  -5  -7 -12   22.00    3.00
   5   7  12   17.80    4.70
  -6  -7 -12   37.80    5.70
  -6  -7 -12   34.70    4.30
   6   7  12   33.80    6.00
  -7  -7 -12    2.60    3.60
  -7  -7 -12    1.90    2.70
   7   7  12    0.50    3.20
   7   7  12    8.20    4.20
  -8  -7 -12   46.90    6.10
  -8  -7 -12   56.39    7.40
   8   7  12   42.90    5.70
   8   7  12   44.50    7.40
  -9  -7 -12   32.10    6.40
  -9  -7 -12   27.40    5.60
   9   7  12   38.00    7.50
   9   7  12   22.40    4.90
 -10  -7 -12   22.00    6.00
  10   7  12   20.50    6.50
  10   7  12   33.10    6.00
   5  -8 -12   12.30    5.80
   4  -8 -12    4.30    4.40
   3  -8 -12   67.09    7.90
   2  -8 -12    8.80    4.00
   1  -8 -12  151.48    9.10
  -1   8  12  156.38    9.00
   0  -8 -12   16.80    3.90
   0   8  12   16.90    4.20
  -1  -8 -12   16.80    3.80
   1   8  12   22.70    4.50
  -2  -8 -12  171.18    9.40
   2   8  12  164.98   10.10
  -3  -8 -12  109.59    7.40
   3   8  12  103.49    8.30
  -4  -8 -12  212.38    8.50
  -4  -8 -12  212.88   11.00
  -4  -8 -12  212.98    8.60
   4   8  12  222.68   12.40
  -5  -8 -12   31.10    4.90
  -5  -8 -12   24.50    3.40
  -5  -8 -12   22.30    3.20
   5   8  12   20.20    5.20
  -6  -8 -12    6.00    2.80
  -6  -8 -12    1.60    3.10
   6   8  12    4.10    4.10
  -7  -8 -12   55.89    6.90
  -7  -8 -12   49.40    5.80
   7   8  12   55.59    7.70
  -8  -8 -12    7.40    3.80
  -8  -8 -12    8.50    4.20
   8   8  12    2.30    4.20
  -9  -8 -12   -1.10    3.50
  -9  -8 -12    6.00    4.00
   9   8  12    5.70    5.10
 -10  -8 -12    6.10    5.10
  10   8  12    3.10    5.90
   4  -9 -12   15.60    5.30
   3  -9 -12   35.00    6.30
   2  -9 -12   22.00    4.80
   1  -9 -12   74.59    7.50
  -1   9  12   70.49    7.10
   0  -9 -12    2.10    2.60
   0   9  12    0.40    3.10
  -1  -9 -12   52.99    5.60
   1   9  12   69.39    7.40
  -2  -9 -12   12.60    3.30
   2   9  12    8.20    4.00
  -3  -9 -12   83.69    6.30
   3   9  12   98.79    9.00
  -4  -9 -12   57.89    4.50
  -4  -9 -12   67.39    6.50
  -4  -9 -12   64.69    4.60
   4   9  12   62.29    7.80
  -5  -9 -12   91.79    6.40
  -5  -9 -12  108.49    7.40
   5   9  12   99.39    9.80
  -6  -9 -12   60.29    6.10
  -6  -9 -12   64.49    6.70
   6   9  12   68.09    8.40
  -7  -9 -12   54.99    6.50
  -7  -9 -12   55.69    6.60
   7   9  12   40.00    6.70
  -8  -9 -12   50.79    6.90
  -8  -9 -12   48.50    6.80
   8   9  12   39.40    7.60
  -9  -9 -12   31.10    6.30
  -9  -9 -12   34.80    6.60
   9   9  12   21.70    6.60
  10   9  12   32.50    8.80
   4 -10 -12   12.90    5.80
   3 -10 -12    6.80    4.80
   2 -10 -12   37.30    6.00
  -1  10  12    6.90    3.80
   0  10  12   21.40    4.90
  -1 -10 -12    9.10    4.70
   1  10  12   13.60    4.40
  -2 -10 -12   48.00    7.20
   2  10  12   48.90    6.70
  -3 -10 -12   71.19    6.80
  -3 -10 -12   62.39    4.40
  -3 -10 -12   75.39    4.40
   3  10  12   61.49    7.50
  -4 -10 -12   43.20    5.10
  -4 -10 -12   32.10    4.00
  -4 -10 -12   37.80    4.20
   4  10  12   34.60    6.10
  -5 -10 -12   12.10    3.20
  -5 -10 -12   17.20    3.70
   5  10  12   15.00    4.90
  -6 -10 -12   18.10    4.30
  -6 -10 -12   24.70    4.50
   6  10  12   13.00    5.30
  -7 -10 -12   15.50    4.40
  -7 -10 -12   21.30    4.30
   7  10  12    2.60    4.70
  -8 -10 -12   46.80    7.00
  -8 -10 -12   56.19    6.80
   8  10  12   47.50    8.00
  -9 -10 -12   77.99    8.70
  -9 -10 -12   76.99    9.10
   9  10  12   70.69   10.30
   3 -11 -12   27.40    7.70
  -1  11  12    9.00    4.20
   0  11  12    9.70    4.20
   1  11  12  173.18   11.10
   2  11  12   10.10    4.40
  -3 -11 -12  143.59    7.40
  -3 -11 -12  139.49    7.20
   3  11  12  133.69   10.60
  -4 -11 -12   46.30    5.00
   4  11  12   43.60    6.90
  -5 -11 -12   59.09    6.20
   5  11  12   65.19    8.50
  -6 -11 -12   42.90    5.70
   6  11  12   38.70    7.30
  -7 -11 -12   16.30    5.30
   7  11  12   23.60    6.60
  -8 -11 -12   11.20    5.10
   8  11  12   18.20    6.60
  -9 -11 -12   27.90    7.00
   9  11  12   30.40    8.10
  -1  12  12    4.00    4.20
   0  12  12   34.50    6.20
   1  12  12   17.50    5.10
  -2 -12 -12   40.50    4.00
  -2 -12 -12   49.40    4.20
   2  12  12   35.60    6.50
  -3 -12 -12   43.70    4.80
   3  12  12   48.30    7.60
  -4 -12 -12  132.79    8.40
   4  12  12  135.89   11.10
  -5 -12 -12   60.19    6.50
   5  12  12   61.39    8.70
  -6 -12 -12   99.99    9.00
   6  12  12   87.89   10.10
  -7 -12 -12   42.40    6.60
   7  12  12   40.70    8.40
  -8 -12 -12    6.20    5.30
   8  12  12   19.40    7.00
  -1  13  12   20.00    6.00
   0  13  12   33.10    6.60
  -1 -13 -12   -0.70    1.90
   1  13  12   -1.40    4.10
  -2 -13 -12   41.70    4.50
   2  13  12   44.30    7.40
  -3 -13 -12    6.30    3.50
   3  13  12    4.80    4.50
  -4 -13 -12    6.00    3.60
   4  13  12    0.90    4.90
  -5 -13 -12    8.50    4.00
   5  13  12    4.00    5.40
  -6 -13 -12   14.80    5.00
   6  13  12   14.70    6.40
  -7 -13 -12    5.00    4.70
   7  13  12   15.80    6.90
  -1 -14 -12    7.40    3.10
   1  14  12    4.70    5.00
  -2 -14 -12   15.50    3.90
   2  14  12   17.20    6.20
  -3 -14 -12   -0.20    3.50
   3  14  12    7.20    5.20
  -4 -14 -12    2.90    3.90
   4  14  12    6.90    5.60
  -5 -14 -12   23.40    5.60
   5  14  12   26.70    7.70
   1   9 -13    9.80    5.70
   1   9 -13   14.10    6.10
   0   9 -13  110.99   12.30
   0   9 -13  107.19   11.40
  -1   9 -13   12.10    5.40
  -1   9 -13   16.00    6.40
  -2   9 -13   29.00    7.30
  -2   9 -13   40.50    7.40
   3   8 -13   23.50    7.60
   3   8 -13   22.70    6.80
   2   8 -13   20.70    6.00
   2   8 -13   18.70    6.20
   1   8 -13    7.90    5.00
   1   8 -13   22.60    6.20
   0   8 -13   18.60    5.80
   0   8 -13   27.00    6.70
  -1   8 -13   51.49    8.60
  -1   8 -13   58.59    8.00
  -2   8 -13   28.60    7.50
  -2   8 -13   27.20    6.10
  -3   8 -13   24.10    7.30
  -3   8 -13   26.40    6.30
  -4   8 -13   13.40    6.50
  -4   8 -13   19.00    5.90
   4   7 -13    5.60    6.00
   4   7 -13   -1.30    5.50
   3   7 -13   10.10    5.80
   3   7 -13   12.00    6.10
   2   7 -13   68.79    9.30
   2   7 -13   74.69   10.00
   1   7 -13   32.10    6.80
   1   7 -13   47.70    7.80
   0   7 -13    3.70    4.80
   0   7 -13    3.80    4.40
  -1   7 -13   27.60    6.40
  -1   7 -13   36.30    6.40
  -2   7 -13    2.20    3.70
  -2   7 -13    2.00    4.40
  -3   7 -13    7.10    4.50
  -3   7 -13   13.60    5.80
  -4   7 -13    9.70    5.50
  -4   7 -13    6.60    4.60
  -5   7 -13    7.70    6.10
  -5   7 -13    2.00    4.40
   5   6 -13   35.50    8.20
   5   6 -13   24.10    7.60
   4   6 -13    5.30    5.70
   4   6 -13    9.30    5.60
   4   6 -13   10.30    6.20
   3   6 -13    8.90    5.40
   3   6 -13    8.50    5.40
   2   6 -13   20.30    6.00
   2   6 -13   16.10    5.60
   1   6 -13   23.70    6.10
   1   6 -13   10.10    4.60
   0   6 -13    8.20    4.40
   0   6 -13    7.90    4.60
  -1   6 -13   42.20    7.10
  -1   6 -13   61.29    8.60
  -2   6 -13   18.50    5.60
  -2   6 -13   20.70    5.40
  -3   6 -13   55.49    7.50
  -3   6 -13   59.29    8.60
  -4   6 -13   79.69    8.80
  -4   6 -13   67.29    9.70
  -5   6 -13   11.90    5.10
  -5   6 -13   18.50    6.40
  -6   6 -13   15.70    6.00
  -6   6 -13   25.50    6.70
   5   5 -13   62.79    9.70
   5   5 -13   42.40    8.60
   4   5 -13   14.80    5.70
   4   5 -13   28.90    7.10
   4   5 -13   16.00    5.90
   3   5 -13   16.10    5.30
   3   5 -13   21.80    6.40
   3   5 -13   11.70    5.30
   2   5 -13   40.90    7.00
   2   5 -13   42.00    7.30
   1   5 -13   55.79    7.80
   0   5 -13    6.70    3.90
   0   5 -13    6.20    4.30
  -1   5 -13  131.49   10.60
  -1   5 -13  123.59   10.00
  -2   5 -13   41.30    7.40
  -2   5 -13   40.00    6.70
  -3   5 -13   43.20    6.80
  -3   5 -13   36.10    6.60
  -4   5 -13   64.79    8.70
  -4   5 -13   66.69    8.20
  -5   5 -13    4.50    4.40
  -5   5 -13    4.70    4.40
  -6   5 -13   -2.40    4.10
  -6   5 -13    1.40    5.20
  -7   5 -13   21.80    6.40
  -7   5 -13   32.80    7.60
   5   4 -13   11.70    6.20
   5   4 -13   17.00    6.20
   4   4 -13   44.20    7.50
   4   4 -13   46.00    7.90
   4   4 -13   34.30    7.30
   3   4 -13   33.40    6.10
   3   4 -13   17.90    5.50
   3   4 -13   30.60    6.80
   2   4 -13   14.30    5.00
   2   4 -13    3.40    3.90
   2   4 -13    8.60    4.80
   1   4 -13  150.58   11.20
   1   4 -13  162.38   11.00
   0   4 -13    5.00    4.00
  -1   4 -13   27.20    6.00
  -1   4 -13   30.00    5.50
  -2   4 -13   29.20    6.20
  -2   4 -13   23.10    5.30
  -3   4 -13   69.49    8.40
  -3   4 -13   74.59    8.80
  -4   4 -13   24.50    5.30
  -4   4 -13   21.50    5.50
  -5   4 -13   35.10    6.70
  -5   4 -13   30.30    5.90
  -6   4 -13    7.70    4.50
  -6   4 -13    9.40    5.10
  -7   4 -13   45.50    7.90
  -7   4 -13   29.70    6.50
  -8   4 -13  138.19   13.60
  -8   4 -13  138.29   13.70
   6   3 -13   11.40    6.30
   6   3 -13   21.60    6.50
   5   3 -13   -0.70    5.00
   5   3 -13   10.10    5.30
   4   3 -13   66.99    8.70
   4   3 -13   73.69    9.30
   4   3 -13   55.99    8.60
   3   3 -13   15.30    5.20
   3   3 -13   23.90    5.30
   3   3 -13   28.90    6.30
   2   3 -13   32.20    5.80
   2   3 -13   32.10    6.00
   2   3 -13   39.60    6.90
   1   3 -13   25.40    5.40
   1   3 -13   26.90    5.50
   0   3 -13   41.20    6.10
  -1   3 -13  200.38   12.20
  -1   3 -13  220.08   13.30
  -2   3 -13   74.09    8.30
  -2   3 -13   75.29    8.90
  -3   3 -13    6.40    3.80
  -3   3 -13    2.00    3.90
  -4   3 -13   34.50    6.30
  -4   3 -13   28.50    6.30
  -5   3 -13   12.80    4.60
  -5   3 -13   28.50    6.30
  -6   3 -13   50.99    8.10
  -6   3 -13   51.49    7.60
  -7   3 -13   14.00    5.60
  -7   3 -13    4.60    5.00
  -8   3 -13    5.70    5.10
  -8   3 -13    7.00    5.30
  -8   3 -13   13.80    2.60
  -8   3 -13   20.10    3.30
   8  -3  13   18.80    6.40
   6   2 -13    5.30    6.40
   6   2 -13    7.60    5.20
   5   2 -13   64.99    8.50
   5   2 -13   81.39   10.00
   4   2 -13   17.00    5.60
   4   2 -13   25.40    6.40
   4   2 -13   29.70    6.00
   3   2 -13   20.30    5.20
   3   2 -13   25.40    5.60
   3   2 -13    7.60    4.50
   2   2 -13   18.90    5.30
   2   2 -13   19.70    5.10
   2   2 -13   10.90    4.40
   1   2 -13   52.39    7.50
   1   2 -13   54.89    6.90
   1   2 -13   63.29    7.70
  -1  -2  13   63.19    5.80
   0   2 -13   33.50    5.70
   0  -2  13   51.19    5.50
  -1   2 -13   67.99    7.70
   1  -2  13   61.39    6.60
  -2   2 -13  104.39    8.60
  -2   2 -13  108.39    9.00
  -3   2 -13    5.30    3.80
  -3   2 -13    0.90    3.10
  -4   2 -13   55.49    7.70
  -4   2 -13   49.10    6.60
  -5   2 -13   39.40    6.50
  -5   2 -13   37.50    6.70
  -6   2 -13   36.20    6.40
  -6   2 -13   19.80    5.60
   6  -2  13   32.60    6.00
  -7   2 -13  101.69   10.60
  -7   2 -13   91.49   10.40
   7  -2  13   97.89   10.20
  -8   2 -13   20.00    3.50
  -8   2 -13   20.00    3.50
  -8   2 -13   12.20    5.30
  -8   2 -13   15.40    5.60
   8  -2  13   19.60    6.70
  -9   2 -13    8.70    6.50
  -9   2 -13   18.40    4.60
  -9   2 -13   12.60    5.80
   9  -2  13    0.50    5.60
   6   1 -13   14.80    6.70
   6   1 -13   34.20    6.70
   5   1 -13   10.60    5.90
   5   1 -13   14.10    4.90
   4   1 -13    8.70    4.90
   4   1 -13   -0.40    3.70
   4   1 -13    6.70    4.00
   3   1 -13   45.50    6.40
   3   1 -13   39.50    6.60
   3   1 -13   49.50    7.50
   2   1 -13    6.50    3.70
   2   1 -13   13.30    4.70
   2   1 -13   23.00    5.40
   1   1 -13    9.10    3.70
   1   1 -13   11.00    4.20
   1   1 -13   11.20    4.10
  -1  -1  13    8.60    2.70
   0   1 -13  106.69    8.90
   0  -1  13  114.99    7.40
  -1   1 -13   57.69    7.10
   1  -1  13   56.19    6.10
  -2   1 -13   22.10    4.90
   2  -1  13   38.10    5.20
  -3   1 -13  117.09    9.30
   3  -1  13  129.49    8.80
  -4   1 -13   81.89    8.90
  -4   1 -13   87.49    9.20
   4  -1  13   78.79    8.00
  -5   1 -13    4.60    4.00
  -5   1 -13    7.20    4.20
   5  -1  13    9.90    3.90
  -6   1 -13  111.49   10.80
  -6   1 -13  115.09   11.20
   6  -1  13  130.49   10.10
  -7   1 -13   73.49    9.00
  -7   1 -13   83.09    9.80
   7  -1  13   88.39    9.80
  -8   1 -13   36.20    7.10
  -8   1 -13   42.30    4.60
  -8   1 -13   38.90    7.60
   8  -1  13   38.90    7.70
  -9   1 -13    7.20    5.30
  -9   1 -13   17.40    6.50
  -9   1 -13   11.50    4.20
   9  -1  13    1.80    5.30
   6   0 -13   18.40    6.80
   6   0 -13   45.50    7.50
   5   0 -13   53.99    7.50
   5   0 -13   42.40    7.80
   4   0 -13    6.80    4.90
   4   0 -13   11.20    4.20
   3   0 -13   16.10    5.10
   3   0 -13   13.00    4.90
   3   0 -13   11.10    4.10
   2   0 -13   22.40    5.10
   2   0 -13   18.40    4.30
   2   0 -13   21.90    5.20
   1   0 -13   11.30    3.60
   1   0 -13    7.40    3.80
   1   0 -13    6.10    3.90
  -1   0  13    2.90    2.10
   0   0 -13   17.00    4.10
   0   0 -13   13.30    4.00
   0   0  13   14.50    3.30
  -1   0 -13    6.10    3.50
   1   0  13    4.50    2.80
  -2   0 -13  108.49   10.00
   2   0  13  113.29    7.80
  -3   0 -13   26.10    5.00
   3   0  13   32.70    5.30
  -4   0 -13   64.49    7.80
   4   0  13   72.59    7.70
  -5   0 -13    9.10    3.90
   5   0  13    5.20    3.60
  -6   0 -13  184.88   12.10
  -6   0 -13  177.98   11.90
   6   0  13  156.38   11.30
  -7   0 -13  144.59   10.80
  -7   0 -13  131.69   10.80
   7   0  13  125.29   10.50
  -8   0 -13   58.39    5.40
  -8   0 -13   50.29    7.60
  -8   0 -13   49.00    7.70
   8   0  13   50.69    7.90
  -9   0 -13   37.20    5.50
  -9   0 -13   26.60    7.00
  -9   0 -13   22.40    5.90
   9   0  13   26.30    7.00
   9   0  13   40.00    7.00
   6  -1 -13   67.29    8.20
   6  -1 -13   76.99   10.60
   5  -1 -13   13.30    4.50
   5  -1 -13    4.60    5.20
   4  -1 -13   76.89    9.20
   4  -1 -13   58.09    7.10
   3  -1 -13   61.49    6.90
   3  -1 -13   63.99    8.20
   3  -1 -13   66.09    8.40
   2  -1 -13   34.30    6.00
   2  -1 -13   26.50    4.60
   2  -1 -13   34.70    5.90
   1  -1 -13  170.28   11.20
   1  -1 -13  179.58    9.70
   1  -1 -13  168.28   10.20
  -1   1  13  173.98    8.50
   0  -1 -13   36.50    5.40
   0  -1 -13   33.40    5.70
   0   1  13   37.60    4.60
  -1  -1 -13   55.29    6.90
   1   1  13   45.80    5.50
  -2  -1 -13    4.60    3.40
   2   1  13    2.40    2.70
  -3  -1 -13   45.60    6.40
   3   1  13   40.90    5.60
  -4  -1 -13   45.70    6.60
   4   1  13   20.30    4.80
  -5  -1 -13   42.50    6.20
   5   1  13   63.49    7.50
  -6  -1 -13   76.89    8.80
   6   1  13   70.79    8.10
  -7  -1 -13    1.90    4.00
  -7  -1 -13    1.40    1.40
  -7  -1 -13    2.10    1.60
   7   1  13    6.40    4.60
  -8  -1 -13    8.20    2.90
  -8  -1 -13    4.10    4.80
   8   1  13    6.50    4.60
  -9  -1 -13   45.90    8.10
  -9  -1 -13   30.00    5.20
   9   1  13   45.60    7.20
   9   1  13   38.50    7.60
 -10  -1 -13   14.40    5.50
 -10  -1 -13   28.60    8.20
  10   1  13   26.10    6.80
  10   1  13   13.10    6.80
   6  -2 -13   41.40    8.10
   6  -2 -13   41.70    7.00
   5  -2 -13    9.40    5.40
   5  -2 -13   15.60    4.30
   4  -2 -13   32.90    6.70
   4  -2 -13   53.49    6.20
   3  -2 -13   13.20    4.70
   3  -2 -13   10.10    4.70
   3  -2 -13   15.60    4.00
   2  -2 -13   57.69    7.00
   2  -2 -13   45.90    5.50
   2  -2 -13   57.49    7.30
   1  -2 -13  100.79    7.80
   1  -2 -13  108.69    7.10
   1  -2 -13  104.89    9.70
  -1   2  13  103.89    6.40
   0  -2 -13   33.40    5.70
   0  -2 -13   31.30    4.90
   0   2  13   24.80    3.90
  -1  -2 -13   10.10    3.30
  -1  -2 -13   10.50    3.90
   1   2  13    8.70    3.20
  -2  -2 -13  136.29    9.50
   2   2  13  142.89    8.60
  -3  -2 -13    9.20    4.00
   3   2  13   14.90    4.10
  -4  -2 -13   56.49    7.10
   4   2  13   34.50    5.60
  -5  -2 -13  156.08   10.70
   5   2  13  157.78   10.50
  -6  -2 -13   43.60    6.40
   6   2  13   34.20    6.30
  -7  -2 -13   49.80    4.00
  -7  -2 -13   63.59    8.30
  -7  -2 -13   48.60    3.80
   7   2  13   51.59    7.40
  -8  -2 -13   33.90    4.50
  -8  -2 -13   26.70    5.90
   8   2  13   32.00    6.50
   8   2  13   29.20    5.50
  -9  -2 -13   42.60    5.80
  -9  -2 -13   37.20    7.80
   9   2  13   40.70    7.60
   9   2  13   37.00    6.50
 -10  -2 -13    1.00    5.90
 -10  -2 -13    2.30    4.40
  10   2  13    3.40    4.80
  10   2  13    9.10    5.90
   6  -3 -13   13.00    6.30
   5  -3 -13    6.80    5.50
   4  -3 -13   30.00    6.20
   3  -3 -13   69.99    6.60
   3  -3 -13   61.09    7.80
   3  -3 -13   60.49    7.40
   2  -3 -13   67.69    5.60
   2  -3 -13   63.99    7.50
   2  -3 -13   70.49    7.60
   1  -3 -13   37.80    5.80
   1  -3 -13   54.79    6.50
  -1   3  13   50.69    4.90
   0  -3 -13  117.49    7.60
   0  -3 -13  114.19    8.80
   0   3  13  108.39    7.10
  -1  -3 -13   39.20    4.80
  -1  -3 -13   28.60    5.10
   1   3  13   25.70    4.30
  -2  -3 -13   12.00    4.00
   2   3  13   13.50    3.60
  -3  -3 -13   93.09    8.70
   3   3  13   99.39    7.60
  -4  -3 -13  107.59    9.50
   4   3  13   81.59    8.10
  -5  -3 -13  117.89    9.40
   5   3  13  149.69    9.90
  -6  -3 -13    3.60    3.80
   6   3  13    5.80    3.80
  -7  -3 -13   21.30    2.80
  -7  -3 -13   21.40    3.00
  -7  -3 -13   26.50    6.30
   7   3  13    7.70    4.70
  -8  -3 -13  111.99   11.00
  -8  -3 -13   91.59    7.00
   8   3  13  109.19   10.70
   8   3  13   95.99    9.00
  -9  -3 -13   52.99    8.40
  -9  -3 -13   42.90    5.80
   9   3  13   38.20    7.70
   9   3  13   42.30    6.80
 -10  -3 -13   27.30    7.70
 -10  -3 -13   20.40    5.50
  10   3  13   20.70    6.10
  10   3  13   18.60    6.80
   6  -4 -13    1.90    6.00
   5  -4 -13    2.90    4.60
   4  -4 -13   48.80    7.50
   3  -4 -13   49.99    7.10
   2  -4 -13    2.50    3.20
   2  -4 -13   -2.30    3.10
   1  -4 -13   19.00    4.30
   1  -4 -13   17.70    4.50
  -1   4  13   24.80    3.70
   0  -4 -13   13.70    4.20
   0  -4 -13   10.30    3.30
   0   4  13   17.00    3.60
  -1  -4 -13   31.60    5.30
  -1  -4 -13   37.80    4.40
   1   4  13   33.70    4.80
  -2  -4 -13   28.80    5.20
   2   4  13   26.60    4.60
  -3  -4 -13   47.50    6.40
   3   4  13   35.30    5.30
  -4  -4 -13   14.00    4.10
   4   4  13   20.90    4.90
  -5  -4 -13   27.60    5.30
   5   4  13   17.40    4.90
  -6  -4 -13    3.10    3.80
   6   4  13    3.90    3.70
  -7  -4 -13   79.89    9.10
  -7  -4 -13   72.59    4.90
  -7  -4 -13   65.39    5.00
   7   4  13   60.49    8.00
   7   4  13   86.09    7.70
  -8  -4 -13  129.29    8.00
  -8  -4 -13  125.49   11.30
   8   4  13  130.29   11.90
   8   4  13  110.29    8.80
  -9  -4 -13   42.50    8.00
  -9  -4 -13   46.40    6.40
   9   4  13   50.19    7.10
   9   4  13   36.30    7.30
 -10  -4 -13   22.90    5.80
 -10  -4 -13   19.00    6.70
  10   4  13   17.80    6.50
  10   4  13   24.50    6.10
   5  -5 -13   16.50    6.20
   4  -5 -13    0.70    4.20
   3  -5 -13   23.00    5.40
   2  -5 -13   12.80    4.30
   2  -5 -13   12.70    4.30
   1  -5 -13   19.20    4.30
   1  -5 -13   22.40    4.60
  -1   5  13   21.20    3.70
   0  -5 -13   81.49    8.00
   0  -5 -13   82.69    6.20
   0   5  13   75.89    6.20
  -1  -5 -13   25.40    3.70
  -1  -5 -13   26.30    4.60
   1   5  13   25.30    4.40
  -2  -5 -13    4.70    3.00
   2   5  13    7.60    3.20
  -3  -5 -13   21.40    4.30
   3   5  13   19.10    4.40
  -4  -5 -13   10.80    3.90
   4   5  13   18.00    4.60
  -5  -5 -13   51.39    6.70
   5   5  13   40.80    4.60
   5   5  13   37.90    6.20
  -6  -5 -13    8.90    1.80
  -6  -5 -13    8.60    1.70
  -6  -5 -13   12.80    4.50
   6   5  13    6.60    4.00
   6   5  13   13.40    3.40
  -7  -5 -13   44.10    4.60
  -7  -5 -13   49.90    7.10
  -7  -5 -13   43.30    4.40
   7   5  13   30.20    6.10
   7   5  13   43.00    5.40
  -8  -5 -13   -0.30    3.80
  -8  -5 -13    3.20    2.70
   8   5  13    5.20    3.40
   8   5  13    2.40    4.10
  -9  -5 -13    6.90    3.90
  -9  -5 -13   -7.80    4.10
   9   5  13   -1.90    4.20
   9   5  13    0.30    3.00
 -10  -5 -13    7.80    4.90
 -10  -5 -13   -1.30    5.30
  10   5  13    4.60    4.40
  10   5  13    6.50    5.60
   5  -6 -13   65.49    9.20
   4  -6 -13    1.00    4.10
   3  -6 -13    6.50    4.30
   2  -6 -13   19.90    4.90
   2  -6 -13   19.30    4.80
   1  -6 -13   14.10    4.10
   1  -6 -13   14.30    4.20
  -1   6  13   16.10    3.60
   0  -6 -13   98.59    8.10
   0  -6 -13   92.49    6.50
   0   6  13   94.99    6.90
  -1  -6 -13   35.80    5.50
   1   6  13   40.40    5.50
  -2  -6 -13    6.50    3.30
   2   6  13   13.80    3.70
  -3  -6 -13    9.60    3.70
   3   6  13    7.80    3.60
  -4  -6 -13  147.99    9.70
   4   6  13  166.98   10.50
  -5  -6 -13   62.29    7.20
   5   6  13   53.59    7.40
  -6  -6 -13   18.60    4.80
  -6  -6 -13   20.20    2.70
  -6  -6 -13   13.60    2.40
   6   6  13   18.70    4.90
  -7  -6 -13    0.60    3.70
  -7  -6 -13   -0.90    2.20
   7   6  13    2.80    4.20
   7   6  13    1.70    2.70
  -8  -6 -13    9.30    3.60
  -8  -6 -13   11.10    5.00
   8   6  13   11.40    3.80
   8   6  13    5.30    4.70
  -9  -6 -13   48.60    6.50
  -9  -6 -13   73.69    8.90
   9   6  13   57.69    8.70
   9   6  13   72.19    7.90
 -10  -6 -13   25.70    7.00
 -10  -6 -13   15.90    5.50
  10   6  13   12.20    6.20
  10   6  13    3.30    4.30
   5  -7 -13    7.50    5.60
   4  -7 -13    0.00    4.50
   3  -7 -13   52.29    7.20
   2  -7 -13   -2.50    3.20
   1  -7 -13  115.29    8.80
   1  -7 -13  125.49    8.20
  -1   7  13  132.29    8.20
   0  -7 -13    7.50    3.50
   0   7  13    9.00    3.50
  -1  -7 -13   31.40    5.20
   1   7  13   46.40    5.70
  -2  -7 -13   80.69    7.30
   2   7  13   54.29    6.60
  -3  -7 -13   53.09    6.30
   3   7  13   49.40    6.40
  -4  -7 -13   32.40    5.20
   4   7  13   30.60    5.50
  -5  -7 -13   27.40    5.00
   5   7  13   23.20    5.50
  -6  -7 -13    0.50    3.20
  -6  -7 -13    0.10    1.90
  -6  -7 -13    1.50    1.80
   6   7  13    1.60    3.70
  -7  -7 -13    2.80    4.00
  -7  -7 -13    3.70    2.60
   7   7  13   -0.80    4.00
  -8  -7 -13   60.49    8.20
  -8  -7 -13   56.19    6.20
   8   7  13   36.40    7.30
  -9  -7 -13   35.80    6.30
  -9  -7 -13   37.80    7.10
   9   7  13   34.60    7.10
 -10  -7 -13   11.90    5.90
 -10  -7 -13    4.50    4.80
  10   7  13    7.80    6.00
   4  -8 -13   19.20    5.90
   3  -8 -13   -0.40    3.90
   2  -8 -13   28.10    5.30
   1  -8 -13   -0.30    2.90
  -1   8  13    6.10    3.20
   0  -8 -13   25.40    4.80
   0   8  13   30.90    5.30
  -1  -8 -13   94.99    7.60
   1   8  13  105.99    8.00
  -2  -8 -13    5.50    3.00
   2   8  13    9.00    3.80
  -3  -8 -13   25.10    4.70
   3   8  13   18.30    4.70
  -4  -8 -13    5.50    3.40
   4   8  13   11.80    4.10
  -5  -8 -13   48.60    3.50
  -5  -8 -13   44.50    6.00
  -5  -8 -13   49.70    3.50
   5   8  13   39.90    6.40
  -6  -8 -13   20.20    3.90
  -6  -8 -13   25.80    5.00
  -6  -8 -13   20.00    3.20
   6   8  13   19.10    5.40
  -7  -8 -13  324.67   16.20
  -7  -8 -13  334.37   14.70
   7   8  13  321.47   17.40
  -8  -8 -13   48.10    7.20
  -8  -8 -13   56.99    6.60
   8   8  13   43.40    7.80
  -9  -8 -13   12.30    5.30
  -9  -8 -13    6.10    4.30
   9   8  13    5.00    5.60
   4  -9 -13   41.50    7.40
   3  -9 -13    4.50    4.30
   2  -9 -13   42.30    9.70
  -1   9  13   37.80    5.70
   0  -9 -13   81.09    7.50
   0   9  13   91.09    8.40
  -1  -9 -13   10.70    3.60
   1   9  13   15.00    4.40
  -2  -9 -13   30.40    4.70
   2   9  13   17.40    4.70
  -3  -9 -13   40.60    5.20
   3   9  13   36.50    6.20
  -4  -9 -13   69.99    7.00
   4   9  13   74.59    8.70
  -5  -9 -13   71.29    7.00
  -5  -9 -13   66.39    4.70
  -5  -9 -13   60.19    4.60
   5   9  13   63.59    8.20
  -6  -9 -13   54.09    6.60
  -6  -9 -13   42.20    4.70
   6   9  13   54.99    7.90
  -7  -9 -13   12.00    4.20
  -7  -9 -13   11.10    3.70
   7   9  13   12.90    4.90
  -8  -9 -13    9.30    4.20
  -8  -9 -13    2.40    3.70
   8   9  13   -3.30    4.70
  -9  -9 -13    8.20    4.80
  -9  -9 -13    9.70    5.20
   9   9  13    4.00    5.50
  -1  10  13   32.60    5.60
   0  10  13   21.30    5.00
   1  10  13   81.99    8.60
   2  10  13   23.60    5.30
  -3 -10 -13  158.58   12.60
   3  10  13  154.48   10.90
  -4 -10 -13   69.69    8.30
  -4 -10 -13   61.39    4.00
  -4 -10 -13   69.29    4.00
   4  10  13   61.89    7.70
  -5 -10 -13   18.70    4.50
  -5 -10 -13   21.80    3.40
   5  10  13   24.00    5.90
  -6 -10 -13   20.10    4.80
  -6 -10 -13   26.30    4.40
   6  10  13   34.20    6.90
  -7 -10 -13  126.19    9.30
  -7 -10 -13  109.09    9.80
   7  10  13  115.09   11.90
  -8 -10 -13   83.09    9.50
  -8 -10 -13   89.59    8.90
   8  10  13   66.19    9.60
  -9 -10 -13   18.10    8.80
   9  10  13    5.60    6.40
  -1  11  13    6.40    4.20
   0  11  13    8.30    4.20
   1  11  13   11.50    4.60
   2  11  13   57.39    7.60
   3  11  13  110.19   10.50
  -4 -11 -13   24.80    3.30
  -4 -11 -13   21.90    3.10
   4  11  13   18.10    5.40
  -5 -11 -13   19.30    3.60
   5  11  13    7.90    5.20
  -6 -11 -13   33.60    5.00
   6  11  13   24.10    6.40
  -7 -11 -13  184.98   11.10
   7  11  13  142.49   13.40
  -8 -11 -13   51.29    7.80
   8  11  13   57.09    9.50
  -1  12  13    5.50    5.30
   0  12  13    7.60    4.60
   1  12  13    7.00    4.30
   2  12  13   34.10    6.60
  -3 -12 -13   44.80    3.60
   3  12  13   35.00    6.80
  -4 -12 -13   14.50    3.40
   4  12  13    2.80    4.90
  -5 -12 -13   12.10    3.60
   5  12  13    9.30    5.80
  -6 -12 -13   35.00    5.70
   6  12  13   47.30    8.50
  -7 -12 -13   12.60    4.70
   7  12  13    7.70    6.30
   0  13  13    2.60    5.00
   1  13  13   14.40    5.50
   2  13  13   73.79    9.50
  -3 -13 -13   13.70    4.40
  -3 -13 -13   18.40    3.30
   3  13  13   20.40    6.70
  -4 -13 -13    7.30    3.50
   4  13  13    1.60    5.10
  -5 -13 -13    3.30    3.50
   5  13  13    6.30    5.80
  -6 -13 -13    5.40    4.60
   6  13  13   15.90    6.80
   0   8 -14   55.59    9.00
   0   8 -14   64.69    9.70
  -1   8 -14   15.30    6.20
  -1   8 -14   20.60    6.10
  -2   8 -14   -0.80    5.30
  -2   8 -14    9.20    5.40
   2   7 -14   -9.50    4.90
   1   7 -14   11.60    5.90
   1   7 -14    7.70    5.00
   0   7 -14   46.60    8.00
   0   7 -14   31.10    7.50
  -1   7 -14    4.00    5.30
  -1   7 -14    2.30    4.30
  -2   7 -14    7.20    5.60
  -2   7 -14   13.80    5.50
  -3   7 -14   23.10    6.30
  -3   7 -14   19.40    6.30
  -4   7 -14   32.00    7.70
  -4   7 -14   25.70    6.70
   3   6 -14   27.60    7.40
   3   6 -14   10.60    6.40
   2   6 -14   34.00    7.90
   2   6 -14   13.30    6.30
   1   6 -14   11.30    5.90
   0   6 -14   38.70    7.50
   0   6 -14   26.20    6.60
  -1   6 -14   36.90    7.00
  -1   6 -14   38.00    7.00
  -2   6 -14   13.90    5.90
  -2   6 -14   14.70    5.20
  -3   6 -14   29.10    7.20
  -3   6 -14   11.20    5.30
  -4   6 -14   16.90    6.30
  -4   6 -14   14.90    5.10
  -5   6 -14   27.80    8.00
  -5   6 -14   32.20    7.20
   4   5 -14   16.80    6.80
   4   5 -14    8.70    6.40
   4   5 -14   19.10    6.90
   3   5 -14   14.30    6.60
   3   5 -14   12.90    5.80
   2   5 -14   35.00    7.30
   2   5 -14   32.40    7.10
   1   5 -14   55.89    8.10
   0   5 -14   14.00    5.20
  -1   5 -14    6.40    4.20
  -1   5 -14    4.70    4.30
  -2   5 -14    7.50    4.60
  -2   5 -14   15.00    5.50
  -3   5 -14    8.20    5.10
  -3   5 -14   -0.40    3.70
  -4   5 -14    9.70    5.20
  -4   5 -14   19.70    6.20
  -5   5 -14   -6.80    4.00
  -5   5 -14    9.30    5.50
  -6   5 -14   17.70    6.50
  -6   5 -14   16.50    6.10
   4   4 -14   70.99    9.50
   4   4 -14   68.89   10.20
   4   4 -14   88.59   11.10
   3   4 -14    5.70    4.80
   3   4 -14   -1.00    4.50
   3   4 -14   -0.10    4.60
   2   4 -14    5.10    4.40
   2   4 -14    3.30    4.30
   1   4 -14    6.00    4.30
   0   4 -14    1.90    3.30
  -1   4 -14   35.70    7.20
  -1   4 -14   39.00    6.90
  -2   4 -14   13.00    4.40
  -2   4 -14    4.80    4.40
  -3   4 -14   12.50    5.10
  -3   4 -14   24.70    5.60
  -4   4 -14    6.70    5.10
  -4   4 -14    1.30    4.00
  -5   4 -14   21.70    6.50
  -5   4 -14   20.70    5.90
  -6   4 -14    6.60    5.40
  -6   4 -14   12.70    6.00
  -7   4 -14   25.20    7.00
  -7   4 -14   33.80    7.00
   5   3 -14   66.49    9.40
   5   3 -14   61.49    9.60
   4   3 -14   23.50    6.50
   4   3 -14   27.60    6.60
   4   3 -14   41.80    8.30
   3   3 -14   26.40    6.10
   3   3 -14   35.10    7.00
   3   3 -14   39.30    7.40
   2   3 -14   73.39    8.80
   2   3 -14   68.19    8.90
   2   3 -14   68.29    8.50
   1   3 -14    4.70    4.20
   0   3 -14   47.00    7.30
   0  -3  14   48.30    5.80
  -1   3 -14   42.50    7.10
  -2   3 -14   12.10    4.40
  -2   3 -14   10.60    4.50
  -3   3 -14   38.40    6.90
  -3   3 -14   41.30    6.80
  -4   3 -14   18.70    5.80
  -4   3 -14   27.30    5.90
  -5   3 -14   21.70    6.20
  -5   3 -14   31.10    6.70
  -6   3 -14   43.60    7.90
  -6   3 -14   52.19    8.70
  -7   3 -14    5.80    5.50
  -7   3 -14    3.60    5.10
   7  -3  14    7.60    5.40
   5   2 -14   58.89    8.60
   5   2 -14   53.79    9.30
   4   2 -14   19.70    6.20
   4   2 -14   34.20    7.00
   4   2 -14   17.40    6.50
   3   2 -14   52.09    7.40
   3   2 -14   57.49    8.50
   3   2 -14   49.60    7.90
   2   2 -14   38.90    6.90
   2   2 -14   51.89    7.90
   2   2 -14   67.89    7.90
   1   2 -14   11.20    4.70
   1   2 -14    8.30    4.10
   0   2 -14   71.49    8.40
   0  -2  14   68.69    6.70
  -1   2 -14   -3.60    3.20
   1  -2  14   10.10    3.40
  -2   2 -14    9.70    4.20
   2  -2  14   11.60    3.70
  -3   2 -14   -0.20    3.50
  -3   2 -14    2.20    3.40
   3  -2  14   -0.10    3.10
  -4   2 -14    0.50    3.60
  -4   2 -14    1.10    3.60
   4  -2  14    6.50    3.60
  -5   2 -14   24.20    5.80
  -5   2 -14   24.90    6.10
   5  -2  14   24.20    5.50
  -6   2 -14    6.30    4.30
  -6   2 -14    6.50    5.10
   6  -2  14   16.40    5.40
  -7   2 -14   27.70    6.40
  -7   2 -14   41.10    7.60
   7  -2  14   33.00    7.40
  -8   2 -14   19.30    6.40
  -8   2 -14   11.00    6.10
   8  -2  14   16.00    6.80
   5   1 -14   36.60    8.00
   5   1 -14   39.40    7.30
   4   1 -14   15.50    6.10
   4   1 -14   11.60    5.70
   4   1 -14   14.70    4.90
   3   1 -14   82.09    8.50
   3   1 -14   63.19    8.40
   3   1 -14   64.89    8.80
   2   1 -14   46.00    6.70
   2   1 -14   57.19    7.90
   2   1 -14   62.19    8.00
   1   1 -14   34.10    6.30
   1   1 -14   43.70    6.90
   0   1 -14   38.40    6.10
   0  -1  14   62.69    6.40
  -1   1 -14   14.60    5.00
   1  -1  14   15.90    3.90
  -2   1 -14   34.10    6.00
   2  -1  14   49.20    6.20
  -3   1 -14   75.59    8.80
   3  -1  14   70.09    7.60
  -4   1 -14    1.10    2.90
   4  -1  14   -0.30    3.10
  -5   1 -14   21.90    5.70
  -5   1 -14   18.10    5.30
   5  -1  14   24.80    5.40
  -6   1 -14   48.20    7.40
  -6   1 -14   55.29    7.80
   6  -1  14   43.70    7.00
  -7   1 -14   96.39   10.90
  -7   1 -14  103.99   11.20
   7  -1  14  113.99   11.60
  -8   1 -14   24.00    7.00
  -8   1 -14    6.50    5.30
   8  -1  14   -0.40    4.70
   5   0 -14   12.70    6.10
   5   0 -14   25.00    6.10
   4   0 -14   37.70    7.30
   4   0 -14   44.40    6.80
   3   0 -14   13.60    5.00
   3   0 -14   19.40    5.50
   3   0 -14    9.40    4.10
   2   0 -14   37.30    5.80
   2   0 -14   30.60    6.00
   2   0 -14   26.60    5.90
   1   0 -14   29.60    5.80
   1   0 -14   44.50    6.50
   0   0 -14  163.38   10.30
   0   0 -14  164.98   10.80
   0   0  14  139.69    8.60
  -1   0 -14   18.00    5.10
   1   0  14   13.50    3.60
  -2   0 -14   63.89    7.80
   2   0  14   70.79    7.20
  -3   0 -14   43.30    6.40
   3   0  14   33.30    5.50
  -4   0 -14   55.99    7.30
   4   0  14   60.39    7.70
  -5   0 -14   99.29    9.90
   5   0  14  123.89    9.60
  -6   0 -14    8.70    4.40
   6   0  14    4.10    4.00
  -7   0 -14   16.70    5.70
   7   0  14   14.80    5.40
  -8   0 -14   14.60    6.70
   8   0  14   13.90    6.10
  -9   0 -14   18.40    7.30
  -9   0 -14   15.80    3.80
   9   0  14   16.00    6.70
   5  -1 -14    8.90    5.90
   5  -1 -14   15.20    5.20
   4  -1 -14   49.40    7.80
   4  -1 -14   52.69    7.00
   3  -1 -14    2.00    3.10
   3  -1 -14   -1.30    4.20
   3  -1 -14   -0.90    4.20
   2  -1 -14   57.99    6.70
   2  -1 -14   55.89    7.50
   2  -1 -14   53.09    7.20
   1  -1 -14   49.60    6.80
   1  -1 -14   53.19    6.70
   0  -1 -14  286.87   14.30
   0  -1 -14  288.67   15.20
   0   1  14  299.47   13.20
  -1  -1 -14   30.00    5.80
   1   1  14   29.80    4.50
  -2  -1 -14   42.10    6.20
   2   1  14   45.60    5.90
  -3  -1 -14   43.60    6.80
   3   1  14   45.30    6.30
  -4  -1 -14   90.99    9.20
   4   1  14   85.89    8.70
  -5  -1 -14   46.00    6.70
   5   1  14   59.09    7.50
  -6  -1 -14   34.50    6.00
   6   1  14   35.90    6.70
  -7  -1 -14   23.00    6.10
   7   1  14   22.50    5.90
  -8  -1 -14   33.20    7.30
   8   1  14   39.10    7.50
  -9  -1 -14   90.49   11.30
  -9  -1 -14  102.49    7.50
   9   1  14  103.29   11.00
   9   1  14  102.39   11.80
   5  -2 -14   37.00    8.10
   4  -2 -14   29.80    6.30
   3  -2 -14   15.90    5.00
   3  -2 -14   11.50    4.00
   3  -2 -14    4.80    4.20
   2  -2 -14   56.19    6.20
   2  -2 -14   58.99    8.00
   2  -2 -14   57.09    7.50
   1  -2 -14  114.79   10.50
   1  -2 -14  110.19    8.50
   0  -2 -14   15.20    4.70
   0  -2 -14   12.90    4.00
   0   2  14   13.10    3.30
  -1  -2 -14    1.70    3.50
   1   2  14    2.20    2.60
  -2  -2 -14  110.29   10.10
   2   2  14  121.79    8.20
  -3  -2 -14   13.70    4.30
   3   2  14   22.40    4.50
  -4  -2 -14   36.60    6.20
   4   2  14   46.20    6.70
  -5  -2 -14   42.30    6.80
   5   2  14   37.80    6.20
  -6  -2 -14    4.80    4.30
   6   2  14    0.20    3.60
  -7  -2 -14   90.79   10.10
   7   2  14   92.49    9.70
  -8  -2 -14   31.50    3.10
  -8  -2 -14   35.60    3.50
  -8  -2 -14   34.30    8.00
   8   2  14   32.50    6.90
  -9  -2 -14   12.80    6.60
  -9  -2 -14   10.30    3.80
   9   2  14   13.90    5.00
   9   2  14    7.60    5.70
   5  -3 -14    4.20    5.30
   4  -3 -14   56.79    8.50
   3  -3 -14   15.50    5.60
   3  -3 -14   11.50    4.70
   2  -3 -14    5.50    4.10
   2  -3 -14    6.80    4.00
   1  -3 -14   58.79    6.80
   1  -3 -14   56.79    7.60
   0  -3 -14   28.20    4.80
   0  -3 -14   17.70    4.80
   0   3  14   26.40    4.10
  -1  -3 -14   55.79    5.90
  -1  -3 -14   38.80    6.30
   1   3  14   42.60    5.40
  -2  -3 -14   10.10    3.70
   2   3  14   12.00    3.60
  -3  -3 -14   60.19    7.20
   3   3  14   57.89    6.90
  -4  -3 -14   21.50    4.70
   4   3  14   23.70    5.10
  -5  -3 -14    9.00    4.00
   5   3  14    9.40    4.20
  -6  -3 -14  110.89   10.70
   6   3  14  119.09    9.70
  -7  -3 -14   10.30    4.50
   7   3  14    3.40    4.40
  -8  -3 -14   31.70    3.70
  -8  -3 -14   32.60    3.40
  -8  -3 -14   30.80    6.70
   8   3  14   31.10    5.70
   8   3  14   23.10    6.10
  -9  -3 -14   21.60    4.40
  -9  -3 -14   26.60    7.60
   9   3  14   19.10    5.20
   9   3  14   24.00    6.70
   5  -4 -14   17.20    6.40
   4  -4 -14   40.40    7.20
   3  -4 -14   37.60    6.60
   2  -4 -14   59.89    7.40
   2  -4 -14   58.99    7.90
   1  -4 -14   14.90    4.40
   1  -4 -14   21.80    5.30
   0  -4 -14   -1.60    3.20
   0  -4 -14    1.90    2.90
   0   4  14    5.00    2.70
  -1  -4 -14   13.10    3.30
  -1  -4 -14    6.60    3.30
   1   4  14    9.30    3.40
  -2  -4 -14    3.50    3.60
   2   4  14    5.40    3.30
  -3  -4 -14   51.09    6.80
   3   4  14   67.29    7.20
  -4  -4 -14   50.19    7.10
   4   4  14   46.80    6.60
  -5  -4 -14  120.19    9.80
   5   4  14  130.09    9.80
  -6  -4 -14   43.30    6.90
   6   4  14   28.70    6.30
  -7  -4 -14    4.50    4.60
   7   4  14    7.40    4.70
   7   4  14   12.20    3.70
  -8  -4 -14    6.80    2.70
  -8  -4 -14    5.30    3.20
  -8  -4 -14    5.90    4.90
   8   4  14    4.00    3.40
   8   4  14   -1.70    4.30
  -9  -4 -14   32.80    7.00
  -9  -4 -14   25.00    4.70
   9   4  14   28.10    7.20
   9   4  14   36.50    6.40
   5  -5 -14   22.90    6.70
   4  -5 -14    1.30    4.70
   3  -5 -14    9.10    4.50
   2  -5 -14  117.79    9.00
   2  -5 -14  114.09   10.70
   1  -5 -14   31.90    5.70
   1  -5 -14   41.00    5.90
   0  -5 -14    3.70    3.00
   0  -5 -14   -1.10    3.30
   0   5  14   -1.80    2.40
  -1  -5 -14    5.20    3.70
   1   5  14   14.30    3.90
  -2  -5 -14   64.69    7.30
   2   5  14   55.69    6.50
  -3  -5 -14   32.50    5.60
   3   5  14   25.20    5.20
  -4  -5 -14   32.20    5.80
   4   5  14   29.30    5.60
  -5  -5 -14   49.20    7.10
   5   5  14   50.19    7.20
  -6  -5 -14   17.80    5.00
   6   5  14   26.40    6.00
  -7  -5 -14    0.30    4.00
   7   5  14   -1.50    3.90
   7   5  14   -1.50    2.80
  -8  -5 -14  102.99   10.90
  -8  -5 -14   94.39    6.70
   8   5  14  115.09   11.50
   8   5  14   96.19    8.00
  -9  -5 -14   28.10    5.00
  -9  -5 -14   32.00    7.40
   9   5  14   20.40    5.30
   9   5  14   27.50    7.20
   4  -6 -14   11.90    5.30
   3  -6 -14   19.40    5.30
   2  -6 -14    4.30    4.10
   2  -6 -14    5.80    3.80
   1  -6 -14   18.90    4.40
   1  -6 -14   26.10    5.70
   0  -6 -14   38.70    6.00
   0   6  14   34.40    5.00
  -1  -6 -14   57.39    7.00
   1   6  14   49.99    6.00
  -2  -6 -14   55.99    6.70
   2   6  14   63.49    6.80
  -3  -6 -14    0.50    3.10
   3   6  14   -0.60    2.80
  -4  -6 -14   52.29    6.90
   4   6  14   39.30    6.30
  -5  -6 -14   35.90    5.90
   5   6  14   26.70    5.70
  -6  -6 -14   10.80    4.60
   6   6  14   15.80    5.20
  -7  -6 -14    5.70    2.00
  -7  -6 -14   -1.00    3.70
  -7  -6 -14    0.90    1.90
   7   6  14    3.00    4.30
  -8  -6 -14   59.99    5.80
  -8  -6 -14   53.19    8.20
   8   6  14   68.09    9.20
  -9  -6 -14    7.60    5.90
  -9  -6 -14    9.80    4.20
   9   6  14    8.60    5.70
   4  -7 -14   19.20    6.30
   3  -7 -14   18.10    5.40
   2  -7 -14    8.30    4.40
   1  -7 -14   50.29    7.00
   0  -7 -14    9.00    3.90
   0   7  14   12.40    3.80
  -1  -7 -14    6.30    3.60
   1   7  14    6.20    3.40
  -2  -7 -14    1.30    3.10
   2   7  14    8.20    3.60
  -3  -7 -14   -2.00    2.90
   3   7  14   -3.10    2.80
  -4  -7 -14   64.39    7.20
   4   7  14   42.80    6.40
  -5  -7 -14   20.10    4.70
   5   7  14   20.10    5.30
  -6  -7 -14    6.00    4.20
   6   7  14   14.20    5.10
  -7  -7 -14   11.80    2.80
  -7  -7 -14    8.50    4.50
  -7  -7 -14   15.00    2.70
   7   7  14    7.30    5.20
  -8  -7 -14   21.70    4.40
  -8  -7 -14   24.30    6.00
   8   7  14   19.30    6.50
  -9  -7 -14   11.40    6.00
  -9  -7 -14    3.00    3.80
   9   7  14   -3.80    5.20
   3  -8 -14    1.00    4.30
   1  -8 -14   25.90    5.40
   0  -8 -14   45.00    6.40
   0   8  14   43.10    6.00
  -1  -8 -14   69.39    7.30
   1   8  14   54.89    6.70
  -2  -8 -14   12.00    3.80
   2   8  14    4.80    3.40
  -3  -8 -14    7.40    3.30
   3   8  14   -0.30    3.20
  -4  -8 -14   19.80    4.60
   4   8  14   25.00    5.30
  -5  -8 -14   26.90    5.20
   5   8  14   10.50    4.40
  -6  -8 -14   21.30    5.00
   6   8  14   13.10    5.20
  -7  -8 -14   14.30    3.20
  -7  -8 -14    9.00    4.60
   7   8  14   10.80    5.20
  -8  -8 -14   -1.10    4.10
  -8  -8 -14    6.00    3.80
   8   8  14    9.80    5.70
  -9  -8 -14    3.50    5.30
  -9  -8 -14   -0.40    4.00
   9   8  14   -4.30    5.50
   0  -9 -14   52.49    6.60
   0   9  14   58.39    7.00
  -1  -9 -14   14.40    4.30
   1   9  14   17.00    4.50
  -2  -9 -14   17.50    4.20
   2   9  14   10.10    4.30
  -3  -9 -14   38.20    5.40
   3   9  14   48.10    6.70
  -4  -9 -14   24.60    4.80
   4   9  14   29.60    6.20
  -5  -9 -14   21.30    4.90
   5   9  14   32.00    6.10
  -6  -9 -14   36.00    3.50
  -6  -9 -14   26.20    3.10
  -6  -9 -14   37.70    6.00
   6   9  14   34.60    6.90
  -7  -9 -14    5.20    3.00
  -7  -9 -14    1.30    3.90
   7   9  14    4.30    5.00
  -8  -9 -14    2.80    4.50
  -8  -9 -14   -8.50    3.30
   8   9  14   -1.70    4.90
   0  10  14   11.40    4.40
   1  10  14   -2.00    3.50
   2  10  14   61.29    7.80
   3  10  14   29.80    6.10
   4  10  14   82.19    9.10
   5  10  14    9.60    5.00
  -6 -10 -14   -1.10    2.30
   6  10  14   -6.00    3.90
  -7 -10 -14   13.10    3.90
   7  10  14   23.70    6.80
  -8 -10 -14   46.60    6.70
   8  10  14   28.90    7.60
   0  11  14   44.00    6.80
   1  11  14    2.80    4.00
   2  11  14   33.80    6.50
   3  11  14    5.80    4.60
   4  11  14    5.90    4.90
  -5 -11 -14   13.10    2.30
  -5 -11 -14    8.60    2.50
   5  11  14   16.10    6.00
  -6 -11 -14    2.30    2.90
   6  11  14   -0.40    5.30
  -7 -11 -14   31.30    5.20
   7  11  14   11.10    6.10
   0  12  14   61.89    8.10
   1  12  14   27.80    6.20
   2  12  14    4.40    4.80
   3  12  14   50.59    8.40
   4  12  14   31.40    7.00
  -5 -12 -14    9.20    3.10
   5  12  14    0.90    5.40
  -6 -12 -14   13.40    3.90
   6  12  14    8.60    6.50
   3  13  14   12.80    6.40
   4  13  14   20.60    6.90
   1   6 -15   21.60    7.10
   0   6 -15   44.00    8.70
  -1   6 -15   64.59    9.20
  -1   6 -15   52.59    9.00
  -2   6 -15    9.80    5.90
  -2   6 -15   18.80    6.10
  -3   6 -15    3.50    6.00
  -3   6 -15    7.80    5.50
  -4   6 -15   38.40    7.70
   2   5 -15   17.20    6.20
   1   5 -15   65.89    9.60
   0   5 -15   21.10    6.80
  -1   5 -15   17.60    5.60
  -2   5 -15    3.70    4.80
  -2   5 -15   -6.80    3.90
  -3   5 -15   27.20    7.40
  -3   5 -15   19.10    6.30
  -4   5 -15   39.20    7.90
  -4   5 -15   52.89    8.60
  -5   5 -15   53.59    9.80
  -5   5 -15   40.30    7.70
   3   4 -15    2.60    6.20
   3   4 -15    5.20    6.10
   3   4 -15    7.80    5.50
   2   4 -15  115.49   12.40
   2   4 -15  142.49   13.00
   1   4 -15   70.99    9.40
   0   4 -15   18.60    6.30
  -1   4 -15   59.69    8.50
  -2   4 -15    2.00    5.00
  -2   4 -15   -0.90    3.90
  -3   4 -15    8.90    5.20
  -3   4 -15   -2.10    4.00
  -4   4 -15   13.70    5.60
  -4   4 -15   17.30    6.50
  -5   4 -15   22.00    7.10
  -5   4 -15   11.50    5.60
  -6   4 -15   -4.60    5.30
  -6   4 -15    3.40    5.40
   4   3 -15   25.00    6.70
   4   3 -15   24.00    8.00
   4   3 -15   19.00    7.00
   3   3 -15   11.40    6.10
   3   3 -15    2.40    5.90
   3   3 -15    5.00    5.00
   2   3 -15   45.60    7.80
   2   3 -15   34.00    7.50
   2   3 -15   48.10    8.20
   1   3 -15   22.10    6.60
   0   3 -15   52.99    7.90
   0  -3  15   54.99    6.30
  -1   3 -15   24.20    6.00
   1  -3  15   20.30    4.70
  -2   3 -15   19.00    5.50
   2  -3  15   24.00    5.20
  -3   3 -15   58.79    8.40
  -3   3 -15   46.40    8.10
   3  -3  15   43.50    6.70
  -4   3 -15   -0.40    4.10
  -4   3 -15   -0.10    4.30
   4  -3  15   -3.60    3.40
  -5   3 -15    0.50    3.90
  -5   3 -15    1.10    4.70
   5  -3  15    2.60    4.60
  -6   3 -15   12.80    6.00
  -6   3 -15   22.00    6.60
   6  -3  15   24.40    6.60
   7  -3  15   53.19    9.10
   4   2 -15   24.70    7.10
   4   2 -15   29.20    7.90
   4   2 -15   16.30    6.00
   3   2 -15   39.60    7.00
   3   2 -15   24.60    6.40
   3   2 -15   35.90    7.40
   2   2 -15   66.49    8.40
   2   2 -15   63.29    9.10
   2   2 -15   65.89    9.10
   1   2 -15   -6.90    3.70
   0   2 -15   15.60    5.00
   0  -2  15   15.80    4.10
  -1   2 -15    3.50    4.20
   1  -2  15    3.20    3.10
  -2   2 -15   19.80    5.50
   2  -2  15   19.40    4.60
  -3   2 -15   25.30    6.50
   3  -2  15   21.10    4.90
  -4   2 -15   24.00    6.00
   4  -2  15   21.00    5.50
  -5   2 -15   53.29    8.10
  -5   2 -15   70.19    9.80
   5  -2  15   49.60    7.70
  -6   2 -15   73.79   10.00
  -6   2 -15   68.39    9.50
   6  -2  15   69.69    9.60
  -7   2 -15   17.60    6.40
  -7   2 -15   16.90    6.30
   7  -2  15   15.20    6.10
   4   1 -15    3.90    4.80
   4   1 -15    0.60    4.80
   3   1 -15   31.70    7.00
   3   1 -15   51.09    7.30
   3   1 -15   37.00    7.40
   2   1 -15    8.10    5.10
   2   1 -15    6.40    3.90
   2   1 -15    1.60    4.20
   1   1 -15   25.60    5.90
   1   1 -15   27.90    6.60
   0   1 -15   49.30    7.70
   0  -1  15   28.80    4.70
  -1   1 -15    2.60    3.90
   1  -1  15    4.10    3.10
  -2   1 -15   33.00    6.20
   2  -1  15   25.00    5.10
  -3   1 -15   40.20    6.90
   3  -1  15   31.20    5.80
  -4   1 -15   32.80    6.20
   4  -1  15   30.70    6.00
  -5   1 -15    3.70    4.30
   5  -1  15    5.50    4.20
  -6   1 -15   18.90    6.20
   6  -1  15   18.70    6.00
  -7   1 -15    0.10    5.70
   7  -1  15    4.50    5.30
  -8   1 -15   -2.30    5.60
   8  -1  15   -0.70    5.90
   4   0 -15   52.29    7.40
   4   0 -15   26.90    7.00
   3   0 -15   33.20    7.60
   3   0 -15   43.10    7.20
   3   0 -15   36.80    6.20
   2   0 -15   10.80    5.10
   2   0 -15    6.60    4.30
   2   0 -15    5.10    3.60
   1   0 -15   12.60    5.30
   1   0 -15   11.70    4.70
   0   0 -15   58.79    8.30
   0   0  15   47.50    5.70
  -1   0 -15   87.59    9.80
   1   0  15  106.09    7.80
  -2   0 -15   67.49    8.60
   2   0  15   80.59    8.20
  -3   0 -15   20.80    5.80
   3   0  15   21.60    4.90
  -4   0 -15    1.50    3.70
   4   0  15    5.10    3.70
  -5   0 -15   21.30    5.90
   5   0  15    5.10    4.20
  -6   0 -15   40.50    7.40
   6   0  15   41.00    7.50
  -7   0 -15   12.10    5.90
   7   0  15    6.10    5.20
  -8   0 -15   15.10    6.90
   8   0  15   24.10    7.00
   4  -1 -15    4.60    5.30
   3  -1 -15   56.49    7.10
   3  -1 -15   50.69    7.80
   3  -1 -15   40.50    8.00
   2  -1 -15   20.20    5.70
   2  -1 -15   27.30    5.70
   2  -1 -15   28.50    5.10
   1  -1 -15   21.80    5.90
   1  -1 -15   26.90    5.70
   0  -1 -15    4.60    3.70
   0  -1 -15    2.90    3.60
   0   1  15   -1.20    2.50
  -1  -1 -15    6.30    4.20
   1   1  15   12.70    3.80
  -2  -1 -15    9.20    4.60
   2   1  15    8.80    3.40
  -3  -1 -15   29.40    6.10
   3   1  15   23.70    5.10
  -4  -1 -15   75.29    9.40
   4   1  15   71.49    8.20
  -5  -1 -15   20.40    5.70
   5   1  15   13.30    4.90
  -6  -1 -15   85.19    9.70
   6   1  15  118.19   11.40
  -7  -1 -15   33.60    7.70
   7   1  15   24.40    6.80
  -8  -1 -15    5.60    5.20
   8   1  15    2.70    5.30
   4  -2 -15   15.20    6.40
   3  -2 -15   29.60    6.50
   3  -2 -15   42.60    7.70
   2  -2 -15   21.80    5.60
   2  -2 -15   17.30    5.30
   1  -2 -15  118.69   11.10
   1  -2 -15  121.49    9.10
   0  -2 -15   11.00    4.00
   0  -2 -15   11.60    4.70
   0   2  15   10.20    3.10
  -1  -2 -15   23.90    5.90
   1   2  15   26.20    4.60
  -2  -2 -15   19.70    5.40
   2   2  15   19.20    4.30
  -3  -2 -15   47.80    7.60
   3   2  15   47.50    6.40
  -4  -2 -15   90.59    9.70
   4   2  15   57.39    7.40
  -5  -2 -15   16.60    5.50
   5   2  15   17.70    4.80
  -6  -2 -15   89.19   10.30
   6   2  15   82.09    9.40
  -7  -2 -15   19.70    6.40
   7   2  15   10.00    5.20
  -8  -2 -15   19.70    6.40
   8   2  15   16.50    6.30
   4  -3 -15   48.80    8.30
   3  -3 -15   30.00    7.10
   3  -3 -15   31.30    6.60
   2  -3 -15    4.90    4.30
   2  -3 -15   13.80    4.80
   1  -3 -15   32.30    6.30
   1  -3 -15   13.90    4.50
   0  -3 -15   52.89    7.20
   0  -3 -15   61.69    7.10
   0   3  15   67.69    6.50
  -1  -3 -15    7.80    3.90
   1   3  15    1.60    2.70
  -2  -3 -15   56.19    7.90
   2   3  15   37.60    5.60
  -3  -3 -15  110.39   10.50
   3   3  15   97.39    9.10
  -4  -3 -15   58.99    7.70
   4   3  15   54.99    7.30
  -5  -3 -15   96.59   10.20
   5   3  15   91.69    9.50
  -6  -3 -15  116.49   11.40
   6   3  15   95.99    9.80
  -7  -3 -15   37.50    7.40
   7   3  15   35.50    7.00
  -8  -3 -15    7.00    6.20
   8   3  15    8.00    5.70
   8   3  15   18.80    5.10
   9   3  15   32.10    7.90
   4  -4 -15    4.80    5.40
   3  -4 -15   10.50    5.20
   2  -4 -15   37.30    6.30
   2  -4 -15   36.20    6.90
   1  -4 -15   83.59    8.30
   1  -4 -15   68.99    8.60
   0  -4 -15   30.10    6.20
   0  -4 -15   29.80    5.00
   0   4  15   20.30    4.00
  -1  -4 -15    3.50    4.20
   1   4  15    9.10    3.50
  -2  -4 -15   24.40    5.60
   2   4  15   15.70    4.10
  -3  -4 -15  123.19    9.90
   3   4  15  140.69    9.80
  -4  -4 -15   65.69    8.20
   4   4  15   67.69    7.60
  -5  -4 -15   88.49    9.50
   5   4  15   73.09    8.80
  -6  -4 -15   10.10    5.10
   6   4  15   15.40    5.00
  -7  -4 -15   16.90    5.90
   7   4  15   26.10    6.50
   7   4  15   16.50    4.40
  -8  -4 -15   21.70    6.90
   8   4  15   14.90    6.20
   8   4  15   31.00    5.70
  -9  -4 -15   15.10    7.50
  -9  -4 -15   17.90    3.50
   9   4  15   21.30    5.50
   9   4  15   16.80    6.80
   4  -5 -15   12.70    5.80
   3  -5 -15    0.00    4.30
   2  -5 -15    6.30    4.50
   2  -5 -15   -0.40    3.90
   1  -5 -15   42.20    5.90
   1  -5 -15   32.00    6.30
   0  -5 -15   10.50    4.70
   0   5  15    5.20    3.10
  -1  -5 -15   85.49    9.20
   1   5  15   93.19    7.50
  -2  -5 -15  175.58   11.30
   2   5  15  157.28   10.10
  -3  -5 -15  117.79    9.30
   3   5  15   91.09    8.80
  -4  -5 -15   -1.30    3.60
   4   5  15    0.40    3.20
  -5  -5 -15   31.10    6.10
   5   5  15   21.80    5.40
  -6  -5 -15   54.79    7.70
   6   5  15   39.30    7.00
  -7  -5 -15   -0.30    4.50
   7   5  15   -1.40    4.00
  -8  -5 -15   34.10    7.60
   8   5  15   23.60    7.00
  -9  -5 -15    6.30    6.30
   9   5  15    0.20    5.80
   3  -6 -15    4.00    4.70
   2  -6 -15   66.79    8.10
   2  -6 -15   49.00    7.60
   1  -6 -15    3.10    4.00
   0  -6 -15    4.30    4.00
   0   6  15   -0.20    2.70
  -1  -6 -15    8.40    4.30
   1   6  15   10.30    3.70
  -2  -6 -15   53.39    7.00
   2   6  15   48.30    6.40
  -3  -6 -15    1.70    3.50
   3   6  15   -0.60    3.20
  -4  -6 -15   86.39    8.80
   4   6  15   65.39    8.10
  -5  -6 -15   39.90    6.70
   5   6  15   34.30    6.40
  -6  -6 -15   31.10    6.10
   6   6  15   26.60    6.30
  -7  -6 -15   93.49    9.90
   7   6  15   81.69    9.90
  -8  -6 -15   -0.40    4.90
   8   6  15   -4.00    4.70
   3  -7 -15   24.30    6.20
   1  -7 -15   19.00    5.40
   0  -7 -15   18.20    5.10
   0   7  15   11.30    3.90
  -1  -7 -15   28.60    5.70
   1   7  15   32.40    5.30
  -2  -7 -15   31.70    5.70
   2   7  15   42.40    6.20
  -3  -7 -15   15.00    4.60
   3   7  15    9.50    4.20
  -4  -7 -15  108.89    8.70
   4   7  15   70.59    8.30
  -5  -7 -15   14.50    5.10
   5   7  15    4.30    4.40
  -6  -7 -15   35.30    6.40
   6   7  15   25.30    6.00
  -7  -7 -15    4.70    4.80
   7   7  15   16.90    5.60
  -8  -7 -15   21.70    3.10
  -8  -7 -15   26.90    6.70
  -8  -7 -15   24.30    3.40
   8   7  15   33.60    7.50
   1  -8 -15   21.30    5.40
   0  -8 -15   -0.20    3.20
   0   8  15    1.50    3.60
  -1  -8 -15   87.69    8.70
   1   8  15  109.99    8.80
  -2  -8 -15   36.40    5.80
   2   8  15   27.90    5.50
  -3  -8 -15   24.40    5.00
   3   8  15   29.80    6.00
  -4  -8 -15   29.30    5.60
   4   8  15   24.70    5.70
  -5  -8 -15    3.50    3.80
   5   8  15   -1.80    3.80
  -6  -8 -15   70.99    8.30
   6   8  15   60.09    8.90
  -7  -8 -15   45.80    7.50
   7   8  15   43.10    8.20
  -8  -8 -15   19.60    3.80
  -8  -8 -15   26.60    6.60
   8   8  15   24.00    6.90
   0  -9 -15   32.50    5.80
  -1  -9 -15    4.80    3.60
   1   9  15    3.60    3.90
  -2  -9 -15    3.00    3.40
   2   9  15    0.20    3.70
  -3  -9 -15    9.80    4.10
   3   9  15   18.60    5.10
  -4  -9 -15  110.89    8.80
   4   9  15  101.89   10.40
  -5  -9 -15   40.00    6.40
   5   9  15   33.50    6.60
  -6  -9 -15   39.40    6.60
   6   9  15   37.80    7.50
  -7  -9 -15   26.70    6.10
   7   9  15   27.40    7.00
   1  10  15    0.50    3.70
   2  10  15   75.99    8.90
   3  10  15   49.30    7.60
   4  10  15   33.90    6.80
   5  10  15   27.40    7.00
   6  10  15    5.30    5.90
  -7 -10 -15   71.49    6.60
  -7 -10 -15   77.99    5.50
   7  10  15   92.99   11.40
   1  11  15   25.00    6.20
   2  11  15   -1.30    4.70
   3  11  15  134.79   12.40
   4  11  15   13.20    5.80
   5  11  15   10.80    6.20
   6  11  15   18.00    6.90
   3  12  15   10.70    5.70
   4  12  15   12.00    5.80
   0   5 -16   28.50    8.20
  -1   5 -16   41.00    7.80
  -2   5 -16    0.50    4.50
   1   4 -16   37.00    7.70
   0   4 -16   -2.50    5.40
  -1   4 -16   37.50    7.50
   1  -4  16   39.30    6.30
  -2   4 -16    2.70    5.10
   2  -4  16    5.60    4.20
  -3   4 -16   49.40    8.30
   3  -4  16   54.59    8.10
  -4   4 -16    1.80    4.80
  -4   4 -16    6.70    6.00
   4  -4  16    5.60    4.90
   2   3 -16   22.70    7.60
   1   3 -16    4.40    5.80
   0   3 -16    1.80    5.30
  -1   3 -16   26.40    6.40
   1  -3  16   29.50    5.40
  -2   3 -16   11.10    5.80
   2  -3  16    6.20    4.00
  -3   3 -16    1.40    4.60
   3  -3  16    6.20    4.40
  -4   3 -16   12.10    6.20
   4  -3  16    7.70    4.50
  -5   3 -16   73.29   10.90
  -5   3 -16   47.60    8.50
   5  -3  16   49.60    8.00
   2   2 -16   21.70    6.60
   2   2 -16   30.50    7.60
   1   2 -16    7.90    6.00
   0   2 -16    6.60    5.70
  -1   2 -16    3.00    4.70
   1  -2  16    2.70    3.30
  -2   2 -16   35.10    6.70
   2  -2  16   44.30    6.70
  -3   2 -16   27.20    6.30
   3  -2  16   28.10    5.90
  -4   2 -16   32.80    7.30
   4  -2  16   45.60    7.40
  -5   2 -16   26.70    6.60
   5  -2  16   36.10    7.40
  -6   2 -16   13.20    6.40
   6  -2  16   13.20    6.10
   3   1 -16   62.99   10.10
   3   1 -16   47.40    8.30
   3   1 -16   65.99    8.60
   2   1 -16    9.10    6.30
   2   1 -16    7.70    5.30
   1   1 -16   16.50    6.30
   0   1 -16   28.40    6.50
  -1   1 -16   17.60    5.50
   1  -1  16   21.70    4.60
  -2   1 -16    3.10    3.90
   2  -1  16    6.70    3.70
  -3   1 -16   76.19    9.50
   3  -1  16   61.69    7.70
  -4   1 -16   33.50    6.70
   4  -1  16   23.00    5.80
  -5   1 -16    3.30    5.00
   5  -1  16    7.20    4.70
  -6   1 -16   23.60    7.50
   6  -1  16   46.40    8.40
   3   0 -16    6.00    4.30
   3   0 -16    6.40    5.70
   3   0 -16    0.10    5.00
   2   0 -16   20.90    6.70
   2   0 -16   23.80    6.40
   1   0 -16    9.70    4.80
   1   0 -16   18.10    6.10
   0   0 -16    2.40    4.10
  -1   0 -16   21.30    5.90
   1   0  16   18.60    4.40
  -2   0 -16   23.00    6.00
   2   0  16   20.40    4.80
  -3   0 -16   35.10    6.60
   3   0  16   30.20    5.80
  -4   0 -16   25.40    6.10
   4   0  16   17.50    5.50
  -5   0 -16   40.90    7.70
   5   0  16   40.10    7.20
  -6   0 -16   51.59    8.80
   6   0  16   45.30    7.90
  -7   0 -16   50.99    9.20
   7   0  16   43.40    8.40
   3  -1 -16    7.10    4.90
   3  -1 -16    7.10    5.70
   2  -1 -16   48.80    7.60
   2  -1 -16   43.10    8.30
   1  -1 -16   85.29    9.10
   1  -1 -16   56.29    8.30
   0  -1 -16   37.30    7.40
  -1  -1 -16   16.30    5.30
   1   1  16   14.30    4.10
  -2  -1 -16   58.49    8.60
   2   1  16   50.39    6.40
  -3  -1 -16    7.80    4.90
   3   1  16    8.80    3.90
  -4  -1 -16   25.30    6.20
   4   1  16   30.30    5.90
  -5  -1 -16    6.50    4.50
   5   1  16    9.80    4.80
  -6  -1 -16    0.00    5.40
   6   1  16   10.20    5.40
  -7  -1 -16    1.90    6.00
   7   1  16   20.80    6.30
   3  -2 -16  -11.70    5.40
   3  -2 -16   13.60    5.70
   2  -2 -16   65.39    9.40
   2  -2 -16   89.69    9.60
   1  -2 -16   18.20    5.10
   1  -2 -16   18.20    5.90
   0  -2 -16   56.89    8.40
   0  -2 -16   47.30    6.90
  -1  -2 -16   14.90    5.20
   1   2  16   15.70    4.10
  -2  -2 -16   46.90    7.20
   2   2  16   46.30    6.40
  -3  -2 -16   66.89    8.60
   3   2  16   75.39    8.20
  -4  -2 -16    2.80    4.90
   4   2  16   12.70    4.40
  -5  -2 -16   80.99   10.00
   5   2  16   77.59    8.90
  -6  -2 -16   26.40    7.00
   6   2  16   26.10    6.20
  -7  -2 -16   24.20    7.20
   7   2  16    6.60    5.40
   3  -3 -16    9.90    6.40
   3  -3 -16    5.60    5.40
   2  -3 -16   65.89    9.60
   2  -3 -16   52.59    7.60
   1  -3 -16    3.90    3.70
   1  -3 -16    7.10    5.00
   0  -3 -16   40.40    6.10
   0  -3 -16   38.30    7.10
  -1  -3 -16   14.20    4.90
   1   3  16   29.70    5.00
  -2  -3 -16   11.40    5.00
   2   3  16   13.80    4.10
  -3  -3 -16   18.00    5.70
   3   3  16   15.80    4.40
  -4  -3 -16    3.60    4.20
   4   3  16    3.60    3.70
  -5  -3 -16   60.79    8.30
   5   3  16   55.59    7.80
  -6  -3 -16   -0.10    4.60
   6   3  16    1.00    4.10
  -7  -3 -16   44.60    8.60
   7   3  16   58.29    8.80
  -8  -3 -16   40.30    8.70
   8   3  16   17.30    6.70
   8   3  16   33.00    6.00
   3  -4 -16   37.90    7.50
   2  -4 -16   50.09    8.40
   2  -4 -16   58.29    7.80
   1  -4 -16   41.30    6.40
   1  -4 -16   40.90    7.50
   0  -4 -16   17.30    5.40
  -1  -4 -16    7.30    4.30
   1   4  16   11.60    3.80
  -2  -4 -16   31.90    6.30
   2   4  16   43.00    6.10
  -3  -4 -16   10.90    4.90
   3   4  16    6.00    3.80
  -4  -4 -16   27.30    6.60
   4   4  16   48.90    7.10
  -5  -4 -16   93.09   10.00
   5   4  16   73.49    8.90
  -6  -4 -16    4.20    5.20
   6   4  16    7.90    4.80
  -7  -4 -16   12.40    6.60
   7   4  16    7.50    5.40
  -8  -4 -16   11.40    6.90
   8   4  16   17.70    6.80
   3  -5 -16    2.20    4.90
   2  -5 -16   15.10    6.30
   2  -5 -16   21.00    5.80
   1  -5 -16   26.70    6.30
   0  -5 -16   -4.40    3.60
  -1  -5 -16    2.60    4.20
   1   5  16    4.70    3.40
  -2  -5 -16   18.00    5.20
   2   5  16   22.60    4.80
  -3  -5 -16   12.80    4.90
   3   5  16    6.30    3.80
  -4  -5 -16    5.20    4.30
   4   5  16    8.90    4.10
  -5  -5 -16   51.59    8.00
   5   5  16   34.90    6.50
  -6  -5 -16    2.90    5.00
   6   5  16    0.50    4.30
  -7  -5 -16   34.00    8.00
   7   5  16   31.20    7.10
  -8  -5 -16   29.10    7.50
   8   5  16   27.50    7.60
   2  -6 -16   74.59    9.70
   1  -6 -16  121.99   11.60
   0  -6 -16   -4.40    3.80
  -1  -6 -16   10.00    5.00
   1   6  16    5.40    3.50
  -2  -6 -16   22.80    5.50
   2   6  16   18.80    4.80
  -3  -6 -16   -0.80    3.80
   3   6  16    0.60    3.40
  -4  -6 -16   11.20    4.80
   4   6  16    5.00    4.00
  -5  -6 -16    1.50    4.40
   5   6  16    3.00    4.30
  -6  -6 -16   12.90    5.50
   6   6  16   11.40    5.50
  -7  -6 -16   36.90    7.80
   7   6  16   25.90    6.90
   1  -7 -16   69.09    8.90
   0  -7 -16    9.20    4.70
  -1  -7 -16   75.49    9.00
   1   7  16   89.99    8.70
  -2  -7 -16   78.69    8.70
   2   7  16   72.29    8.00
  -3  -7 -16   54.19    7.30
   3   7  16   53.29    7.20
  -4  -7 -16    7.80    4.50
   4   7  16    8.10    4.40
  -5  -7 -16   31.90    6.70
   5   7  16   33.20    6.50
  -6  -7 -16   28.70    6.60
   6   7  16   21.00    6.30
  -7  -7 -16    8.80    5.50
   7   7  16   -0.40    4.80
   1  -8 -16  154.68   12.20
   0  -8 -16   20.50    5.70
  -1  -8 -16   19.80    5.50
   1   8  16   15.80    4.90
  -2  -8 -16   17.60    5.10
   2   8  16   19.00    5.20
  -3  -8 -16   18.90    5.00
   3   8  16   12.50    4.80
  -4  -8 -16   13.10    5.20
   4   8  16   10.80    5.00
  -5  -8 -16   70.99    8.70
   5   8  16   51.19    7.80
  -6  -8 -16   32.60    6.80
   6   8  16   18.10    6.60
  -7  -8 -16   59.49    8.60
   7   8  16   28.80    7.20
   0  -9 -16   43.50    7.10
  -1  -9 -16   45.10    6.70
   1   9  16   43.10    6.90
  -2  -9 -16    3.80    4.00
   2   9  16    6.70    4.70
  -3  -9 -16   18.20    5.10
   3   9  16    8.50    4.90
  -4  -9 -16   21.70    5.40
   4   9  16   19.20    5.90
  -5  -9 -16  140.29   10.60
   5   9  16  129.09   12.40
  -6  -9 -16    6.10    4.70
   6   9  16    5.50    5.50
   1  10  16    6.90    4.60
   2  10  16   16.80    5.40
   3  10  16  101.69   10.60
   4  10  16   46.50    8.10
   5  10  16   23.70    6.80
  -1   3 -17   24.60    6.80
   1  -3  17   38.60    8.20
  -2   3 -17    4.30    5.90
   2  -3  17    7.90    4.60
   3  -3  17   34.30    6.90
   0   2 -17   -1.80    5.70
  -1   2 -17   13.90    6.20
   1  -2  17   18.10    6.40
  -2   2 -17   30.70    7.60
   2  -2  17   31.80    6.10
  -3   2 -17   59.79    9.60
   3  -2  17   67.89    8.70
  -4   2 -17   36.50    8.40
   4  -2  17   43.00    7.70
   1   1 -17   38.00    8.70
   0   1 -17   15.00    6.70
  -1   1 -17   28.70    6.80
   1  -1  17   23.90    6.70
  -2   1 -17   27.50    7.10
   2  -1  17   16.60    4.90
  -3   1 -17   49.20    8.40
   3  -1  17   55.49    7.90
  -4   1 -17    1.70    5.60
   4  -1  17    2.40    4.60
  -5   1 -17   32.50    8.00
   5  -1  17   39.80    7.70
   1   0 -17   13.10    6.70
   0   0 -17   37.40    8.00
  -1   0 -17   93.99   11.00
   1   0  17   82.99   10.10
  -2   0 -17   83.29   10.10
   2   0  17   85.59    8.90
  -3   0 -17   17.80    6.00
   3   0  17   13.40    4.70
  -4   0 -17   36.50    8.20
   4   0  17   28.80    6.30
  -5   0 -17   12.80    5.90
   5   0  17   19.10    6.10
   2  -1 -17    2.30    5.00
   1  -1 -17    9.50    6.10
   1  -1 -17    5.80    4.80
   0  -1 -17  157.08   14.20
  -1  -1 -17   10.90    6.10
  -2  -1 -17   31.80    7.10
   2   1  17   38.60    6.40
  -3  -1 -17   47.40    8.40
   3   1  17   55.59    7.50
  -4  -1 -17   49.99    8.40
   4   1  17   46.90    7.50
  -5  -1 -17   54.89    9.40
   5   1  17   47.80    8.00
  -6  -1 -17   92.49   10.90
   6   1  17   72.29   10.00
   2  -2 -17   -1.30    4.50
   2  -2 -17    4.20    6.50
   1  -2 -17    0.90    4.30
   1  -2 -17    7.10    5.80
   0  -2 -17   48.30    8.70
  -1  -2 -17    9.30    5.80
  -2  -2 -17   27.00    6.80
   2   2  17   29.90    5.50
  -3  -2 -17   98.69   10.60
   3   2  17   93.39    9.60
  -4  -2 -17   26.20    6.70
   4   2  17   34.20    6.50
  -5  -2 -17   15.70    6.20
   5   2  17    6.50    4.80
  -6  -2 -17  161.78   14.60
   6   2  17  126.49   12.40
   1  -3 -17   37.00    8.00
   0  -3 -17   23.70    6.40
  -1  -3 -17   11.00    5.80
  -2  -3 -17   11.70    5.80
   2   3  17   13.80    4.50
  -3  -3 -17   27.80    7.10
   3   3  17   35.60    6.00
  -4  -3 -17   41.90    8.30
   4   3  17   36.50    6.70
  -5  -3 -17   18.50    6.60
   5   3  17   12.50    5.10
  -6  -3 -17   36.20    8.30
   6   3  17   32.10    7.30
   1  -4 -17    8.80    6.10
   0  -4 -17   13.10    5.60
  -1  -4 -17    7.30    5.30
  -2  -4 -17    3.30    4.40
   2   4  17    3.00    3.50
  -3  -4 -17    5.60    5.00
   3   4  17   12.20    4.60
  -4  -4 -17   27.60    6.80
   4   4  17   17.60    5.60
  -5  -4 -17   28.10    7.10
   5   4  17   24.70    6.00
  -6  -4 -17    8.60    6.20
   6   4  17   15.90    5.90
   1  -5 -17    9.40    6.00
   0  -5 -17   27.30    7.00
  -1  -5 -17   14.10    5.60
  -2  -5 -17    0.30    4.50
   2   5  17   12.10    4.40
  -3  -5 -17   -2.10    4.40
   3   5  17    6.20    3.90
  -4  -5 -17   41.40    7.80
   4   5  17   23.90    5.90
  -5  -5 -17   58.29    9.20
   5   5  17   51.79    7.90
  -6  -5 -17   15.50    6.60
   6   5  17   15.30    6.20
   0  -6 -17   51.39    8.30
  -1  -6 -17   65.39    8.90
  -2  -6 -17   25.40    6.40
   2   6  17   19.20    4.90
  -3  -6 -17    7.70    5.10
   3   6  17    5.20    4.00
  -4  -6 -17   11.60    5.70
   4   6  17   11.50    4.80
  -5  -6 -17   35.20    7.50
   5   6  17   32.00    6.70
  -6  -6 -17    1.50    5.30
   6   6  17   -0.90    5.00
   0  -7 -17   37.00    7.50
  -1  -7 -17    3.10    4.70
  -2  -7 -17    3.90    4.60
   2   7  17    2.10    4.10
  -3  -7 -17   10.90    5.10
   3   7  17    2.40    3.90
  -4  -7 -17   32.40    7.00
   4   7  17   29.30    6.30
  -5  -7 -17   24.00    6.60
   5   7  17   22.60    6.30
  -6  -7 -17  103.59   11.00
   6   7  17   98.29   11.30
  -1  -8 -17   45.50    7.50
  -2  -8 -17  102.09   10.20
   2   8  17   76.49    8.80
  -3  -8 -17    2.90    4.40
   3   8  17    6.60    4.80
  -4  -8 -17   48.70    7.70
   4   8  17   36.20    7.20
  -5  -8 -17   21.20    6.50
   5   8  17   15.10    6.30
   3   9  17    4.60    4.70
   2   0  18  147.89   10.90
  -1  -1 -18   50.69    9.50
  -2  -1 -18   25.40    7.90
   2   1  18   18.00    5.40
  -3  -1 -18    8.20    6.60
   3   1  18    2.60    4.40
  -1  -2 -18   12.60    7.30
  -2  -2 -18   29.10    7.60
   2   2  18   31.20    5.90
  -3  -2 -18   17.40    6.70
   3   2  18   22.30    5.70
  -4  -2 -18   12.90    6.90
   4   2  18   12.40    5.50
  -1  -3 -18   10.00    6.80
  -2  -3 -18   43.80    8.60
   2   3  18   41.20    6.60
  -3  -3 -18    8.30    6.60
   3   3  18   15.30    5.20
  -4  -3 -18   26.80    7.50
   4   3  18   24.00    6.00
  -1  -4 -18   10.10    6.00
  -2  -4 -18   39.90    8.40
   2   4  18   51.49    7.30
  -3  -4 -18    1.70    5.50
   3   4  18   12.00    5.10
  -4  -4 -18   20.80    7.00
   4   4  18   16.50    5.80
  -2  -5 -18   70.89   10.10
   2   5  18   40.80    6.80
  -3  -5 -18   41.60    8.40
   3   5  18   47.20    7.20
  -4  -5 -18   15.70    6.90
   4   5  18    3.50    4.70
  -3  -6 -18   42.10    8.00
   3   6  18   31.80    6.40
;
_shelx_hkl_checksum              84298
#END Tags that were not found in dictionaries
loop_
_space_group_symop_operation_xyz
'x, y, z'
loop_
_atom_site_label
_atom_site_type_symbol
_atom_site_fract_x
_atom_site_fract_y
_atom_site_fract_z
_atom_site_U_iso_or_equiv
_atom_site_adp_type
_atom_site_occupancy
_atom_site_site_symmetry_order
_atom_site_calc_flag
_atom_site_refinement_flags_posn
_atom_site_refinement_flags_adp
S001 S 0.86572(8) 0.74786(6) 0.62136(6) 0.01671(16) Uani 1 1 d . .
O5 O 0.8650(3) 0.6142(2) 0.33251(18) 0.0219(5) Uani 1 1 d . .
O4 O 0.4358(3) 0.58606(19) 0.52993(17) 0.0193(5) Uani 1 1 d . .
O6 O 0.6914(3) 0.4808(2) 0.18130(18) 0.0228(5) Uani 1 1 d . .
O3 O 0.6583(3) 0.38861(19) 0.63647(19) 0.0219(5) Uani 1 1 d . .
O7 O 0.4427(3) 0.7844(2) 0.05423(18) 0.0220(5) Uani 1 1 d . .
O14 O 0.9900(3) 0.9311(2) 0.6779(2) 0.0297(6) Uani 1 1 d . .
C1 C 1.0252(3) 1.0011(2) 0.6066(2) 0.0134(6) Uani 1 1 d . .
N6 N 0.5492(3) 0.5452(2) 0.3216(2) 0.0150(5) Uani 1 1 d . .
H6 H 0.5468 0.5487 0.3842 0.018 Uiso 1 1 calc R U
O11 O 0.9396(3) 0.7304(2) 0.1392(2) 0.0334(6) Uani 1 1 d . .
N3 N 0.4094(3) 0.4134(2) 0.6961(2) 0.0212(6) Uani 1 1 d . .
H3 H 0.3268 0.3872 0.7091 0.025 Uiso 1 1 calc R U
N5 N 0.7833(3) 0.4619(2) 0.4258(2) 0.0159(5) Uani 1 1 d . .
H5 H 0.7541 0.4301 0.4861 0.019 Uiso 1 1 calc R U
O2 O 0.4070(3) 0.2708(2) 0.9338(2) 0.0367(7) Uani 1 1 d . .
N2 N 0.5411(3) 0.1179(2) 0.8768(2) 0.0191(6) Uani 1 1 d . .
H2 H 0.5438 0.0491 0.8779 0.023 Uiso 1 1 calc R U
O1 O 0.2216(3) 0.1065(2) 0.8229(2) 0.0377(7) Uani 1 1 d . .
O15 O 1.0542(3) 1.0886(2) 0.6171(2) 0.0371(7) Uani 1 1 d . .
O8 O 0.6166(4) 0.6389(3) -0.1737(2) 0.0386(7) Uani 1 1 d . .
N4 N 0.5544(3) 0.6649(2) 0.6207(2) 0.0160(5) Uani 1 1 d . .
H4 H 0.5695 0.6676 0.6802 0.019 Uiso 1 1 calc R U
N7 N 0.6954(3) 0.7320(2) 0.0401(2) 0.0192(6) Uani 1 1 d . .
H7 H 0.7708 0.7162 0.0712 0.023 Uiso 1 1 calc R U
N1 N 0.3024(3) 0.0065(2) 0.9616(2) 0.0224(6) Uani 1 1 d . .
H1 H 0.3279 -0.0583 0.9927 0.027 Uiso 1 1 calc R U
N8 N 0.6073(4) 0.5559(2) -0.0137(2) 0.0279(7) Uani 1 1 d . .
H8A H 0.5678 0.5038 -0.0247 0.033 Uiso 1 1 calc R U
H8B H 0.6253 0.5560 0.0455 0.033 Uiso 1 1 calc R U
O9 O 0.8234(3) 0.4212(2) 0.7772(3) 0.0402(7) Uani 1 1 d . .
C2 C 0.4684(3) 0.5939(2) 0.6110(2) 0.0148(6) Uani 1 1 d . .
C3 C 0.6687(3) 0.4851(2) 0.2726(2) 0.0156(6) Uani 1 1 d . .
O12 O 0.2219(3) 0.6693(3) 0.0347(3) 0.0528(9) Uani 1 1 d . .
C4 C 0.8350(3) 0.5571(3) 0.4145(2) 0.0170(6) Uani 1 1 d . .
C5 C 0.8575(3) 0.5881(3) 0.5115(2) 0.0169(6) Uani 1 1 d . .
H5A H 0.9642 0.5731 0.5145 0.020 Uiso 1 1 calc R U
H5B H 0.8063 0.5433 0.5689 0.020 Uiso 1 1 calc R U
C6 C 1.0491(3) 0.8731(3) 0.4811(3) 0.0162(6) Uani 1 1 d . .
C7 C 0.4121(4) 0.7285(3) 0.2690(2) 0.0175(6) Uani 1 1 d . .
H7A H 0.4008 0.7457 0.3368 0.021 Uiso 1 1 calc R U
H7B H 0.3230 0.7660 0.2419 0.021 Uiso 1 1 calc R U
C8 C 0.5589(4) 0.7632(3) 0.0924(2) 0.0183(6) Uani 1 1 d . .
C9 C 0.6656(4) 0.1686(3) 0.8138(3) 0.0191(6) Uani 1 1 d . .
H9 H 0.6445 0.2464 0.8208 0.023 Uiso 1 1 calc R U
C10 C 0.5510(4) 0.7718(3) 0.2029(2) 0.0181(6) Uani 1 1 d . .
H10A H 0.5460 0.8477 0.2101 0.022 Uiso 1 1 calc R U
H10B H 0.6416 0.7298 0.2254 0.022 Uiso 1 1 calc R U
C11 C 0.7968(3) 0.7093(3) 0.5192(2) 0.0155(6) Uani 1 1 d . .
H11 H 0.8376 0.7525 0.4557 0.019 Uiso 1 1 calc R U
C12 C 1.0287(4) 1.0717(3) 0.4292(3) 0.0232(7) Uani 1 1 d . .
H12 H 1.0197 1.1411 0.4464 0.028 Uiso 1 1 calc R U
C13 C 0.4061(4) 0.5261(3) 0.7104(3) 0.0195(6) Uani 1 1 d . .
H13 H 0.4692 0.5250 0.7602 0.023 Uiso 1 1 calc R U
C14 C 1.0331(4) 0.9803(3) 0.5029(3) 0.0191(6) Uani 1 1 d . .
C15 C 0.5358(4) 0.2318(3) 0.6616(3) 0.0230(7) Uani 1 1 d . .
H15A H 0.5390 0.2203 0.5928 0.028 Uiso 1 1 calc R U
H15B H 0.4434 0.2110 0.7030 0.028 Uiso 1 1 calc R U
C16 C 0.8014(4) 0.0103(3) 1.1318(3) 0.0280(8) Uani 1 1 d . .
H16 H 0.8186 -0.0566 1.1733 0.034 Uiso 1 1 calc R U
C17 C 0.4213(3) 0.6057(3) 0.2749(2) 0.0162(6) Uani 1 1 d . .
H17 H 0.4364 0.5888 0.2059 0.019 Uiso 1 1 calc R U
C18 C 0.5381(4) 0.3512(3) 0.6635(3) 0.0203(7) Uani 1 1 d . .
C19 C 0.7744(4) 0.4098(3) 0.3399(3) 0.0179(6) Uani 1 1 d . .
C20 C 0.6234(3) 0.7377(3) 0.5349(2) 0.0154(6) Uani 1 1 d . .
H20 H 0.5940 0.7228 0.4745 0.018 Uiso 1 1 calc R U
C21 C 1.0532(3) 0.7704(3) 0.5567(3) 0.0166(6) Uani 1 1 d . .
H21A H 1.1125 0.7750 0.6062 0.020 Uiso 1 1 calc R U
H21B H 1.1024 0.7084 0.5222 0.020 Uiso 1 1 calc R U
C22 C 0.7995(4) 0.1143(3) 0.9637(3) 0.0211(7) Uani 1 1 d . .
C23 C 0.3898(4) 0.8819(3) 0.5482(3) 0.0278(8) Uani 1 1 d . .
H23A H 0.3516 0.9569 0.5570 0.042 Uiso 1 1 calc R U
H23B H 0.3430 0.8346 0.6042 0.042 Uiso 1 1 calc R U
H23C H 0.3675 0.8687 0.4864 0.042 Uiso 1 1 calc R U
C24 C 0.2754(4) 0.5673(3) 0.3353(3) 0.0186(6) Uani 1 1 d . .
H24A H 0.2498 0.5957 0.3992 0.022 Uiso 1 1 calc R U
H24B H 0.1942 0.5981 0.2980 0.022 Uiso 1 1 calc R U
C25 C 0.5608(4) 0.8590(3) 0.5435(3) 0.0197(7) Uani 1 1 d . .
H25 H 0.5815 0.8747 0.6064 0.024 Uiso 1 1 calc R U
C26 C 1.0607(4) 0.8649(3) 0.3790(3) 0.0190(6) Uani 1 1 d . .
H26 H 1.0732 0.7957 0.3606 0.023 Uiso 1 1 calc R U
C27 C 0.2862(4) 0.4440(3) 0.3564(3) 0.0215(7) Uani 1 1 d . .
C28 C 1.0377(4) 1.0591(3) 0.3295(3) 0.0273(8) Uani 1 1 d . .
H28 H 1.0325 1.1202 0.2796 0.033 Uiso 1 1 calc R U
C29 C 0.7009(4) 0.3077(3) 0.3844(3) 0.0223(7) Uani 1 1 d . .
H29A H 0.7613 0.2592 0.4288 0.034 Uiso 1 1 calc R U
H29B H 0.6937 0.2708 0.3305 0.034 Uiso 1 1 calc R U
H29C H 0.6017 0.3293 0.4217 0.034 Uiso 1 1 calc R U
C30 C 0.4237(4) 0.1724(3) 0.9329(3) 0.0222(7) Uani 1 1 d . .
C31 C 0.7518(4) 0.2096(3) 1.0074(3) 0.0256(7) Uani 1 1 d . .
H31 H 0.7360 0.2769 0.9663 0.031 Uiso 1 1 calc R U
C32 C 0.7236(4) 0.7230(3) -0.0681(3) 0.0211(7) Uani 1 1 d . .
O10 O 0.1346(4) 0.3267(3) 0.7487(5) 0.103(2) Uani 1 1 d . .
C33 C 0.7275(5) 0.2055(3) 1.1116(3) 0.0303(8) Uani 1 1 d . .
H33 H 0.6952 0.2699 1.1396 0.036 Uiso 1 1 calc R U
C34 C 0.8150(4) 0.1186(3) 0.8509(3) 0.0216(7) Uani 1 1 d . .
H34A H 0.8474 0.0450 0.8340 0.026 Uiso 1 1 calc R U
H34B H 0.8920 0.1619 0.8161 0.026 Uiso 1 1 calc R U
C35 C 0.7508(4) 0.1064(3) 1.1740(3) 0.0295(8) Uani 1 1 d . .
H35 H 0.7329 0.1040 1.2439 0.035 Uiso 1 1 calc R U
C36 C 0.3159(4) 0.1005(3) 1.0064(3) 0.0243(7) Uani 1 1 d . .
C37 C 0.2578(4) 0.3905(3) 0.4552(3) 0.0306(8) Uani 1 1 d . .
H37 H 0.2303 0.4317 0.5081 0.037 Uiso 1 1 calc R U
C38 C 0.6407(4) 0.6364(3) -0.0884(3) 0.0246(7) Uani 1 1 d . .
C39 C 1.0544(4) 0.9552(3) 0.3043(3) 0.0243(7) Uani 1 1 d . .
H39 H 1.0613 0.9463 0.2373 0.029 Uiso 1 1 calc R U
C40 C 0.8262(4) 0.0147(3) 1.0269(3) 0.0249(7) Uani 1 1 d . .
H40 H 0.8609 -0.0495 0.9988 0.030 Uiso 1 1 calc R U
C41 C 0.6783(5) 0.8327(3) -0.1318(3) 0.0279(8) Uani 1 1 d . .
H41A H 0.5704 0.8523 -0.1196 0.042 Uiso 1 1 calc R U
H41B H 0.7141 0.8270 -0.2022 0.042 Uiso 1 1 calc R U
H41C H 0.7218 0.8880 -0.1137 0.042 Uiso 1 1 calc R U
C42 C 0.6346(4) 0.9353(3) 0.4556(3) 0.0306(8) Uani 1 1 d . .
H42A H 0.7376 0.9327 0.4613 0.046 Uiso 1 1 calc R U
H42B H 0.5811 1.0088 0.4573 0.046 Uiso 1 1 calc R U
H42C H 0.6316 0.9125 0.3929 0.046 Uiso 1 1 calc R U
C43 C 0.6731(4) 0.1607(3) 0.7025(3) 0.0205(7) Uani 1 1 d . .
H43A H 0.6770 0.0850 0.6952 0.025 Uiso 1 1 calc R U
H43B H 0.7647 0.1844 0.6627 0.025 Uiso 1 1 calc R U
O13 O 0.2600(6) 0.4508(3) 0.0190(3) 0.0698(12) Uani 1 1 d . .
C44 C 0.9325(4) 0.3782(3) 0.2788(3) 0.0233(7) Uani 1 1 d . .
H44A H 0.9712 0.4433 0.2447 0.035 Uiso 1 1 calc R U
H44B H 0.9271 0.3341 0.2298 0.035 Uiso 1 1 calc R U
H44C H 0.9982 0.3373 0.3237 0.035 Uiso 1 1 calc R U
C45 C 0.2451(4) 0.5766(3) 0.7512(3) 0.0251(7) Uani 1 1 d . .
H45A H 0.1826 0.5797 0.7023 0.038 Uiso 1 1 calc R U
H45B H 0.2437 0.6493 0.7639 0.038 Uiso 1 1 calc R U
H45C H 0.2076 0.5326 0.8131 0.038 Uiso 1 1 calc R U
C46 C 0.2519(4) 0.0167(3) 0.8738(3) 0.0279(8) Uani 1 1 d . .
C47 C 0.8933(4) 0.6841(4) -0.0994(3) 0.0339(9) Uani 1 1 d . .
H47A H 0.9482 0.7364 -0.0873 0.051 Uiso 1 1 calc R U
H47B H 0.9160 0.6773 -0.1700 0.051 Uiso 1 1 calc R U
H47C H 0.9222 0.6143 -0.0604 0.051 Uiso 1 1 calc R U
C48 C 0.2692(5) 0.2769(4) 0.4772(4) 0.0423(11) Uani 1 1 d . .
H48 H 0.2466 0.2429 0.5436 0.051 Uiso 1 1 calc R U
C49 C 0.1603(4) 0.1689(3) 1.0371(4) 0.0356(9) Uani 1 1 d . .
H49A H 0.1218 0.2056 0.9775 0.053 Uiso 1 1 calc R U
H49B H 0.1693 0.2221 1.0765 0.053 Uiso 1 1 calc R U
H49C H 0.0924 0.1216 1.0766 0.053 Uiso 1 1 calc R U
C50 C 0.3139(5) 0.2172(4) 0.4002(5) 0.0522(15) Uani 1 1 d . .
H50 H 0.3247 0.1412 0.4145 0.063 Uiso 1 1 calc R U
C51 C 0.3907(5) 0.0552(3) 1.0986(3) 0.0298(8) Uani 1 1 d . .
H51A H 0.3266 0.0120 1.1478 0.045 Uiso 1 1 calc R U
H51B H 0.4067 0.1148 1.1277 0.045 Uiso 1 1 calc R U
H51C H 0.4859 0.0103 1.0783 0.045 Uiso 1 1 calc R U
C52 C 0.3278(4) 0.3816(4) 0.2783(4) 0.0355(9) Uani 1 1 d . .
H52 H 0.3450 0.4153 0.2113 0.043 Uiso 1 1 calc R U
C53 C 0.3436(5) 0.2666(4) 0.3013(5) 0.0501(14) Uani 1 1 d . .
H53 H 0.3742 0.2240 0.2495 0.060 Uiso 1 1 calc R U
C54 C 0.2384(5) -0.0880(4) 0.8416(3) 0.0399(10) Uani 1 1 d . .
H54A H 0.1534 -0.0758 0.8080 0.060 Uiso 1 1 calc R U
H54B H 0.2243 -0.1429 0.9001 0.060 Uiso 1 1 calc R U
H54C H 0.3287 -0.1124 0.7962 0.060 Uiso 1 1 calc R U
O16 O 0.9539(6) 0.4266(4) 0.0273(4) 0.0830(14) Uani 1 1 d . .
loop_
_atom_site_aniso_label
_atom_site_aniso_U_11
_atom_site_aniso_U_22
_atom_site_aniso_U_33
_atom_site_aniso_U_23
_atom_site_aniso_U_13
_atom_site_aniso_U_12
S001 0.0148(3) 0.0225(4) 0.0145(4) -0.0032(3) -0.0023(3) -0.0069(3)
O5 0.0247(13) 0.0223(12) 0.0182(12) -0.0011(10) -0.0006(10) -0.0081(10)
O4 0.0200(11) 0.0226(12) 0.0169(11) -0.0014(9) -0.0044(9) -0.0073(9)
O6 0.0218(12) 0.0271(12) 0.0181(12) -0.0080(10) -0.0041(10) 0.0041(9)
O3 0.0186(12) 0.0214(12) 0.0248(13) 0.0023(10) -0.0055(10) -0.0049(9)
O7 0.0194(11) 0.0284(13) 0.0187(12) -0.0006(10) -0.0057(9) -0.0052(9)
O14 0.0323(14) 0.0342(14) 0.0270(14) -0.0114(12) -0.0054(11) -0.0094(11)
C1 0.0089(13) 0.0146(14) 0.0184(15) -0.0075(12) -0.0004(11) -0.0034(10)
N6 0.0131(12) 0.0174(13) 0.0146(13) -0.0032(10) -0.0034(10) -0.0011(10)
O11 0.0247(14) 0.0451(16) 0.0282(14) 0.0050(12) -0.0074(11) -0.0072(12)
N3 0.0187(14) 0.0201(14) 0.0253(15) 0.0063(11) -0.0083(12) -0.0090(11)
N5 0.0157(12) 0.0155(12) 0.0165(13) -0.0014(10) -0.0040(11) -0.0025(10)
O2 0.0281(14) 0.0240(13) 0.0513(19) -0.0101(13) 0.0108(13) -0.0035(11)
N2 0.0186(13) 0.0132(12) 0.0247(15) -0.0013(11) -0.0028(11) -0.0037(10)
O1 0.0356(16) 0.0379(16) 0.0410(17) 0.0099(13) -0.0202(14) -0.0098(13)
O15 0.0401(17) 0.0321(15) 0.0439(18) -0.0180(13) 0.0008(14) -0.0147(13)
O8 0.0548(19) 0.0513(18) 0.0177(13) -0.0001(12) -0.0096(13) -0.0292(15)
N4 0.0151(12) 0.0212(13) 0.0122(12) -0.0006(10) -0.0026(10) -0.0059(10)
N7 0.0180(13) 0.0267(14) 0.0136(13) -0.0042(11) -0.0037(11) -0.0032(11)
N1 0.0208(14) 0.0220(14) 0.0253(15) 0.0007(12) -0.0062(12) -0.0074(11)
N8 0.0441(19) 0.0233(15) 0.0205(15) -0.0050(12) -0.0091(14) -0.0104(13)
O9 0.0377(16) 0.0369(16) 0.0478(19) 0.0003(14) -0.0164(15) -0.0075(13)
C2 0.0118(13) 0.0149(14) 0.0170(15) 0.0003(12) -0.0028(12) -0.0027(11)
C3 0.0139(14) 0.0133(14) 0.0195(15) -0.0025(12) -0.0024(12) -0.0028(11)
O12 0.0225(15) 0.0438(19) 0.093(3) -0.0229(19) 0.0002(17) -0.0070(13)
C4 0.0140(14) 0.0181(15) 0.0178(16) -0.0022(12) -0.0045(12) 0.0008(11)
C5 0.0163(15) 0.0181(15) 0.0174(15) -0.0002(12) -0.0062(12) -0.0041(12)
C6 0.0081(13) 0.0197(15) 0.0203(15) -0.0019(12) -0.0006(11) -0.0042(11)
C7 0.0149(14) 0.0202(15) 0.0153(15) -0.0024(12) -0.0012(12) 0.0001(12)
C8 0.0223(16) 0.0159(14) 0.0165(15) -0.0002(12) -0.0038(13) -0.0045(12)
C9 0.0188(15) 0.0202(15) 0.0187(16) -0.0016(13) -0.0039(13) -0.0045(12)
C10 0.0198(15) 0.0179(15) 0.0167(15) -0.0012(12) -0.0048(13) -0.0031(12)
C11 0.0134(14) 0.0201(15) 0.0147(15) -0.0032(12) -0.0035(11) -0.0053(11)
C12 0.0181(16) 0.0173(15) 0.0326(19) -0.0018(14) -0.0041(14) -0.0018(12)
C13 0.0188(16) 0.0223(16) 0.0170(15) 0.0018(13) -0.0035(13) -0.0070(12)
C14 0.0108(14) 0.0229(16) 0.0238(17) -0.0060(13) -0.0015(12) -0.0027(12)
C15 0.0254(17) 0.0195(16) 0.0254(18) 0.0022(13) -0.0097(14) -0.0068(13)
C16 0.0302(19) 0.0278(19) 0.030(2) 0.0020(15) -0.0159(16) -0.0101(15)
C17 0.0124(14) 0.0198(15) 0.0160(15) -0.0019(12) -0.0032(12) -0.0018(11)
C18 0.0199(16) 0.0200(16) 0.0211(16) 0.0045(13) -0.0083(13) -0.0058(12)
C19 0.0179(15) 0.0159(15) 0.0207(16) -0.0040(12) -0.0069(13) 0.0001(12)
C20 0.0147(14) 0.0178(14) 0.0139(14) 0.0007(12) -0.0023(12) -0.0067(11)
C21 0.0106(13) 0.0161(14) 0.0231(16) -0.0031(12) -0.0029(12) -0.0022(11)
C22 0.0164(15) 0.0268(17) 0.0225(17) -0.0047(14) -0.0075(13) -0.0042(13)
C23 0.0139(16) 0.0244(18) 0.044(2) -0.0010(16) -0.0065(15) -0.0019(13)
C24 0.0142(14) 0.0203(15) 0.0211(16) -0.0038(13) -0.0030(12) -0.0017(12)
C25 0.0135(15) 0.0187(15) 0.0268(17) -0.0018(13) -0.0038(13) -0.0037(12)
C26 0.0141(14) 0.0216(16) 0.0216(17) -0.0052(13) 0.0001(13) -0.0055(12)
C27 0.0122(14) 0.0224(16) 0.0313(18) -0.0021(14) -0.0065(13) -0.0052(12)
C28 0.0206(17) 0.0269(18) 0.0299(19) 0.0090(15) -0.0045(15) -0.0054(14)
C29 0.0248(17) 0.0159(15) 0.0275(18) -0.0013(13) -0.0090(14) -0.0035(13)
C30 0.0164(15) 0.0224(17) 0.0277(18) -0.0028(14) -0.0039(14) -0.0042(13)
C31 0.0274(18) 0.0238(17) 0.0276(19) -0.0036(14) -0.0096(15) -0.0045(14)
C32 0.0210(16) 0.0299(18) 0.0127(15) -0.0066(13) 0.0000(12) -0.0047(14)
O10 0.034(2) 0.041(2) 0.225(7) 0.041(3) -0.041(3) -0.0222(17)
C33 0.033(2) 0.0303(19) 0.031(2) -0.0112(16) -0.0095(17) -0.0045(15)
C34 0.0196(16) 0.0226(16) 0.0222(17) -0.0029(13) -0.0047(14) -0.0022(13)
C35 0.0302(19) 0.038(2) 0.0245(19) -0.0075(16) -0.0080(15) -0.0089(16)
C36 0.0193(16) 0.0261(18) 0.0258(19) -0.0059(15) 0.0022(14) -0.0049(14)
C37 0.0215(18) 0.0296(19) 0.042(2) 0.0054(17) -0.0124(16) -0.0093(15)
C38 0.0260(18) 0.0304(18) 0.0174(16) -0.0073(14) -0.0015(14) -0.0040(15)
C39 0.0166(16) 0.036(2) 0.0178(17) -0.0001(15) 0.0006(13) -0.0050(14)
C40 0.0241(17) 0.0247(17) 0.0289(19) -0.0044(14) -0.0111(15) -0.0041(13)
C41 0.033(2) 0.0314(19) 0.0189(17) -0.0047(15) -0.0016(15) -0.0067(15)
C42 0.0183(17) 0.0198(17) 0.048(2) 0.0071(16) -0.0055(16) -0.0021(13)
C43 0.0247(17) 0.0195(15) 0.0165(16) -0.0007(12) -0.0034(13) -0.0039(13)
O13 0.101(3) 0.0368(19) 0.069(3) -0.0210(19) -0.004(2) -0.006(2)
C44 0.0155(16) 0.0245(17) 0.0285(19) -0.0091(15) -0.0045(14) 0.0051(13)
C45 0.0214(17) 0.0275(18) 0.0222(17) 0.0035(14) 0.0024(14) -0.0076(14)
C46 0.0248(18) 0.0335(19) 0.0266(19) 0.0058(15) -0.0097(15) -0.0118(15)
C47 0.0242(19) 0.052(3) 0.0251(19) -0.0141(18) -0.0029(16) 0.0001(17)
C48 0.029(2) 0.032(2) 0.067(3) 0.013(2) -0.021(2) -0.0133(17)
C49 0.0230(19) 0.030(2) 0.049(3) -0.0109(19) 0.0085(18) -0.0059(15)
C50 0.027(2) 0.027(2) 0.106(5) 0.002(3) -0.022(3) -0.0105(17)
C51 0.032(2) 0.038(2) 0.0226(18) -0.0073(16) -0.0016(16) -0.0124(16)
C52 0.0255(19) 0.037(2) 0.050(3) -0.019(2) -0.0043(18) -0.0091(16)
C53 0.028(2) 0.041(3) 0.091(4) -0.038(3) -0.009(2) -0.0051(19)
C54 0.049(3) 0.046(2) 0.033(2) -0.0009(19) -0.020(2) -0.020(2)
O16 0.092(4) 0.064(3) 0.085(4) -0.004(3) -0.018(3) 0.003(2)
loop_
_atom_type_symbol
_atom_type_description
_atom_type_scat_dispersion_real
_atom_type_scat_dispersion_imag
_atom_type_scat_source
C C 0.0033 0.0016 'International Tables Vol C Tables 4.2.6.8 and 6.1.1.4'
H H 0.0000 0.0000 'International Tables Vol C Tables 4.2.6.8 and 6.1.1.4'
N N 0.0061 0.0033 'International Tables Vol C Tables 4.2.6.8 and 6.1.1.4'
O O 0.0106 0.0060 'International Tables Vol C Tables 4.2.6.8 and 6.1.1.4'
S S 0.1246 0.1234 'International Tables Vol C Tables 4.2.6.8 and 6.1.1.4'
loop_
_geom_angle_atom_site_label_1
_geom_angle_atom_site_label_2
_geom_angle_atom_site_label_3
_geom_angle
C21 S001 C11 100.12(14)
O15 C1 O14 123.0(3)
O15 C1 C14 118.0(3)
O14 C1 C14 119.1(3)
C3 N6 C17 123.7(3)
C18 N3 C13 120.8(3)
C4 N5 C19 123.1(3)
C30 N2 C9 123.6(3)
C2 N4 C20 123.0(3)
C8 N7 C32 123.3(3)
C46 N1 C36 123.2(3)
O4 C2 N4 123.7(3)
O4 C2 C13 121.6(3)
N4 C2 C13 114.6(3)
O6 C3 N6 124.3(3)
O6 C3 C19 120.0(3)
N6 C3 C19 115.4(3)
O5 C4 N5 123.5(3)
O5 C4 C5 121.7(3)
N5 C4 C5 114.8(3)
C4 C5 C11 112.0(2)
C26 C6 C14 115.4(3)
C26 C6 C21 118.6(3)
C14 C6 C21 126.0(3)
C17 C7 C10 113.2(3)
O7 C8 N7 122.7(3)
O7 C8 C10 121.0(3)
N7 C8 C10 116.2(3)
N2 C9 C43 110.2(3)
N2 C9 C34 110.7(3)
C43 C9 C34 112.9(3)
C8 C10 C7 110.7(3)
C5 C11 C20 113.5(2)
C5 C11 S001 109.3(2)
C20 C11 S001 110.3(2)
C28 C12 C14 119.5(3)
N3 C13 C45 109.5(3)
N3 C13 C2 110.8(3)
C45 C13 C2 110.6(3)
C12 C14 C6 122.8(3)
C12 C14 C1 115.8(3)
C6 C14 C1 121.3(3)
C18 C15 C43 109.3(3)
C35 C16 C40 119.7(4)
N6 C17 C7 110.9(2)
N6 C17 C24 109.2(3)
C7 C17 C24 111.5(3)
O3 C18 N3 121.5(3)
O3 C18 C15 120.6(3)
N3 C18 C15 117.9(3)
N5 C19 C29 106.9(3)
N5 C19 C3 110.9(2)
C29 C19 C3 106.4(2)
N5 C19 C44 110.3(2)
C29 C19 C44 110.8(3)
C3 C19 C44 111.4(3)
N4 C20 C11 110.7(2)
N4 C20 C25 111.7(3)
C11 C20 C25 114.1(2)
C6 C21 S001 112.1(2)
C31 C22 C40 118.4(3)
C31 C22 C34 120.5(3)
C40 C22 C34 121.0(3)
C27 C24 C17 113.7(3)
C42 C25 C20 112.0(3)
C42 C25 C23 109.4(3)
C20 C25 C23 110.4(3)
C39 C26 C6 122.7(3)
C52 C27 C37 118.4(4)
C52 C27 C24 121.1(4)
C37 C27 C24 120.5(3)
C12 C28 C39 119.7(3)
O2 C30 N2 123.1(3)
O2 C30 C36 121.2(3)
N2 C30 C36 115.4(3)
C33 C31 C22 120.8(4)
N7 C32 C47 107.2(3)
N7 C32 C41 111.7(3)
C47 C32 C41 109.1(3)
N7 C32 C38 111.3(3)
C47 C32 C38 107.5(3)
C41 C32 C38 109.8(3)
C35 C33 C31 120.5(4)
C22 C34 C9 112.0(3)
C33 C35 C16 119.6(4)
N1 C36 C51 107.2(3)
N1 C36 C49 110.8(3)
C51 C36 C49 110.7(3)
N1 C36 C30 111.1(3)
C51 C36 C30 106.1(3)
C49 C36 C30 110.8(3)
C48 C37 C27 121.8(4)
O8 C38 N8 121.8(3)
O8 C38 C32 119.7(3)
N8 C38 C32 118.4(3)
C26 C39 C28 119.8(3)
C16 C40 C22 120.9(3)
C9 C43 C15 111.6(3)
O1 C46 N1 121.7(4)
O1 C46 C54 122.2(3)
N1 C46 C54 116.1(3)
C50 C48 C37 118.9(5)
C53 C50 C48 121.2(4)
C27 C52 C53 119.4(5)
C50 C53 C52 120.2(5)
loop_
_geom_bond_atom_site_label_1
_geom_bond_atom_site_label_2
_geom_bond_distance
S001 C21 1.815(3)
S001 C11 1.825(3)
O5 C4 1.226(4)
O4 C2 1.233(4)
O6 C3 1.231(4)
O3 C18 1.244(4)
O7 C8 1.247(4)
O14 C1 1.223(4)
C1 O15 1.224(4)
C1 C14 1.472(4)
N6 C3 1.332(4)
N6 C17 1.467(4)
N3 C18 1.323(5)
N3 C13 1.460(4)
N5 C4 1.347(4)
N5 C19 1.469(4)
O2 C30 1.220(4)
N2 C30 1.332(5)
N2 C9 1.460(4)
O1 C46 1.228(5)
O8 C38 1.225(4)
N4 C2 1.346(4)
N4 C20 1.463(4)
N7 C8 1.330(4)
N7 C32 1.467(4)
N1 C46 1.351(4)
N1 C36 1.466(4)
N8 C38 1.333(5)
C2 C13 1.530(4)
C3 C19 1.543(4)
C4 C5 1.514(4)
C5 C11 1.533(4)
C6 C26 1.400(5)
C6 C14 1.408(4)
C6 C21 1.498(5)
C7 C17 1.520(4)
C7 C10 1.534(5)
C8 C10 1.520(4)
C9 C43 1.529(4)
C9 C34 1.541(4)
C11 C20 1.540(4)
C12 C28 1.384(5)
C12 C14 1.384(5)
C13 C45 1.522(5)
C15 C18 1.514(5)
C15 C43 1.540(5)
C16 C35 1.391(5)
C16 C40 1.396(5)
C17 C24 1.536(5)
C19 C29 1.538(5)
C19 C44 1.533(5)
C20 C25 1.539(4)
C22 C31 1.391(5)
C22 C40 1.396(5)
C22 C34 1.511(5)
C23 C25 1.531(4)
C24 C27 1.513(5)
C25 C42 1.522(5)
C26 C39 1.383(5)
C27 C52 1.387(5)
C27 C37 1.390(6)
C28 C39 1.385(5)
C30 C36 1.553(5)
C31 C33 1.386(6)
C32 C47 1.533(5)
C32 C41 1.524(5)
C32 C38 1.542(5)
C33 C35 1.382(6)
C36 C51 1.527(5)
C36 C49 1.535(5)
C37 C48 1.394(6)
C46 C54 1.501(6)
C48 C50 1.352(8)
C50 C53 1.376(9)
C52 C53 1.409(7)
