#------------------------------------------------------------------------------
#$Date: 2016-02-18 17:37:37 +0200 (Thu, 18 Feb 2016) $
#$Revision: 176729 $
#$URL: svn://www.crystallography.net/cod/cif/1/51/85/1518568.cif $
#------------------------------------------------------------------------------
#
# This file is available in the Crystallography Open Database (COD),
# http://www.crystallography.net/
#
# All data on this site have been placed in the public domain by the
# contributors.
#
data_1518568
loop_
_publ_author_name
'Scully, Stephen S.'
'Zheng, Shao-Liang'
'Wagner, Bridget K.'
'Schreiber, Stuart L.'
_publ_section_title
;
 Synthesis of Oxazocenones via Gold(I)-Catalyzed 8-Endo-Dig
 Hydroalkoxylation of Alkynamides.
;
_journal_issue                   3
_journal_name_full               'Organic letters'
_journal_page_first              418
_journal_page_last               421
_journal_paper_doi               10.1021/ol503273v
_journal_volume                  17
_journal_year                    2015
_chemical_absolute_configuration ad
_chemical_formula_sum            'C31 H37 N5 O8 S'
_chemical_formula_weight         639.71
_chemical_name_systematic
;
 ?
;
_space_group_crystal_system      monoclinic
_space_group_IT_number           4
_space_group_name_Hall           'P 2yb'
_space_group_name_H-M_alt        'P 1 21 1'
_symmetry_space_group_name_Hall  'P 2yb'
_symmetry_space_group_name_H-M   'P 1 21 1'
_atom_sites_solution_hydrogens   mixed
_audit_creation_method           SHELXL-2014
_cell_angle_alpha                90
_cell_angle_beta                 100.907(3)
_cell_angle_gamma                90
_cell_formula_units_Z            4
_cell_length_a                   10.9519(5)
_cell_length_b                   18.6953(7)
_cell_length_c                   14.8640(6)
_cell_measurement_reflns_used    6741
_cell_measurement_temperature    100(2)
_cell_measurement_theta_max      66.6
_cell_measurement_theta_min      3.02
_cell_volume                     2988.4(2)
_computing_cell_refinement       'SAINT 8.34A (Bruker-AXS, 2014)'
_computing_data_collection       'APEX2 v2014.3.0 (Bruker-AXS, 2014)'
_computing_data_reduction        'SAINT 8.34A (Bruker-AXS, 2014)'
_computing_molecular_graphics    'Bruker SHELXTL (Sheldrick, 2008)'
_computing_publication_material  'Bruker SHELXTL (Sheldrick, 2008)'
_computing_structure_refinement  'SHELXL-2014 (Sheldrick, 2008)'
_computing_structure_solution    'SHELXS-2014 (Sheldrick, 2008)'
_diffrn_ambient_temperature      100(2)
_diffrn_measured_fraction_theta_full 0.968
_diffrn_measured_fraction_theta_max 0.988
_diffrn_measurement_device_type
;
Bruker D8 goniometer with CCD area detector  
;
_diffrn_measurement_method       'omega and phi scans'
_diffrn_radiation_monochromator  graphite
_diffrn_radiation_source         'I\mS microfocus tube'
_diffrn_radiation_type           CuK\a
_diffrn_radiation_wavelength     1.54178
_diffrn_reflns_av_R_equivalents  0.1081
_diffrn_reflns_av_unetI/netI     0.0887
_diffrn_reflns_Laue_measured_fraction_full 0.968
_diffrn_reflns_Laue_measured_fraction_max 0.988
_diffrn_reflns_limit_h_max       13
_diffrn_reflns_limit_h_min       -13
_diffrn_reflns_limit_k_max       19
_diffrn_reflns_limit_k_min       -22
_diffrn_reflns_limit_l_max       17
_diffrn_reflns_limit_l_min       -17
_diffrn_reflns_number            9443
_diffrn_reflns_point_group_measured_fraction_full 0.875
_diffrn_reflns_point_group_measured_fraction_max 0.892
_diffrn_reflns_theta_full        67.679
_diffrn_reflns_theta_max         66.755
_diffrn_reflns_theta_min         3.028
_exptl_absorpt_coefficient_mu    1.483
_exptl_absorpt_correction_T_max  0.752819
_exptl_absorpt_correction_T_min  0.442811
_exptl_absorpt_correction_type   multi-scan
_exptl_absorpt_process_details   TWINABS
_exptl_crystal_colour            colorless
_exptl_crystal_density_diffrn    1.422
_exptl_crystal_description       needle
_exptl_crystal_F_000             1352
_exptl_crystal_size_max          0.320
_exptl_crystal_size_mid          0.080
_exptl_crystal_size_min          0.060
_refine_diff_density_max         0.276
_refine_diff_density_min         -0.533
_refine_diff_density_rms         0.068
_refine_ls_abs_structure_details
;
 Flack x determined using 3038 quotients [(I+)-(I-)]/[(I+)+(I-)]
 (Parsons, Flack and Wagner, Acta Cryst. B69 (2013) 249-259).
;
_refine_ls_abs_structure_Flack   0.035(15)
_refine_ls_extinction_method     none
_refine_ls_goodness_of_fit_ref   1.023
_refine_ls_hydrogen_treatment    mixed
_refine_ls_matrix_type           full
_refine_ls_number_parameters     837
_refine_ls_number_reflns         9443
_refine_ls_number_restraints     1
_refine_ls_restrained_S_all      1.023
_refine_ls_R_factor_all          0.0692
_refine_ls_R_factor_gt           0.0591
_refine_ls_shift/su_max          0.000
_refine_ls_shift/su_mean         0.000
_refine_ls_structure_factor_coef Fsqd
_refine_ls_weighting_details
'w=1/[\s^2^(Fo^2^)+(0.0660P)^2^+2.5520P] where P=(Fo^2^+2Fc^2^)/3'
_refine_ls_weighting_scheme      calc
_refine_ls_wR_factor_gt          0.1409
_refine_ls_wR_factor_ref         0.1474
_reflns_Friedel_coverage         0.748
_reflns_Friedel_fraction_full    0.774
_reflns_Friedel_fraction_max     0.790
_reflns_number_gt                8410
_reflns_number_total             9443
_reflns_threshold_expression     'I > 2\s(I)'
_cod_data_source_file            ol503273v_si_004.cif
_cod_data_source_block           SSS-1-73c
_cod_depositor_comments
'Adding full bibliography for 1518568--1518572.cif.'
_cod_database_code               1518568
#BEGIN Tags that were not found in dictionaries:
_shelx_space_group_comment
;
The symmetry employed for this shelxl refinement is uniquely defined
by the following loop, which should always be used as a source of
symmetry information in preference to the above space-group names.
They are only intended as comments.
;
_shelx_estimated_absorpt_t_min   0.648
_shelx_estimated_absorpt_t_max   0.916
_shelxl_version_number           2014-3
_shelx_res_file
;
TITL zsl in P2(1)
CELL 1.54178 10.9519 18.6953 14.864 90 100.9069 90
ZERR 4 0.0005 0.0007 0.0006 0 0.0029 0
LATT -1
SYMM -X,0.5+Y,-Z

SFAC C H N O S
UNIT 124 148 20 32 4

L.S. 4
PLAN  -1
SIZE 0.06 0.08 0.32
TEMP -173.15
HTAB  N2 O13
HTAB  N3 O13
REM Solution 1 R1 0.129 Rweak 0.038, Alpha = 0.0063 in P2(1)
BOND $H
CONF
LIST 4
fmap 2
acta
MERG 0
REM <HKL>G:/zsl/Schreiber/SScully1405/work/twin4.hkl</HKL>

WGHT    0.066000    2.552000
FVAR       0.50677
C1    1   -0.904409   -0.243777   -0.848177    11.00000    0.03265    0.01238 =
         0.03195   -0.00141    0.00955   -0.00225
C2    1   -0.978749   -0.275648   -0.789321    11.00000    0.03605    0.01486 =
         0.02708   -0.00200    0.00634    0.00038
C3    1   -1.102815   -0.261055   -0.801553    11.00000    0.03651    0.02261 =
         0.03348   -0.00280    0.00946    0.00028
AFIX  43
H3    2   -1.152415   -0.283757   -0.763950    11.00000   -1.20000
AFIX   0
C4    1   -1.157867   -0.212239   -0.870028    11.00000    0.03532    0.02085 =
         0.03784   -0.00283    0.00776    0.00226
AFIX  43
H4    2   -1.244039   -0.201821   -0.876920    11.00000   -1.20000
AFIX   0
C5    1   -1.090300   -0.180018   -0.926007    11.00000    0.03901    0.01848 =
         0.03057   -0.00282   -0.00212    0.00396
AFIX  43
H5    2   -1.129130   -0.147302   -0.971450    11.00000   -1.20000
AFIX   0
C6    1   -0.962222   -0.195050   -0.916821    11.00000    0.03964    0.01144 =
         0.02918   -0.00104    0.00259   -0.00356
C7    1   -0.888234   -0.166298   -0.976209    11.00000    0.04799    0.01663 =
         0.02912    0.00151    0.00374   -0.00128
AFIX  43
H7    2   -0.923230   -0.133845   -1.023251    11.00000   -1.20000
AFIX   0
C8    1   -0.766802   -0.185378   -0.965564    11.00000    0.04153    0.02556 =
         0.03042    0.00550    0.01130   -0.00622
AFIX  43
H8    2   -0.715762   -0.166919   -1.005161    11.00000   -1.20000
AFIX   0
C9    1   -0.718164   -0.233058   -0.894659    11.00000    0.03573    0.02593 =
         0.03821    0.00287    0.00878   -0.00332
AFIX  43
H9    2   -0.632995   -0.245887   -0.888033    11.00000   -1.20000
AFIX   0
C10   1   -0.967635   -0.357173   -0.654992    11.00000    0.02932    0.01566 =
         0.03268   -0.00005    0.00995    0.00089
C11   1   -0.916788   -0.418304   -0.508334    11.00000    0.03621    0.01739 =
         0.03304    0.00083    0.01239   -0.00401
AFIX  23
H11A  2   -0.985245   -0.388461   -0.493917    11.00000   -1.20000
H11B  2   -0.845595   -0.413511   -0.456616    11.00000   -1.20000
AFIX   0
C12   1   -0.958668   -0.495191   -0.513359    11.00000    0.02501    0.02407 =
         0.02308    0.00155    0.00498   -0.00220
C13   1   -0.930623   -0.541233   -0.574687    11.00000    0.02743    0.01852 =
         0.02946   -0.00096    0.00885   -0.00342
AFIX  43
H13A  2   -0.880140   -0.519962   -0.612761    11.00000   -1.20000
AFIX   0
C14   1   -0.958510   -0.618247   -0.598974    11.00000    0.03093    0.01981 =
         0.02246   -0.00401    0.00514    0.00028
C15   1   -1.169254   -0.604733   -0.568584    11.00000    0.03041    0.01654 =
         0.03033    0.00001    0.00175   -0.00287
AFIX  23
H15A  2   -1.250823   -0.623732   -0.599508    11.00000   -1.20000
H15B  2   -1.163473   -0.554601   -0.588821    11.00000   -1.20000
AFIX   0
C16   1   -1.164482   -0.605314   -0.464207    11.00000    0.02964    0.02090 =
         0.03171   -0.00219    0.01041    0.00086
AFIX  13
H16   2   -1.226712   -0.569284   -0.451776    11.00000   -1.20000
AFIX   0
C17   1   -1.038582   -0.579539   -0.414899    11.00000    0.03496    0.01329 =
         0.02841   -0.00005    0.01178    0.00095
AFIX  13
H17   2   -0.971941   -0.611625   -0.429545    11.00000   -1.20000
AFIX   0
C18   1   -1.028603   -0.574721   -0.310954    11.00000    0.02921    0.02309 =
         0.03342    0.00339    0.01151    0.00106
AFIX  23
H18A  2   -1.101053   -0.548024   -0.297368    11.00000   -1.20000
H18B  2   -1.030969   -0.623545   -0.285553    11.00000   -1.20000
AFIX   0
C19   1   -0.856702   -0.455758   -0.119236    11.00000    0.03168    0.01730 =
         0.02805   -0.00434    0.00224    0.00210
C20   1   -0.926527   -0.491459   -0.065746    11.00000    0.03872    0.01878 =
         0.03046   -0.00004    0.00553   -0.00169
AFIX  43
H20   2   -0.998566   -0.517448   -0.093106    11.00000   -1.20000
AFIX   0
C21   1   -0.889698   -0.488865    0.029635    11.00000    0.03578    0.01928 =
         0.02966   -0.00132    0.00372   -0.00252
C22   1   -0.942704   -0.495245    0.172896    11.00000    0.05817    0.03289 =
         0.02553   -0.00478    0.01204   -0.01232
AFIX  23
H22A  2   -0.985587   -0.525935    0.211454    11.00000   -1.20000
H22B  2   -0.977863   -0.446430    0.172386    11.00000   -1.20000
AFIX   0
C23   1   -0.807837   -0.493217    0.211635    11.00000    0.05458    0.03927 =
         0.02854    0.00355    0.00646   -0.00265
AFIX  23
H23A  2   -0.795274   -0.477278    0.276248    11.00000   -1.20000
H23B  2   -0.772934   -0.541998    0.210672    11.00000   -1.20000
AFIX   0
C24   1   -0.784083   -0.450443    0.067340    11.00000    0.03385    0.02332 =
         0.02516   -0.00234    0.00279    0.00099
C25   1   -0.714818   -0.414468    0.013311    11.00000    0.02886    0.03551 =
         0.03190   -0.00619    0.00255   -0.00437
AFIX  43
H25   2   -0.642451   -0.388791    0.040739    11.00000   -1.20000
AFIX   0
C26   1   -0.751516   -0.415980   -0.081642    11.00000    0.03629    0.02617 =
         0.03726   -0.00143    0.00967   -0.00383
AFIX  43
H26   2   -0.706110   -0.390580   -0.119866    11.00000   -1.20000
AFIX   0
C27   1   -1.104346   -0.712440   -0.653346    11.00000    0.03082    0.01700 =
         0.03363   -0.00798    0.00271    0.00494
AFIX  13
H27   2   -1.026007   -0.739766   -0.653938    11.00000   -1.20000
AFIX   0
C28   1   -1.159188   -0.691551   -0.751789    11.00000    0.03548    0.02179 =
         0.03460   -0.00672    0.00787   -0.00043
AFIX  23
H28A  2   -1.178115   -0.735545   -0.788876    11.00000   -1.20000
H28B  2   -1.238416   -0.665785   -0.752828    11.00000   -1.20000
AFIX   0
C29   1   -1.193224   -0.761454   -0.617236    11.00000    0.04280    0.01693 =
         0.03619   -0.00511    0.00741   -0.00280
AFIX 137
H29A  2   -1.208000   -0.804224   -0.655886    11.00000   -1.50000
H29B  2   -1.272133   -0.736508   -0.618087    11.00000   -1.50000
H29C  2   -1.157312   -0.775492   -0.554263    11.00000   -1.50000
AFIX   0
C30   1   -1.199623   -0.676661   -0.424932    11.00000    0.03613    0.02408 =
         0.03659   -0.00162    0.00998   -0.00797
AFIX 137
H30A  2   -1.133522   -0.711724   -0.426435    11.00000   -1.50000
H30B  2   -1.277651   -0.694197   -0.461763    11.00000   -1.50000
H30C  2   -1.210148   -0.669643   -0.361507    11.00000   -1.50000
AFIX   0
C31   1   -0.795672   -0.570572   -0.276774    11.00000    0.03004    0.02130 =
         0.03910    0.00131    0.00554    0.00186
AFIX 137
H31A  2   -0.776436   -0.556396   -0.336022    11.00000   -1.50000
H31B  2   -0.801088   -0.622820   -0.273932    11.00000   -1.50000
H31C  2   -0.729858   -0.553547   -0.227336    11.00000   -1.50000
AFIX   0
N1    3   -0.781652   -0.261114   -0.837027    11.00000    0.03386    0.01992 =
         0.03016    0.00204    0.00686   -0.00147
N2    3   -0.915546   -0.322201   -0.720792    11.00000    0.02983    0.01918 =
         0.02811    0.00500    0.00863    0.00344
H2    2   -0.842150   -0.327037   -0.713612    11.00000   -1.20000
N3    3   -0.880276   -0.389671   -0.589286    11.00000    0.02805    0.02440 =
         0.03130    0.00396    0.01147   -0.00367
H3A   2   -0.814849   -0.382956   -0.590451    11.00000   -1.20000
N4    3   -1.070802   -0.646486   -0.598167    11.00000    0.02853    0.01240 =
         0.03085   -0.00363    0.00429    0.00055
N5    3   -0.914449   -0.539178   -0.266380    11.00000    0.03082    0.01724 =
         0.03339   -0.00568    0.00487   -0.00571
O1    4   -1.077010   -0.358811   -0.653726    11.00000    0.02836    0.03438 =
         0.03984    0.00685    0.01239   -0.00109
O2    4   -1.018691   -0.506821   -0.443955    11.00000    0.03077    0.01501 =
         0.02834    0.00102    0.01260   -0.00384
O3    4   -0.875553   -0.652271   -0.627328    11.00000    0.03186    0.02752 =
         0.03552   -0.00746    0.00755    0.00224
O4    4   -1.038365   -0.430947   -0.255749    11.00000    0.03460    0.02357 =
         0.03277   -0.00211    0.00873   -0.00045
O5    4   -0.822976   -0.418050   -0.279248    11.00000    0.03922    0.02295 =
         0.03194    0.00129    0.00654    0.00076
O6    4   -0.962524   -0.523087    0.080909    11.00000    0.06336    0.03022 =
         0.02633   -0.00219    0.01380   -0.01790
O7    4   -0.743222   -0.446097    0.161411    11.00000    0.04520    0.03551 =
         0.02679   -0.00155    0.00175   -0.00889
O8    4   -1.078268   -0.647398   -0.792658    11.00000    0.04234    0.02879 =
         0.03183   -0.00284    0.00983   -0.00296
H8A   2   -1.004103   -0.671290   -0.794419    11.00000    0.04186
S1    5   -0.912540   -0.455160   -0.238938    11.00000    0.02987    0.01817 =
         0.02675    0.00065    0.00682   -0.00033

C41   1   -0.733661   -0.757496   -0.846899    11.00000    0.03601    0.01602 =
         0.02936    0.00273    0.00630   -0.00196
C42   1   -0.628630   -0.720282   -0.793482    11.00000    0.03610    0.01521 =
         0.03155    0.00212    0.00406    0.00037
C43   1   -0.515315   -0.727021   -0.816292    11.00000    0.03393    0.02245 =
         0.04135    0.00364    0.00648    0.00048
AFIX  43
H43   2   -0.446344   -0.702458   -0.781370    11.00000   -1.20000
AFIX   0
C44   1   -0.497448   -0.770144   -0.891498    11.00000    0.03520    0.02901 =
         0.04176    0.00373    0.01202    0.00520
AFIX  43
H44   2   -0.417025   -0.773428   -0.906405    11.00000   -1.20000
AFIX   0
C45   1   -0.594392   -0.807084   -0.942891    11.00000    0.04414    0.02408 =
         0.03717    0.00174    0.01522    0.00702
AFIX  43
H45   2   -0.581095   -0.835898   -0.992796    11.00000   -1.20000
AFIX   0
C46   1   -0.713550   -0.802008   -0.921203    11.00000    0.04535    0.01472 =
         0.03225    0.00686    0.00634    0.00189
C47   1   -0.819298   -0.837728   -0.970726    11.00000    0.04837    0.01745 =
         0.03007    0.00135    0.00181   -0.00072
AFIX  43
H47   2   -0.811417   -0.867065   -1.021501    11.00000   -1.20000
AFIX   0
C48   1   -0.929927   -0.830438   -0.946519    11.00000    0.03898    0.01929 =
         0.03440   -0.00301    0.00018   -0.00247
AFIX  43
H48   2   -1.000231   -0.855391   -0.978961    11.00000   -1.20000
AFIX   0
C49   1   -0.941879   -0.785355   -0.872304    11.00000    0.04067    0.02276 =
         0.03556    0.00298    0.01237   -0.00129
AFIX  43
H49   2   -1.021496   -0.780691   -0.856343    11.00000   -1.20000
AFIX   0
C50   1   -0.569356   -0.645387   -0.653614    11.00000    0.03297    0.01866 =
         0.03146    0.00198    0.00579   -0.00426
C51   1   -0.542676   -0.583288   -0.507234    11.00000    0.03367    0.02691 =
         0.02715   -0.00177    0.00148   -0.00849
AFIX  23
H51A  2   -0.466260   -0.612774   -0.494553    11.00000   -1.20000
H51B  2   -0.586582   -0.589837   -0.455397    11.00000   -1.20000
AFIX   0
C52   1   -0.505152   -0.505292   -0.510349    11.00000    0.02795    0.01923 =
         0.02557   -0.00058    0.00388   -0.00334
C53   1   -0.562308   -0.458899   -0.572028    11.00000    0.02703    0.02427 =
         0.03192   -0.00095    0.00907   -0.00871
AFIX  43
H53   2   -0.628409   -0.480861   -0.613411    11.00000   -1.20000
AFIX   0
C54   1   -0.550460   -0.381866   -0.593563    11.00000    0.03291    0.02817 =
         0.02897    0.00512    0.00948   -0.00099
C55   1   -0.323592   -0.391767   -0.560410    11.00000    0.02858    0.02401 =
         0.02803    0.00064    0.01006   -0.00041
AFIX  23
H55A  2   -0.257427   -0.370543   -0.589026    11.00000   -1.20000
H55B  2   -0.337471   -0.441323   -0.583564    11.00000   -1.20000
AFIX   0
C56   1   -0.277421   -0.394403   -0.455338    11.00000    0.02815    0.01648 =
         0.02771   -0.00225    0.00152    0.00100
AFIX  13
H56   2   -0.207486   -0.429615   -0.443439    11.00000   -1.20000
AFIX   0
C57   1   -0.377220   -0.421883   -0.407382    11.00000    0.02817    0.01259 =
         0.02688   -0.00341    0.00041   -0.00175
AFIX  13
H57   2   -0.451848   -0.390060   -0.420755    11.00000   -1.20000
AFIX   0
C58   1   -0.332107   -0.428445   -0.303321    11.00000    0.02658    0.01935 =
         0.03119   -0.00275    0.00300   -0.00031
AFIX  23
H58A  2   -0.252981   -0.455506   -0.291680    11.00000   -1.20000
H58B  2   -0.314738   -0.379930   -0.277348    11.00000   -1.20000
AFIX   0
C59   1   -0.430365   -0.548806   -0.113587    11.00000    0.03031    0.02285 =
         0.02852   -0.00256    0.00811    0.00299
C60   1   -0.353938   -0.506799   -0.049319    11.00000    0.03825    0.02228 =
         0.03378    0.00299    0.01326   -0.00348
AFIX  43
H60   2   -0.293034   -0.476438   -0.067002    11.00000   -1.20000
AFIX   0
C61   1   -0.368584   -0.510164    0.042010    11.00000    0.04158    0.02151 =
         0.03126   -0.00484    0.00999    0.00032
C62   1   -0.284379   -0.492801    0.197600    11.00000    0.06445    0.02789 =
         0.02643   -0.00135    0.00661   -0.00797
AFIX  23
H62A  2   -0.240738   -0.456842    0.241015    11.00000   -1.20000
H62B  2   -0.236327   -0.537929    0.206695    11.00000   -1.20000
AFIX   0
C63   1   -0.410303   -0.504919    0.216219    11.00000    0.06236    0.02111 =
         0.03343   -0.00430    0.01009   -0.00274
AFIX  23
H63A  2   -0.404399   -0.520363    0.280607    11.00000   -1.20000
H63B  2   -0.458002   -0.459654    0.207633    11.00000   -1.20000
AFIX   0
C64   1   -0.456780   -0.553405    0.067532    11.00000    0.04516    0.02198 =
         0.02849    0.00176    0.01552    0.00195
C65   1   -0.532407   -0.596194    0.002360    11.00000    0.03571    0.02985 =
         0.03526    0.00423    0.01169   -0.00155
AFIX  43
H65   2   -0.592499   -0.626980    0.020350    11.00000   -1.20000
AFIX   0
C66   1   -0.519120   -0.593428   -0.089352    11.00000    0.03112    0.02512 =
         0.02754    0.00127    0.00763   -0.00150
AFIX  43
H66   2   -0.570461   -0.621859   -0.134277    11.00000   -1.20000
AFIX   0
C67   1   -0.437075   -0.281754   -0.639873    11.00000    0.03591    0.02098 =
         0.03389    0.00933    0.00747   -0.00392
AFIX  13
H67   2   -0.516735   -0.256305   -0.637565    11.00000   -1.20000
AFIX   0
C68   1   -0.433720   -0.296736   -0.740378    11.00000    0.03282    0.03001 =
         0.03221    0.00569    0.00447   -0.00494
AFIX  23
H68A  2   -0.442085   -0.250785   -0.774089    11.00000   -1.20000
H68B  2   -0.351447   -0.317092   -0.744313    11.00000   -1.20000
AFIX   0
C69   1   -0.331293   -0.231652   -0.601700    11.00000    0.04334    0.02099 =
         0.04013    0.00294    0.01007   -0.00100
AFIX 137
H69A  2   -0.337552   -0.188210   -0.639192    11.00000   -1.50000
H69B  2   -0.251776   -0.255386   -0.602702    11.00000   -1.50000
H69C  2   -0.336085   -0.218934   -0.538501    11.00000   -1.50000
AFIX   0
C70   1   -0.225907   -0.322910   -0.414629    11.00000    0.03568    0.02007 =
         0.03730    0.00000    0.00548   -0.00931
AFIX 137
H70A  2   -0.295000   -0.290886   -0.409238    11.00000   -1.50000
H70B  2   -0.174872   -0.301076   -0.454730    11.00000   -1.50000
H70C  2   -0.174861   -0.330984   -0.353848    11.00000   -1.50000
AFIX   0
C71   1   -0.545427   -0.433305   -0.266086    11.00000    0.03120    0.03047 =
         0.03400    0.00343    0.01052    0.00318
AFIX 137
H71A  2   -0.593799   -0.446582   -0.326152    11.00000   -1.50000
H71B  2   -0.539471   -0.381084   -0.261481    11.00000   -1.50000
H71C  2   -0.586659   -0.451758   -0.217813    11.00000   -1.50000
AFIX   0
N11   3   -0.847680   -0.749266   -0.823859    11.00000    0.03346    0.02028 =
         0.03008    0.00031    0.00492   -0.00309
N12   3   -0.655515   -0.678797   -0.720893    11.00000    0.02829    0.02200 =
         0.03447   -0.00509    0.00727    0.00079
H12   2   -0.727274   -0.681746   -0.713389    11.00000   -1.20000
N13   3   -0.622322   -0.610230   -0.590545    11.00000    0.02860    0.02217 =
         0.03070   -0.00605    0.00357   -0.00728
H13   2   -0.700491   -0.620260   -0.588439    11.00000   -1.20000
N14   3   -0.438272   -0.350796   -0.589476    11.00000    0.03106    0.02083 =
         0.02634    0.00372    0.00487   -0.00304
N15   3   -0.420487   -0.463911   -0.255352    11.00000    0.02802    0.02275 =
         0.03146    0.00220    0.01082    0.00279
O11   4   -0.457301   -0.645980   -0.651629    11.00000    0.02859    0.03454 =
         0.03651   -0.00202    0.00287   -0.00087
O12   4   -0.411148   -0.494575   -0.437508    11.00000    0.02601    0.01895 =
         0.02592   -0.00175    0.00056   -0.00503
O13   4   -0.648394   -0.348201   -0.621361    11.00000    0.03086    0.03316 =
         0.04243    0.01340    0.00481    0.00042
O14   4   -0.506748   -0.589690   -0.279767    11.00000    0.04402    0.02649 =
         0.03198   -0.00330    0.00959   -0.01022
O15   4   -0.282340   -0.567793   -0.230357    11.00000    0.04151    0.02175 =
         0.03995    0.00594    0.01508    0.00253
O16   4   -0.291310   -0.467725    0.104099    11.00000    0.05791    0.02706 =
         0.03010   -0.00265    0.00986   -0.01369
O17   4   -0.474814   -0.559092    0.155429    11.00000    0.05129    0.02794 =
         0.03115   -0.00050    0.01445   -0.00687
O18   4   -0.527372   -0.344166   -0.784467    11.00000    0.03359    0.02905 =
         0.03890   -0.00034    0.00309   -0.00057
H18   2   -0.601473   -0.327980   -0.779758    11.00000    0.05851
S2    5   -0.406666   -0.547900   -0.228549    11.00000    0.03323    0.01976 =
         0.02897    0.00039    0.01038   -0.00152
HKLF 4

REM  zsl in P2(1)
REM R1 =  0.0591 for    8410 Fo > 4sig(Fo)  and  0.0692 for all    9443 data
REM    837 parameters refined using      1 restraints

END

WGHT      0.0660      2.5656

REM Highest difference peak  0.276,  deepest hole -0.533,  1-sigma level  0.068
Q1    1  -0.3623 -0.5114 -0.2614  11.00000  0.05    0.28
;
_shelx_res_checksum              64518
_shelx_hkl_file
;
   1   0   0 241.427 12.8932
   2   0   0 5336.60 356.458
   3   0   0 564.017 27.2090
   4   0   0 7.34115 2.17773
   5   0   0 323.563 14.7573
   6   0   0 1045.29 61.8839
   7   0   0 81.3065 5.43659
   8   0   0 269.901 23.4393
   9   0   0 38.3967 4.45129
  10   0   0 7.80747 7.72960
  11   0   0 68.8280 8.38706
   0  -1   0 0.49577 0.66658
  -1  -1   0 52.0768 3.09900
   1   1   0 51.6731 3.26175
  -2  -1   0 7618.18 476.336
   2   1   0 7755.38 450.774
  -3  -1   0 149.991 8.14056
   3   1   0 148.207 9.04035
  -4  -1   0 146.522 13.6512
   4   1   0 117.062 13.2259
  -5  -1   0 209.846 10.2987
   5   1   0 201.549 10.2087
  -6  -1   0 50.3029 7.45740
   6   1   0 50.8737 6.79687
  -7  -1   0 4.93452 2.05163
   7   1   0 2.64891 2.13045
  -8  -1   0 810.849 77.2458
   8   1   0 771.684 66.4515
  -9  -1   0 32.8749 4.32507
   9   1   0 43.2313 5.53754
 -10  -1   0 61.6786 9.99400
  10   1   0 60.6816 13.0854
 -11  -1   0 46.3418 5.81799
  11   1   0 29.5200 5.81640
 -12  -1   0 13.5725 7.64938
   0  -2   0 3310.50 371.232
   0   2   0 3222.24 478.783
  -1  -2   0 317.843 17.8796
   1   2   0 344.696 24.2003
  -2  -2   0 2584.16 152.429
   2   2   0 2453.15 161.667
  -3  -2   0 1224.04 52.1539
   3   2   0 1202.79 61.3405
  -4  -2   0 104.474 6.91176
   4   2   0 90.2906 6.56310
  -5  -2   0 108.031 7.13477
   5   2   0 123.816 7.02076
  -6  -2   0 352.778 24.6517
   6   2   0 376.578 26.3287
  -7  -2   0 23.6462 2.63533
   7   2   0 24.2312 2.88519
  -8  -2   0 93.3092 9.84792
   8   2   0 73.6107 10.7464
  -9  -2   0 77.4728 6.11554
   9   2   0 75.9079 8.78072
 -10  -2   0 37.9046 7.66684
  10   2   0 28.0409 30.0648
 -11  -2   0 34.2020 5.16772
  11   2   0 26.5907 6.95590
 -12  -2   0 13.9737 5.01641
  12   2   0 5.00531 7.08199
   0  -3   0 0.84784 1.12550
   0   3   0 1.92053 2.56071
  -1  -3   0 1978.01 97.5188
   1   3   0 1966.39 180.619
  -2  -3   0 9094.05 504.008
   2   3   0 8160.14 812.442
  -3  -3   0 444.261 19.3836
   3   3   0 419.309 20.4944
  -4  -3   0 542.977 25.5660
   4   3   0 474.902 25.5326
  -5  -3   0 980.674 49.8750
   5   3   0 918.456 50.7276
  -6  -3   0 305.893 18.0341
   6   3   0 304.849 17.9339
  -7  -3   0 29.9043 2.77589
   7   3   0 26.7612 3.18817
  -8  -3   0 195.652 15.5286
   8   3   0 158.305 18.3051
  -9  -3   0 214.746 20.4372
   9   3   0 173.865 21.8899
 -10  -3   0 100.265 10.2959
  10   3   0 94.8514 19.5804
 -11  -3   0 196.077 15.5517
  11   3   0 128.563 20.7477
 -12  -3   0 9.79056 4.60037
  12   3   0 7.73252 6.62875
   0  -4   0 1226.92 115.053
   0   4   0 1204.16 178.716
  -1  -4   0 1896.04 93.6561
   1   4   0 1747.04 165.553
  -2  -4   0 3003.86 179.709
   2   4   0 2813.62 207.882
  -3  -4   0 378.208 15.2400
   3   4   0 375.135 19.3655
  -4  -4   0 560.781 35.4678
   4   4   0 573.357 35.4466
  -5  -4   0 441.226 23.5357
   5   4   0 455.150 24.0108
  -6  -4   0 102.702 7.79316
   6   4   0 103.745 8.54219
  -7  -4   0 17.2198 2.54098
   7   4   0 28.1114 3.08598
  -8  -4   0 69.8074 8.01464
   8   4   0 50.8653 9.12347
  -9  -4   0 101.348 7.93509
   9   4   0 96.1986 9.35709
 -10  -4   0 158.510 20.3156
  10   4   0 122.668 30.8849
 -11  -4   0 62.9487 4.61113
  11   4   0 43.9210 9.55546
 -12  -4   0 59.6301 7.96981
  12   4   0 17.5505 12.2353
   0  -5   0 1.58133 1.88585
   0   5   0 0.27168 1.81514
  -1  -5   0 1340.28 59.5843
   1   5   0 1233.25 118.257
  -2  -5   0 1019.10 52.3742
   2   5   0 1032.52 57.9441
  -3  -5   0 39.9158 2.35231
   3   5   0 53.4792 3.17219
  -4  -5   0 1558.47 80.7029
   4   5   0 1498.09 85.4253
  -5  -5   0 357.475 21.6522
   5   5   0 364.090 22.6640
  -6  -5   0 137.902 7.57538
   6   5   0 111.153 9.01176
  -7  -5   0 343.131 18.7557
   7   5   0 361.073 21.6258
  -8  -5   0 58.1399 6.54317
   8   5   0 39.6636 7.07257
  -9  -5   0 128.792 10.3908
   9   5   0 139.386 13.0493
 -10  -5   0 30.0441 4.24953
  10   5   0 34.5135 11.0948
 -11  -5   0 18.9660 2.20099
  11   5   0 10.9713 5.75051
 -12  -5   0 30.4425 5.68722
   0  -6   0 107.493 7.95173
   0   6   0 128.003 12.4360
  -1  -6   0 898.118 36.7607
   1   6   0 801.221 70.5965
  -2  -6   0 513.502 21.1982
   2   6   0 519.146 28.3450
  -3  -6   0 598.571 26.0548
   3   6   0 593.048 36.3204
  -4  -6   0 725.076 40.7696
   4   6   0 728.937 43.5942
  -5  -6   0 41.9624 3.76692
   5   6   0 64.5928 4.42656
  -6  -6   0 405.171 20.4637
   6   6   0 405.723 24.1262
  -7  -6   0 71.1983 4.14191
   7   6   0 50.4498 4.92705
  -8  -6   0 111.145 10.3016
   8   6   0 60.3750 11.8211
  -9  -6   0 53.8748 4.37381
   9   6   0 34.6331 7.69198
 -10  -6   0 0.00000 3.32176
  10   6   0 0.00000 10.4583
 -11  -6   0 12.2541 1.91544
  11   6   0 10.7032 5.16230
 -12  -6   0 15.9806 3.14132
   0  -7   0 0.82989 1.23836
   0   7   0 0.62635 2.32329
  -1  -7   0 139.782 5.42367
   1   7   0 150.200 11.1095
  -2  -7   0 325.033 26.6293
   2   7   0 326.546 38.8762
  -3  -7   0 689.127 29.1351
   3   7   0 627.766 40.5423
  -4  -7   0 276.195 14.8914
   4   7   0 282.199 17.5434
  -5  -7   0 44.6408 3.03955
   5   7   0 38.2186 3.35575
  -6  -7   0 15.8296 3.34475
   6   7   0 13.3993 3.65819
  -7  -7   0 46.0935 4.15989
   7   7   0 60.5343 5.04008
  -8  -7   0 278.268 16.1368
   8   7   0 197.967 18.4701
  -9  -7   0 74.3344 5.48821
   9   7   0 74.3069 9.55691
 -10  -7   0 157.774 12.7097
  10   7   0 120.749 21.9628
 -11  -7   0 30.1431 3.58276
  11   7   0 24.7983 7.29365
 -12  -7   0 17.2888 2.99980
   0  -8   0 99.2344 6.37509
   0   8   0 92.2266 14.6419
  -1  -8   0 266.350 11.6254
   1   8   0 247.909 17.8859
  -2  -8   0 168.594 10.0317
   2   8   0 171.243 14.5130
  -3  -8   0 182.986 8.78031
   3   8   0 189.766 12.6137
  -4  -8   0 25.2010 3.38828
   4   8   0 39.5799 3.72933
  -5  -8   0 71.5035 3.74489
   5   8   0 63.8085 4.27824
  -6  -8   0 336.436 22.5864
   6   8   0 361.077 26.0405
  -7  -8   0 39.0264 4.07823
   7   8   0 55.4221 5.00672
  -8  -8   0 38.9986 5.37597
   8   8   0 23.5955 5.32499
  -9  -8   0 34.2217 3.14742
   9   8   0 24.4850 5.82791
 -10  -8   0 13.6290 3.78055
  10   8   0 12.7011 10.9665
 -11  -8   0 22.2278 2.92434
  11   8   0 10.9862 6.25542
   0  -9   0 0.60341 1.08918
   0   9   0 2.19891 2.34799
  -1  -9   0 0.81682 0.91196
   1   9   0 5.65859 1.78953
  -2  -9   0 581.779 34.2854
   2   9   0 650.227 51.4522
  -3  -9   0 408.993 19.2612
   3   9   0 383.438 25.9084
  -4  -9   0 223.831 15.9099
   4   9   0 241.502 20.0433
  -5  -9   0 80.1900 4.85807
   5   9   0 81.3581 5.38756
  -6  -9   0 233.005 18.5543
   6   9   0 191.477 22.1980
  -7  -9   0 142.206 9.28307
   7   9   0 131.074 11.5423
  -8  -9   0 347.997 20.0022
   8   9   0 200.374 34.1180
  -9  -9   0 24.7467 2.97600
   9   9   0 20.2963 5.32296
 -10  -9   0 23.6847 3.87576
  10   9   0 19.0602 10.8762
 -11  -9   0 101.723 8.69076
  11   9   0 50.4583 17.9548
   0 -10   0 477.129 34.2349
   0  10   0 507.024 52.0307
  -1 -10   0 29.6364 2.16451
   1  10   0 25.4517 3.28871
  -2 -10   0 60.2374 8.64674
   2  10   0 56.0890 11.9356
  -3 -10   0 316.275 14.9495
   3  10   0 313.892 19.9352
  -4 -10   0 217.822 11.4610
   4  10   0 253.556 17.1166
  -5 -10   0 146.674 8.62749
   5  10   0 160.806 10.6364
  -6 -10   0 687.556 41.7965
   6  10   0 598.009 48.2455
  -7 -10   0 64.4532 5.43756
   7  10   0 59.0922 8.23382
  -8 -10   0 92.2560 6.25556
   8  10   0 66.9037 12.8069
  -9 -10   0 192.863 11.0906
   9  10   0 124.850 19.8402
 -10 -10   0 23.8347 3.94486
  10  10   0 8.17120 16.2789
 -11 -10   0 10.6629 2.01504
  11  10   0 4.04684 4.54618
   0 -11   0 0.18144 1.39097
   0  11   0 4.02395 2.88210
  -1 -11   0 280.480 12.5390
   1  11   0 291.591 17.9896
  -2 -11   0 409.735 17.1101
   2  11   0 389.144 27.5510
  -3 -11   0 146.176 7.16033
   3  11   0 140.550 10.3700
  -4 -11   0 59.9798 10.0337
   4  11   0 89.7753 17.5179
  -5 -11   0 588.128 33.4092
   5  11   0 610.502 40.5478
  -6 -11   0 273.091 36.3733
   6  11   0 236.818 38.8583
  -7 -11   0 8.90470 1.95788
   7  11   0 8.41164 3.88713
  -8 -11   0 20.6171 2.88557
   8  11   0 2.69696 9.35946
  -9 -11   0 58.7148 3.61956
   9  11   0 31.2416 6.89812
 -10 -11   0 96.1261 10.3860
 -11 -11   0 13.6083 1.98709
  11  11   0 6.29607 4.54242
   0 -12   0 370.959 25.0546
   0  12   0 435.993 42.0842
  -1 -12   0 167.016 7.44457
   1  12   0 188.854 11.1166
  -2 -12   0 87.7030 7.25326
   2  12   0 117.648 12.3546
  -3 -12   0 13.8152 2.24418
   3  12   0 17.7639 4.30107
  -4 -12   0 203.403 14.3265
   4  12   0 201.746 20.1496
  -5 -12   0 188.799 10.2736
   5  12   0 182.714 14.0798
  -6 -12   0 597.931 41.8411
   6  12   0 528.487 45.0915
  -7 -12   0 332.282 20.3191
   7  12   0 228.063 69.1236
  -8 -12   0 70.5957 5.85303
   8  12   0 55.0960 11.7932
  -9 -12   0 3.68474 1.50021
   9  12   0 1.50419 4.10974
 -10 -12   0 52.4292 8.17952
   0 -13   0 1.59508 2.37329
   0  13   0 1.86862 5.10534
  -1 -13   0 24.7190 2.10072
   1  13   0 25.6847 3.41052
  -2 -13   0 310.242 25.8453
   2  13   0 311.993 49.8055
  -3 -13   0 425.539 21.4913
   3  13   0 384.626 35.0962
  -4 -13   0 619.443 50.6623
   4  13   0 602.496 60.9083
  -5 -13   0 153.006 9.46886
   5  13   0 161.559 15.4483
  -6 -13   0 99.4578 12.1360
   6  13   0 74.3384 19.4881
  -7 -13   0 98.7854 6.81613
   7  13   0 48.6363 27.1663
  -8 -13   0 55.1720 5.64174
   8  13   0 8.36305 13.5736
  -9 -13   0 22.2232 2.35129
   9  13   0 7.64608 6.14514
 -10 -13   0 18.9032 4.11006
   0 -14   0 85.6849 8.15121
   0  14   0 81.3221 14.1037
  -1 -14   0 23.2966 2.12329
   1  14   0 13.0187 3.21289
  -2 -14   0 471.481 26.9667
   2  14   0 479.793 42.4918
  -3 -14   0 115.087 7.16093
   3  14   0 131.231 13.4149
  -4 -14   0 89.9976 8.49896
   4  14   0 118.196 11.4804
  -5 -14   0 177.602 10.5636
   5  14   0 166.116 17.0750
  -6 -14   0 62.8052 6.10115
   6  14   0 50.5576 12.2162
  -7 -14   0 1.47653 1.88982
   7  14   0 5.60783 17.5890
  -8 -14   0 38.2689 4.25066
   8  14   0 9.61924 12.3982
  -9 -14   0 42.6663 4.60178
   9  14   0 22.2319 8.99865
   0 -15   0 2.41506 3.17412
   0  15   0 0.63405 4.84065
  -1 -15   0 87.7934 5.17576
   1  15   0 69.5864 9.03007
  -2 -15   0 64.5793 5.47499
   2  15   0 69.1343 8.03625
  -3 -15   0 405.885 20.5361
   3  15   0 354.151 27.1338
  -4 -15   0 632.414 44.3334
   4  15   0 652.158 61.6650
  -5 -15   0 51.6853 4.64801
   5  15   0 38.0318 11.4522
  -6 -15   0 78.3287 6.99638
   6  15   0 74.4188 13.6075
  -7 -15   0 24.4791 2.73211
   7  15   0 10.3173 18.7524
  -8 -15   0 31.6446 5.44961
   8  15   0 8.27892 9.40190
  -9 -15   0 86.3426 12.7750
   9  15   0 60.3088 16.6973
   0 -16   0 16.2499 4.07299
   0  16   0 7.82051 5.28788
  -1 -16   0 202.265 11.0023
   1  16   0 200.327 19.8022
  -2 -16   0 101.440 7.57537
   2  16   0 86.0917 11.1194
  -3 -16   0 96.9623 6.34207
   3  16   0 116.654 13.4012
  -4 -16   0 75.6615 6.72793
   4  16   0 80.2604 13.5204
  -5 -16   0 147.870 10.1646
   5  16   0 122.546 17.3030
  -6 -16   0 8.27983 3.02183
   6  16   0 9.70544 10.1003
  -7 -16   0 10.3484 1.97632
   7  16   0 4.75172 17.4919
  -8 -16   0 12.9021 3.93901
   8  16   0 8.34829 6.92545
   0 -17   0 1.71664 5.91730
  -1 -17   0 25.7929 3.87789
  -2 -17   0 33.6980 6.43517
   2  17   0 55.6967 14.7536
  -3 -17   0 52.5792 4.33613
   3  17   0 67.2040 10.4609
  -4 -17   0 83.8028 8.89802
   4  17   0 95.4728 16.3331
  -5 -17   0 7.52691 2.78270
   5  17   0 12.7928 7.51031
  -6 -17   0 46.2657 6.67406
   6  17   0 0.62035 23.6814
  -7 -17   0 82.5268 12.2836
  -8 -17   0 17.9587 4.37010
   8  17   0 13.3801 7.33960
   0 -18   0 121.984 29.0726
  -1 -18   0 53.0838 6.26972
  -2 -18   0 41.8397 5.92562
   2  18   0 37.4823 15.0928
  -3 -18   0 99.2500 6.91311
   3  18   0 91.0744 17.3361
  -4 -18   0 41.6187 4.18807
   4  18   0 40.9282 11.0688
  -5 -18   0 11.5867 2.81243
   5  18   0 5.07874 11.3990
  -6 -18   0 38.5505 6.53909
  -7 -18   0 4.15078 2.16205
   0 -19   0 0.19043 5.83955
  -1 -19   0 14.6793 5.09432
   1  19   0 16.7074 11.2727
  -2 -19   0 75.0565 6.95667
   2  19   0 59.9856 17.8920
  -3 -19   0 26.6389 3.74317
   3  19   0 18.0578 10.0104
  -4 -19   0 102.274 17.8853
  -5 -19   0 3.00925 2.18529
  -6 -19   0 64.2607 14.4009
   0 -20   0 381.411 95.5822
  -1 -20   0 34.3523 13.3950
  -2 -20   0 89.0017 15.4346
  -3 -20   0 64.3088 8.05051
  -4 -20   0 65.1970 10.9057
  -5 -20   0 17.0692 2.03392
   0 -21   0 0.90697 5.52454
  -1 -21   0 0.00000 11.2949
  -2 -21   0 133.143 35.1797
  -3 -21   0 84.6341 9.85075
  -4 -21   0 62.1459 13.3923
   0 -22   0 237.168 71.9531
  -1 -22   0 47.2778 8.10634
 -12   0   1 0.00000 6.73505
 -11   0   1 74.0010 9.41195
 -10   0   1 393.609 36.9563
  -9   0   1 48.5708 5.16853
  -8   0   1 1334.70 103.807
  -7   0   1 8.55497 2.97628
  -6   0   1 376.191 23.7337
  -5   0   1 178.051 9.25668
  -4   0   1 1239.22 73.3657
  -3   0   1 23.1954 2.27275
  -2   0   1 4175.76 287.440
  -1   0   1 915.086 46.4225
   0   0   1 59.5152 3.89654
   1   0   1 848.551 44.6054
   2   0   1 207.688 13.6343
   3   0   1 16.0903 2.03778
   4   0   1 31.0088 8.37677
   5   0   1 761.992 33.4058
   6   0   1 1409.30 73.6094
   7   0   1 2.45731 2.32465
   8   0   1 184.474 21.7909
   9   0   1 506.488 37.3995
  10   0   1 132.152 20.0565
  11   0   1 41.6404 5.28802
  12  -1  -1 40.8728 8.35636
 -12   1   1 12.4748 15.1620
  11  -1  -1 7.92049 3.32270
 -11   1   1 12.0393 4.37293
  10  -1  -1 165.013 19.9664
 -10   1   1 168.185 22.6416
   9  -1  -1 49.9015 5.09926
  -9   1   1 45.2088 6.17479
   8  -1  -1 41.7630 7.99890
  -8   1   1 3.68220 9.58534
   7  -1  -1 111.852 5.98151
  -7   1   1 108.943 6.82849
   6  -1  -1 73.1788 10.3974
  -6   1   1 32.0586 10.1122
   5  -1  -1 358.179 18.1904
  -5   1   1 379.943 18.1088
   4  -1  -1 50.4626 3.93289
  -4   1   1 49.1667 4.23203
   3  -1  -1 759.296 36.0545
  -3   1   1 777.392 43.5539
   2  -1  -1 2586.84 226.326
  -2   1   1 2405.73 214.745
   1  -1  -1 232.040 12.2609
  -1   1   1 216.092 12.2646
   0  -1  -1 177.345 11.4625
   0   1   1 150.163 14.4900
  -1  -1  -1 26.2003 2.02309
   1   1   1 29.1507 1.97170
  -2  -1  -1 788.759 50.7219
   2   1   1 792.669 50.9041
  -3  -1  -1 449.545 21.8862
   3   1   1 468.372 22.0371
  -4  -1  -1 383.674 22.0299
   4   1   1 408.766 22.6095
  -5  -1  -1 123.337 6.00091
   5   1   1 111.209 5.95479
  -6  -1  -1 219.000 12.6262
   6   1   1 176.154 11.8283
  -7  -1  -1 40.9870 3.16082
   7   1   1 36.1883 3.21142
  -8  -1  -1 61.0460 7.53857
   8   1   1 55.0354 9.21223
  -9  -1  -1 123.247 9.88719
   9   1   1 101.315 11.8465
 -10  -1  -1 331.725 52.2327
 -11  -1  -1 14.3961 3.09331
  11   1   1 19.5891 3.39114
 -12  -1  -1 113.503 21.6055
  12  -2  -1 20.6748 4.39438
 -12   2   1 10.2848 7.37048
  11  -2  -1 4.78613 3.12810
 -11   2   1 3.34789 4.22774
  10  -2  -1 120.669 11.1619
 -10   2   1 116.538 14.7410
   9  -2  -1 41.5391 4.29280
  -9   2   1 32.4929 5.61094
   8  -2  -1 373.114 31.6000
  -8   2   1 346.190 31.0570
   7  -2  -1 96.6762 5.56762
  -7   2   1 96.5350 6.98124
   6  -2  -1 100.682 16.4727
  -6   2   1 80.0986 16.3080
   5  -2  -1 358.503 19.2354
  -5   2   1 349.459 19.0003
   4  -2  -1 416.629 25.0859
  -4   2   1 408.609 25.4503
   3  -2  -1 233.388 11.4646
  -3   2   1 265.552 12.4502
   2  -2  -1 1985.90 126.143
  -2   2   1 1899.50 136.681
   1  -2  -1 1338.73 76.6373
  -1   2   1 1337.88 71.9983
   0  -2  -1 174.945 14.4167
   0   2   1 157.509 15.8323
  -1  -2  -1 458.986 25.6022
   1   2   1 448.862 24.7513
  -2  -2  -1 984.999 81.0451
   2   2   1 836.685 69.6887
  -3  -2  -1 152.933 7.91174
   3   2   1 182.015 8.63493
  -4  -2  -1 75.8427 7.89963
   4   2   1 72.8037 8.37660
  -5  -2  -1 66.4492 4.20079
   5   2   1 66.6202 4.24633
  -6  -2  -1 97.3959 9.87332
   6   2   1 102.199 9.75601
  -7  -2  -1 61.7852 4.10907
   7   2   1 54.3423 4.48314
  -8  -2  -1 465.659 37.6847
   8   2   1 387.513 47.0164
  -9  -2  -1 454.822 46.8691
   9   2   1 419.311 48.7960
 -10  -2  -1 286.154 25.3868
  10   2   1 175.078 68.6980
 -11  -2  -1 68.8498 6.84478
  11   2   1 60.2631 19.9909
 -12  -2  -1 28.9099 8.32001
  12  -3  -1 103.926 14.9608
 -12   3   1 48.3943 23.2228
  11  -3  -1 128.170 10.9664
 -11   3   1 62.1208 17.9787
  10  -3  -1 152.178 17.1760
 -10   3   1 139.067 22.8286
   9  -3  -1 165.251 10.0234
  -9   3   1 125.639 14.7847
   8  -3  -1 74.4114 7.94498
  -8   3   1 72.2362 8.78445
   7  -3  -1 304.181 14.9365
  -7   3   1 292.341 18.8595
   6  -3  -1 69.5011 8.45600
  -6   3   1 81.1082 8.15776
   5  -3  -1 156.422 8.28165
  -5   3   1 126.454 8.09284
   4  -3  -1 478.497 29.2913
  -4   3   1 508.178 29.9538
   3  -3  -1 142.289 6.51914
  -3   3   1 138.312 6.96808
   2  -3  -1 5652.25 421.092
  -2   3   1 5231.39 377.041
   1  -3  -1 2143.32 134.340
  -1   3   1 2181.16 122.857
   0  -3  -1 4468.74 474.002
   0   3   1 4038.70 399.470
  -1  -3  -1 176.685 9.30653
   1   3   1 201.023 15.6065
  -2  -3  -1 1434.00 105.936
   2   3   1 1302.55 111.430
  -3  -3  -1 141.037 6.88973
   3   3   1 122.752 7.24015
  -4  -3  -1 2468.47 130.515
   4   3   1 2389.15 135.108
  -5  -3  -1 17.1975 2.00004
   5   3   1 9.05298 1.95876
  -6  -3  -1 722.889 40.6724
   6   3   1 702.867 40.1857
  -7  -3  -1 66.8369 4.70354
   7   3   1 71.8403 5.16801
  -8  -3  -1 284.933 24.2052
   8   3   1 247.670 30.2050
  -9  -3  -1 146.513 9.85792
   9   3   1 118.784 10.5171
 -10  -3  -1 62.3639 6.41353
  10   3   1 65.7431 15.8059
 -11  -3  -1 49.4430 5.06757
  11   3   1 51.9623 9.64261
 -12  -3  -1 51.8327 7.75267
  12  -4  -1 115.210 16.6495
  11  -4  -1 9.89700 2.86466
 -11   4   1 10.8571 5.40764
  10  -4  -1 102.118 8.25560
 -10   4   1 82.6779 15.7416
   9  -4  -1 90.2937 7.28585
  -9   4   1 94.4466 8.65213
   8  -4  -1 14.6812 4.15177
  -8   4   1 15.5542 5.13450
   7  -4  -1 18.7948 2.75206
  -7   4   1 22.7242 2.99107
   6  -4  -1 55.3770 9.44739
  -6   4   1 32.4646 9.48703
   5  -4  -1 32.6706 3.03839
  -5   4   1 40.5250 3.13771
   4  -4  -1 539.361 27.2204
  -4   4   1 516.890 30.6788
   3  -4  -1 276.843 11.3358
  -3   4   1 271.402 12.7507
   2  -4  -1 2461.90 145.920
  -2   4   1 2371.97 169.460
   1  -4  -1 487.577 28.0959
  -1   4   1 511.629 28.7821
   0  -4  -1 6369.57 445.703
   0   4   1 5903.94 570.987
  -1  -4  -1 2993.72 153.572
   1   4   1 3000.83 366.580
  -2  -4  -1 157.188 15.7503
   2   4   1 133.772 17.9307
  -3  -4  -1 468.370 19.4048
   3   4   1 425.760 21.1588
  -4  -4  -1 544.114 38.1363
   4   4   1 462.500 38.2213
  -5  -4  -1 446.012 28.2585
   5   4   1 456.358 27.7764
  -6  -4  -1 218.286 18.1173
   6   4   1 179.784 19.9901
  -7  -4  -1 52.1235 3.91032
   7   4   1 41.0515 4.46466
  -8  -4  -1 211.872 17.9155
   8   4   1 162.458 24.4994
  -9  -4  -1 80.5774 5.45078
   9   4   1 65.7881 6.48805
 -10  -4  -1 105.909 10.0243
  10   4   1 101.511 21.9647
 -11  -4  -1 49.0698 3.86309
  11   4   1 40.6710 9.56269
 -12  -4  -1 15.2863 4.79105
  12  -5  -1 18.3005 4.65597
  11  -5  -1 21.4126 2.80964
 -11   5   1 14.8868 5.89784
  10  -5  -1 180.814 12.5972
 -10   5   1 172.042 22.9482
   9  -5  -1 27.5039 2.66483
  -9   5   1 19.6184 3.87243
   8  -5  -1 114.267 9.57384
  -8   5   1 79.0845 11.9868
   7  -5  -1 188.500 10.5741
  -7   5   1 152.054 11.1903
   6  -5  -1 395.082 20.4481
  -6   5   1 333.683 21.6895
   5  -5  -1 42.1355 3.37461
  -5   5   1 45.1964 3.49510
   4  -5  -1 721.049 36.4582
  -4   5   1 682.971 41.1178
   3  -5  -1 909.640 38.7185
  -3   5   1 881.248 43.5363
   2  -5  -1 530.768 38.7613
  -2   5   1 556.570 44.4635
   1  -5  -1 644.240 30.2627
  -1   5   1 700.860 38.4040
   0  -5  -1 1835.60 118.568
   0   5   1 1692.82 189.453
  -1  -5  -1 1650.62 71.5315
   1   5   1 1493.90 200.983
  -2  -5  -1 1992.91 96.1185
   2   5   1 1977.34 138.665
  -3  -5  -1 600.587 24.7019
   3   5   1 590.269 31.7569
  -4  -5  -1 36.5488 4.79471
   4   5   1 26.1574 4.84589
  -5  -5  -1 114.551 8.36434
   5   5   1 116.775 8.40183
  -6  -5  -1 245.364 14.1538
   6   5   1 208.936 17.3020
  -7  -5  -1 193.771 11.5266
   7   5   1 202.655 13.4983
  -8  -5  -1 67.9058 7.04829
   8   5   1 57.9448 8.92427
  -9  -5  -1 32.7705 3.28131
   9   5   1 16.1054 6.17318
 -10  -5  -1 40.3953 4.78377
  10   5   1 27.2497 13.3356
 -11  -5  -1 64.7165 4.78767
  11   5   1 73.2673 10.5819
 -12  -5  -1 12.4593 4.23669
  12  -6  -1 8.64241 3.70620
  11  -6  -1 42.5701 3.78446
 -11   6   1 26.9469 7.68496
  10  -6  -1 96.2681 7.78168
 -10   6   1 77.5342 12.5123
   9  -6  -1 65.9945 5.43335
  -9   6   1 53.4442 7.26581
   8  -6  -1 319.732 30.0041
  -8   6   1 293.065 30.9613
   7  -6  -1 28.7047 2.58154
  -7   6   1 17.0722 3.08686
   6  -6  -1 23.4255 3.34318
  -6   6   1 14.5054 3.65393
   5  -6  -1 623.444 35.8612
  -5   6   1 608.929 37.4886
   4  -6  -1 1990.63 109.501
  -4   6   1 2059.86 132.076
   3  -6  -1 262.739 12.0113
  -3   6   1 297.185 14.4809
   2  -6  -1 21.0075 5.33728
  -2   6   1 18.7976 7.91722
   1  -6  -1 737.556 33.8790
  -1   6   1 776.276 45.0076
   0  -6  -1 113.566 5.75365
   0   6   1 132.172 8.51682
  -1  -6  -1 947.796 34.8499
   1   6   1 834.774 76.7725
  -2  -6  -1 816.950 33.0775
   2   6   1 863.390 46.8855
  -3  -6  -1 975.487 40.4071
   3   6   1 895.035 53.4297
  -4  -6  -1 13.4696 6.37434
   4   6   1 21.3367 6.37489
  -5  -6  -1 330.014 20.8449
   5   6   1 297.638 18.4921
  -6  -6  -1 61.4364 5.64544
   6   6   1 50.1506 7.09434
  -7  -6  -1 226.580 12.6007
   7   6   1 190.151 14.5314
  -8  -6  -1 67.5186 7.51241
   8   6   1 52.9726 9.53525
  -9  -6  -1 12.1265 2.45853
   9   6   1 8.31653 4.78924
 -10  -6  -1 6.33487 3.54016
  10   6   1 0.00000 11.9442
 -11  -6  -1 13.3386 2.01681
  11   6   1 3.46500 5.32288
 -12  -6  -1 12.9659 2.95271
  12  -7  -1 9.11256 3.59710
  11  -7  -1 2.74121 2.05848
 -11   7   1 9.62451 5.01566
  10  -7  -1 7.75798 3.34235
 -10   7   1 6.42372 11.0652
   9  -7  -1 248.838 16.8117
  -9   7   1 150.759 25.8243
   8  -7  -1 126.659 9.75150
  -8   7   1 118.474 10.8602
   7  -7  -1 120.467 7.17826
  -7   7   1 125.827 8.76797
   6  -7  -1 22.3829 4.16232
  -6   7   1 22.3016 5.35287
   5  -7  -1 898.669 51.4196
  -5   7   1 940.033 48.8186
   4  -7  -1 772.739 44.1663
  -4   7   1 746.164 50.7035
   3  -7  -1 152.692 7.29096
  -3   7   1 148.269 8.52245
   2  -7  -1 1568.16 68.8206
  -2   7   1 1521.72 103.580
   1  -7  -1 580.201 23.5011
  -1   7   1 634.819 35.9405
   0  -7  -1 6668.84 321.239
   0   7   1 6300.43 460.609
  -1  -7  -1 123.589 4.92457
   1   7   1 118.871 10.5964
  -2  -7  -1 275.339 16.2122
   2   7   1 285.335 26.9720
  -3  -7  -1 609.447 27.0322
   3   7   1 591.547 35.3950
  -4  -7  -1 308.786 17.5007
   4   7   1 332.265 19.4142
  -5  -7  -1 268.783 15.0362
   5   7   1 208.785 13.8621
  -6  -7  -1 185.564 13.4502
   6   7   1 169.218 18.4585
  -7  -7  -1 38.7948 3.82050
   7   7   1 34.5596 4.10640
  -8  -7  -1 179.144 13.2972
   8   7   1 139.626 17.2567
  -9  -7  -1 353.174 18.4998
   9   7   1 306.282 30.5937
 -10  -7  -1 7.59112 3.55002
  10   7   1 1.75465 11.7773
 -11  -7  -1 24.8054 3.08459
  11   7   1 9.30043 6.44485
  12  -8  -1 2.83264 2.91929
  11  -8  -1 54.9192 5.21278
 -11   8   1 27.1769 10.6925
  10  -8  -1 5.69573 3.12894
 -10   8   1 10.4406 10.8222
   9  -8  -1 81.6952 6.72057
  -9   8   1 52.8416 10.0979
   8  -8  -1 62.8237 6.84841
  -8   8   1 48.5035 7.42565
   7  -8  -1 78.1400 5.68257
  -7   8   1 87.4516 6.33268
   6  -8  -1 47.4510 4.29839
  -6   8   1 42.8065 5.42304
   5  -8  -1 125.286 5.59166
  -5   8   1 116.875 6.98761
   4  -8  -1 744.184 41.5581
  -4   8   1 751.571 46.1671
   3  -8  -1 264.951 13.6099
  -3   8   1 275.377 15.5385
   2  -8  -1 318.873 15.4825
  -2   8   1 276.583 21.8351
   1  -8  -1 25.4644 1.72475
  -1   8   1 24.1350 3.14309
   0  -8  -1 916.539 43.0478
   0   8   1 860.211 67.4295
  -1  -8  -1 176.561 6.40949
   1   8   1 160.932 11.2908
  -2  -8  -1 1083.15 50.3134
   2   8   1 1077.82 82.3911
  -3  -8  -1 193.571 9.54433
   3   8   1 196.534 13.1761
  -4  -8  -1 105.214 7.74204
   4   8   1 103.067 7.83825
  -5  -8  -1 341.005 17.2685
   5   8   1 307.361 19.0137
  -6  -8  -1 98.0476 7.78058
   6   8   1 79.1390 9.23848
  -7  -8  -1 243.851 15.6497
   7   8   1 206.510 15.6534
  -8  -8  -1 102.550 11.1229
   8   8   1 82.4018 13.3413
  -9  -8  -1 43.5370 3.30576
   9   8   1 35.0176 6.34673
 -10  -8  -1 104.245 8.84034
  10   8   1 97.3605 16.5639
 -11  -8  -1 14.2377 2.44105
  11   8   1 3.95773 5.18297
  11  -9  -1 4.91149 1.97325
 -11   9   1 0.00000 4.68557
  10  -9  -1 99.0992 8.31464
 -10   9   1 64.0890 13.0755
   9  -9  -1 141.394 7.55860
  -9   9   1 89.2513 12.5923
   8  -9  -1 60.9852 4.41813
  -8   9   1 45.4656 7.07648
   7  -9  -1 32.4206 3.38337
  -7   9   1 34.1550 3.94560
   6  -9  -1 90.9372 5.99058
  -6   9   1 70.7551 7.52669
   5  -9  -1 218.930 10.7476
  -5   9   1 207.323 11.9932
   4  -9  -1 57.8986 3.88319
  -4   9   1 62.6109 5.23868
   3  -9  -1 158.328 8.64278
  -3   9   1 161.528 10.9448
   2  -9  -1 880.420 43.9766
  -2   9   1 826.869 61.5205
   1  -9  -1 52.7870 2.57843
  -1   9   1 46.9823 4.25219
   0  -9  -1 669.520 33.2257
   0   9   1 702.665 49.0965
  -1  -9  -1 249.790 10.0841
   1   9   1 269.170 16.4413
  -2  -9  -1 41.9081 5.03450
   2   9   1 49.9181 7.63958
  -3  -9  -1 1149.32 60.7448
   3   9   1 1208.11 63.0819
  -4  -9  -1 450.976 21.5836
   4   9   1 493.142 25.9332
  -5  -9  -1 275.165 15.1712
   5   9   1 232.511 17.7949
  -6  -9  -1 544.687 31.3629
   6   9   1 517.892 41.4163
  -7  -9  -1 84.2043 6.08398
   7   9   1 65.0412 7.01321
  -8  -9  -1 19.5002 3.57071
   8   9   1 6.68221 14.2372
  -9  -9  -1 42.1980 3.16529
   9   9   1 27.2409 7.01376
 -10  -9  -1 80.7116 9.09550
  10   9   1 78.7944 16.2316
 -11  -9  -1 23.3353 2.74492
  11   9   1 5.79071 5.74445
  11 -10  -1 30.2191 3.03128
 -11  10   1 1.06446 6.43904
  10 -10  -1 307.693 22.8309
 -10  10   1 270.825 36.0296
   9 -10  -1 11.2244 1.80242
  -9  10   1 7.36748 4.68007
   8 -10  -1 608.215 44.2466
  -8  10   1 336.697 79.0030
   7 -10  -1 37.6312 4.28963
  -7  10   1 36.9868 5.58430
   6 -10  -1 26.4585 6.30778
  -6  10   1 19.0100 7.11631
   5 -10  -1 155.476 7.85124
  -5  10   1 149.718 11.4035
   4 -10  -1 422.139 19.4489
  -4  10   1 383.211 27.6658
   3 -10  -1 548.364 24.8689
  -3  10   1 551.226 33.1842
   2 -10  -1 527.515 24.5939
  -2  10   1 527.481 34.5634
   1 -10  -1 214.001 9.03768
  -1  10   1 206.090 13.1225
   0 -10  -1 138.618 6.87470
   0  10   1 139.637 10.9110
  -1 -10  -1 160.093 6.81868
   1  10   1 158.728 10.3543
  -2 -10  -1 272.074 18.6057
   2  10   1 285.613 25.3792
  -3 -10  -1 78.9824 4.10934
   3  10   1 66.5638 5.61321
  -4 -10  -1 598.616 31.6784
   4  10   1 648.315 39.7003
  -5 -10  -1 114.656 6.80148
   5  10   1 104.826 8.94113
  -6 -10  -1 79.8944 6.97106
   6  10   1 79.5727 8.76965
  -7 -10  -1 169.167 11.7940
   7  10   1 153.379 15.7609
  -8 -10  -1 128.603 8.38468
   8  10   1 122.646 27.8694
  -9 -10  -1 43.8239 3.23592
   9  10   1 30.4109 7.11859
 -10 -10  -1 10.5549 3.67594
 -11 -10  -1 0.49252 1.70132
  11  10   1 0.00000 3.90698
  11 -11  -1 17.3464 2.30944
 -11  11   1 11.0001 5.08731
  10 -11  -1 69.9182 8.40562
 -10  11   1 16.8119 15.4610
   9 -11  -1 25.1297 2.24757
  -9  11   1 15.6413 5.14065
   8 -11  -1 131.230 11.4725
  -8  11   1 69.2474 18.5945
   7 -11  -1 17.4502 2.27747
  -7  11   1 11.0704 4.02255
   6 -11  -1 87.4188 7.83844
  -6  11   1 103.824 9.48587
   5 -11  -1 36.3118 3.01831
  -5  11   1 37.9596 4.02439
   4 -11  -1 591.250 37.3324
  -4  11   1 680.033 60.8758
   3 -11  -1 117.872 5.46119
  -3  11   1 105.523 8.12387
   2 -11  -1 44.0575 5.87084
  -2  11   1 71.1195 10.1907
   1 -11  -1 87.3399 4.28166
  -1  11   1 87.8534 6.20906
   0 -11  -1 83.0425 4.67311
   0  11   1 80.2217 7.37510
  -1 -11  -1 107.045 4.87161
   1  11   1 107.333 7.75076
  -2 -11  -1 110.164 6.24822
   2  11   1 121.151 9.10160
  -3 -11  -1 102.166 5.83293
   3  11   1 96.7165 8.23133
  -4 -11  -1 545.940 29.1171
   4  11   1 614.468 45.0491
  -5 -11  -1 44.6650 3.99273
   5  11   1 37.0059 5.01293
  -6 -11  -1 564.586 37.5033
   6  11   1 551.421 48.4902
  -7 -11  -1 109.660 5.92984
   7  11   1 94.7834 15.3418
  -8 -11  -1 33.3579 4.16884
   8  11   1 44.1663 16.3360
  -9 -11  -1 46.8222 3.58928
   9  11   1 25.2774 8.39202
 -10 -11  -1 138.615 18.9165
  10 -12  -1 22.5840 4.03807
 -10  12   1 6.01806 7.25646
   9 -12  -1 286.151 16.8058
  -9  12   1 434.017 63.6373
   8 -12  -1 147.102 10.8092
  -8  12   1 70.9392 17.9730
   7 -12  -1 83.8725 6.00800
  -7  12   1 70.8402 25.0697
   6 -12  -1 188.577 20.8868
  -6  12   1 156.227 22.3035
   5 -12  -1 203.584 10.8065
  -5  12   1 218.013 14.6924
   4 -12  -1 406.587 22.9166
  -4  12   1 397.467 36.3591
   3 -12  -1 140.418 7.27208
  -3  12   1 113.727 12.3613
   2 -12  -1 253.804 12.1668
  -2  12   1 270.630 22.4784
   1 -12  -1 218.631 8.64589
  -1  12   1 199.009 13.0484
   0 -12  -1 14.9861 1.73330
   0  12   1 18.6691 2.93110
  -1 -12  -1 90.4292 4.75082
   1  12   1 92.1808 7.22423
  -2 -12  -1 648.356 46.2297
   2  12   1 700.520 62.9934
  -3 -12  -1 193.292 10.9448
   3  12   1 190.976 20.1881
  -4 -12  -1 498.465 36.7734
   4  12   1 522.088 47.3670
  -5 -12  -1 91.8977 7.18110
   5  12   1 91.2066 11.7166
  -6 -12  -1 166.425 13.3169
   6  12   1 183.333 15.3018
  -7 -12  -1 217.841 12.6900
   7  12   1 109.563 46.8521
  -8 -12  -1 210.082 12.6386
  -9 -12  -1 3.72521 1.82467
   9  12   1 7.11518 5.12063
 -10 -12  -1 24.6478 3.87848
  10 -13  -1 8.22967 2.90336
 -10  13   1 7.46719 5.36100
   9 -13  -1 20.5519 2.37432
  -9  13   1 13.2919 6.31916
   8 -13  -1 41.7709 4.33342
  -8  13   1 20.4466 13.0523
   7 -13  -1 13.4027 2.34157
  -7  13   1 0.00000 18.7980
   6 -13  -1 383.036 25.3497
  -6  13   1 350.881 39.6789
   5 -13  -1 532.615 28.7360
  -5  13   1 538.795 35.1575
   4 -13  -1 129.147 8.47194
  -4  13   1 148.430 15.4960
   3 -13  -1 288.627 14.6794
  -3  13   1 279.904 25.1565
   2 -13  -1 964.425 48.2735
  -2  13   1 993.220 85.7971
   1 -13  -1 41.9275 2.70212
  -1  13   1 41.9256 4.71311
   0 -13  -1 120.736 7.94130
   0  13   1 154.615 18.0176
  -1 -13  -1 15.8499 2.34619
   1  13   1 14.9875 4.13108
  -2 -13  -1 83.1700 6.86291
   2  13   1 96.1993 10.0660
  -3 -13  -1 130.438 7.78069
   3  13   1 128.985 14.3944
  -4 -13  -1 160.754 9.59897
   4  13   1 164.793 13.1455
  -5 -13  -1 750.528 46.9160
   5  13   1 653.316 83.1811
  -6 -13  -1 199.602 12.2716
   6  13   1 180.149 21.6457
  -7 -13  -1 363.710 21.7547
   7  13   1 223.764 73.0955
  -8 -13  -1 28.0761 3.99164
  -9 -13  -1 30.7778 2.91752
   9  13   1 15.6903 7.71156
 -10 -13  -1 123.036 14.9138
  10 -14  -1 0.28396 2.76199
 -10  14   1 0.00000 4.33887
   9 -14  -1 14.1826 2.15687
  -9  14   1 11.1958 5.68735
   8 -14  -1 15.7276 2.83292
  -8  14   1 1.10258 6.07227
   7 -14  -1 6.72554 1.99786
  -7  14   1 0.00000 19.2258
   6 -14  -1 175.067 14.2070
  -6  14   1 130.380 22.6041
   5 -14  -1 7.15698 2.27307
  -5  14   1 9.13670 5.10826
   4 -14  -1 298.080 18.4585
  -4  14   1 274.880 28.1721
   3 -14  -1 75.7423 4.85070
  -3  14   1 100.708 8.75768
   2 -14  -1 127.315 10.9396
  -2  14   1 136.087 19.2919
   1 -14  -1 54.7804 3.66104
  -1  14   1 77.7958 6.41620
   0 -14  -1 103.552 8.20222
   0  14   1 158.996 14.8979
  -1 -14  -1 21.5291 3.08167
   1  14   1 36.4576 6.08543
  -2 -14  -1 465.243 28.1715
   2  14   1 451.448 35.8014
  -3 -14  -1 340.074 18.8686
   3  14   1 359.328 30.2042
  -4 -14  -1 363.179 23.3033
   4  14   1 436.995 33.4671
  -5 -14  -1 64.0388 5.35403
   5  14   1 69.9578 12.9434
  -6 -14  -1 24.2299 3.74280
   6  14   1 10.3643 10.3464
  -7 -14  -1 54.8339 4.74872
   7  14   1 58.4409 21.7840
  -8 -14  -1 11.4558 3.82068
  -9 -14  -1 136.056 14.0638
   9  14   1 77.3196 24.6539
   9 -15  -1 25.4064 2.59103
  -9  15   1 10.4045 6.05523
   8 -15  -1 1.67727 2.91130
  -8  15   1 1.73437 5.93070
   7 -15  -1 57.3833 4.48220
  -7  15   1 28.6929 21.7201
   6 -15  -1 445.751 31.8652
  -6  15   1 441.866 42.5675
   5 -15  -1 7.43429 3.13444
  -5  15   1 7.30703 7.12742
   4 -15  -1 353.004 23.6032
  -4  15   1 357.735 30.8583
   3 -15  -1 268.281 13.1238
  -3  15   1 224.787 22.3906
   2 -15  -1 19.6428 3.07924
  -2  15   1 33.3396 4.85348
   1 -15  -1 41.4088 3.72292
  -1  15   1 41.4591 5.65006
   0 -15  -1 12.1701 2.51251
   0  15   1 9.10609 3.95163
  -1 -15  -1 9.10367 2.64938
   1  15   1 11.4150 5.04589
  -2 -15  -1 65.5683 5.96039
   2  15   1 80.3965 10.6872
  -3 -15  -1 13.3457 2.84222
   3  15   1 2.44025 4.54762
  -4 -15  -1 0.00000 6.79406
   4  15   1 29.9650 12.9554
  -5 -15  -1 169.296 10.4696
   5  15   1 141.651 25.4699
  -6 -15  -1 94.6789 7.57572
   6  15   1 71.0190 13.5953
  -7 -15  -1 85.8864 5.87373
   7  15   1 44.2201 24.0894
  -8 -15  -1 9.83778 3.51829
  -9 -15  -1 68.2235 6.95961
   9  15   1 43.7170 13.1236
   9 -16  -1 3.18816 1.47868
  -9  16   1 3.07516 3.74310
   8 -16  -1 13.9505 3.33935
  -8  16   1 0.00000 5.63521
   7 -16  -1 23.5518 2.81732
  -7  16   1 7.71423 19.1906
   6 -16  -1 45.9392 8.64926
  -6  16   1 58.6334 14.8783
   5 -16  -1 214.328 13.7162
  -5  16   1 178.857 19.8823
   4 -16  -1 70.1321 6.58788
  -4  16   1 102.400 12.9215
   3 -16  -1 138.180 8.39197
  -3  16   1 142.096 27.3582
   2 -16  -1 16.0914 4.58327
  -2  16   1 13.5971 5.06254
   1 -16  -1 58.1386 4.62468
  -1  16   1 42.0804 6.97629
   0 -16  -1 18.7088 3.09927
   0  16   1 12.3113 3.84635
  -1 -16  -1 223.307 11.3562
   1  16   1 162.897 26.6542
  -2 -16  -1 109.178 10.9199
   2  16   1 97.7485 17.3194
  -3 -16  -1 305.482 17.3902
   3  16   1 316.899 55.7393
  -4 -16  -1 219.281 15.8987
   4  16   1 227.988 26.0444
  -5 -16  -1 31.4491 3.29194
   5  16   1 28.4473 10.4506
  -6 -16  -1 130.580 10.1504
   6  16   1 86.6291 19.9604
  -7 -16  -1 147.459 11.6148
   7  16   1 45.2607 35.2613
  -8 -16  -1 11.4510 3.59940
   8 -17  -1 30.9704 6.12911
  -8  17   1 25.3382 10.5739
   7 -17  -1 131.242 11.8307
   6 -17  -1 46.9197 4.14260
  -6  17   1 31.3829 24.9699
   5 -17  -1 26.1167 3.44518
  -5  17   1 26.9287 8.08339
   4 -17  -1 22.2707 3.46891
  -4  17   1 31.4583 9.65549
   3 -17  -1 10.6910 2.63761
  -3  17   1 11.8579 7.50982
   2 -17  -1 28.0615 5.93920
  -2  17   1 46.3857 15.0520
   1 -17  -1 228.158 17.9105
   0 -17  -1 29.5296 6.29673
  -1 -17  -1 267.565 22.5933
   1  17   1 285.777 49.4993
  -2 -17  -1 5.53720 4.01766
   2  17   1 9.35243 11.8457
  -3 -17  -1 78.4972 6.26361
   3  17   1 73.6348 17.0036
  -4 -17  -1 19.1374 4.18855
   4  17   1 9.69346 10.7052
  -5 -17  -1 195.642 12.9248
   5  17   1 158.931 28.2239
  -6 -17  -1 65.7321 10.7530
   6  17   1 21.7293 26.6674
  -7 -17  -1 96.2525 9.85536
  -8 -17  -1 27.4328 6.95864
   7 -18  -1 94.7322 11.1791
  -7  18   1 50.5507 15.6209
   6 -18  -1 34.4369 6.59969
   5 -18  -1 2.12604 2.61132
  -5  18   1 2.70298 7.85750
   4 -18  -1 35.2476 4.22885
  -4  18   1 41.9776 10.3733
   3 -18  -1 77.6820 5.45228
  -3  18   1 78.5613 11.2509
   2 -18  -1 69.3366 10.3457
  -2  18   1 51.4964 18.4309
   1 -18  -1 27.1883 4.37352
   0 -18  -1 7.24324 4.81392
  -1 -18  -1 88.7239 8.71778
   1  18   1 102.979 18.7683
  -2 -18  -1 87.8539 8.22350
   2  18   1 83.3654 20.9652
  -3 -18  -1 59.3778 5.64983
   3  18   1 57.3963 14.6690
  -4 -18  -1 70.6480 5.97336
   4  18   1 46.8436 16.0015
  -5 -18  -1 3.85097 2.21017
   5  18   1 0.57096 19.0609
  -6 -18  -1 29.8775 6.29202
  -7 -18  -1 80.9253 8.45890
   6 -19  -1 102.215 15.9163
   5 -19  -1 0.92940 3.17206
   4 -19  -1 71.9430 10.3223
   3 -19  -1 24.6200 3.13608
  -3  19   1 20.5676 11.0088
   2 -19  -1 27.3144 6.10964
  -2  19   1 25.5984 14.5295
   1 -19  -1 129.555 10.8804
   0 -19  -1 50.3660 7.65934
  -1 -19  -1 242.298 19.4225
   1  19   1 223.281 42.8048
  -2 -19  -1 226.679 18.2208
   2  19   1 206.780 43.5611
  -3 -19  -1 50.3595 4.83263
   3  19   1 35.0742 11.5707
  -4 -19  -1 15.4379 5.10513
  -5 -19  -1 34.0416 3.17333
  -6 -19  -1 20.2076 4.68343
   5 -20  -1 4.80996 1.92479
   4 -20  -1 144.794 24.4857
   3 -20  -1 47.0000 8.47219
   2 -20  -1 171.277 35.2681
   1 -20  -1 262.246 42.3943
   0 -20  -1 0.00000 4.43063
  -1 -20  -1 31.9715 4.49211
  -2 -20  -1 30.1283 8.28171
  -3 -20  -1 65.6214 8.32382
  -4 -20  -1 110.500 20.2718
  -5 -20  -1 34.1020 2.96058
   4 -21  -1 59.2707 17.6301
   3 -21  -1 57.2527 9.53289
   2 -21  -1 102.621 27.9762
   1 -21  -1 62.2540 15.7497
   0 -21  -1 0.58024 5.06611
  -1 -21  -1 32.4374 4.75276
  -2 -21  -1 19.3764 6.31325
  -3 -21  -1 34.2864 4.60345
  -4 -21  -1 17.2495 5.31035
   1 -22  -1 59.2555 9.72615
   0 -22  -1 3.95250 4.60562
  -1 -22  -1 3.26048 3.54445
 -13   0   2 0.00000 3.34845
 -12   0   2 101.142 25.4991
 -11   0   2 44.9402 5.43374
 -10   0   2 117.399 10.1491
  -9   0   2 118.184 12.5770
  -8   0   2 10.1781 4.15624
  -7   0   2 40.4788 3.84754
  -6   0   2 225.284 19.4689
  -5   0   2 346.916 19.0031
  -4   0   2 29.1609 2.70729
  -3   0   2 87.9302 4.91616
  -2   0   2 143.617 10.5829
  -1   0   2 110.752 6.07315
   0   0   2 678.541 47.4277
   1   0   2 4.40501 1.32032
   2   0   2 508.838 48.2808
   3   0   2 930.114 43.5076
   4   0   2 176.788 14.6180
   5   0   2 220.167 10.4763
   6   0   2 88.9751 6.15475
   7   0   2 5.18891 2.56780
   8   0   2 57.9641 13.4704
   9   0   2 106.054 8.84332
  11   0   2 6.85544 2.56785
  13  -1  -2 21.8519 5.77034
 -13   1   2 24.1757 5.75230
  12  -1  -2 64.4208 9.08784
 -12   1   2 34.6217 13.6881
  11  -1  -2 36.4749 4.47378
 -11   1   2 25.5657 5.64238
  10  -1  -2 3.58058 3.80355
 -10   1   2 2.44354 5.08689
   9  -1  -2 33.4887 4.81371
  -9   1   2 37.2417 5.61267
   8  -1  -2 110.178 9.47388
  -8   1   2 98.0620 10.3014
   7  -1  -2 29.6989 3.22169
  -7   1   2 31.1815 3.20354
   6  -1  -2 416.702 26.1565
  -6   1   2 397.512 25.9626
   5  -1  -2 339.234 18.2527
  -5   1   2 364.805 18.8011
   4  -1  -2 721.850 34.7142
  -4   1   2 683.582 36.0054
   3  -1  -2 65.1870 3.54652
  -3   1   2 67.8139 3.72370
   2  -1  -2 428.461 30.9006
  -2   1   2 353.321 28.4712
   1  -1  -2 699.080 35.7395
  -1   1   2 720.251 42.4008
   0  -1  -2 157.038 12.1004
   0   1   2 156.347 14.6055
  -1  -1  -2 619.460 34.4008
   1   1   2 593.884 34.7012
  -2  -1  -2 2003.84 147.897
   2   1   2 2051.80 134.277
  -3  -1  -2 1078.96 47.9948
   3   1   2 1118.06 46.7046
  -4  -1  -2 1361.74 64.2231
   4   1   2 1351.66 65.5640
  -5  -1  -2 918.549 40.6065
   5   1   2 919.086 40.6585
  -6  -1  -2 81.5565 15.3613
   6   1   2 78.3233 15.6247
  -7  -1  -2 25.0079 2.72220
   7   1   2 24.8565 2.66100
  -8  -1  -2 365.331 49.7094
   8   1   2 406.866 73.9284
  -9  -1  -2 58.3734 6.77928
   9   1   2 60.6253 7.66681
 -10  -1  -2 279.586 43.4307
 -11  -1  -2 4.32634 2.26761
  11   1   2 5.50384 2.34770
  12  -2  -2 32.3169 4.16628
 -12   2   2 23.1707 10.1089
  11  -2  -2 15.5431 3.37959
 -11   2   2 6.48460 5.74273
  10  -2  -2 64.4568 5.94048
 -10   2   2 36.3237 8.02183
   9  -2  -2 40.1070 4.51878
  -9   2   2 23.6030 5.34108
   8  -2  -2 73.0721 6.56261
  -8   2   2 59.1611 7.48157
   7  -2  -2 143.534 8.43833
  -7   2   2 138.761 9.66364
   6  -2  -2 725.856 46.2444
  -6   2   2 696.670 45.9609
   5  -2  -2 566.024 31.2892
  -5   2   2 603.040 31.0290
   4  -2  -2 128.521 7.60736
  -4   2   2 106.792 7.88587
   3  -2  -2 954.400 44.0694
  -3   2   2 954.003 41.7593
   2  -2  -2 1720.75 107.298
  -2   2   2 1700.83 107.469
   1  -2  -2 1734.83 96.6987
  -1   2   2 1792.79 105.704
   0  -2  -2 157.419 9.98985
   0   2   2 139.944 11.2500
  -1  -2  -2 2076.34 128.962
   1   2   2 2109.24 127.202
  -2  -2  -2 1605.81 94.2175
   2   2   2 1543.38 90.7774
  -3  -2  -2 485.292 21.6532
   3   2   2 443.519 21.9008
  -4  -2  -2 58.4220 3.93280
   4   2   2 58.8717 4.10028
  -5  -2  -2 238.681 12.0208
   5   2   2 206.987 11.6373
  -6  -2  -2 169.721 11.7400
   6   2   2 153.628 14.3820
  -7  -2  -2 12.2722 2.52136
   7   2   2 6.42497 2.29393
  -8  -2  -2 116.555 13.6954
   8   2   2 101.691 24.3748
  -9  -2  -2 23.1669 3.24187
   9   2   2 17.8103 3.71982
 -10  -2  -2 228.196 15.2069
 -11  -2  -2 44.3386 5.40876
  11   2   2 37.2729 6.29272
 -12  -2  -2 48.3379 10.7645
  12  -3  -2 7.58664 3.54981
 -12   3   2 0.00000 6.49851
  11  -3  -2 4.66695 2.83110
 -11   3   2 1.17032 5.47289
  10  -3  -2 160.471 11.5778
 -10   3   2 142.093 13.8052
   9  -3  -2 129.571 9.59365
  -9   3   2 110.209 10.8432
   8  -3  -2 168.512 11.2349
  -8   3   2 151.033 13.0264
   7  -3  -2 5.05887 2.07497
  -7   3   2 5.89986 2.47216
   6  -3  -2 278.304 17.7943
  -6   3   2 272.094 18.1828
   5  -3  -2 473.826 25.9380
  -5   3   2 494.203 25.8966
   4  -3  -2 162.151 11.6220
  -4   3   2 121.001 12.8526
   3  -3  -2 881.706 40.7019
  -3   3   2 799.433 38.0159
   2  -3  -2 2536.61 156.763
  -2   3   2 2363.41 146.311
   1  -3  -2 1567.13 85.6805
  -1   3   2 1588.97 99.5459
   0  -3  -2 8287.33 1055.96
   0   3   2 8064.08 1140.22
  -1  -3  -2 4598.25 251.663
   1   3   2 4625.99 244.009
  -2  -3  -2 602.094 47.7524
   2   3   2 549.391 43.7793
  -3  -3  -2 247.787 11.8828
   3   3   2 277.133 12.6880
  -4  -3  -2 117.437 7.81749
   4   3   2 93.4654 8.13543
  -5  -3  -2 17.0990 2.19815
   5   3   2 18.8256 2.74510
  -6  -3  -2 221.232 17.1402
   6   3   2 172.716 21.0042
  -7  -3  -2 146.113 8.09493
   7   3   2 109.551 8.92700
  -8  -3  -2 61.9156 8.23429
   8   3   2 38.4247 10.5476
  -9  -3  -2 108.648 7.32446
   9   3   2 81.8452 10.9871
 -10  -3  -2 45.9025 5.48925
  10   3   2 55.7075 17.0531
 -11  -3  -2 30.3727 3.15324
  11   3   2 43.9530 17.7150
 -12  -3  -2 53.8349 11.1993
  12  -4  -2 28.1378 4.52591
  11  -4  -2 2.90527 2.95921
 -11   4   2 4.76102 5.44684
  10  -4  -2 116.320 8.47366
 -10   4   2 70.3884 12.4224
   9  -4  -2 214.040 13.5481
  -9   4   2 168.448 15.8294
   8  -4  -2 6.78104 3.72034
  -8   4   2 6.19292 4.12000
   7  -4  -2 223.376 13.9942
  -7   4   2 226.694 15.8755
   6  -4  -2 567.693 30.0327
  -6   4   2 483.544 29.9758
   5  -4  -2 17.3931 2.28728
  -5   4   2 29.2116 2.49697
   4  -4  -2 808.392 40.9901
  -4   4   2 794.938 46.8938
   3  -4  -2 303.307 12.2917
  -3   4   2 293.176 13.7980
   2  -4  -2 847.797 42.0032
  -2   4   2 809.957 42.5329
   1  -4  -2 1658.79 111.728
  -1   4   2 1742.22 115.409
   0  -4  -2 1031.03 86.9661
   0   4   2 1041.70 103.795
  -1  -4  -2 2170.97 104.647
   1   4   2 2072.53 131.448
  -2  -4  -2 335.936 17.8892
   2   4   2 304.128 20.7258
  -3  -4  -2 436.834 17.4967
   3   4   2 411.186 20.2022
  -4  -4  -2 66.6432 12.3013
   4   4   2 24.0212 13.6322
  -5  -4  -2 57.7161 4.81746
   5   4   2 69.2769 6.17680
  -6  -4  -2 457.076 23.1478
   6   4   2 396.693 31.3027
  -7  -4  -2 38.7326 3.55439
   7   4   2 40.8165 4.21256
  -8  -4  -2 262.878 17.7785
   8   4   2 210.950 24.5728
  -9  -4  -2 171.172 11.1030
   9   4   2 147.541 16.5936
 -10  -4  -2 210.867 15.9604
  10   4   2 188.364 42.5754
 -11  -4  -2 205.856 15.7450
  11   4   2 174.033 40.4995
 -12  -4  -2 56.2678 8.41871
  12  -5  -2 18.7416 4.63360
  11  -5  -2 34.2838 3.99074
 -11   5   2 22.2495 6.68729
  10  -5  -2 62.1539 5.14192
 -10   5   2 48.9910 9.45926
   9  -5  -2 145.399 10.4863
  -9   5   2 144.433 11.7814
   8  -5  -2 33.7806 5.01317
  -8   5   2 25.5436 5.82306
   7  -5  -2 175.215 11.4750
  -7   5   2 177.673 15.1559
   6  -5  -2 238.147 14.5603
  -6   5   2 196.228 14.8554
   5  -5  -2 436.772 22.7017
  -5   5   2 396.463 22.6452
   4  -5  -2 632.993 38.9244
  -4   5   2 516.298 45.3447
   3  -5  -2 397.879 15.0178
  -3   5   2 346.736 16.4089
   2  -5  -2 2105.31 124.577
  -2   5   2 2004.71 131.755
   1  -5  -2 180.384 8.58324
  -1   5   2 180.026 10.4302
   0  -5  -2 55.5731 3.50840
   0   5   2 57.7219 4.60979
  -1  -5  -2 858.307 32.1453
   1   5   2 772.873 47.3731
  -2  -5  -2 491.062 22.3752
   2   5   2 490.857 27.1296
  -3  -5  -2 514.797 21.2163
   3   5   2 473.138 25.3513
  -4  -5  -2 341.930 31.5552
   4   5   2 265.498 38.2806
  -5  -5  -2 172.469 10.5184
   5   5   2 152.173 11.1436
  -6  -5  -2 173.786 12.4349
   6   5   2 141.502 14.5841
  -7  -5  -2 64.6807 4.54903
   7   5   2 48.4248 5.86451
  -8  -5  -2 148.000 10.9113
   8   5   2 134.452 14.4233
  -9  -5  -2 42.6641 3.86330
   9   5   2 41.0809 6.43221
 -10  -5  -2 66.8731 6.94640
  10   5   2 53.8542 17.2982
 -11  -5  -2 65.8249 5.70565
 -12  -5  -2 13.8841 3.05556
  12  -6  -2 17.1291 5.46106
  11  -6  -2 80.5136 6.00321
 -11   6   2 52.5028 9.74737
  10  -6  -2 9.99717 3.03485
 -10   6   2 0.00000 6.43053
   9  -6  -2 67.7389 5.00399
  -9   6   2 63.0698 6.90499
   8  -6  -2 10.3333 4.10295
  -8   6   2 11.1001 4.89120
   7  -6  -2 117.572 7.24892
  -7   6   2 93.2296 7.73298
   6  -6  -2 60.0586 3.93363
  -6   6   2 50.0302 4.80580
   5  -6  -2 731.292 32.8253
  -5   6   2 656.087 36.4679
   4  -6  -2 538.193 29.5310
  -4   6   2 497.049 33.7068
   3  -6  -2 968.335 39.3809
  -3   6   2 905.992 41.6894
   2  -6  -2 64.4902 9.67511
  -2   6   2 51.1465 12.5438
   1  -6  -2 650.953 27.7618
  -1   6   2 652.968 32.3392
   0  -6  -2 1188.59 60.6067
   0   6   2 1127.67 89.0980
  -1  -6  -2 2784.18 105.807
   1   6   2 2908.16 166.500
  -2  -6  -2 477.957 23.4165
   2   6   2 468.241 28.4060
  -3  -6  -2 327.602 14.4143
   3   6   2 331.936 17.3886
  -4  -6  -2 6.95794 3.44314
   4   6   2 2.47691 3.03506
  -5  -6  -2 19.0088 2.36786
   5   6   2 23.7183 3.12987
  -6  -6  -2 46.4480 4.99951
   6   6   2 36.4708 6.07732
  -7  -6  -2 97.9572 6.44942
   7   6   2 102.988 7.39144
  -8  -6  -2 139.371 10.4900
   8   6   2 113.641 13.6868
  -9  -6  -2 235.760 12.8628
   9   6   2 216.012 21.0637
 -10  -6  -2 115.073 10.9120
  10   6   2 137.593 25.9890
 -11  -6  -2 77.0219 6.52507
  12  -7  -2 47.8861 8.40189
  11  -7  -2 111.897 7.50417
 -11   7   2 52.7252 16.5522
  10  -7  -2 271.995 25.2611
 -10   7   2 235.391 40.5136
   9  -7  -2 103.048 6.71961
  -9   7   2 55.2637 11.3939
   8  -7  -2 143.349 12.1474
  -8   7   2 128.132 14.1600
   7  -7  -2 243.570 13.2465
  -7   7   2 247.128 16.1237
   6  -7  -2 158.987 8.36266
  -6   7   2 153.146 10.3005
   5  -7  -2 78.9625 4.00207
  -5   7   2 62.4602 4.79505
   4  -7  -2 38.7416 5.11922
  -4   7   2 34.3784 6.65365
   3  -7  -2 323.956 12.9566
  -3   7   2 294.948 14.3453
   2  -7  -2 758.989 33.2108
  -2   7   2 675.040 41.2196
   1  -7  -2 225.683 9.05511
  -1   7   2 209.575 11.5212
   0  -7  -2 582.328 27.3836
   0   7   2 578.663 42.0037
  -1  -7  -2 332.693 12.6264
   1   7   2 326.040 20.5017
  -2  -7  -2 935.751 42.5851
   2   7   2 880.373 49.5477
  -3  -7  -2 391.324 17.5841
   3   7   2 367.397 22.8107
  -4  -7  -2 81.4897 14.8715
   4   7   2 75.0375 13.7676
  -5  -7  -2 103.114 5.46265
   5   7   2 92.9793 6.91502
  -6  -7  -2 18.6711 4.07540
   6   7   2 13.4921 5.29523
  -7  -7  -2 277.402 15.5937
   7   7   2 258.224 17.2171
  -8  -7  -2 12.4120 6.39790
   8   7   2 23.6343 6.36111
  -9  -7  -2 193.045 10.8185
   9   7   2 162.332 18.9756
 -10  -7  -2 48.3908 6.28495
  10   7   2 37.1406 13.8244
 -11  -7  -2 14.5114 1.93335
  11   7   2 0.00000 4.90254
  12  -8  -2 12.2910 3.07773
 -12   8   2 6.47188 4.79193
  11  -8  -2 10.0365 2.29359
 -11   8   2 0.15200 5.19449
  10  -8  -2 88.9618 7.23613
 -10   8   2 64.0096 15.0106
   9  -8  -2 7.79066 1.75461
  -9   8   2 4.62889 5.13247
   8  -8  -2 420.841 37.9683
  -8   8   2 305.147 30.9785
   7  -8  -2 121.917 6.56274
  -7   8   2 86.9214 7.66236
   6  -8  -2 48.4881 4.36302
  -6   8   2 55.8948 5.60887
   5  -8  -2 272.947 12.1956
  -5   8   2 289.899 15.3628
   4  -8  -2 21.4997 2.88470
  -4   8   2 38.3145 3.53801
   3  -8  -2 93.3915 4.78294
  -3   8   2 92.0856 5.59694
   2  -8  -2 1073.72 61.0879
  -2   8   2 1100.62 74.7199
   1  -8  -2 55.9097 2.70953
  -1   8   2 62.6436 3.95956
   0  -8  -2 1584.10 73.8672
   0   8   2 1595.58 118.133
  -1  -8  -2 187.990 6.99912
   1   8   2 188.238 10.5905
  -2  -8  -2 68.7655 5.35014
   2   8   2 58.2946 7.04615
  -3  -8  -2 343.944 15.6163
   3   8   2 305.365 19.7090
  -4  -8  -2 113.672 6.47621
   4   8   2 117.493 7.78463
  -5  -8  -2 602.598 32.3410
   5   8   2 620.485 37.7218
  -6  -8  -2 132.732 9.31698
   6   8   2 93.9024 13.0539
  -7  -8  -2 370.975 23.8295
   7   8   2 367.012 25.8748
  -8  -8  -2 141.405 13.9945
   8   8   2 121.405 35.3270
  -9  -8  -2 34.3674 2.94022
   9   8   2 28.8822 6.50884
 -10  -8  -2 52.3175 7.47584
  10   8   2 44.9371 14.7530
 -11  -8  -2 33.8278 3.60111
  11   8   2 19.4140 7.34069
  11  -9  -2 7.75730 2.05250
 -11   9   2 0.00000 4.61345
  10  -9  -2 142.143 9.52361
 -10   9   2 111.230 14.8207
   9  -9  -2 16.2063 1.97851
  -9   9   2 18.1730 5.56323
   8  -9  -2 352.282 25.9381
  -8   9   2 250.417 26.7174
   7  -9  -2 80.7834 5.77572
  -7   9   2 79.8781 6.28789
   6  -9  -2 55.5537 5.23013
  -6   9   2 54.5778 5.94311
   5  -9  -2 32.7092 2.64132
  -5   9   2 35.2480 3.28526
   4  -9  -2 635.542 27.3398
  -4   9   2 600.535 34.4597
   3  -9  -2 33.1152 2.27941
  -3   9   2 27.9972 2.67175
   2  -9  -2 254.364 12.0801
  -2   9   2 265.080 16.1652
   1  -9  -2 28.2525 1.84906
  -1   9   2 22.9571 2.70081
   0  -9  -2 8.68384 1.28184
   0   9   2 14.2084 2.65053
  -1  -9  -2 105.127 4.67591
   1   9   2 140.712 7.59639
  -2  -9  -2 739.010 40.9144
   2   9   2 753.740 52.2919
  -3  -9  -2 327.913 17.2112
   3   9   2 365.869 18.8217
  -4  -9  -2 83.0092 6.84622
   4   9   2 86.9932 9.84218
  -5  -9  -2 225.183 14.3778
   5   9   2 227.111 16.2803
  -6  -9  -2 511.585 36.6487
   6   9   2 503.578 60.6995
  -7  -9  -2 23.1639 3.14750
   7   9   2 18.1656 3.94598
  -8  -9  -2 406.693 36.2619
   8   9   2 440.065 81.8150
  -9  -9  -2 13.0747 2.12162
   9   9   2 8.88179 5.74456
 -10  -9  -2 16.5906 3.84530
 -11  -9  -2 3.12446 1.86115
  11   9   2 3.75721 3.95867
  11 -10  -2 32.1089 3.37019
 -11  10   2 16.5242 7.18710
  10 -10  -2 125.125 9.55489
 -10  10   2 51.9611 21.0821
   9 -10  -2 23.4499 2.09897
  -9  10   2 10.9882 5.23079
   8 -10  -2 5.91450 2.15877
  -8  10   2 4.32893 5.48548
   7 -10  -2 34.2369 3.82911
  -7  10   2 34.5522 4.14951
   6 -10  -2 319.931 17.4233
  -6  10   2 276.148 19.2285
   5 -10  -2 373.662 18.9746
  -5  10   2 396.931 27.1960
   4 -10  -2 139.352 8.80585
  -4  10   2 142.364 11.8624
   3 -10  -2 495.807 20.2069
  -3  10   2 499.391 25.3531
   2 -10  -2 424.466 22.0378
  -2  10   2 454.355 29.3090
   1 -10  -2 208.306 8.69355
  -1  10   2 189.126 12.2531
   0 -10  -2 3425.71 178.505
   0  10   2 3464.48 267.513
  -1 -10  -2 283.593 12.7176
   1  10   2 316.973 17.6498
  -2 -10  -2 207.404 26.2190
   2  10   2 263.854 29.2807
  -3 -10  -2 18.6060 1.91968
   3  10   2 18.3635 2.66854
  -4 -10  -2 130.007 7.54346
   4  10   2 153.641 11.8123
  -5 -10  -2 16.3227 2.35948
   5  10   2 14.9240 2.92150
  -6 -10  -2 350.745 24.3038
   6  10   2 289.530 56.9772
  -7 -10  -2 74.3309 4.15634
   7  10   2 51.3433 8.99659
  -8 -10  -2 57.5718 9.37378
   8  10   2 35.4303 24.9296
  -9 -10  -2 45.2712 3.22570
   9  10   2 31.8801 6.92167
 -10 -10  -2 16.5367 4.53359
 -11 -10  -2 7.64388 1.50374
  11  10   2 5.67642 3.93659
  11 -11  -2 17.2170 2.22865
 -11  11   2 5.03379 5.04253
  10 -11  -2 31.8865 4.62247
 -10  11   2 1.71361 8.15607
   9 -11  -2 128.069 7.71937
  -9  11   2 101.197 12.4585
   8 -11  -2 16.7142 2.49593
  -8  11   2 15.0682 5.93092
   7 -11  -2 94.5285 5.12021
  -7  11   2 69.3622 7.55047
   6 -11  -2 116.740 8.92627
  -6  11   2 121.021 9.86928
   5 -11  -2 9.44697 1.91581
  -5  11   2 13.7918 2.74637
   4 -11  -2 621.368 29.4266
  -4  11   2 601.361 44.0790
   3 -11  -2 25.1923 1.94370
  -3  11   2 20.9609 2.65038
   2 -11  -2 30.0396 3.00243
  -2  11   2 30.2131 5.42172
   1 -11  -2 162.759 6.27052
  -1  11   2 158.114 10.3966
   0 -11  -2 452.423 23.9098
   0  11   2 509.409 38.3931
  -1 -11  -2 117.017 5.65461
   1  11   2 130.416 8.67434
  -2 -11  -2 650.442 32.4410
   2  11   2 708.407 42.2468
  -3 -11  -2 113.872 6.80479
   3  11   2 103.921 7.95029
  -4 -11  -2 85.5895 8.32258
   4  11   2 109.641 11.9936
  -5 -11  -2 240.012 15.9693
   5  11   2 267.752 24.6594
  -6 -11  -2 322.559 22.2813
   6  11   2 330.880 40.9708
  -7 -11  -2 105.439 6.38478
   7  11   2 82.7711 27.8753
  -8 -11  -2 196.767 12.4773
   8  11   2 162.726 39.4114
  -9 -11  -2 54.6756 3.76534
   9  11   2 41.9742 9.42047
 -10 -11  -2 94.6944 11.5870
  10 -12  -2 70.0093 7.84654
 -10  12   2 15.4866 13.3996
   9 -12  -2 17.3745 2.04908
  -9  12   2 11.6440 4.76891
   8 -12  -2 12.7064 3.01412
  -8  12   2 9.46487 5.75173
   7 -12  -2 17.3123 2.33643
  -7  12   2 12.0521 9.89070
   6 -12  -2 759.620 49.1710
  -6  12   2 699.756 55.1891
   5 -12  -2 556.661 29.2157
  -5  12   2 553.495 38.9007
   4 -12  -2 358.709 18.7336
  -4  12   2 358.774 28.7842
   3 -12  -2 95.0841 4.82669
  -3  12   2 75.4593 7.50136
   2 -12  -2 806.016 44.9759
  -2  12   2 856.707 71.0320
   1 -12  -2 9.20713 1.36181
  -1  12   2 9.44686 2.27863
   0 -12  -2 442.583 21.3649
   0  12   2 494.867 35.6668
  -1 -12  -2 77.1283 4.16537
   1  12   2 64.6948 7.71050
  -2 -12  -2 168.841 14.3601
   2  12   2 208.369 19.7700
  -3 -12  -2 87.9403 6.00294
   3  12   2 102.398 10.0495
  -4 -12  -2 86.5817 9.04856
   4  12   2 129.354 12.6229
  -5 -12  -2 42.4175 4.96534
   5  12   2 36.3024 7.65472
  -6 -12  -2 95.7068 7.30670
   6  12   2 80.6923 12.9545
  -7 -12  -2 68.8561 4.29029
   7  12   2 27.8383 22.1060
  -8 -12  -2 44.7100 6.14924
  -9 -12  -2 17.2977 2.19341
   9  12   2 2.49008 5.76658
 -10 -12  -2 130.474 16.9448
  10 -13  -2 59.9162 12.2314
 -10  13   2 21.2676 17.5654
   9 -13  -2 14.7987 2.04478
  -9  13   2 3.93355 5.53403
   8 -13  -2 67.0368 5.65814
  -8  13   2 27.9221 9.00951
   7 -13  -2 17.6498 2.40584
  -7  13   2 0.00000 19.8380
   6 -13  -2 182.888 15.1218
  -6  13   2 147.266 24.8950
   5 -13  -2 38.0237 3.39581
  -5  13   2 44.5716 4.57012
   4 -13  -2 1107.51 64.5301
  -4  13   2 1172.89 95.0760
   3 -13  -2 122.510 6.51640
  -3  13   2 127.596 10.4180
   2 -13  -2 61.4702 4.54450
  -2  13   2 71.5303 7.45121
   1 -13  -2 201.397 10.2233
  -1  13   2 183.531 18.3202
   0 -13  -2 200.617 11.7753
   0  13   2 246.368 28.3900
  -1 -13  -2 52.6862 4.06765
   1  13   2 47.5735 6.82988
  -2 -13  -2 375.345 21.7957
   2  13   2 389.341 30.2553
  -3 -13  -2 7.42538 2.51259
   3  13   2 0.74822 3.98804
  -4 -13  -2 350.139 21.8223
   4  13   2 416.535 29.3738
  -5 -13  -2 280.084 20.7275
   5  13   2 277.036 37.8091
  -6 -13  -2 37.1902 6.85960
  -7 -13  -2 161.770 9.37574
   7  13   2 63.5073 35.3979
  -8 -13  -2 68.9190 5.60479
  -9 -13  -2 19.2371 2.26591
   9  13   2 11.5953 6.08610
 -10 -13  -2 12.9222 2.91607
  10 -14  -2 14.2130 4.40897
 -10  14   2 5.28677 6.11519
   9 -14  -2 8.33756 1.82825
  -9  14   2 5.72914 5.24491
   8 -14  -2 25.3441 3.08796
  -8  14   2 8.25349 6.10644
   7 -14  -2 50.4602 4.18635
  -7  14   2 28.3557 11.7825
   6 -14  -2 255.836 16.3141
  -6  14   2 223.700 28.5584
   5 -14  -2 109.349 6.24503
  -5  14   2 113.016 8.14550
   4 -14  -2 206.916 11.5303
  -4  14   2 222.445 17.7008
   3 -14  -2 81.5523 5.05605
  -3  14   2 88.4418 7.63993
   2 -14  -2 275.473 16.9897
  -2  14   2 269.166 28.9368
   1 -14  -2 19.3336 2.10974
  -1  14   2 17.5948 3.45368
   0 -14  -2 57.9084 4.56579
   0  14   2 67.7266 8.95569
  -1 -14  -2 143.932 9.69310
   1  14   2 138.271 15.4930
  -2 -14  -2 33.0340 8.32122
   2  14   2 43.9247 13.3500
  -3 -14  -2 17.8018 3.01593
   3  14   2 19.8517 5.04019
  -4 -14  -2 205.281 13.9442
   4  14   2 222.439 17.8817
  -5 -14  -2 157.678 11.0468
   5  14   2 108.083 21.0400
  -6 -14  -2 51.6756 6.33427
  -7 -14  -2 79.5175 5.72823
   7  14   2 22.7547 23.2371
  -8 -14  -2 178.719 22.3970
  -9 -14  -2 17.9744 2.22011
   9  14   2 10.0862 5.41197
   9 -15  -2 85.6321 9.00116
  -9  15   2 52.6806 14.7890
   8 -15  -2 32.5285 3.44550
  -8  15   2 7.49313 8.48346
   7 -15  -2 533.450 37.9260
  -7  15   2 477.786 71.1439
   6 -15  -2 47.7534 8.60483
  -6  15   2 27.6554 16.5044
   5 -15  -2 127.339 7.25841
  -5  15   2 97.3566 13.8289
   4 -15  -2 645.905 55.3223
  -4  15   2 727.533 84.1711
   3 -15  -2 721.310 38.0185
  -3  15   2 637.105 66.4249
   2 -15  -2 53.2331 4.60110
  -2  15   2 74.8310 7.40814
   1 -15  -2 240.210 13.0761
  -1  15   2 194.738 18.1850
   0 -15  -2 43.8243 4.62514
   0  15   2 39.5864 6.73182
  -1 -15  -2 11.2181 3.46841
   1  15   2 15.9438 4.81977
  -2 -15  -2 264.407 18.4926
   2  15   2 264.411 29.3370
  -3 -15  -2 10.6894 2.46366
   3  15   2 7.19100 4.83370
  -4 -15  -2 63.0702 5.98832
   4  15   2 73.8244 13.5423
  -5 -15  -2 37.1225 4.25169
   5  15   2 42.8741 10.8138
  -6 -15  -2 84.9928 7.37015
  -7 -15  -2 16.3514 2.10560
   7  15   2 24.5209 17.1804
  -8 -15  -2 48.4577 10.4684
  -9 -15  -2 49.2770 5.35917
   9  15   2 35.3158 10.1778
   9 -16  -2 22.4495 2.30090
  -9  16   2 6.82498 5.36400
   8 -16  -2 93.0449 9.74644
  -8  16   2 39.2940 18.4577
   7 -16  -2 171.981 11.7437
  -7  16   2 106.581 22.1502
   6 -16  -2 308.384 19.6350
  -6  16   2 340.276 32.8877
   5 -16  -2 178.906 11.5430
  -5  16   2 164.927 17.5232
   4 -16  -2 53.4973 5.68070
  -4  16   2 75.1344 12.5401
   3 -16  -2 112.710 7.96091
  -3  16   2 90.2847 23.3561
   2 -16  -2 193.966 12.7577
  -2  16   2 167.324 33.6835
   1 -16  -2 179.205 9.39190
  -1  16   2 162.523 16.5075
   0 -16  -2 12.2748 2.98451
   0  16   2 8.62500 3.65214
  -1 -16  -2 180.859 14.5864
   1  16   2 218.717 20.4642
  -2 -16  -2 77.8561 11.6308
   2  16   2 63.8163 22.4217
  -3 -16  -2 294.221 18.0481
   3  16   2 305.873 52.1087
  -4 -16  -2 3.05593 3.45066
   4  16   2 0.59882 9.74115
  -5 -16  -2 119.031 8.02300
   5  16   2 135.884 19.9690
  -6 -16  -2 9.41742 4.02137
  -7 -16  -2 0.75579 1.72566
  -8 -16  -2 19.0263 4.85160
   8 -17  -2 42.4592 11.5462
   7 -17  -2 11.7217 2.23970
   6 -17  -2 17.3396 3.51476
  -6  17   2 9.87537 11.3008
   5 -17  -2 131.238 8.83958
  -5  17   2 148.121 15.5725
   4 -17  -2 240.654 16.7971
  -4  17   2 252.873 30.6637
   3 -17  -2 181.847 11.8601
  -3  17   2 114.725 35.2912
   2 -17  -2 4.67004 3.01704
  -2  17   2 0.00000 12.2492
   1 -17  -2 130.837 11.9690
   0 -17  -2 143.797 16.4151
  -1 -17  -2 34.6702 4.56996
   1  17   2 62.5692 12.2347
  -2 -17  -2 9.97260 5.18138
   2  17   2 3.85429 11.8250
  -3 -17  -2 74.0722 6.49597
   3  17   2 94.5395 16.7082
  -4 -17  -2 61.0192 5.30500
   4  17   2 43.1099 11.6693
  -5 -17  -2 11.1506 2.41015
   5  17   2 2.76691 9.20578
  -6 -17  -2 12.2171 5.05056
  -7 -17  -2 49.8046 5.52256
   7 -18  -2 0.81419 2.06114
  -7  18   2 0.00000 4.59137
   6 -18  -2 76.7980 14.8561
   5 -18  -2 32.2949 3.45121
  -5  18   2 30.1253 9.57562
   4 -18  -2 14.0938 3.26773
  -4  18   2 4.82616 9.31538
   3 -18  -2 135.222 9.01054
  -3  18   2 99.4779 17.7032
   2 -18  -2 74.1155 7.27042
  -2  18   2 54.2732 21.2025
   1 -18  -2 36.2831 4.88773
   0 -18  -2 19.2553 5.23244
  -1 -18  -2 59.9140 5.31738
   1  18   2 42.7161 14.1960
  -2 -18  -2 3.79272 3.75022
   2  18   2 5.82969 12.1954
  -3 -18  -2 46.1255 4.81903
   3  18   2 39.4323 13.1991
  -4 -18  -2 16.3826 4.27527
   4  18   2 17.4274 13.0059
  -5 -18  -2 13.9980 2.00071
   5  18   2 0.00000 21.1293
  -6 -18  -2 46.3424 9.03699
  -7 -18  -2 4.00231 1.56040
   6 -19  -2 101.027 13.8123
   5 -19  -2 34.6773 6.93116
   4 -19  -2 261.969 25.6651
   3 -19  -2 12.1050 2.44182
  -3  19   2 13.1414 8.84114
   2 -19  -2 135.403 17.1461
  -2  19   2 110.542 36.8255
   1 -19  -2 1.09666 3.20642
   0 -19  -2 128.757 11.0188
   0  19   2 113.002 29.6472
  -1 -19  -2 83.2753 6.70161
   1  19   2 88.1195 17.5381
  -2 -19  -2 70.7049 6.82359
   2  19   2 80.4055 18.8825
  -3 -19  -2 75.1062 6.84116
   3  19   2 71.7743 14.6176
  -4 -19  -2 7.24785 5.25354
  -5 -19  -2 14.1282 1.90474
  -6 -19  -2 4.97182 2.91459
   5 -20  -2 42.5571 7.47509
   4 -20  -2 29.2896 6.75726
   3 -20  -2 15.2475 3.03546
   2 -20  -2 16.4501 5.78287
   1 -20  -2 84.7938 10.5196
   0 -20  -2 0.77866 4.39980
  -1 -20  -2 51.2007 6.44798
  -2 -20  -2 1.23771 5.02812
  -3 -20  -2 52.1663 6.76189
  -4 -20  -2 40.2777 10.2148
  -5 -20  -2 24.2760 2.76177
   4 -21  -2 89.3990 15.4634
   3 -21  -2 66.4690 10.7978
   2 -21  -2 37.4629 12.9919
   1 -21  -2 2.32807 3.03344
   0 -21  -2 34.6591 7.06995
  -1 -21  -2 6.09587 3.02330
  -2 -21  -2 138.740 29.1591
  -3 -21  -2 9.47703 2.81118
   1 -22  -2 20.1638 4.06029
   0 -22  -2 12.0147 4.79546
  -1 -22  -2 20.6035 3.44545
 -13   0   3 81.7339 9.98565
 -12   0   3 4.48313 2.04454
 -11   0   3 74.1818 7.61288
 -10   0   3 15.5136 5.05815
  -9   0   3 150.259 14.5029
  -8   0   3 119.333 26.7504
  -7   0   3 289.225 17.7418
  -6   0   3 144.533 28.7918
  -5   0   3 297.868 16.6025
  -4   0   3 641.818 31.8027
  -3   0   3 1350.91 60.0320
  -2   0   3 1429.59 82.4028
  -1   0   3 1630.17 99.9966
   0   0   3 232.990 15.9026
   1   0   3 1459.06 80.2435
   2   0   3 1093.21 61.8669
   3   0   3 193.638 9.59607
   4   0   3 755.479 54.9030
   5   0   3 70.8493 5.21351
   6   0   3 81.8965 7.76618
   7   0   3 4.54185 2.47210
   8   0   3 11.2142 8.21799
   9   0   3 270.671 31.1067
  11   0   3 1.40678 2.23299
  13  -1  -3 0.00000 2.64694
 -13   1   3 2.13368 2.24531
  12  -1  -3 3.25933 3.29685
 -12   1   3 0.00000 5.12138
  11  -1  -3 4.50184 3.19696
 -11   1   3 9.71657 3.96144
  10  -1  -3 38.8786 4.48657
 -10   1   3 21.9992 4.55441
   9  -1  -3 60.5042 6.63121
  -9   1   3 43.3366 7.02571
   8  -1  -3 422.367 24.7579
  -8   1   3 331.531 30.5985
   7  -1  -3 0.06385 2.42209
  -7   1   3 3.21638 2.52283
   6  -1  -3 211.946 13.5791
  -6   1   3 166.341 14.1198
   5  -1  -3 124.076 8.21307
  -5   1   3 107.156 8.07732
   4  -1  -3 340.432 18.8244
  -4   1   3 334.893 20.0578
   3  -1  -3 362.413 16.2354
  -3   1   3 355.000 14.9243
   2  -1  -3 1546.90 107.517
  -2   1   3 1500.63 110.506
   1  -1  -3 197.473 9.93779
  -1   1   3 197.275 11.5777
   0  -1  -3 2907.58 243.095
   0   1   3 2894.76 259.127
  -1  -1  -3 36.7637 2.77811
   1   1   3 29.4762 2.65850
  -2  -1  -3 113.098 14.6054
   2   1   3 108.254 14.7543
  -3  -1  -3 45.9062 2.65405
   3   1   3 35.2656 2.62271
  -4  -1  -3 406.871 24.7429
   4   1   3 428.680 27.4746
  -5  -1  -3 384.141 18.2041
   5   1   3 352.743 18.9799
  -6  -1  -3 422.218 22.9657
   6   1   3 415.832 24.8033
  -7  -1  -3 24.0241 2.91962
   7   1   3 24.5557 3.23532
  -8  -1  -3 22.4601 7.85333
   8   1   3 24.5143 10.9623
  -9  -1  -3 245.745 17.2586
   9   1   3 251.984 27.9559
 -10  -1  -3 99.1773 19.3784
 -11  -1  -3 52.7454 7.21685
  11   1   3 59.5918 8.58708
  12  -2  -3 58.2322 7.34828
 -12   2   3 20.9196 10.8496
  11  -2  -3 8.01937 4.45188
 -11   2   3 3.22881 1.91993
  10  -2  -3 54.9105 6.33254
 -10   2   3 50.7329 7.66307
   9  -2  -3 128.051 10.6773
  -9   2   3 119.292 10.6965
   8  -2  -3 258.857 22.7991
  -8   2   3 263.145 24.2143
   7  -2  -3 93.5972 6.28033
  -7   2   3 97.3291 7.39716
   6  -2  -3 396.192 28.0940
  -6   2   3 372.604 30.5452
   5  -2  -3 25.9356 2.84438
  -5   2   3 28.9979 2.96198
   4  -2  -3 430.278 19.7583
  -4   2   3 364.089 20.2284
   3  -2  -3 776.609 32.2856
  -3   2   3 737.119 33.4100
   2  -2  -3 501.777 45.2712
  -2   2   3 465.350 46.5274
   1  -2  -3 212.289 12.0367
  -1   2   3 206.746 14.0026
   0  -2  -3 463.048 30.9543
   0   2   3 393.282 45.4626
  -1  -2  -3 296.503 17.6485
   1   2   3 278.946 16.7426
  -2  -2  -3 585.778 32.3901
   2   2   3 535.250 32.1592
  -3  -2  -3 994.503 44.1996
   3   2   3 881.901 44.0155
  -4  -2  -3 172.998 14.5454
   4   2   3 141.476 17.4029
  -5  -2  -3 229.313 12.6339
   5   2   3 235.459 13.7239
  -6  -2  -3 137.219 10.8045
   6   2   3 149.941 13.1061
  -7  -2  -3 106.710 7.73620
   7   2   3 117.152 8.58347
  -8  -2  -3 447.586 35.5515
   8   2   3 410.070 83.0407
  -9  -2  -3 5.48874 2.75874
   9   2   3 3.32359 2.74982
 -10  -2  -3 50.2585 6.50576
 -11  -2  -3 12.2016 2.43528
  11   2   3 19.2079 3.17490
  12  -3  -3 57.3419 7.64206
 -12   3   3 28.1262 11.3888
  11  -3  -3 7.38284 3.10180
 -11   3   3 0.00000 5.49074
  10  -3  -3 90.6353 8.49109
 -10   3   3 65.2771 13.5054
   9  -3  -3 180.630 12.7431
  -9   3   3 168.665 15.1018
   8  -3  -3 175.887 11.5610
  -8   3   3 148.755 13.5998
   7  -3  -3 63.4050 4.47258
  -7   3   3 64.3982 5.61000
   6  -3  -3 42.6453 7.67936
  -6   3   3 42.3198 7.68218
   5  -3  -3 709.941 34.2443
  -5   3   3 661.668 34.1639
   4  -3  -3 763.564 51.3448
  -4   3   3 616.675 56.0029
   3  -3  -3 175.435 7.33681
  -3   3   3 185.051 8.67977
   2  -3  -3 1541.89 77.6096
  -2   3   3 1590.14 84.6005
   1  -3  -3 1450.68 79.3188
  -1   3   3 1440.89 90.9993
   0  -3  -3 4479.66 372.345
   0   3   3 4209.64 395.565
  -1  -3  -3 420.906 21.7707
   1   3   3 392.116 28.0098
  -2  -3  -3 24.1525 2.81524
   2   3   3 26.4553 3.20151
  -3  -3  -3 396.470 19.8439
   3   3   3 346.319 21.1137
  -4  -3  -3 303.243 22.4159
   4   3   3 255.143 25.1031
  -5  -3  -3 5.78570 1.77315
   5   3   3 6.72479 2.10584
  -6  -3  -3 459.706 27.5464
   6   3   3 457.194 34.3979
  -7  -3  -3 209.580 13.4236
   7   3   3 215.200 15.9660
  -8  -3  -3 110.128 11.2703
   8   3   3 124.100 14.7452
  -9  -3  -3 208.138 13.4731
   9   3   3 196.987 22.5139
 -10  -3  -3 64.7596 6.02640
 -11  -3  -3 64.3676 5.56153
 -12  -3  -3 27.3019 8.00161
  12  -4  -3 4.02492 2.88817
 -12   4   3 0.00000 4.84781
  11  -4  -3 17.2222 3.31747
 -11   4   3 9.13606 5.88192
  10  -4  -3 40.4583 5.23248
 -10   4   3 18.6497 8.04695
   9  -4  -3 10.1069 3.72118
  -9   4   3 0.67466 4.31838
   8  -4  -3 12.7279 3.83633
  -8   4   3 9.70734 4.44193
   7  -4  -3 0.74613 2.03848
  -7   4   3 0.38088 2.41790
   6  -4  -3 167.397 11.0477
  -6   4   3 141.975 11.5366
   5  -4  -3 606.134 28.1741
  -5   4   3 557.969 28.0452
   4  -4  -3 961.860 43.5394
  -4   4   3 808.965 46.4029
   3  -4  -3 248.060 9.06426
  -3   4   3 186.403 10.5873
   2  -4  -3 491.486 24.7757
  -2   4   3 481.703 26.8405
   1  -4  -3 811.812 33.7653
  -1   4   3 808.407 43.2628
   0  -4  -3 6754.49 503.545
   0   4   3 6492.41 463.463
  -1  -4  -3 399.813 16.7124
   1   4   3 374.556 21.3220
  -2  -4  -3 301.399 17.5644
   2   4   3 310.558 20.2405
  -3  -4  -3 198.244 9.97242
   3   4   3 183.520 11.4136
  -4  -4  -3 1376.63 86.3835
   4   4   3 1259.83 102.900
  -5  -4  -3 386.996 19.1776
   5   4   3 360.835 21.0387
  -6  -4  -3 287.101 23.1523
   6   4   3 292.182 29.9165
  -7  -4  -3 148.290 9.13975
   7   4   3 144.035 10.9674
  -8  -4  -3 6.83820 5.69344
   8   4   3 14.5423 5.75021
  -9  -4  -3 162.451 9.37261
   9   4   3 155.613 18.4859
 -10  -4  -3 33.4599 4.86217
  10   4   3 36.9119 13.3027
 -11  -4  -3 109.105 9.01553
  12  -5  -3 1.77167 2.71097
 -12   5   3 1.90692 4.76534
  11  -5  -3 23.5139 3.06040
 -11   5   3 11.0865 6.45648
  10  -5  -3 37.2283 4.72833
 -10   5   3 24.4580 7.77610
   9  -5  -3 80.8424 6.37893
  -9   5   3 67.9626 7.05718
   8  -5  -3 178.355 11.0368
  -8   5   3 136.784 13.1896
   7  -5  -3 60.3030 5.08684
  -7   5   3 68.2830 5.98458
   6  -5  -3 64.6614 5.43505
  -6   5   3 43.0216 5.86174
   5  -5  -3 100.162 5.36493
  -5   5   3 77.3132 5.38921
   4  -5  -3 177.357 8.58545
  -4   5   3 154.309 9.90076
   3  -5  -3 12.3305 1.24197
  -3   5   3 13.8277 1.59879
   2  -5  -3 231.291 13.5478
  -2   5   3 205.618 15.8846
   1  -5  -3 224.267 9.63964
  -1   5   3 177.953 10.7334
   0  -5  -3 9999.99 547.852
   0   5   3 8395.63 1011.36
  -1  -5  -3 481.591 20.3312
   1   5   3 533.670 29.8807
  -2  -5  -3 311.522 16.2674
   2   5   3 306.276 19.4338
  -3  -5  -3 40.3847 2.76919
   3   5   3 49.8183 3.40808
  -4  -5  -3 332.809 20.9481
   4   5   3 276.113 25.3700
  -5  -5  -3 340.814 15.8443
   5   5   3 293.885 19.0593
  -6  -5  -3 127.957 10.3653
   6   5   3 69.6119 14.1694
  -7  -5  -3 37.7635 3.87150
   7   5   3 39.0541 4.22247
  -8  -5  -3 11.1745 5.57975
   8   5   3 33.0103 5.89796
  -9  -5  -3 13.4348 2.42268
   9   5   3 25.3796 7.55708
 -10  -5  -3 52.7163 6.25856
  10   5   3 50.9356 15.2484
 -11  -5  -3 5.83437 1.75966
  12  -6  -3 26.0046 3.77539
 -12   6   3 9.36979 6.88257
  11  -6  -3 57.3499 5.13739
 -11   6   3 44.1188 8.32111
  10  -6  -3 73.9121 5.44132
 -10   6   3 59.3564 10.1274
   9  -6  -3 191.774 12.4381
  -9   6   3 186.044 15.6659
   8  -6  -3 356.499 27.7835
  -8   6   3 289.344 33.0799
   7  -6  -3 18.8979 2.84636
  -7   6   3 25.8453 3.77471
   6  -6  -3 29.4212 6.32587
  -6   6   3 24.2032 6.78663
   5  -6  -3 113.980 6.71541
  -5   6   3 147.964 6.69266
   4  -6  -3 390.432 17.0835
  -4   6   3 380.497 19.3568
   3  -6  -3 260.514 10.9506
  -3   6   3 292.839 12.9988
   2  -6  -3 434.275 21.7897
  -2   6   3 395.817 25.8387
   1  -6  -3 1453.92 62.7542
  -1   6   3 1465.53 73.9208
   0  -6  -3 1650.03 78.6759
   0   6   3 1581.33 127.381
  -1  -6  -3 2531.16 102.774
   1   6   3 2544.21 160.061
  -2  -6  -3 1163.13 75.6690
   2   6   3 1283.93 92.1894
  -3  -6  -3 553.519 24.5457
   3   6   3 529.526 29.8654
  -4  -6  -3 493.377 32.9906
   4   6   3 440.463 37.8135
  -5  -6  -3 105.868 6.22877
   5   6   3 99.7757 7.74157
  -6  -6  -3 370.942 25.8012
   6   6   3 321.739 35.1261
  -7  -6  -3 376.573 21.5143
   7   6   3 360.577 23.9324
  -8  -6  -3 68.5630 13.3143
   8   6   3 63.1756 11.5102
  -9  -6  -3 44.9822 3.59079
   9   6   3 56.5353 8.71313
 -10  -6  -3 168.326 16.0421
  10   6   3 229.964 36.3501
 -11  -6  -3 29.3807 2.93593
  12  -7  -3 75.2443 9.32389
 -12   7   3 30.6056 14.0567
  11  -7  -3 31.2909 3.34219
 -11   7   3 20.5347 6.82144
  10  -7  -3 506.122 37.0807
 -10   7   3 541.338 69.9658
   9  -7  -3 45.8228 3.64839
  -9   7   3 27.1022 7.23672
   8  -7  -3 130.406 10.5104
  -8   7   3 144.617 13.3005
   7  -7  -3 121.305 8.37622
  -7   7   3 117.473 8.46470
   6  -7  -3 39.8219 3.73958
  -6   7   3 35.6834 4.55406
   5  -7  -3 49.4437 3.04150
  -5   7   3 53.9303 3.38327
   4  -7  -3 169.172 11.5183
  -4   7   3 163.756 13.1444
   3  -7  -3 97.1072 4.59281
  -3   7   3 91.3381 5.45080
   2  -7  -3 204.303 15.4895
  -2   7   3 183.943 19.3463
   1  -7  -3 180.278 7.74692
  -1   7   3 193.090 10.3132
   0  -7  -3 13.8117 1.27763
   0   7   3 9.16146 2.11941
  -1  -7  -3 105.609 4.68503
   1   7   3 103.423 7.61222
  -2  -7  -3 13.1417 5.36635
   2   7   3 9.86089 7.03793
  -3  -7  -3 220.739 10.7361
   3   7   3 232.896 13.3347
  -4  -7  -3 105.990 26.1033
   4   7   3 109.424 20.6146
  -5  -7  -3 62.8275 4.07230
   5   7   3 36.3915 4.75354
  -6  -7  -3 111.894 19.2821
   6   7   3 65.1201 25.4734
  -7  -7  -3 54.5656 4.61218
   7   7   3 51.5663 5.10655
  -8  -7  -3 123.320 11.8158
   8   7   3 136.851 28.3160
  -9  -7  -3 15.0662 2.34572
   9   7   3 8.28875 5.20281
 -10  -7  -3 15.7852 4.89559
  10   7   3 1.96669 12.1161
 -11  -7  -3 61.4815 5.25147
  12  -8  -3 13.1276 3.40856
 -12   8   3 6.64607 4.80227
  11  -8  -3 99.6433 7.97328
 -11   8   3 59.0116 14.9505
  10  -8  -3 80.9577 6.26501
 -10   8   3 49.8946 12.6197
   9  -8  -3 103.435 6.62958
  -9   8   3 83.7039 12.1466
   8  -8  -3 166.654 10.8642
  -8   8   3 124.715 12.9247
   7  -8  -3 302.162 17.8357
  -7   8   3 263.666 18.1925
   6  -8  -3 277.474 19.4319
  -6   8   3 260.818 22.7091
   5  -8  -3 17.0850 2.04062
  -5   8   3 20.9551 2.55062
   4  -8  -3 138.661 7.99145
  -4   8   3 117.842 9.15015
   3  -8  -3 322.301 12.6522
  -3   8   3 255.883 14.7281
   2  -8  -3 148.132 6.84743
  -2   8   3 142.168 8.69503
   1  -8  -3 508.113 21.5584
  -1   8   3 516.494 27.6398
   0  -8  -3 427.004 21.5183
   0   8   3 459.218 33.3988
  -1  -8  -3 937.329 35.7532
   1   8   3 898.296 58.8664
  -2  -8  -3 930.299 52.7197
   2   8   3 1013.84 66.7057
  -3  -8  -3 495.606 23.1885
   3   8   3 438.554 26.2263
  -4  -8  -3 186.388 12.1848
   4   8   3 195.373 15.0531
  -5  -8  -3 9.71304 2.09321
   5   8   3 11.4817 2.75489
  -6  -8  -3 271.969 21.7769
   6   8   3 241.428 27.9252
  -7  -8  -3 113.324 7.68605
   7   8   3 101.661 8.05892
  -8  -8  -3 160.503 12.7037
   8   8   3 167.438 34.3775
  -9  -8  -3 18.9132 2.35718
   9   8   3 19.5937 4.74137
 -10  -8  -3 55.2048 8.08243
 -11  -8  -3 7.09117 1.48603
  11  -9  -3 47.9690 4.25532
 -11   9   3 24.8538 9.72394
  10  -9  -3 78.0338 6.35457
 -10   9   3 35.6869 11.5605
   9  -9  -3 39.5042 2.93533
  -9   9   3 18.7330 6.70157
   8  -9  -3 34.4352 3.46109
  -8   9   3 14.6560 5.34932
   7  -9  -3 25.6076 2.98105
  -7   9   3 24.0254 3.65696
   6  -9  -3 573.096 35.5945
  -6   9   3 471.342 41.1362
   5  -9  -3 24.5816 2.31461
  -5   9   3 20.7913 3.17786
   4  -9  -3 80.4976 7.38172
  -4   9   3 71.8569 10.4763
   3  -9  -3 156.302 7.22410
  -3   9   3 134.575 9.38549
   2  -9  -3 456.570 27.8078
  -2   9   3 478.960 34.2782
   1  -9  -3 507.929 22.2394
  -1   9   3 511.063 29.0268
   0  -9  -3 1352.67 73.6161
   0   9   3 1524.92 109.811
  -1  -9  -3 839.827 33.2362
   1   9   3 858.222 51.7517
  -2  -9  -3 565.671 30.6489
   2   9   3 606.699 38.0092
  -3  -9  -3 261.789 11.0783
   3   9   3 268.856 15.9844
  -4  -9  -3 7.10075 3.27713
   4   9   3 18.9682 3.60511
  -5  -9  -3 148.968 9.03288
   5   9   3 135.093 10.7074
  -6  -9  -3 155.595 14.5012
   6   9   3 109.160 15.0167
  -7  -9  -3 129.319 6.12090
   7   9   3 97.4114 9.17776
  -8  -9  -3 81.2970 8.59973
   8   9   3 86.3891 21.8504
  -9  -9  -3 90.3686 5.38463
   9   9   3 65.2260 9.06708
 -10  -9  -3 75.1856 9.49206
 -11  -9  -3 26.2994 2.58318
  11 -10  -3 59.0827 4.87091
 -11  10   3 25.8648 11.0174
  10 -10  -3 145.085 9.60271
 -10  10   3 65.3204 17.7066
   9 -10  -3 68.0314 4.51341
  -9  10   3 38.1732 9.05318
   8 -10  -3 1156.62 61.7966
  -8  10   3 770.404 156.729
   7 -10  -3 47.5232 4.60136
  -7  10   3 44.7222 4.76515
   6 -10  -3 131.562 14.9085
  -6  10   3 73.4066 18.6270
   5 -10  -3 1.02873 1.47870
  -5  10   3 7.72632 2.38534
   4 -10  -3 348.706 21.2516
  -4  10   3 362.818 31.0285
   3 -10  -3 28.3098 1.99273
  -3  10   3 23.6406 2.56652
   2 -10  -3 1341.69 59.2871
  -2  10   3 1357.08 79.8064
   1 -10  -3 40.8519 2.75853
  -1  10   3 45.8980 4.16555
   0 -10  -3 35.5363 2.49673
   0  10   3 26.5944 3.73305
  -1 -10  -3 390.854 15.2548
   1  10   3 392.259 22.9816
  -2 -10  -3 290.146 19.1790
   2  10   3 363.797 22.4344
  -3 -10  -3 236.744 10.4450
   3  10   3 248.696 15.0910
  -4 -10  -3 161.039 13.2670
   4  10   3 215.051 18.3168
  -5 -10  -3 163.351 9.96833
   5  10   3 178.795 12.5987
  -6 -10  -3 65.8912 9.09932
   6  10   3 34.1231 12.1782
  -7 -10  -3 22.9345 2.32939
   7  10   3 19.1598 17.7623
  -8 -10  -3 255.542 16.8591
   8  10   3 289.746 49.5648
  -9 -10  -3 7.72027 1.96944
   9  10   3 10.6281 4.40940
 -10 -10  -3 7.87893 3.47973
  11 -11  -3 1.71184 1.76996
 -11  11   3 3.65759 3.94454
  10 -11  -3 49.1199 5.11978
 -10  11   3 13.8584 10.3073
   9 -11  -3 94.7843 5.55942
  -9  11   3 43.9842 11.3330
   8 -11  -3 347.969 19.8167
  -8  11   3 217.401 35.2482
   7 -11  -3 125.279 7.81324
  -7  11   3 103.128 8.85321
   6 -11  -3 1589.41 99.1678
  -6  11   3 1432.49 111.307
   5 -11  -3 62.4605 4.28960
  -5  11   3 59.0658 5.64848
   4 -11  -3 167.279 14.1726
  -4  11   3 185.485 24.0575
   3 -11  -3 190.824 9.59050
  -3  11   3 206.157 12.3883
   2 -11  -3 241.694 16.5123
  -2  11   3 259.551 25.3691
   1 -11  -3 352.385 13.6973
  -1  11   3 348.762 22.5962
   0 -11  -3 2503.78 115.801
   0  11   3 2742.09 200.195
  -1 -11  -3 19.2613 1.86748
   1  11   3 21.9636 3.42001
  -2 -11  -3 71.0286 5.37294
   2  11   3 98.7657 7.66122
  -3 -11  -3 254.092 12.6770
   3  11   3 288.253 19.6371
  -4 -11  -3 44.8611 5.71179
   4  11   3 77.2128 8.46611
  -5 -11  -3 44.2792 3.69344
   5  11   3 41.6747 4.80542
  -6 -11  -3 389.243 27.9491
   6  11   3 361.472 37.2502
  -7 -11  -3 22.5635 2.29044
   7  11   3 20.7077 18.2944
  -8 -11  -3 64.7690 5.11191
   8  11   3 48.4908 17.2130
  -9 -11  -3 2.35328 1.77038
   9  11   3 2.84265 4.99889
 -10 -11  -3 74.8692 8.74671
  10 -12  -3 81.1770 7.45915
 -10  12   3 15.3598 14.4351
   9 -12  -3 20.2267 2.15760
  -9  12   3 8.24183 4.86744
   8 -12  -3 225.979 13.9946
  -8  12   3 124.496 28.9733
   7 -12  -3 25.2830 2.90313
  -7  12   3 18.7549 6.74888
   6 -12  -3 276.731 23.3779
  -6  12   3 259.095 27.3941
   5 -12  -3 123.699 6.90137
  -5  12   3 106.730 9.35771
   4 -12  -3 493.500 29.8209
  -4  12   3 524.614 46.6511
   3 -12  -3 188.917 9.47628
  -3  12   3 173.009 13.2794
   2 -12  -3 413.027 21.4732
  -2  12   3 440.681 43.3702
   1 -12  -3 16.0686 1.76838
  -1  12   3 17.4911 3.30354
   0 -12  -3 61.4378 3.88733
   0  12   3 54.2312 9.13264
  -1 -12  -3 239.656 11.0187
   1  12   3 224.531 21.1966
  -2 -12  -3 42.5257 4.01557
   2  12   3 46.1189 5.46892
  -3 -12  -3 103.340 6.62406
   3  12   3 109.166 9.17279
  -4 -12  -3 78.5528 8.40069
   4  12   3 122.717 11.2047
  -5 -12  -3 168.069 9.97545
   5  12   3 126.804 11.9078
  -6 -12  -3 38.3871 7.40010
  -7 -12  -3 41.9267 2.95496
   7  12   3 25.0512 19.3509
  -8 -12  -3 133.769 8.17697
   8  12   3 128.118 26.8846
  -9 -12  -3 21.4152 2.53512
   9  12   3 16.4181 6.49753
 -10 -12  -3 41.9373 5.89060
  10 -13  -3 148.319 24.5970
   9 -13  -3 50.6993 3.68921
  -9  13   3 20.5299 9.27093
   8 -13  -3 19.0167 2.89928
  -8  13   3 4.67551 6.34768
   7 -13  -3 503.815 31.7890
  -7  13   3 394.136 45.4568
   6 -13  -3 400.132 23.9062
  -6  13   3 377.996 40.9886
   5 -13  -3 24.0742 2.61545
  -5  13   3 14.1372 3.31523
   4 -13  -3 34.5018 4.46863
  -4  13   3 36.7239 7.27306
   3 -13  -3 14.2744 2.21861
  -3  13   3 20.5595 3.22266
   2 -13  -3 243.748 15.6244
  -2  13   3 260.307 26.8457
   1 -13  -3 213.307 11.8452
  -1  13   3 258.457 21.0141
   0 -13  -3 539.127 29.3130
   0  13   3 614.019 72.3980
  -1 -13  -3 13.2161 2.01530
   1  13   3 19.9208 4.35288
  -2 -13  -3 64.5335 7.49333
   2  13   3 89.6882 11.7854
  -3 -13  -3 129.225 7.96400
   3  13   3 143.234 14.7446
  -4 -13  -3 51.4001 5.87479
   4  13   3 84.3616 8.35184
  -5 -13  -3 11.6960 3.25360
   5  13   3 22.3516 9.13823
  -6 -13  -3 58.9845 7.02767
  -7 -13  -3 7.34499 1.64666
   7  13   3 10.7876 16.7214
  -8 -13  -3 52.9377 4.95596
  -9 -13  -3 3.96767 1.62311
   9  13   3 0.00000 4.39141
  10 -14  -3 37.3392 6.76040
   9 -14  -3 37.6776 3.30018
  -9  14   3 10.4306 8.04015
   8 -14  -3 32.5948 3.32869
  -8  14   3 2.22265 10.5773
   7 -14  -3 121.894 7.69137
  -7  14   3 69.2194 13.7321
   6 -14  -3 68.4349 5.32822
  -6  14   3 53.6102 12.3442
   5 -14  -3 337.644 18.1951
  -5  14   3 297.225 25.7522
   4 -14  -3 238.570 17.5541
  -4  14   3 259.739 28.4646
   3 -14  -3 88.8794 5.29593
  -3  14   3 73.2021 8.14118
   2 -14  -3 355.150 17.6333
  -2  14   3 372.930 34.4295
   1 -14  -3 4.84837 1.67230
  -1  14   3 2.74698 2.56675
   0 -14  -3 91.1307 6.68783
   0  14   3 117.912 12.3680
  -1 -14  -3 198.022 14.0207
   1  14   3 235.869 22.2083
  -2 -14  -3 137.498 11.7912
   2  14   3 138.113 18.2940
  -3 -14  -3 51.3265 4.42027
   3  14   3 52.8482 6.71224
  -4 -14  -3 32.1573 5.88332
   4  14   3 21.7841 6.01954
  -5 -14  -3 211.165 15.8521
   5  14   3 197.748 30.4236
  -6 -14  -3 18.7755 6.13076
  -7 -14  -3 42.8961 3.43262
   7  14   3 20.7634 18.5660
  -8 -14  -3 49.8563 6.43865
  -9 -14  -3 59.2443 5.01938
   9  14   3 50.9567 12.6460
   9 -15  -3 72.2743 7.97529
  -9  15   3 48.5936 12.2147
   8 -15  -3 7.26210 2.23371
   7 -15  -3 67.6935 5.12059
  -7  15   3 41.9921 12.5549
   6 -15  -3 67.9571 5.59710
  -6  15   3 65.8793 13.2666
   5 -15  -3 174.807 10.1604
  -5  15   3 167.478 18.6387
   4 -15  -3 252.929 17.0608
  -4  15   3 361.096 50.6802
   3 -15  -3 42.5235 3.32908
  -3  15   3 34.8492 4.90176
   2 -15  -3 68.8695 6.84854
  -2  15   3 75.5012 11.2068
   1 -15  -3 180.838 9.18438
  -1  15   3 197.147 17.2547
   0 -15  -3 16.9597 3.03425
   0  15   3 32.5375 4.28943
  -1 -15  -3 19.5794 2.91293
   1  15   3 9.18472 4.09990
  -2 -15  -3 39.5090 5.36012
   2  15   3 43.7159 7.00225
  -3 -15  -3 95.7854 7.58398
   3  15   3 125.731 11.6867
  -4 -15  -3 12.2182 4.50810
   4  15   3 3.96115 11.5287
  -5 -15  -3 52.2277 4.59018
   5  15   3 57.2911 12.2982
  -6 -15  -3 63.9039 7.08249
  -7 -15  -3 33.5317 3.39066
   7  15   3 8.68176 17.1003
  -8 -15  -3 11.1517 3.68834
   9 -16  -3 24.2187 2.50154
  -9  16   3 5.75197 5.85133
   8 -16  -3 79.4278 7.68129
   7 -16  -3 16.9942 2.17280
  -7  16   3 12.4545 5.87931
   6 -16  -3 7.30511 2.37840
  -6  16   3 2.72433 11.1043
   5 -16  -3 297.651 17.0368
  -5  16   3 249.313 34.6428
   4 -16  -3 218.622 16.8780
  -4  16   3 221.038 54.4546
   3 -16  -3 44.4972 4.51997
  -3  16   3 56.9215 13.4647
   2 -16  -3 259.205 15.1856
   1 -16  -3 16.6601 2.66162
  -1  16   3 15.6051 3.51755
   0 -16  -3 76.2313 6.94655
   0  16   3 79.5886 8.76017
  -1 -16  -3 59.3708 5.30770
   1  16   3 85.4053 9.18378
  -2 -16  -3 54.3339 9.25734
   2  16   3 44.5794 18.3764
  -3 -16  -3 178.327 13.3628
   3  16   3 171.578 35.5864
  -4 -16  -3 110.960 8.44216
   4  16   3 76.5082 15.3910
  -5 -16  -3 7.16276 2.07358
   5  16   3 3.84793 9.04535
  -6 -16  -3 18.2886 5.15521
  -7 -16  -3 42.1133 4.20720
  -8 -16  -3 29.3686 10.1050
   8 -17  -3 64.2724 6.53199
   7 -17  -3 59.6213 5.57706
  -7  17   3 24.2775 12.0694
   6 -17  -3 137.691 10.0830
   5 -17  -3 15.9752 3.26235
  -5  17   3 6.51741 8.27654
   4 -17  -3 109.001 7.93029
  -4  17   3 86.3159 16.9180
   3 -17  -3 61.8848 5.12962
  -3  17   3 58.0040 15.1541
   2 -17  -3 50.9556 4.32703
   1 -17  -3 50.7349 4.56201
   0 -17  -3 128.247 10.5354
   0  17   3 113.555 28.0380
  -1 -17  -3 104.630 8.15584
   1  17   3 102.265 20.8833
  -2 -17  -3 44.2058 7.62548
   2  17   3 50.4371 16.8654
  -3 -17  -3 33.4458 3.96299
   3  17   3 20.1020 11.7018
  -4 -17  -3 34.1703 5.58362
   4  17   3 25.2370 13.9040
  -5 -17  -3 52.4042 3.88784
   5  17   3 45.1852 12.7913
  -6 -17  -3 32.9922 6.40397
  -7 -17  -3 14.9129 2.30848
   7 -18  -3 49.4518 5.08078
   6 -18  -3 112.520 17.5006
   5 -18  -3 214.846 15.7280
  -5  18   3 185.993 40.3860
   4 -18  -3 66.4030 5.97506
  -4  18   3 37.9979 13.9804
   3 -18  -3 145.993 10.5836
  -3  18   3 112.787 29.5176
   2 -18  -3 11.6143 2.86305
  -2  18   3 2.90947 12.9174
   1 -18  -3 50.1134 5.89706
   0 -18  -3 161.432 12.6609
   0  18   3 142.469 34.0687
  -1 -18  -3 49.7301 4.58348
   1  18   3 30.1945 12.6564
  -2 -18  -3 201.457 16.5232
   2  18   3 204.568 43.3658
  -3 -18  -3 10.8420 2.87623
   3  18   3 6.59416 10.0455
  -4 -18  -3 54.5226 9.74872
   4  18   3 17.4028 26.4970
  -5 -18  -3 76.3721 6.24427
  -6 -18  -3 55.5023 8.52126
   6 -19  -3 88.4026 12.7808
   5 -19  -3 16.6592 5.27086
   4 -19  -3 39.2161 6.47486
   3 -19  -3 91.8152 7.25694
  -3  19   3 83.2673 15.0064
   2 -19  -3 19.3121 3.83263
  -2  19   3 11.1708 14.1040
   1 -19  -3 48.3217 5.88963
  -1  19   3 61.5466 14.0736
   0 -19  -3 136.684 10.9121
   0  19   3 123.073 30.9879
  -1 -19  -3 42.0364 4.14713
   1  19   3 39.8047 12.3431
  -2 -19  -3 26.7427 6.39271
   2  19   3 17.6262 15.6113
  -3 -19  -3 64.5616 6.06274
   3  19   3 40.4759 23.8606
  -4 -19  -3 67.9701 15.1095
  -5 -19  -3 3.70317 1.60840
   5 -20  -3 9.01808 4.04050
   4 -20  -3 183.850 28.6383
   3 -20  -3 93.3747 11.5335
   2 -20  -3 11.0159 6.04821
   1 -20  -3 5.62601 3.12665
   0 -20  -3 93.7498 14.6755
  -1 -20  -3 95.4758 11.8632
  -2 -20  -3 6.25247 4.75764
  -3 -20  -3 6.56106 2.80822
  -4 -20  -3 111.517 17.9813
   4 -21  -3 29.5135 6.72064
   3 -21  -3 78.7606 9.65935
   2 -21  -3 84.1170 17.1167
   1 -21  -3 48.1642 6.29438
   0 -21  -3 47.7568 10.2230
  -1 -21  -3 63.8014 8.23579
  -2 -21  -3 9.40359 4.68140
  -3 -21  -3 10.6862 2.69998
 -13   0   4 23.6748 3.55385
 -12   0   4 98.9495 24.7874
 -11   0   4 2.68246 3.68526
 -10   0   4 585.322 55.3490
  -9   0   4 101.706 10.6086
  -8   0   4 54.9192 10.2190
  -7   0   4 1.21026 2.13696
  -6   0   4 60.7259 25.4816
  -5   0   4 176.098 11.5462
  -4   0   4 590.844 29.0966
  -3   0   4 304.018 13.0829
  -2   0   4 156.971 19.8195
  -1   0   4 820.835 47.6964
   0   0   4 96.7069 7.10539
   1   0   4 429.308 21.3888
   2   0   4 252.286 20.1677
   3   0   4 10.7297 1.58060
   4   0   4 1301.98 84.7295
   5   0   4 342.063 17.9118
   6   0   4 29.2061 5.11459
   7   0   4 58.3267 4.64981
   8   0   4 0.00000 31.3120
   9   0   4 2.39070 2.59793
  11   0   4 87.2038 12.8171
  13  -1  -4 0.00000 3.27626
 -13   1   4 2.62962 2.17192
  12  -1  -4 60.1350 5.59723
 -12   1   4 36.8896 9.03502
  11  -1  -4 40.9237 6.63640
 -11   1   4 34.2098 3.79532
  10  -1  -4 473.269 38.0652
 -10   1   4 462.038 41.2845
   9  -1  -4 143.706 10.5513
  -9   1   4 117.747 12.9531
   8  -1  -4 969.798 87.1169
  -8   1   4 870.663 97.4560
   7  -1  -4 15.9156 2.72539
  -7   1   4 13.5025 3.34620
   6  -1  -4 68.7652 7.96962
  -6   1   4 58.2517 7.43386
   5  -1  -4 38.2665 3.39204
  -5   1   4 35.8642 3.44096
   4  -1  -4 194.142 22.9790
  -4   1   4 191.438 24.0515
   3  -1  -4 147.355 6.85555
  -3   1   4 147.058 6.82191
   2  -1  -4 807.312 38.6507
  -2   1   4 813.388 38.6158
   1  -1  -4 239.741 14.1398
  -1   1   4 228.815 12.5801
   0  -1  -4 1887.42 126.851
   0   1   4 1878.02 168.184
  -1  -1  -4 831.643 43.7111
   1   1   4 845.597 44.9985
  -2  -1  -4 600.575 30.9013
   2   1   4 615.600 33.7103
  -3  -1  -4 499.005 24.4954
   3   1   4 467.290 24.3634
  -4  -1  -4 57.9719 6.85762
   4   1   4 73.3314 7.57256
  -5  -1  -4 800.191 35.2131
   5   1   4 827.163 39.2843
  -6  -1  -4 290.125 18.0160
   6   1   4 288.243 21.3536
  -7  -1  -4 534.028 29.3931
   7   1   4 506.446 31.8383
  -8  -1  -4 399.165 45.1236
   8   1   4 407.506 61.0691
  -9  -1  -4 173.650 13.5826
   9   1   4 164.836 21.3142
 -10  -1  -4 23.7993 4.70575
 -11  -1  -4 12.8779 3.12415
  11   1   4 16.5978 2.93926
  12  -2  -4 43.6348 4.38795
 -12   2   4 37.5589 7.30007
  11  -2  -4 84.6094 9.13660
 -11   2   4 64.5570 11.3841
  10  -2  -4 176.411 16.5001
 -10   2   4 208.901 21.1120
   9  -2  -4 44.5594 6.19163
  -9   2   4 49.1951 6.13568
   8  -2  -4 311.321 24.5609
  -8   2   4 301.332 29.6107
   7  -2  -4 51.6308 3.95682
  -7   2   4 42.2490 4.53077
   6  -2  -4 320.186 20.1601
  -6   2   4 299.569 19.9167
   5  -2  -4 533.962 27.8478
  -5   2   4 494.739 27.8801
   4  -2  -4 26.2898 2.95136
  -4   2   4 21.0547 3.20833
   3  -2  -4 671.789 27.2857
  -3   2   4 638.405 28.0889
   2  -2  -4 424.129 23.0566
  -2   2   4 447.777 27.1135
   1  -2  -4 548.728 30.4003
  -1   2   4 607.188 31.7430
   0  -2  -4 5881.10 378.203
   0   2   4 5773.96 472.624
  -1  -2  -4 676.982 33.0767
   1   2   4 677.719 39.5094
  -2  -2  -4 999.316 66.9812
   2   2   4 1012.66 69.7847
  -3  -2  -4 166.229 8.34812
   3   2   4 166.775 10.0138
  -4  -2  -4 23.7899 7.09291
   4   2   4 13.5017 7.90094
  -5  -2  -4 36.1290 2.86623
   5   2   4 45.3631 3.66835
  -6  -2  -4 118.343 10.1174
   6   2   4 96.5194 11.4151
  -7  -2  -4 78.2574 5.61443
   7   2   4 65.3316 7.11130
  -8  -2  -4 51.5670 9.27544
   8   2   4 76.8291 10.8263
  -9  -2  -4 75.0905 5.58659
   9   2   4 75.8019 9.16112
 -10  -2  -4 39.2272 6.46893
 -11  -2  -4 0.78902 1.75259
  12  -3  -4 33.1337 3.14125
 -12   3   4 13.9939 7.40766
  11  -3  -4 36.8172 4.80175
 -11   3   4 29.9121 7.23493
  10  -3  -4 423.486 30.2573
 -10   3   4 463.116 53.8631
   9  -3  -4 224.846 16.7164
  -9   3   4 191.796 17.2323
   8  -3  -4 147.717 12.6406
  -8   3   4 122.704 13.6992
   7  -3  -4 27.6918 2.85521
  -7   3   4 26.3354 3.41654
   6  -3  -4 52.8310 11.4680
  -6   3   4 47.6478 13.0588
   5  -3  -4 421.282 23.7244
  -5   3   4 453.567 23.8597
   4  -3  -4 111.795 6.59694
  -4   3   4 124.546 7.07195
   3  -3  -4 151.522 6.63883
  -3   3   4 168.210 7.58037
   2  -3  -4 117.079 5.20872
  -2   3   4 101.981 6.71070
   1  -3  -4 164.232 7.84309
  -1   3   4 158.844 8.23222
   0  -3  -4 476.643 26.3454
   0   3   4 463.583 32.8226
  -1  -3  -4 980.713 45.2248
   1   3   4 953.518 53.3092
  -2  -3  -4 1937.51 108.610
   2   3   4 1963.63 119.714
  -3  -3  -4 122.165 6.82643
   3   3   4 96.2680 8.11248
  -4  -3  -4 101.350 16.1409
   4   3   4 107.643 18.3673
  -5  -3  -4 233.881 11.4828
   5   3   4 234.368 14.4275
  -6  -3  -4 77.4247 7.99831
   6   3   4 71.3284 10.0810
  -7  -3  -4 702.238 45.7369
   7   3   4 746.630 48.7606
  -8  -3  -4 13.3401 7.51526
   8   3   4 18.7267 5.93344
  -9  -3  -4 174.617 10.8128
   9   3   4 218.128 21.6132
 -10  -3  -4 37.0122 4.42784
 -11  -3  -4 48.9979 4.97092
  12  -4  -4 17.8781 4.95602
 -12   4   4 4.50900 6.26514
  11  -4  -4 25.3085 4.25807
 -11   4   4 15.9318 6.27773
  10  -4  -4 34.9781 4.80800
 -10   4   4 16.1567 7.92935
   9  -4  -4 107.522 7.85591
  -9   4   4 78.8853 9.00542
   8  -4  -4 210.097 12.5265
  -8   4   4 165.574 15.0184
   7  -4  -4 153.223 8.48299
  -7   4   4 122.366 10.2073
   6  -4  -4 630.253 32.6703
  -6   4   4 529.324 36.4909
   5  -4  -4 16.4984 2.19811
  -5   4   4 30.7103 2.61652
   4  -4  -4 802.312 32.9131
  -4   4   4 711.766 36.6415
   3  -4  -4 91.1486 4.07455
  -3   4   4 83.6964 4.66124
   2  -4  -4 398.656 21.8877
  -2   4   4 424.476 24.3601
   1  -4  -4 452.160 22.4284
  -1   4   4 475.276 23.5894
   0  -4  -4 13.9116 1.31544
   0   4   4 8.83117 1.73322
  -1  -4  -4 229.602 9.81905
   1   4   4 239.876 11.8031
  -2  -4  -4 1107.26 68.5584
   2   4   4 1151.36 70.7719
  -3  -4  -4 764.454 40.3804
   3   4   4 796.124 47.5400
  -4  -4  -4 347.451 22.7544
   4   4   4 304.693 24.0615
  -5  -4  -4 185.383 9.48244
   5   4   4 223.945 11.2625
  -6  -4  -4 34.6230 5.86944
   6   4   4 25.2365 6.10425
  -7  -4  -4 183.380 11.0767
   7   4   4 159.647 13.6631
  -8  -4  -4 61.3934 11.5468
   8   4   4 49.6320 8.03637
  -9  -4  -4 5.54687 2.26177
   9   4   4 7.73746 2.46578
 -10  -4  -4 81.5917 8.61846
  10   4   4 114.935 22.7029
 -11  -4  -4 49.8940 4.39087
  12  -5  -4 11.6289 4.33557
  11  -5  -4 57.2639 6.75637
 -11   5   4 41.3816 9.41144
  10  -5  -4 41.8412 6.87014
 -10   5   4 41.9527 14.5426
   9  -5  -4 103.297 6.71121
  -9   5   4 70.8823 9.02485
   8  -5  -4 36.9617 4.49995
  -8   5   4 16.5352 5.53176
   7  -5  -4 24.9420 2.60519
  -7   5   4 19.7195 3.23009
   6  -5  -4 158.882 10.4764
  -6   5   4 132.365 12.5791
   5  -5  -4 93.2835 5.48491
  -5   5   4 89.3843 5.53641
   4  -5  -4 1108.82 49.1781
  -4   5   4 991.130 54.4785
   3  -5  -4 376.002 13.9539
  -3   5   4 327.892 15.6535
   2  -5  -4 354.622 18.7565
  -2   5   4 337.236 21.9768
   1  -5  -4 917.316 37.9175
  -1   5   4 896.069 47.2614
   0  -5  -4 108.167 5.51903
   0   5   4 103.038 7.37012
  -1  -5  -4 694.179 28.2588
   1   5   4 676.941 34.6477
  -2  -5  -4 449.279 22.7919
   2   5   4 469.122 25.4691
  -3  -5  -4 611.954 30.5468
   3   5   4 619.253 35.4918
  -4  -5  -4 671.524 50.3049
   4   5   4 627.920 58.0706
  -5  -5  -4 211.499 10.2295
   5   5   4 226.207 12.3874
  -6  -5  -4 414.577 34.3300
   6   5   4 407.627 40.3959
  -7  -5  -4 7.34782 2.71499
   7   5   4 4.06771 2.60341
  -8  -5  -4 19.2088 5.31083
   8   5   4 13.7229 6.79695
  -9  -5  -4 94.8250 6.18511
   9   5   4 143.803 20.2874
 -10  -5  -4 37.4930 6.09441
  10   5   4 70.1212 14.3267
 -11  -5  -4 1.94787 1.52084
  12  -6  -4 57.2187 7.71129
  11  -6  -4 115.771 10.6205
 -11   6   4 72.9641 15.2511
  10  -6  -4 86.1623 8.10290
 -10   6   4 81.1573 16.1190
   9  -6  -4 25.2737 3.83924
  -9   6   4 10.8350 4.25227
   8  -6  -4 350.560 21.0278
  -8   6   4 268.275 26.2441
   7  -6  -4 568.533 30.9524
  -7   6   4 480.647 37.4879
   6  -6  -4 54.9138 4.18974
  -6   6   4 45.4110 5.35631
   5  -6  -4 174.763 8.03203
  -5   6   4 173.713 8.14579
   4  -6  -4 55.0643 3.52274
  -4   6   4 45.7900 4.77324
   3  -6  -4 157.367 6.83006
  -3   6   4 138.100 7.67040
   2  -6  -4 1635.48 88.4604
  -2   6   4 1551.05 102.060
   1  -6  -4 1257.17 57.2558
  -1   6   4 1255.90 71.7939
   0  -6  -4 49.7865 2.97587
   0   6   4 53.3097 4.28403
  -1  -6  -4 696.586 28.8855
   1   6   4 743.481 35.4694
  -2  -6  -4 188.927 10.7365
   2   6   4 175.662 12.1045
  -3  -6  -4 459.500 22.4236
   3   6   4 409.947 26.0471
  -4  -6  -4 98.9581 7.07174
   4   6   4 86.1695 8.60079
  -5  -6  -4 96.9586 5.61766
   5   6   4 76.1595 6.78561
  -6  -6  -4 25.0255 7.80483
   6   6   4 14.3440 6.63048
  -7  -6  -4 46.9452 4.98918
   7   6   4 58.8445 5.64068
  -8  -6  -4 20.1315 4.56674
   8   6   4 22.4972 12.7854
  -9  -6  -4 297.428 17.2168
   9   6   4 409.546 56.6723
 -10  -6  -4 50.6499 10.0881
 -11  -6  -4 16.1391 2.03102
  12  -7  -4 84.6723 14.7962
  11  -7  -4 65.3919 5.20383
 -11   7   4 46.8086 11.0592
  10  -7  -4 36.4830 3.81652
 -10   7   4 16.2680 15.0705
   9  -7  -4 601.349 33.1806
  -9   7   4 381.583 75.0349
   8  -7  -4 73.6096 8.16941
  -8   7   4 40.0519 11.8929
   7  -7  -4 7.73737 2.20210
  -7   7   4 9.88798 3.31600
   6  -7  -4 105.133 7.36874
  -6   7   4 84.0091 8.92005
   5  -7  -4 446.440 18.4489
  -5   7   4 474.993 19.9948
   4  -7  -4 711.462 32.0432
  -4   7   4 606.034 36.6294
   3  -7  -4 509.245 21.5961
  -3   7   4 508.633 24.6173
   2  -7  -4 408.132 18.9490
  -2   7   4 386.252 24.1265
   1  -7  -4 342.382 14.7302
  -1   7   4 343.525 20.2895
   0  -7  -4 199.277 10.8248
   0   7   4 246.030 14.8754
  -1  -7  -4 1816.92 76.6037
   1   7   4 1874.03 96.1647
  -2  -7  -4 224.307 13.8297
   2   7   4 201.655 16.0897
  -3  -7  -4 235.827 12.2618
   3   7   4 253.859 13.5538
  -4  -7  -4 49.3619 4.35545
   4   7   4 33.4104 5.46026
  -5  -7  -4 118.863 7.90387
   5   7   4 112.177 9.98526
  -6  -7  -4 262.155 19.3637
   6   7   4 243.830 22.8617
  -7  -7  -4 375.614 23.3023
   7   7   4 359.125 26.3400
  -8  -7  -4 181.823 13.5324
   8   7   4 209.918 36.5573
  -9  -7  -4 36.3183 3.22795
   9   7   4 49.8961 10.2667
 -10  -7  -4 2.85632 4.38912
 -11  -7  -4 37.9259 3.01450
  12  -8  -4 7.82154 1.90019
  11  -8  -4 26.6893 3.18152
 -11   8   4 18.6237 6.96496
  10  -8  -4 7.83329 2.73759
 -10   8   4 11.5157 13.9496
   9  -8  -4 40.7982 3.43610
  -9   8   4 22.8542 6.75445
   8  -8  -4 64.5133 6.30129
  -8   8   4 53.0527 8.88960
   7  -8  -4 78.8356 5.63052
  -7   8   4 62.5533 5.86399
   6  -8  -4 62.7256 5.58826
  -6   8   4 64.2698 7.38738
   5  -8  -4 2.25901 1.53128
  -5   8   4 4.20932 1.78311
   4  -8  -4 9.29931 2.65738
  -4   8   4 5.41513 3.59538
   3  -8  -4 1216.83 52.5617
  -3   8   4 1155.44 56.9822
   2  -8  -4 753.323 41.6495
  -2   8   4 695.193 51.2319
   1  -8  -4 153.557 7.46522
  -1   8   4 179.860 10.2778
   0  -8  -4 1648.61 79.3062
   0   8   4 1629.91 123.922
  -1  -8  -4 142.400 6.19681
   1   8   4 149.347 7.91145
  -2  -8  -4 133.737 9.78108
   2   8   4 139.842 11.1874
  -3  -8  -4 424.056 19.1016
   3   8   4 471.189 23.0420
  -4  -8  -4 332.120 18.8079
   4   8   4 365.611 30.6964
  -5  -8  -4 72.1298 5.51033
   5   8   4 67.6321 6.98516
  -6  -8  -4 333.394 28.5210
   6   8   4 354.938 42.0837
  -7  -8  -4 34.4188 2.91164
   7   8   4 41.0125 4.48442
  -8  -8  -4 139.446 11.0658
   8   8   4 175.308 29.6282
  -9  -8  -4 34.4577 3.18006
   9   8   4 57.8795 10.2140
 -10  -8  -4 0.00000 3.73175
 -11  -8  -4 16.4401 1.68681
  11  -9  -4 4.79579 1.78930
 -11   9   4 3.11076 4.65836
  10  -9  -4 149.314 10.5562
 -10   9   4 87.3843 25.6698
   9  -9  -4 58.3673 4.01025
  -9   9   4 26.7188 8.26597
   8  -9  -4 312.310 21.8253
  -8   9   4 177.260 62.2432
   7  -9  -4 224.499 12.3395
  -7   9   4 201.417 14.2310
   6  -9  -4 60.4935 10.4681
  -6   9   4 44.6362 12.5876
   5  -9  -4 225.201 12.0854
  -5   9   4 246.563 14.2112
   4  -9  -4 280.925 12.5227
  -4   9   4 225.160 17.0830
   3  -9  -4 48.3020 2.81993
  -3   9   4 59.0639 3.95281
   2  -9  -4 335.298 20.2327
  -2   9   4 314.038 25.0047
   1  -9  -4 569.555 24.7251
  -1   9   4 601.450 31.6613
   0  -9  -4 65.1230 4.19131
   0   9   4 80.6394 6.77201
  -1  -9  -4 176.658 7.96641
   1   9   4 182.941 10.4981
  -2  -9  -4 356.763 19.8434
   2   9   4 431.233 23.8254
  -3  -9  -4 284.757 11.6658
   3   9   4 297.793 15.7104
  -4  -9  -4 28.7229 4.20343
   4   9   4 16.7876 5.12147
  -5  -9  -4 3.55074 2.09329
   5   9   4 8.11885 2.49685
  -6  -9  -4 29.8533 11.6805
   6   9   4 2.29579 14.0971
  -7  -9  -4 2.87138 1.72532
   7   9   4 2.98992 6.48656
  -8  -9  -4 156.586 13.0036
   8   9   4 156.488 32.7897
  -9  -9  -4 43.4027 3.50658
   9   9   4 57.8410 11.1549
 -10  -9  -4 19.7933 4.14369
  11 -10  -4 7.37680 1.87903
 -11  10   4 2.49849 4.49018
  10 -10  -4 98.0394 11.4874
 -10  10   4 58.4540 25.4443
   9 -10  -4 182.409 11.0337
  -9  10   4 105.501 19.6869
   8 -10  -4 44.1007 6.06556
  -8  10   4 46.1890 21.1946
   7 -10  -4 14.7298 2.55126
  -7  10   4 13.8808 3.45972
   6 -10  -4 56.2549 5.32673
  -6  10   4 61.3873 7.31963
   5 -10  -4 104.282 5.54352
  -5  10   4 76.9735 6.92885
   4 -10  -4 68.5859 5.75552
  -4  10   4 62.1157 10.4134
   3 -10  -4 516.689 20.4222
  -3  10   4 533.629 30.9565
   2 -10  -4 522.808 24.3415
  -2  10   4 587.219 37.2808
   1 -10  -4 181.830 7.45711
  -1  10   4 190.695 11.0622
   0 -10  -4 435.012 21.7472
   0  10   4 528.855 31.8224
  -1 -10  -4 185.666 7.78032
   1  10   4 207.228 12.9765
  -2 -10  -4 94.0810 6.58140
   2  10   4 112.828 9.58073
  -3 -10  -4 36.1940 2.77851
   3  10   4 39.1879 4.11984
  -4 -10  -4 150.145 11.7807
   4  10   4 157.035 14.4672
  -5 -10  -4 48.4126 3.96056
   5  10   4 48.0883 5.58829
  -6 -10  -4 328.861 26.4485
   6  10   4 341.608 34.3149
  -7 -10  -4 56.0129 3.79293
   7  10   4 65.8114 11.0208
  -8 -10  -4 55.0327 5.90520
   8  10   4 56.6741 15.7585
  -9 -10  -4 12.4050 2.02116
   9  10   4 3.11584 5.26943
 -10 -10  -4 68.4826 10.3616
  11 -11  -4 8.92045 1.79743
 -11  11   4 1.46218 4.22573
  10 -11  -4 88.1538 9.41051
   9 -11  -4 12.5749 1.90897
  -9  11   4 5.89942 4.99039
   8 -11  -4 17.3696 2.82258
  -8  11   4 1.74086 10.7669
   7 -11  -4 192.116 11.7597
  -7  11   4 176.039 12.9587
   6 -11  -4 395.513 26.4050
  -6  11   4 359.623 34.0279
   5 -11  -4 98.6981 5.66544
  -5  11   4 96.1376 7.48325
   4 -11  -4 280.443 15.7171
  -4  11   4 290.103 28.5887
   3 -11  -4 64.9862 3.67235
  -3  11   4 57.8696 5.85242
   2 -11  -4 108.949 6.21048
  -2  11   4 113.214 11.7939
   1 -11  -4 371.112 14.9975
  -1  11   4 366.683 23.4614
   0 -11  -4 52.6060 3.27578
   0  11   4 41.1262 5.47569
  -1 -11  -4 99.6670 4.81882
   1  11   4 94.3214 8.00646
  -2 -11  -4 35.7417 3.11672
   2  11   4 34.6752 5.08623
  -3 -11  -4 18.2662 2.29333
   3  11   4 19.9003 3.53255
  -4 -11  -4 135.631 10.7390
   4  11   4 108.581 12.5771
  -5 -11  -4 12.0996 2.45157
   5  11   4 9.19769 2.77177
  -6 -11  -4 169.837 11.9071
  -7 -11  -4 106.988 6.18941
   7  11   4 66.8889 28.0374
  -8 -11  -4 132.668 9.50319
   8  11   4 143.547 27.6182
  -9 -11  -4 32.2091 3.17129
   9  11   4 23.4139 7.93318
 -10 -11  -4 29.2861 4.52979
  10 -12  -4 35.8503 5.66216
   9 -12  -4 106.858 6.68900
  -9  12   4 55.8571 12.3467
   8 -12  -4 16.5246 3.16309
  -8  12   4 16.5734 14.9277
   7 -12  -4 41.6705 3.46342
  -7  12   4 28.6764 7.27159
   6 -12  -4 121.091 9.51194
  -6  12   4 91.0630 12.4371
   5 -12  -4 192.811 11.0237
  -5  12   4 181.552 15.0959
   4 -12  -4 257.154 15.2362
  -4  12   4 282.733 24.7963
   3 -12  -4 172.075 8.54557
  -3  12   4 161.606 13.1883
   2 -12  -4 33.2030 3.13033
  -2  12   4 34.0182 5.85870
   1 -12  -4 6.86745 1.48022
  -1  12   4 2.16240 2.49942
   0 -12  -4 183.718 10.7943
   0  12   4 230.433 23.2550
  -1 -12  -4 11.8288 2.05112
   1  12   4 12.7961 3.54226
  -2 -12  -4 125.436 8.87424
   2  12   4 150.378 13.8759
  -3 -12  -4 216.542 11.4881
   3  12   4 231.245 15.7958
  -4 -12  -4 82.4149 9.47009
   4  12   4 74.5901 12.6238
  -5 -12  -4 102.975 5.55607
   5  12   4 100.358 8.56523
  -6 -12  -4 348.935 22.7685
  -7 -12  -4 31.2638 2.58946
   7  12   4 5.86646 17.5907
  -8 -12  -4 18.1244 4.10862
  -9 -12  -4 1.46350 1.72140
   9  12   4 1.75396 4.43731
  10 -13  -4 6.93031 2.94400
   9 -13  -4 74.4815 4.98973
  -9  13   4 34.4802 14.2770
   8 -13  -4 95.1106 6.53004
  -8  13   4 22.7977 22.0923
   7 -13  -4 161.794 9.82129
  -7  13   4 120.162 14.4158
   6 -13  -4 39.8228 5.86254
  -6  13   4 30.9972 22.2468
   5 -13  -4 20.1361 2.69922
  -5  13   4 20.5795 3.67068
   4 -13  -4 200.618 15.0690
  -4  13   4 211.421 24.4210
   3 -13  -4 4.08006 1.62644
  -3  13   4 7.40740 2.59979
   2 -13  -4 130.359 7.35385
  -2  13   4 127.173 14.6575
   1 -13  -4 326.522 15.4140
  -1  13   4 342.590 27.2941
   0 -13  -4 68.2335 5.15352
   0  13   4 86.0637 8.41466
  -1 -13  -4 206.117 11.2985
   1  13   4 211.435 19.0792
  -2 -13  -4 22.2510 4.13649
   2  13   4 25.5649 5.61134
  -3 -13  -4 271.311 16.4991
   3  13   4 336.412 20.2528
  -4 -13  -4 379.116 29.6161
   4  13   4 348.396 39.7384
  -5 -13  -4 132.841 8.72451
   5  13   4 122.717 15.0530
  -6 -13  -4 28.9262 5.18760
  -7 -13  -4 242.437 13.8676
   7  13   4 110.101 52.8916
  -8 -13  -4 65.6378 11.1112
  -9 -13  -4 42.1905 3.61250
   9  13   4 28.4364 8.86295
  10 -14  -4 15.6797 3.30405
   9 -14  -4 15.8753 2.03168
  -9  14   4 0.97085 5.67738
   8 -14  -4 67.0789 5.09175
  -8  14   4 0.00000 18.1056
   7 -14  -4 185.437 10.5153
  -7  14   4 118.228 13.7162
   6 -14  -4 57.3703 4.95062
  -6  14   4 46.5561 12.9318
   5 -14  -4 15.1713 2.53884
  -5  14   4 17.2953 10.3892
   4 -14  -4 159.291 10.9906
  -4  14   4 167.861 16.5349
   3 -14  -4 2.05490 1.68565
  -3  14   4 0.00000 2.62215
   2 -14  -4 155.919 9.84372
  -2  14   4 176.591 16.0521
   1 -14  -4 1.78632 1.70573
  -1  14   4 0.00000 2.69921
   0 -14  -4 17.8466 2.62578
   0  14   4 15.2132 3.98772
  -1 -14  -4 227.968 12.5766
   1  14   4 247.395 21.2998
  -2 -14  -4 194.393 14.5011
   2  14   4 191.591 19.5812
  -3 -14  -4 11.6280 3.10579
   3  14   4 11.1209 4.19112
  -4 -14  -4 137.073 12.6061
   4  14   4 142.840 34.2936
  -5 -14  -4 36.4315 3.72509
   5  14   4 24.5759 11.5573
  -6 -14  -4 222.162 16.6452
  -7 -14  -4 34.8491 3.03294
   7  14   4 12.7616 16.9079
  -8 -14  -4 10.6707 3.56828
   9 -15  -4 1.79043 1.34738
  -9  15   4 2.27725 4.49844
   8 -15  -4 60.4902 6.21020
   7 -15  -4 26.3648 2.62140
  -7  15   4 11.5714 6.52171
   6 -15  -4 34.3051 4.42432
  -6  15   4 24.5577 12.8925
   5 -15  -4 26.5569 3.11270
  -5  15   4 18.7712 11.5072
   4 -15  -4 50.0088 4.96524
  -4  15   4 43.5485 18.1994
   3 -15  -4 95.7172 6.79436
  -3  15   4 121.013 10.1279
   2 -15  -4 43.9885 4.25763
  -2  15   4 61.2603 6.65720
   1 -15  -4 276.439 15.3235
  -1  15   4 285.163 20.7844
   0 -15  -4 13.5143 2.70383
   0  15   4 24.2193 4.22790
  -1 -15  -4 101.973 7.93489
   1  15   4 118.734 10.9228
  -2 -15  -4 126.158 11.5792
   2  15   4 119.125 16.2332
  -3 -15  -4 19.2141 3.36661
   3  15   4 16.1516 10.3096
  -4 -15  -4 168.655 17.0601
   4  15   4 210.598 45.7648
  -5 -15  -4 16.5623 2.51782
   5  15   4 21.3272 16.9436
  -6 -15  -4 69.0807 7.45091
  -7 -15  -4 26.7469 2.77228
  -8 -15  -4 16.0842 4.93447
   8 -16  -4 40.4117 4.15658
   7 -16  -4 124.180 8.23798
   6 -16  -4 84.7058 6.99427
  -6  16   4 58.6984 16.6010
   5 -16  -4 38.6549 3.58666
  -5  16   4 34.8144 9.82125
   4 -16  -4 3.43287 2.98917
  -4  16   4 8.96428 14.4375
   3 -16  -4 678.025 43.4947
  -3  16   4 621.392 126.983
   2 -16  -4 174.862 11.1062
   1 -16  -4 13.7530 2.69320
  -1  16   4 8.79470 9.74993
   0 -16  -4 49.1780 5.00468
   0  16   4 44.8211 15.7256
  -1 -16  -4 3.63135 2.81436
   1  16   4 11.3312 9.46272
  -2 -16  -4 73.7059 8.52292
   2  16   4 84.7689 22.6321
  -3 -16  -4 78.7198 7.04193
   3  16   4 101.393 19.0718
  -4 -16  -4 13.1229 4.41832
   4  16   4 9.83384 16.3259
  -5 -16  -4 91.9643 6.83402
   5  16   4 77.1558 15.1192
  -6 -16  -4 101.649 18.4636
  -7 -16  -4 21.9416 2.90844
   8 -17  -4 7.10006 2.10311
   7 -17  -4 44.5443 4.16933
   6 -17  -4 44.7349 5.23244
   5 -17  -4 209.600 13.8354
  -5  17   4 158.866 27.1990
   4 -17  -4 12.1936 3.49184
  -4  17   4 9.78354 13.3022
   3 -17  -4 50.5983 4.91366
  -3  17   4 38.2218 14.2294
   2 -17  -4 31.5037 4.09115
   1 -17  -4 33.1486 3.57411
  -1  17   4 30.4813 11.4171
   0 -17  -4 6.67369 3.37238
   0  17   4 11.3918 12.0420
  -1 -17  -4 97.9078 7.53870
   1  17   4 67.2460 19.0637
  -2 -17  -4 3.89722 3.82788
   2  17   4 0.00000 14.2752
  -3 -17  -4 171.789 12.9133
   3  17   4 151.457 31.8571
  -4 -17  -4 18.1944 5.19802
   4  17   4 0.00000 17.1337
  -5 -17  -4 1.11803 1.77994
   5  17   4 0.00000 16.1372
  -6 -17  -4 6.90472 3.58224
  -7 -17  -4 18.1492 2.45046
   7 -18  -4 10.5379 1.66308
   6 -18  -4 72.7128 10.3406
   5 -18  -4 42.3414 4.48183
   4 -18  -4 13.5737 3.32351
  -4  18   4 22.7531 11.3769
   3 -18  -4 61.8033 5.39996
  -3  18   4 36.7832 14.9165
   2 -18  -4 157.163 12.2118
  -2  18   4 193.884 28.3875
   1 -18  -4 5.68090 2.35850
  -1  18   4 23.3587 10.2769
   0 -18  -4 40.0225 5.14274
   0  18   4 29.4130 15.0384
  -1 -18  -4 42.8290 4.31214
   1  18   4 42.4860 12.7861
  -2 -18  -4 8.55973 3.62810
   2  18   4 4.98405 14.3527
  -3 -18  -4 224.974 16.8904
   3  18   4 219.700 42.1003
  -4 -18  -4 21.5775 6.79121
  -5 -18  -4 72.6198 8.82893
  -6 -18  -4 23.7272 4.79651
   6 -19  -4 56.5018 8.01935
   5 -19  -4 15.4911 4.89962
   4 -19  -4 6.57861 3.79081
   3 -19  -4 66.6355 6.07313
   2 -19  -4 21.5503 3.18153
   1 -19  -4 174.551 11.6426
  -1  19   4 168.000 34.6403
   0 -19  -4 28.5908 4.40127
   0  19   4 25.3728 13.6959
  -1 -19  -4 241.023 19.6030
   1  19   4 230.549 44.7506
  -2 -19  -4 46.4033 8.70219
  -3 -19  -4 15.8215 3.31565
  -4 -19  -4 27.2101 5.74350
  -5 -19  -4 104.569 12.1728
   5 -20  -4 9.35244 3.95981
   4 -20  -4 53.4356 8.83985
   3 -20  -4 211.493 24.8948
   2 -20  -4 39.4738 5.97057
   1 -20  -4 11.4863 3.24004
   0 -20  -4 5.33533 4.77867
  -1 -20  -4 53.7481 6.84256
  -2 -20  -4 9.10756 4.68633
  -3 -20  -4 17.0867 3.20148
  -4 -20  -4 8.75079 3.07623
   3 -21  -4 3.22519 2.22201
   2 -21  -4 27.8828 7.38911
   1 -21  -4 1.90144 2.28852
   0 -21  -4 33.6841 7.87759
  -1 -21  -4 8.15155 2.76567
  -2 -21  -4 76.1137 16.1765
 -12   0   5 37.8055 5.33128
 -11   0   5 116.585 12.4552
 -10   0   5 72.5539 9.44962
  -9   0   5 17.7763 5.45768
  -8   0   5 353.923 32.6414
  -7   0   5 28.3968 3.45462
  -6   0   5 78.8724 8.59069
  -5   0   5 774.365 42.7431
  -4   0   5 1326.41 77.9105
  -3   0   5 158.076 8.26256
  -2   0   5 773.846 39.5004
  -1   0   5 151.987 7.28157
   0   0   5 2399.44 155.711
   1   0   5 349.533 15.5906
   2   0   5 201.082 14.0411
   3   0   5 151.739 9.05329
   4   0   5 311.465 21.3434
   5   0   5 4.67146 1.51272
   6   0   5 382.182 37.2030
   7   0   5 4.32042 3.11976
   8   0   5 75.5871 28.1406
   9   0   5 16.7269 3.28891
  10   0   5 0.53374 7.42359
  11   0   5 21.0596 3.61951
  12  -1  -5 150.743 13.9632
 -12   1   5 190.748 21.2567
  11  -1  -5 19.0262 2.71706
 -11   1   5 17.0370 2.77665
  10  -1  -5 109.476 11.6605
 -10   1   5 109.577 16.1429
   9  -1  -5 77.8732 9.55705
  -9   1   5 91.2138 9.02587
   8  -1  -5 99.8346 9.29973
  -8   1   5 95.8379 11.1764
   7  -1  -5 9.26639 2.78437
  -7   1   5 19.0816 3.44523
   6  -1  -5 951.980 63.1851
  -6   1   5 941.265 66.4968
   5  -1  -5 377.855 20.4934
  -5   1   5 382.978 19.5538
   4  -1  -5 331.530 19.9141
  -4   1   5 300.697 20.8391
   3  -1  -5 196.677 8.28522
  -3   1   5 173.181 8.29121
   2  -1  -5 153.256 12.0038
  -2   1   5 117.275 13.9531
   1  -1  -5 235.056 11.1830
  -1   1   5 247.702 11.5791
   0  -1  -5 4466.41 258.060
   0   1   5 4509.98 293.003
  -1  -1  -5 383.140 17.6525
   1   1   5 376.270 18.2684
  -2  -1  -5 850.052 70.6982
   2   1   5 823.017 73.9373
  -3  -1  -5 360.558 19.2252
   3   1   5 381.585 19.7237
  -4  -1  -5 148.258 14.7670
   4   1   5 191.440 15.8460
  -5  -1  -5 13.6726 2.02690
   5   1   5 17.8189 2.25487
  -6  -1  -5 70.7454 7.73680
   6   1   5 59.6237 8.20146
  -7  -1  -5 65.0127 6.05533
   7   1   5 75.4545 5.95638
  -8  -1  -5 0.00000 34.0584
   8   1   5 39.8837 12.2772
  -9  -1  -5 61.3029 6.59940
   9   1   5 61.3628 7.22987
 -10  -1  -5 18.0612 4.65067
 -11  -1  -5 13.8853 2.42208
  12  -2  -5 16.2244 2.67327
 -12   2   5 5.84917 6.84946
  11  -2  -5 45.6128 5.26125
 -11   2   5 37.6955 8.03432
  10  -2  -5 204.050 16.9605
 -10   2   5 151.362 20.6057
   9  -2  -5 24.0403 4.01562
  -9   2   5 30.7753 5.75712
   8  -2  -5 313.483 27.5114
  -8   2   5 286.273 29.5137
   7  -2  -5 119.749 7.84584
  -7   2   5 93.3661 8.97855
   6  -2  -5 281.414 16.2785
  -6   2   5 220.778 17.6162
   5  -2  -5 25.8129 2.71457
  -5   2   5 27.7912 2.76847
   4  -2  -5 582.218 28.0472
  -4   2   5 480.903 28.4536
   3  -2  -5 548.611 22.5420
  -3   2   5 539.757 24.2860
   2  -2  -5 1198.78 59.6522
  -2   2   5 1123.99 71.9791
   1  -2  -5 1326.95 64.1479
  -1   2   5 1400.40 64.6303
   0  -2  -5 486.253 24.8088
   0   2   5 464.150 30.1052
  -1  -2  -5 988.654 45.9305
   1   2   5 1048.79 50.8545
  -2  -2  -5 142.007 10.7240
   2   2   5 140.983 11.6340
  -3  -2  -5 527.313 31.9342
   3   2   5 551.338 36.3042
  -4  -2  -5 93.5629 23.0569
   4   2   5 158.075 24.1867
  -5  -2  -5 1.93914 1.66210
   5   2   5 2.67285 1.73330
  -6  -2  -5 393.785 31.2239
   6   2   5 370.495 32.7257
  -7  -2  -5 34.1364 3.86161
   7   2   5 51.6181 4.51387
  -8  -2  -5 179.542 22.9931
   8   2   5 218.855 26.8244
  -9  -2  -5 216.076 12.4042
   9   2   5 240.693 26.1177
 -10  -2  -5 8.08073 4.54585
 -11  -2  -5 6.47426 1.95613
  12  -3  -5 180.834 17.3956
 -12   3   5 119.800 35.4471
  11  -3  -5 134.423 15.6668
 -11   3   5 115.257 17.5071
  10  -3  -5 66.3423 8.91354
 -10   3   5 37.6264 20.4465
   9  -3  -5 320.906 23.9192
  -9   3   5 273.102 22.7830
   8  -3  -5 229.518 18.4038
  -8   3   5 170.139 19.7653
   7  -3  -5 63.0581 4.34149
  -7   3   5 49.8997 4.96133
   6  -3  -5 565.901 31.8104
  -6   3   5 544.091 37.2457
   5  -3  -5 10.5372 2.05853
  -5   3   5 18.4956 2.30052
   4  -3  -5 424.186 20.6097
  -4   3   5 371.192 22.4464
   3  -3  -5 377.276 14.8398
  -3   3   5 349.027 16.3174
   2  -3  -5 797.433 52.2303
  -2   3   5 812.182 59.4565
   1  -3  -5 1654.45 79.2287
  -1   3   5 1778.74 87.2045
   0  -3  -5 53.1377 3.31605
   0   3   5 61.9402 3.93291
  -1  -3  -5 358.142 15.2108
   1   3   5 375.403 18.2209
  -2  -3  -5 514.831 36.0527
   2   3   5 534.249 41.4407
  -3  -3  -5 421.956 25.4666
   3   3   5 440.989 33.1437
  -4  -3  -5 67.3847 7.57097
   4   3   5 77.8966 8.03283
  -5  -3  -5 33.7281 2.85219
   5   3   5 27.2306 3.11143
  -6  -3  -5 50.5379 6.45573
   6   3   5 42.1097 6.62065
  -7  -3  -5 32.9590 3.79782
   7   3   5 30.8347 4.00238
  -8  -3  -5 40.4229 16.9156
   8   3   5 99.8896 26.5898
  -9  -3  -5 40.4539 2.92626
   9   3   5 29.6433 4.95081
 -10  -3  -5 27.4908 8.33849
 -11  -3  -5 81.3482 7.82673
  12  -4  -5 110.606 15.6582
 -12   4   5 78.1390 24.3596
  11  -4  -5 48.6855 5.93948
 -11   4   5 42.3936 8.58113
  10  -4  -5 691.453 50.0053
 -10   4   5 535.587 105.822
   9  -4  -5 123.467 8.41956
  -9   4   5 102.763 9.56762
   8  -4  -5 176.831 15.0200
  -8   4   5 147.940 16.2715
   7  -4  -5 58.5692 4.05680
  -7   4   5 45.0147 5.20815
   6  -4  -5 125.276 10.8843
  -6   4   5 98.7030 12.0172
   5  -4  -5 403.997 22.5648
  -5   4   5 376.501 19.8206
   4  -4  -5 270.433 21.9463
  -4   4   5 232.047 24.2034
   3  -4  -5 397.162 15.4073
  -3   4   5 367.959 17.3288
   2  -4  -5 964.871 52.5220
  -2   4   5 925.404 62.3999
   1  -4  -5 140.431 6.40304
  -1   4   5 139.864 8.32250
   0  -4  -5 171.315 8.32220
   0   4   5 161.596 9.85666
  -1  -4  -5 97.1351 4.60502
   1   4   5 97.4411 5.41678
  -2  -4  -5 507.674 34.7877
   2   4   5 554.033 36.4038
  -3  -4  -5 68.7654 5.38679
   3   4   5 76.2327 6.58309
  -4  -4  -5 111.122 10.2026
   4   4   5 104.888 9.96892
  -5  -4  -5 288.199 15.6664
   5   4   5 332.265 17.9295
  -6  -4  -5 104.083 12.8347
   6   4   5 115.357 16.1940
  -7  -4  -5 195.215 12.0005
   7   4   5 177.895 15.9600
  -8  -4  -5 61.8091 6.61449
   8   4   5 61.6691 8.29839
  -9  -4  -5 38.3155 3.38742
   9   4   5 44.3808 5.59453
 -10  -4  -5 83.5114 9.09697
 -11  -4  -5 2.49285 1.59945
  12  -5  -5 6.02178 3.13568
 -12   5   5 0.00000 5.55229
  11  -5  -5 92.3009 8.52464
 -11   5   5 61.7640 14.1135
  10  -5  -5 16.1903 3.86515
 -10   5   5 14.1865 12.0601
   9  -5  -5 79.4369 5.26327
  -9   5   5 52.4671 7.70220
   8  -5  -5 74.1668 6.54069
  -8   5   5 62.0838 7.56641
   7  -5  -5 11.0809 2.31590
  -7   5   5 25.1244 3.26545
   6  -5  -5 190.354 11.8251
  -6   5   5 165.543 13.6071
   5  -5  -5 9.34909 1.80265
  -5   5   5 13.9677 1.85426
   4  -5  -5 182.477 9.86253
  -4   5   5 141.096 12.2038
   3  -5  -5 514.892 22.4460
  -3   5   5 494.377 24.5098
   2  -5  -5 58.9629 7.12972
  -2   5   5 53.9227 9.29848
   1  -5  -5 4.04290 1.09107
  -1   5   5 4.57266 1.50577
   0  -5  -5 34.0150 2.56030
   0   5   5 37.5801 3.15630
  -1  -5  -5 41.1383 2.28212
   1   5   5 36.5182 2.83165
  -2  -5  -5 201.289 14.6434
   2   5   5 213.671 16.1586
  -3  -5  -5 374.919 22.4345
   3   5   5 391.227 26.1058
  -4  -5  -5 71.9292 8.65480
   4   5   5 32.7545 9.31366
  -5  -5  -5 173.136 8.92261
   5   5   5 178.830 12.5344
  -6  -5  -5 294.165 24.4767
   6   5   5 303.175 32.2664
  -7  -5  -5 24.0728 3.42346
   7   5   5 18.2731 3.41477
  -8  -5  -5 142.984 11.8740
   8   5   5 187.603 30.2395
  -9  -5  -5 206.940 12.6486
   9   5   5 285.345 41.3355
 -10  -5  -5 149.740 17.8234
 -11  -5  -5 9.49289 1.58288
  12  -6  -5 4.32576 2.85377
 -12   6   5 1.99617 5.41347
  11  -6  -5 58.3768 6.07733
 -11   6   5 38.7760 9.63680
  10  -6  -5 32.8551 4.51561
 -10   6   5 13.2682 14.5740
   9  -6  -5 60.1651 4.87740
  -9   6   5 31.0257 7.31774
   8  -6  -5 164.357 10.2278
  -8   6   5 128.101 12.1685
   7  -6  -5 43.7358 3.54318
  -7   6   5 41.8772 4.50729
   6  -6  -5 40.1610 3.85280
  -6   6   5 26.9018 5.07855
   5  -6  -5 89.2621 4.25629
  -5   6   5 104.249 5.19824
   4  -6  -5 275.649 15.8881
  -4   6   5 223.226 19.4921
   3  -6  -5 637.887 26.8756
  -3   6   5 520.420 29.1773
   2  -6  -5 136.319 7.85510
  -2   6   5 120.268 9.95261
   1  -6  -5 538.736 23.8855
  -1   6   5 551.822 30.0637
   0  -6  -5 286.166 15.1273
   0   6   5 323.256 19.0125
  -1  -6  -5 2221.77 93.6846
   1   6   5 2282.69 112.385
  -2  -6  -5 504.895 27.0156
   2   6   5 481.014 30.5876
  -3  -6  -5 359.501 21.6906
   3   6   5 385.600 22.7263
  -4  -6  -5 298.469 19.7879
   4   6   5 323.588 25.2638
  -5  -6  -5 88.3133 5.63068
   5   6   5 82.5866 6.96520
  -6  -6  -5 48.0821 7.26544
   6   6   5 44.5410 7.73399
  -7  -6  -5 214.974 13.7485
   7   6   5 221.036 17.1332
  -8  -6  -5 22.4449 5.02116
   8   6   5 32.6471 11.9785
  -9  -6  -5 23.6672 2.67805
   9   6   5 43.5143 8.11264
 -10  -6  -5 40.2392 7.54207
 -11  -6  -5 7.15771 1.31480
  12  -7  -5 34.8236 5.31173
  11  -7  -5 29.6247 5.32883
 -11   7   5 17.1809 6.36433
  10  -7  -5 207.326 15.1546
 -10   7   5 107.249 33.8055
   9  -7  -5 127.945 7.41847
  -9   7   5 70.4542 13.6178
   8  -7  -5 141.694 10.9416
  -8   7   5 94.5091 13.7078
   7  -7  -5 36.1777 3.41156
  -7   7   5 32.4042 4.14677
   6  -7  -5 50.1412 4.10506
  -6   7   5 50.9251 5.17019
   5  -7  -5 190.335 7.54594
  -5   7   5 155.819 8.63174
   4  -7  -5 1092.82 53.1131
  -4   7   5 1084.59 56.6370
   3  -7  -5 374.539 17.2619
  -3   7   5 356.782 18.9126
   2  -7  -5 352.195 17.6913
  -2   7   5 336.207 21.9158
   1  -7  -5 658.900 29.3786
  -1   7   5 657.676 36.1296
   0  -7  -5 66.0683 4.05407
   0   7   5 64.3944 5.29363
  -1  -7  -5 464.022 19.4554
   1   7   5 464.160 23.9335
  -2  -7  -5 218.122 12.2436
   2   7   5 256.409 13.9545
  -3  -7  -5 142.442 6.74594
   3   7   5 152.529 9.12575
  -4  -7  -5 191.218 15.3201
   4   7   5 165.997 30.2530
  -5  -7  -5 234.764 14.0542
   5   7   5 275.141 20.7359
  -6  -7  -5 54.0340 9.00320
   6   7   5 58.8031 8.20975
  -7  -7  -5 42.6734 3.59029
   7   7   5 45.2719 5.19407
  -8  -7  -5 14.4042 6.03416
   8   7   5 34.0916 13.2894
  -9  -7  -5 4.71245 2.03881
   9   7   5 8.54860 6.00411
 -10  -7  -5 9.42091 4.29875
  12  -8  -5 15.2671 3.57788
  11  -8  -5 12.0332 2.46150
 -11   8   5 1.42007 4.89359
  10  -8  -5 76.0639 5.87527
 -10   8   5 45.0675 17.6369
   9  -8  -5 103.810 6.34520
  -9   8   5 45.6393 11.0181
   8  -8  -5 156.336 14.7209
  -8   8   5 124.555 16.5051
   7  -8  -5 95.6069 6.83711
  -7   8   5 80.0661 8.46886
   6  -8  -5 30.2446 3.93213
  -6   8   5 33.1987 5.32282
   5  -8  -5 20.4969 1.88707
  -5   8   5 13.5686 2.27639
   4  -8  -5 266.292 11.8149
  -4   8   5 240.254 16.6530
   3  -8  -5 28.7417 2.13961
  -3   8   5 18.9212 2.28246
   2  -8  -5 273.614 14.7296
  -2   8   5 304.401 17.8760
   1  -8  -5 114.676 5.74656
  -1   8   5 108.812 7.14212
   0  -8  -5 1425.56 76.8264
   0   8   5 1503.49 105.454
  -1  -8  -5 977.174 42.6109
   1   8   5 971.945 46.1798
  -2  -8  -5 17.4438 2.87861
   2   8   5 29.1548 3.13252
  -3  -8  -5 24.7025 2.33188
   3   8   5 36.1229 3.09992
  -4  -8  -5 144.972 9.12349
   4   8   5 131.954 16.7583
  -5  -8  -5 62.6998 4.96862
   5   8   5 48.0298 6.00550
  -6  -8  -5 117.154 13.4469
   6   8   5 141.073 15.5655
  -7  -8  -5 35.4753 3.34439
   7   8   5 40.8657 7.69974
  -8  -8  -5 4.84837 4.15710
   8   8   5 3.76124 11.5512
  -9  -8  -5 34.8428 3.16475
   9   8   5 62.5395 9.74048
 -10  -8  -5 44.3673 6.41518
  11  -9  -5 16.5000 1.82270
 -11   9   5 1.92466 5.31212
  10  -9  -5 59.0734 5.59330
 -10   9   5 22.0984 16.4817
   9  -9  -5 14.5313 2.21831
  -9   9   5 12.9168 5.56907
   8  -9  -5 72.3667 6.04826
  -8   9   5 20.1392 17.4224
   7  -9  -5 439.381 24.6652
  -7   9   5 371.713 31.3041
   6  -9  -5 320.221 21.2065
  -6   9   5 301.587 32.8815
   5  -9  -5 32.7549 2.71751
  -5   9   5 44.0288 3.92771
   4  -9  -5 57.3593 3.89454
  -4   9   5 62.5172 6.26398
   3  -9  -5 490.282 17.8187
  -3   9   5 462.764 22.6257
   2  -9  -5 247.791 12.7074
  -2   9   5 212.388 16.2614
   1  -9  -5 341.678 13.8865
  -1   9   5 364.787 17.3598
   0  -9  -5 639.790 32.7745
   0   9   5 736.074 45.6409
  -1  -9  -5 720.178 27.8893
   1   9   5 781.581 40.3378
  -2  -9  -5 26.4860 2.87824
   2   9   5 30.8654 3.70617
  -3  -9  -5 9.91049 1.62470
   3   9   5 7.59171 2.00136
  -4  -9  -5 127.160 9.44871
   4   9   5 104.007 17.7810
  -5  -9  -5 168.139 11.9133
   5   9   5 193.680 16.0356
  -6  -9  -5 348.865 30.7823
   6   9   5 403.753 44.9257
  -7  -9  -5 113.797 6.50034
   7   9   5 105.236 14.8122
  -8  -9  -5 6.37426 4.14935
   8   9   5 16.9165 11.7125
  -9  -9  -5 24.1994 2.56934
 -10  -9  -5 94.3971 11.6495
  11 -10  -5 14.0128 1.67893
 -11  10   5 7.26192 4.86184
  10 -10  -5 12.1298 3.38473
   9 -10  -5 106.346 6.74982
  -9  10   5 53.5381 12.6717
   8 -10  -5 48.2912 6.58377
  -8  10   5 52.3842 18.0600
   7 -10  -5 30.4801 3.56535
  -7  10   5 32.8986 4.43600
   6 -10  -5 294.852 18.3619
  -6  10   5 252.703 27.4371
   5 -10  -5 127.051 7.59969
  -5  10   5 138.787 10.1022
   4 -10  -5 353.095 19.4206
  -4  10   5 350.537 32.4018
   3 -10  -5 247.408 10.4182
  -3  10   5 226.222 14.2101
   2 -10  -5 300.170 13.5602
  -2  10   5 265.724 18.6779
   1 -10  -5 480.212 16.9472
  -1  10   5 501.516 25.4095
   0 -10  -5 572.953 26.5714
   0  10   5 637.607 40.4112
  -1 -10  -5 588.971 24.4161
   1  10   5 699.450 33.4486
  -2 -10  -5 545.942 28.5865
   2  10   5 546.043 39.9027
  -3 -10  -5 43.8252 2.93599
   3  10   5 33.9010 4.11964
  -4 -10  -5 236.289 19.9610
   4  10   5 224.731 30.4345
  -5 -10  -5 30.7939 3.49825
   5  10   5 24.0731 4.02651
  -6 -10  -5 57.6810 5.62979
  -7 -10  -5 226.606 13.3038
   7  10   5 251.870 26.8523
  -8 -10  -5 27.2646 5.27577
   8  10   5 21.2986 12.9554
  -9 -10  -5 12.1029 2.23795
 -10 -10  -5 4.84838 2.87987
  11 -11  -5 5.42991 1.39195
 -11  11   5 7.42442 4.19539
  10 -11  -5 47.1885 12.2058
   9 -11  -5 105.240 7.18692
  -9  11   5 51.9893 12.4903
   8 -11  -5 114.536 9.01865
  -8  11   5 43.5267 22.6084
   7 -11  -5 82.1518 5.24418
  -7  11   5 51.2038 9.66438
   6 -11  -5 216.741 14.3287
  -6  11   5 176.203 22.1285
   5 -11  -5 9.35376 2.20363
  -5  11   5 11.0411 2.91484
   4 -11  -5 163.153 9.53681
  -4  11   5 159.909 15.6772
   3 -11  -5 37.6612 2.73838
  -3  11   5 32.4015 3.69385
   2 -11  -5 25.7618 2.75032
  -2  11   5 24.0697 4.70403
   1 -11  -5 297.024 12.6489
  -1  11   5 293.837 22.3584
   0 -11  -5 62.6124 3.86108
   0  11   5 73.4047 6.72751
  -1 -11  -5 806.061 36.4209
   1  11   5 850.426 78.3519
  -2 -11  -5 187.602 14.7712
   2  11   5 202.907 24.7152
  -3 -11  -5 48.7261 3.16641
   3  11   5 49.9156 4.58987
  -4 -11  -5 259.052 20.3636
   4  11   5 312.037 28.6977
  -5 -11  -5 134.439 9.47060
   5  11   5 133.617 11.3948
  -6 -11  -5 107.573 7.92040
  -7 -11  -5 124.332 6.96687
   7  11   5 124.782 14.0282
  -8 -11  -5 29.5624 5.23545
   8  11   5 46.3760 12.9777
  -9 -11  -5 25.0748 2.77159
  10 -12  -5 31.6358 9.87722
   9 -12  -5 4.70404 1.69751
  -9  12   5 10.5606 4.92815
   8 -12  -5 101.333 13.2088
  -8  12   5 47.7814 34.3319
   7 -12  -5 324.043 17.8251
  -7  12   5 244.004 30.0932
   6 -12  -5 53.3717 5.12643
  -6  12   5 52.3265 8.58155
   5 -12  -5 100.671 6.28495
  -5  12   5 90.3544 8.05055
   4 -12  -5 215.805 12.6454
  -4  12   5 207.672 20.4173
   3 -12  -5 7.23315 1.70521
  -3  12   5 2.22860 2.36369
   2 -12  -5 53.9026 4.77908
  -2  12   5 56.7906 8.08125
   1 -12  -5 118.927 5.93252
  -1  12   5 148.394 11.1167
   0 -12  -5 42.9037 3.19594
   0  12   5 42.0913 6.27382
  -1 -12  -5 81.8816 4.86750
   1  12   5 103.854 7.78372
  -2 -12  -5 551.234 35.9013
   2  12   5 674.527 68.9273
  -3 -12  -5 3.71989 2.20479
   3  12   5 5.92972 3.68107
  -4 -12  -5 182.522 18.3366
   4  12   5 193.539 32.4276
  -5 -12  -5 119.747 7.63267
   5  12   5 129.569 17.1996
  -6 -12  -5 72.7950 9.28029
  -7 -12  -5 11.3882 1.72680
   7  12   5 3.82469 9.52005
  -8 -12  -5 24.6807 5.50071
  -9 -12  -5 3.29858 1.60136
  10 -13  -5 47.7201 12.5081
   9 -13  -5 98.8929 10.0348
  -9  13   5 58.6599 19.2449
   8 -13  -5 60.6277 7.30998
  -8  13   5 3.27210 23.4331
   7 -13  -5 51.5199 3.91564
  -7  13   5 33.5627 8.47230
   6 -13  -5 204.575 20.0436
  -6  13   5 250.155 35.5290
   5 -13  -5 124.345 6.78158
  -5  13   5 119.644 10.5343
   4 -13  -5 26.1644 3.84687
  -4  13   5 45.0323 6.02961
   3 -13  -5 325.151 14.8929
  -3  13   5 319.784 22.8397
   2 -13  -5 17.5715 2.85276
  -2  13   5 22.0849 4.48113
   1 -13  -5 226.762 10.5370
  -1  13   5 243.549 17.6631
   0 -13  -5 91.9246 5.76363
   0  13   5 102.472 10.7717
  -1 -13  -5 72.0004 4.69531
   1  13   5 96.8880 7.25068
  -2 -13  -5 17.4388 3.62710
   2  13   5 33.3603 5.90519
  -3 -13  -5 84.1706 6.41083
   3  13   5 84.7458 11.2098
  -4 -13  -5 0.00000 9.25370
   4  13   5 25.3106 20.0688
  -5 -13  -5 361.525 21.1488
   5  13   5 319.281 41.1558
  -6 -13  -5 69.5184 5.90428
  -7 -13  -5 5.01610 1.62446
   7  13   5 1.51912 9.40897
  -8 -13  -5 3.10243 3.53873
  -9 -13  -5 16.2622 1.89891
   9 -14  -5 134.061 11.1104
   8 -14  -5 8.93948 3.20511
   7 -14  -5 16.3450 2.01627
  -7  14   5 6.14273 7.15345
   6 -14  -5 70.7392 9.40519
  -6  14   5 85.8849 18.1114
   5 -14  -5 137.332 8.77859
  -5  14   5 167.922 20.1815
   4 -14  -5 62.4375 5.51463
  -4  14   5 85.4863 8.03810
   3 -14  -5 311.784 14.1590
  -3  14   5 280.837 21.2680
   2 -14  -5 106.713 7.81416
  -2  14   5 113.354 12.0657
   1 -14  -5 22.2643 2.22331
  -1  14   5 20.9011 3.89552
   0 -14  -5 42.7901 3.60728
   0  14   5 49.6568 5.57136
  -1 -14  -5 159.309 8.57128
   1  14   5 139.383 14.3562
  -2 -14  -5 38.5740 7.51985
   2  14   5 74.0767 9.61054
  -3 -14  -5 106.058 8.80451
   3  14   5 126.037 16.5062
  -4 -14  -5 100.882 12.7196
   4  14   5 114.325 26.7133
  -5 -14  -5 14.6104 2.14031
   5  14   5 8.82909 10.3830
  -6 -14  -5 23.2908 3.89715
  -7 -14  -5 79.2130 6.08456
  -8 -14  -5 24.8208 5.16481
   9 -15  -5 8.13027 1.53379
   8 -15  -5 9.22083 3.15207
   7 -15  -5 150.709 7.95439
  -7  15   5 101.549 18.0172
   6 -15  -5 36.0992 6.06901
  -6  15   5 43.8854 11.4749
   5 -15  -5 287.840 16.7519
  -5  15   5 327.263 41.9496
   4 -15  -5 107.503 6.92170
  -4  15   5 93.4513 17.5551
   3 -15  -5 116.597 7.49985
  -3  15   5 127.611 17.7743
   2 -15  -5 131.134 9.03425
  -2  15   5 130.104 16.4483
   1 -15  -5 75.9696 3.91419
  -1  15   5 51.6322 7.93753
   0 -15  -5 46.3536 3.61258
   0  15   5 49.4415 6.56917
  -1 -15  -5 29.3146 3.41180
   1  15   5 48.5820 6.27057
  -2 -15  -5 100.326 9.35271
   2  15   5 113.412 25.5043
  -3 -15  -5 75.6496 6.40839
   3  15   5 67.8852 17.2233
  -4 -15  -5 81.4770 11.0172
   4  15   5 70.3972 21.7154
  -5 -15  -5 62.5586 5.59225
   5  15   5 46.9105 12.4580
  -6 -15  -5 0.00000 3.52345
  -7 -15  -5 35.1446 3.26824
  -8 -15  -5 2.13273 3.33232
   8 -16  -5 31.7195 5.43464
   7 -16  -5 129.230 10.5147
   6 -16  -5 83.8816 9.43645
  -6  16   5 65.7239 14.8115
   5 -16  -5 28.4914 3.44501
  -5  16   5 19.7807 8.60829
   4 -16  -5 97.5751 7.16148
  -4  16   5 93.8985 18.4610
   3 -16  -5 28.9577 3.29671
  -3  16   5 41.6874 8.18408
   2 -16  -5 113.541 8.49051
  -2  16   5 134.383 28.4114
   1 -16  -5 45.2305 3.47705
  -1  16   5 52.2675 13.1893
   0 -16  -5 3.24725 2.68054
   0  16   5 0.00000 12.4275
  -1 -16  -5 205.323 12.9662
   1  16   5 232.269 38.3366
  -2 -16  -5 55.3922 6.18089
   2  16   5 66.7950 18.7940
  -3 -16  -5 26.1138 3.64785
   3  16   5 14.3950 11.3242
  -4 -16  -5 0.00000 3.23995
   4  16   5 0.00000 16.6180
  -5 -16  -5 67.1254 6.38578
   5  16   5 30.7687 20.9121
  -6 -16  -5 52.0644 10.2669
  -7 -16  -5 96.6096 10.1737
   8 -17  -5 12.4514 3.06306
   7 -17  -5 66.0651 6.03972
   6 -17  -5 7.45233 3.72847
   5 -17  -5 71.2156 4.95262
  -5  17   5 48.5027 10.2024
   4 -17  -5 62.5105 5.79703
  -4  17   5 53.5570 13.9309
   3 -17  -5 55.2881 5.47918
  -3  17   5 77.2954 11.1365
   2 -17  -5 24.8848 3.18780
  -2  17   5 16.6274 14.0830
   1 -17  -5 17.9557 2.38334
  -1  17   5 24.3206 10.6473
   0 -17  -5 5.85646 3.04319
   0  17   5 10.0306 13.2120
  -1 -17  -5 54.0911 5.14791
   1  17   5 50.9909 14.6822
  -2 -17  -5 92.1264 8.46727
   2  17   5 89.5033 23.8834
  -3 -17  -5 35.6014 4.19276
   3  17   5 40.9547 12.6189
  -4 -17  -5 20.5313 3.56183
  -5 -17  -5 43.3674 5.60429
  -6 -17  -5 17.4520 4.50263
   7 -18  -5 19.6729 2.36364
   6 -18  -5 10.4016 3.75472
   5 -18  -5 13.1996 2.67322
   4 -18  -5 103.096 8.09720
   3 -18  -5 246.680 17.8413
  -3  18   5 212.831 33.7161
   2 -18  -5 15.7438 2.95336
  -2  18   5 19.7893 9.62332
   1 -18  -5 66.1739 4.68572
  -1  18   5 47.2960 15.5854
   0 -18  -5 215.953 18.1936
   0  18   5 194.038 46.3634
  -1 -18  -5 83.5229 6.61358
   1  18   5 56.8782 17.8459
  -2 -18  -5 89.1429 8.42998
   2  18   5 58.7013 23.8319
  -3 -18  -5 105.305 8.16693
   3  18   5 44.6067 26.1546
  -4 -18  -5 53.2076 9.60487
  -5 -18  -5 47.2107 5.80286
   6 -19  -5 24.8180 4.23279
   5 -19  -5 22.6024 5.79580
   4 -19  -5 42.3938 8.23446
   3 -19  -5 117.710 13.9692
   2 -19  -5 140.926 16.8902
   1 -19  -5 167.668 9.29653
   0 -19  -5 28.4210 5.50727
  -1 -19  -5 72.0244 6.04157
  -2 -19  -5 11.9244 5.19544
  -3 -19  -5 3.83654 1.93455
  -4 -19  -5 46.6087 8.47655
   5 -20  -5 30.6007 4.53440
   4 -20  -5 165.251 28.1860
   3 -20  -5 76.6882 9.63909
   2 -20  -5 31.8201 5.37833
   1 -20  -5 7.91846 2.10232
   0 -20  -5 60.4931 12.9239
  -1 -20  -5 22.4289 3.75868
  -2 -20  -5 60.3906 12.2372
  -3 -20  -5 14.7648 2.04566
   2 -21  -5 89.7535 11.3509
   1 -21  -5 4.29792 2.14225
   0 -21  -5 47.9199 10.8235
  -1 -21  -5 3.89804 2.36906
 -12   0   6 70.4334 24.7404
 -11   0   6 107.818 11.2768
 -10   0   6 0.00000 5.01125
  -9   0   6 170.398 17.1241
  -8   0   6 384.138 33.1948
  -7   0   6 8.36129 3.63921
  -6   0   6 207.262 16.2747
  -5   0   6 1725.64 99.8618
  -4   0   6 191.126 25.2863
  -3   0   6 934.298 51.7724
  -2   0   6 208.424 13.6543
  -1   0   6 161.001 7.90325
   0   0   6 5924.46 386.742
   1   0   6 66.7561 3.54998
   2   0   6 17.2280 2.75689
   3   0   6 44.7567 3.86331
   4   0   6 1239.30 73.3384
   5   0   6 51.5329 4.66403
   6   0   6 168.314 20.6673
   7   0   6 4.48681 3.08746
   8   0   6 26.5237 6.22767
   9   0   6 26.8808 3.29402
  10   0   6 13.4365 9.88124
  11   0   6 25.1712 5.80871
  12  -1  -6 14.8736 8.23361
 -12   1   6 10.6777 6.35305
  11  -1  -6 33.0004 4.08485
 -11   1   6 25.7770 7.09218
  10  -1  -6 310.705 42.5897
 -10   1   6 243.521 34.5631
   9  -1  -6 16.3167 5.04608
  -9   1   6 14.4441 5.22294
   8  -1  -6 698.774 64.3250
  -8   1   6 691.938 69.8677
   7  -1  -6 25.4341 3.41118
  -7   1   6 26.1475 4.15279
   6  -1  -6 34.3540 8.50711
  -6   1   6 29.3079 9.07686
   5  -1  -6 45.3031 3.98844
  -5   1   6 56.2831 3.95676
   4  -1  -6 159.523 9.81238
  -4   1   6 139.548 10.4646
   3  -1  -6 314.019 17.7502
  -3   1   6 333.617 18.4405
   2  -1  -6 2334.97 120.661
  -2   1   6 2244.40 140.545
   1  -1  -6 283.279 13.6490
  -1   1   6 292.867 14.0337
   0  -1  -6 2601.73 148.731
   0   1   6 2525.21 168.654
  -1  -1  -6 390.088 16.6803
   1   1   6 362.569 17.0620
  -2  -1  -6 619.756 53.5277
   2   1   6 601.048 59.9971
  -3  -1  -6 393.381 22.1370
   3   1   6 373.255 26.6577
  -4  -1  -6 380.510 29.6406
   4   1   6 381.569 28.6660
  -5  -1  -6 163.074 8.45680
   5   1   6 144.387 9.77005
  -6  -1  -6 191.026 22.9428
   6   1   6 199.641 22.9070
  -7  -1  -6 20.2078 4.37090
   7   1   6 25.0636 4.11888
  -8  -1  -6 350.711 33.9927
   8   1   6 327.574 33.8437
  -9  -1  -6 24.2631 3.14619
   9   1   6 26.7061 3.84120
 -10  -1  -6 26.0572 5.77034
  10   1   6 4.87645 9.75966
 -11  -1  -6 9.84080 1.90224
  12  -2  -6 34.9912 4.05918
 -12   2   6 18.3647 8.99333
  11  -2  -6 24.9493 2.87626
 -11   2   6 16.8136 6.15020
  10  -2  -6 146.137 20.1540
 -10   2   6 85.8301 31.5319
   9  -2  -6 253.321 18.0072
  -9   2   6 235.659 18.6393
   8  -2  -6 17.8857 5.81421
  -8   2   6 10.1129 6.97999
   7  -2  -6 60.8545 4.91022
  -7   2   6 57.9048 5.66156
   6  -2  -6 171.826 13.6788
  -6   2   6 178.504 14.2479
   5  -2  -6 249.553 13.1859
  -5   2   6 232.421 12.6066
   4  -2  -6 294.634 14.9127
  -4   2   6 251.548 15.6258
   3  -2  -6 721.947 33.9083
  -3   2   6 680.267 33.5836
   2  -2  -6 174.615 10.0169
  -2   2   6 215.987 11.4775
   1  -2  -6 1342.48 64.7145
  -1   2   6 1370.35 65.7080
   0  -2  -6 1877.92 109.562
   0   2   6 1870.67 134.661
  -1  -2  -6 1264.46 59.3985
   1   2   6 1200.20 67.7671
  -2  -2  -6 501.866 53.2104
   2   2   6 601.052 57.5962
  -3  -2  -6 372.831 22.0065
   3   2   6 341.695 27.2221
  -4  -2  -6 96.9381 8.42400
   4   2   6 107.789 10.0581
  -5  -2  -6 80.2369 5.06981
   5   2   6 71.8238 5.42385
  -6  -2  -6 415.835 42.1811
   6   2   6 368.337 44.2235
  -7  -2  -6 355.494 20.6902
   7   2   6 298.709 23.2872
  -8  -2  -6 44.3705 11.9736
   8   2   6 51.5009 6.86667
  -9  -2  -6 244.723 14.7043
   9   2   6 194.231 22.3319
 -10  -2  -6 47.4417 8.80287
 -11  -2  -6 13.1713 2.16698
  12  -3  -6 4.30902 2.31002
 -12   3   6 0.00000 5.76696
  11  -3  -6 46.1279 4.19700
 -11   3   6 30.7900 8.04708
  10  -3  -6 43.6494 8.12806
 -10   3   6 23.1728 17.9549
   9  -3  -6 260.745 16.5020
  -9   3   6 235.588 22.5086
   8  -3  -6 178.059 13.1061
  -8   3   6 148.126 14.3312
   7  -3  -6 93.8545 6.72274
  -7   3   6 88.5071 7.62285
   6  -3  -6 63.5028 10.6382
  -6   3   6 50.3196 9.91774
   5  -3  -6 513.308 23.7638
  -5   3   6 433.813 22.5128
   4  -3  -6 711.978 35.3723
  -4   3   6 582.389 39.2164
   3  -3  -6 68.7865 4.02885
  -3   3   6 87.7799 4.87042
   2  -3  -6 492.347 26.3116
  -2   3   6 433.896 30.7808
   1  -3  -6 93.0236 4.61721
  -1   3   6 79.6013 5.26302
   0  -3  -6 134.680 8.23410
   0   3   6 145.558 9.32178
  -1  -3  -6 240.898 12.2326
   1   3   6 261.071 14.2477
  -2  -3  -6 1410.25 94.9133
   2   3   6 1527.95 104.712
  -3  -3  -6 176.744 12.6268
   3   3   6 214.943 13.6697
  -4  -3  -6 42.1130 4.57200
   4   3   6 34.8236 4.82239
  -5  -3  -6 111.901 6.34564
   5   3   6 92.2497 7.76608
  -6  -3  -6 104.695 12.9189
   6   3   6 76.3639 15.1591
  -7  -3  -6 173.883 10.6809
   7   3   6 178.386 12.2647
  -8  -3  -6 95.5057 10.6136
   8   3   6 110.177 10.8474
  -9  -3  -6 79.4201 4.98650
   9   3   6 71.2938 9.32193
 -10  -3  -6 48.7496 7.72412
 -11  -3  -6 16.1680 2.41443
  12  -4  -6 68.0325 7.18418
 -12   4   6 37.7297 14.6802
  11  -4  -6 66.3869 6.13735
 -11   4   6 46.1114 10.8304
  10  -4  -6 152.198 16.2514
 -10   4   6 98.1006 30.2396
   9  -4  -6 5.60832 1.93979
  -9   4   6 6.43479 3.88022
   8  -4  -6 148.973 13.8124
  -8   4   6 119.109 14.9981
   7  -4  -6 142.330 9.23966
  -7   4   6 154.636 10.0645
   6  -4  -6 279.842 18.5929
  -6   4   6 238.767 22.4160
   5  -4  -6 215.810 10.0639
  -5   4   6 218.748 10.7562
   4  -4  -6 125.720 9.74105
  -4   4   6 93.5441 9.75988
   3  -4  -6 596.264 25.5362
  -3   4   6 524.304 28.4645
   2  -4  -6 343.088 19.6845
  -2   4   6 308.410 24.6342
   1  -4  -6 449.700 20.6128
  -1   4   6 418.934 23.2892
   0  -4  -6 13.1298 1.71752
   0   4   6 11.2928 1.96402
  -1  -4  -6 354.527 16.7700
   1   4   6 374.089 21.1108
  -2  -4  -6 720.950 48.1803
   2   4   6 766.918 55.4571
  -3  -4  -6 175.121 11.6398
   3   4   6 185.194 12.3439
  -4  -4  -6 126.314 9.19184
   4   4   6 142.235 11.5027
  -5  -4  -6 26.2582 2.97814
   5   4   6 27.7884 3.40004
  -6  -4  -6 65.7734 7.36487
   6   4   6 60.5794 7.94596
  -7  -4  -6 46.2972 4.68419
   7   4   6 50.7890 5.13445
  -8  -4  -6 44.8542 6.29774
   8   4   6 70.0172 14.0306
  -9  -4  -6 72.2094 4.46843
   9   4   6 71.5078 14.6469
 -10  -4  -6 0.00000 3.92007
  12  -5  -6 12.6033 3.42849
 -12   5   6 10.1627 6.25626
  11  -5  -6 70.8670 5.69513
 -11   5   6 42.0450 11.2013
  10  -5  -6 14.3035 4.86939
 -10   5   6 3.34083 16.2730
   9  -5  -6 36.9497 3.92049
  -9   5   6 16.7853 5.86720
   8  -5  -6 16.0854 5.82561
  -8   5   6 20.8340 7.12370
   7  -5  -6 78.5938 5.26361
  -7   5   6 81.5444 6.32161
   6  -5  -6 294.225 15.1149
  -6   5   6 210.279 18.9206
   5  -5  -6 18.5918 1.85683
  -5   5   6 13.0945 2.26803
   4  -5  -6 583.561 32.6553
  -4   5   6 519.862 33.9271
   3  -5  -6 35.8094 2.18399
  -3   5   6 12.2025 2.46542
   2  -5  -6 241.076 12.0895
  -2   5   6 234.694 15.7210
   1  -5  -6 175.287 8.21356
  -1   5   6 184.407 10.4752
   0  -5  -6 92.3133 5.35464
   0   5   6 97.0266 6.76749
  -1  -5  -6 89.9106 4.89514
   1   5   6 119.562 5.96919
  -2  -5  -6 255.490 25.2042
   2   5   6 318.639 27.7250
  -3  -5  -6 85.1357 5.09907
   3   5   6 89.1001 6.03289
  -4  -5  -6 370.335 25.7719
   4   5   6 372.770 31.6824
  -5  -5  -6 70.1613 4.50469
   5   5   6 49.8265 5.38103
  -6  -5  -6 18.4085 5.83105
   6   5   6 27.7633 5.23919
  -7  -5  -6 141.242 7.04718
   7   5   6 120.732 10.0574
  -8  -5  -6 126.937 17.0418
   8   5   6 154.302 35.8448
  -9  -5  -6 35.2483 3.11044
   9   5   6 36.1048 8.83753
 -10  -5  -6 36.2901 5.85206
  12  -6  -6 1.11137 2.75712
 -12   6   6 3.98950 4.98041
  11  -6  -6 19.7995 2.44464
 -11   6   6 9.18983 5.63560
  10  -6  -6 22.4029 4.66905
 -10   6   6 12.8706 12.3541
   9  -6  -6 86.7905 6.53720
  -9   6   6 62.5961 10.0879
   8  -6  -6 53.9370 7.10226
  -8   6   6 37.8484 9.11628
   7  -6  -6 178.406 9.80409
  -7   6   6 157.324 12.3880
   6  -6  -6 42.2608 7.24952
  -6   6   6 23.7217 10.1467
   5  -6  -6 46.4405 3.09479
  -5   6   6 51.1306 3.81003
   4  -6  -6 18.8909 2.95802
  -4   6   6 4.69724 3.58027
   3  -6  -6 199.905 8.94789
  -3   6   6 161.802 10.1106
   2  -6  -6 167.182 11.8232
  -2   6   6 161.768 14.9299
   1  -6  -6 217.439 9.95871
  -1   6   6 197.315 12.1942
   0  -6  -6 47.4939 3.20590
   0   6   6 35.2624 3.78152
  -1  -6  -6 93.7465 4.50023
   1   6   6 82.7788 5.33820
  -2  -6  -6 48.3652 5.36611
   2   6   6 54.1151 5.63411
  -3  -6  -6 183.456 9.92607
   3   6   6 213.753 12.6452
  -4  -6  -6 5.65547 5.56462
   4   6   6 1.73354 5.21213
  -5  -6  -6 105.655 5.97628
   5   6   6 101.969 8.04158
  -6  -6  -6 179.789 14.7924
   6   6   6 160.556 20.6947
  -7  -6  -6 47.3853 3.83793
   7   6   6 62.6139 11.0246
  -8  -6  -6 73.5491 7.75938
   8   6   6 95.5553 18.1067
  -9  -6  -6 50.7980 3.77228
   9   6   6 49.4075 11.1236
 -10  -6  -6 92.8621 10.4955
  12  -7  -6 7.39161 3.10101
 -12   7   6 3.82367 5.15106
  11  -7  -6 56.1846 6.01386
 -11   7   6 51.5406 11.4718
  10  -7  -6 23.0260 4.85046
 -10   7   6 16.3095 15.1340
   9  -7  -6 105.522 7.04664
  -9   7   6 86.2982 11.9299
   8  -7  -6 63.7459 7.78839
  -8   7   6 63.1632 8.22798
   7  -7  -6 38.3196 3.63399
  -7   7   6 40.8895 4.55549
   6  -7  -6 815.150 41.0899
  -6   7   6 683.646 63.4399
   5  -7  -6 23.8575 2.01671
  -5   7   6 16.4172 2.44444
   4  -7  -6 58.3098 3.34529
  -4   7   6 53.9577 5.20789
   3  -7  -6 51.7074 2.85276
  -3   7   6 34.8785 3.04772
   2  -7  -6 58.9351 5.67586
  -2   7   6 55.4793 7.40963
   1  -7  -6 446.777 20.5486
  -1   7   6 468.911 25.2694
   0  -7  -6 70.4485 4.81378
   0   7   6 80.3419 6.51288
  -1  -7  -6 261.791 12.3722
   1   7   6 246.839 15.0179
  -2  -7  -6 105.444 7.01961
   2   7   6 130.109 8.05966
  -3  -7  -6 228.814 12.0465
   3   7   6 265.772 16.3157
  -4  -7  -6 100.922 10.9500
   4   7   6 97.5557 15.3159
  -5  -7  -6 136.110 8.23319
   5   7   6 138.484 10.2322
  -6  -7  -6 116.227 10.7863
   6   7   6 142.658 13.9885
  -7  -7  -6 4.54523 2.40744
   7   7   6 7.99494 5.30758
  -8  -7  -6 74.6052 7.72690
   8   7   6 134.404 18.4627
  -9  -7  -6 30.2234 2.93495
   9   7   6 50.1889 8.57378
 -10  -7  -6 51.6747 6.41038
  11  -8  -6 40.4763 4.51683
 -11   8   6 19.9628 8.18200
  10  -8  -6 133.810 12.0054
 -10   8   6 53.8069 25.3286
   9  -8  -6 12.0831 2.08933
  -9   8   6 9.66996 5.31871
   8  -8  -6 322.482 21.4064
  -8   8   6 207.605 75.8385
   7  -8  -6 78.4747 5.39313
  -7   8   6 50.6854 6.46513
   6  -8  -6 214.027 13.5365
  -6   8   6 168.260 19.2527
   5  -8  -6 144.953 7.01572
  -5   8   6 149.259 9.14013
   4  -8  -6 73.0513 6.04238
  -4   8   6 60.1879 8.86837
   3  -8  -6 36.1493 1.97205
  -3   8   6 27.9285 2.73554
   2  -8  -6 43.4059 2.96514
  -2   8   6 49.4343 4.08836
   1  -8  -6 361.157 13.8716
  -1   8   6 381.744 19.1953
   0  -8  -6 1023.24 50.0829
   0   8   6 1226.99 69.1288
  -1  -8  -6 667.358 28.2220
   1   8   6 757.377 37.0681
  -2  -8  -6 84.5080 7.59696
   2   8   6 81.3666 11.0720
  -3  -8  -6 78.2939 4.98168
   3   8   6 94.9715 6.71154
  -4  -8  -6 92.0861 8.43636
   4   8   6 103.049 13.4476
  -5  -8  -6 51.1661 3.95134
   5   8   6 30.0334 4.52117
  -6  -8  -6 74.3493 13.0619
   6   8   6 76.8520 10.0231
  -7  -8  -6 147.217 8.83994
   7   8   6 168.906 18.1452
  -8  -8  -6 49.1311 6.30838
   8   8   6 72.9044 14.5961
  -9  -8  -6 101.063 6.50905
 -10  -8  -6 21.8864 4.34057
  11  -9  -6 43.9643 4.14445
 -11   9   6 23.3429 8.94782
  10  -9  -6 235.525 17.5970
 -10   9   6 121.063 57.6014
   9  -9  -6 162.459 10.1280
  -9   9   6 93.2778 22.8133
   8  -9  -6 310.687 27.5795
   7  -9  -6 209.396 13.2397
  -7   9   6 161.443 20.4565
   6  -9  -6 62.8085 5.73777
  -6   9   6 51.2002 8.80935
   5  -9  -6 8.85635 1.72931
  -5   9   6 5.64852 2.31198
   4  -9  -6 79.9350 4.13886
  -4   9   6 57.4598 6.82571
   3  -9  -6 14.6766 1.54212
  -3   9   6 9.45290 2.07117
   2  -9  -6 81.9168 3.96816
  -2   9   6 77.5259 5.43853
   1  -9  -6 94.1047 4.10623
  -1   9   6 106.228 6.16743
   0  -9  -6 1137.75 55.4268
   0   9   6 1304.21 70.1981
  -1  -9  -6 266.781 11.3729
   1   9   6 305.614 16.5678
  -2  -9  -6 272.697 15.4457
   2   9   6 294.709 28.7994
  -3  -9  -6 108.690 6.11359
   3   9   6 130.881 8.10449
  -4  -9  -6 26.4609 7.21837
   4   9   6 5.71544 9.20279
  -5  -9  -6 29.5190 4.36563
   5   9   6 45.3212 5.49054
  -6  -9  -6 142.227 14.1450
   6   9   6 162.046 38.3207
  -7  -9  -6 132.103 7.96809
   7   9   6 127.874 16.6214
  -8  -9  -6 94.1105 9.29541
   8   9   6 115.609 22.5743
  -9  -9  -6 114.360 9.27570
 -10  -9  -6 44.4489 6.14052
  11 -10  -6 8.24409 1.48980
 -11  10   6 6.64658 4.20351
  10 -10  -6 8.20586 4.47459
   9 -10  -6 17.6470 2.23419
  -9  10   6 9.25436 5.55725
   8 -10  -6 475.461 32.6415
   7 -10  -6 73.6755 5.19551
  -7  10   6 55.0913 9.56975
   6 -10  -6 255.840 13.4335
  -6  10   6 241.318 21.1239
   5 -10  -6 123.998 6.82128
  -5  10   6 121.334 9.57086
   4 -10  -6 167.433 8.91788
  -4  10   6 161.153 15.3628
   3 -10  -6 19.3246 1.69995
  -3  10   6 11.0626 2.36791
   2 -10  -6 335.858 18.6213
  -2  10   6 351.952 27.5676
   1 -10  -6 63.5908 3.26338
  -1  10   6 60.9557 5.06941
   0 -10  -6 20.6855 2.21772
   0  10   6 31.5169 3.75500
  -1 -10  -6 112.810 6.02790
   1  10   6 144.109 9.72820
  -2 -10  -6 7.03754 2.75924
   2  10   6 0.31857 3.51405
  -3 -10  -6 332.736 15.1784
   3  10   6 330.815 21.8102
  -4 -10  -6 84.3249 10.0636
   4  10   6 87.1660 11.8560
  -5 -10  -6 127.399 10.5458
   5  10   6 159.389 13.7499
  -6 -10  -6 112.048 8.40563
   6  10   6 134.675 23.8735
  -7 -10  -6 35.9724 3.33491
   7  10   6 45.5638 7.79826
  -8 -10  -6 15.8437 5.36454
   8  10   6 26.5439 10.6598
  -9 -10  -6 28.8445 3.01533
  11 -11  -6 9.42995 1.45346
 -11  11   6 5.24654 3.94857
  10 -11  -6 244.222 64.6945
   9 -11  -6 22.4721 2.41878
  -9  11   6 10.6922 6.38097
   8 -11  -6 208.007 16.6308
  -8  11   6 54.3222 46.7812
   7 -11  -6 10.6504 2.02684
  -7  11   6 4.87197 8.11887
   6 -11  -6 48.7632 7.60684
  -6  11   6 41.7395 11.5804
   5 -11  -6 24.6046 2.51477
  -5  11   6 23.2883 3.95365
   4 -11  -6 94.3741 6.58163
  -4  11   6 88.8233 11.1292
   3 -11  -6 251.699 10.5482
  -3  11   6 251.035 17.7056
   2 -11  -6 560.304 25.1558
  -2  11   6 587.266 41.5142
   1 -11  -6 193.481 8.51175
  -1  11   6 220.304 15.3414
   0 -11  -6 159.379 8.65903
   0  11   6 190.001 14.8094
  -1 -11  -6 314.571 14.6685
   1  11   6 328.690 25.6162
  -2 -11  -6 91.4665 6.08518
   2  11   6 99.3350 9.60917
  -3 -11  -6 230.987 10.8248
   3  11   6 222.357 16.0856
  -4 -11  -6 130.130 12.1836
   4  11   6 170.012 18.6083
  -5 -11  -6 195.097 11.2052
   5  11   6 161.628 22.1082
  -6 -11  -6 58.0661 7.35044
  -7 -11  -6 113.165 7.20450
   7  11   6 107.911 14.9728
  -8 -11  -6 41.3736 9.34071
  -9 -11  -6 39.6668 3.56746
  10 -12  -6 9.95211 5.29904
   9 -12  -6 35.3211 3.26158
  -9  12   6 12.4381 18.3628
   8 -12  -6 299.717 33.8930
   7 -12  -6 141.826 7.85922
  -7  12   6 101.541 15.1055
   6 -12  -6 329.481 28.6423
  -6  12   6 361.363 49.4567
   5 -12  -6 114.471 6.23279
  -5  12   6 100.016 10.9482
   4 -12  -6 152.531 9.21896
  -4  12   6 164.340 15.8216
   3 -12  -6 65.4657 3.75201
  -3  12   6 75.9148 6.02707
   2 -12  -6 515.344 31.0229
  -2  12   6 703.052 50.8683
   1 -12  -6 74.5293 4.07402
  -1  12   6 83.1876 6.83269
   0 -12  -6 448.189 24.4562
   0  12   6 601.960 41.0342
  -1 -12  -6 48.5946 3.32465
   1  12   6 62.2008 5.03293
  -2 -12  -6 307.839 14.7987
   2  12   6 299.027 28.1431
  -3 -12  -6 34.3396 3.02894
   3  12   6 39.5516 4.53055
  -4 -12  -6 34.8773 5.96711
   4  12   6 45.4425 10.9946
  -5 -12  -6 130.770 8.21088
   5  12   6 104.611 17.8893
  -6 -12  -6 119.320 10.5079
  -7 -12  -6 2.01813 2.10447
   7  12   6 1.07555 5.32431
  -8 -12  -6 2.40577 3.64881
  -9 -12  -6 3.08955 1.36395
  10 -13  -6 87.1449 26.8067
   9 -13  -6 229.138 28.8057
   8 -13  -6 68.6817 8.79667
  -8  13   6 28.9885 24.2870
   7 -13  -6 67.9336 4.18575
  -7  13   6 49.0693 10.4055
   6 -13  -6 110.744 10.3402
  -6  13   6 113.767 21.4488
   5 -13  -6 216.258 11.5558
  -5  13   6 206.124 31.3550
   4 -13  -6 351.148 22.5822
  -4  13   6 382.631 36.5768
   3 -13  -6 411.146 17.9349
  -3  13   6 390.388 31.2324
   2 -13  -6 17.3161 2.65941
  -2  13   6 14.5750 4.63520
   1 -13  -6 58.3450 3.49517
  -1  13   6 63.7804 5.62008
   0 -13  -6 881.519 52.2756
   0  13   6 1112.87 109.324
  -1 -13  -6 9.80814 2.11695
   1  13   6 17.9519 3.18491
  -2 -13  -6 411.287 24.2929
   2  13   6 425.749 43.6911
  -3 -13  -6 395.825 19.6205
   3  13   6 407.454 47.5924
  -4 -13  -6 96.0506 12.4777
  -5 -13  -6 51.1726 3.77378
   5  13   6 50.8708 11.6732
  -6 -13  -6 8.65721 3.14523
  -7 -13  -6 17.4193 2.82988
  -8 -13  -6 19.7497 4.85628
   9 -14  -6 29.4419 3.23141
   8 -14  -6 142.553 21.3288
   7 -14  -6 50.7610 3.37143
  -7  14   6 4.87612 10.1668
   6 -14  -6 149.253 11.8405
  -6  14   6 86.9807 33.5884
   5 -14  -6 330.160 17.9101
  -5  14   6 263.658 40.6271
   4 -14  -6 192.066 11.9340
  -4  14   6 188.092 31.8843
   3 -14  -6 113.639 5.49066
  -3  14   6 115.598 9.07776
   2 -14  -6 144.641 8.26615
  -2  14   6 167.771 12.3177
   1 -14  -6 217.645 10.0486
  -1  14   6 233.522 15.7008
   0 -14  -6 506.485 32.0155
   0  14   6 518.140 47.4139
  -1 -14  -6 2.64430 1.70685
   1  14   6 7.14003 3.21151
  -2 -14  -6 50.1604 6.12973
   2  14   6 43.8843 19.3054
  -3 -14  -6 15.4630 3.18540
   3  14   6 22.1943 11.1457
  -4 -14  -6 4.34016 4.19403
  -5 -14  -6 37.5507 3.12211
   5  14   6 22.0959 10.9733
  -6 -14  -6 31.1991 3.75922
  -7 -14  -6 24.2168 3.21138
  -8 -14  -6 11.6015 3.98546
   9 -15  -6 53.0140 5.46952
   8 -15  -6 413.866 70.5999
   7 -15  -6 1.62470 1.47571
  -7  15   6 1.11555 9.88799
   6 -15  -6 83.5559 7.73816
  -6  15   6 61.0530 13.6770
   5 -15  -6 19.4657 2.48639
  -5  15   6 24.1506 8.05627
   4 -15  -6 378.437 21.5594
  -4  15   6 373.019 57.9049
   3 -15  -6 242.680 11.6538
  -3  15   6 207.817 33.2625
   2 -15  -6 64.8491 5.88743
  -2  15   6 93.5732 13.1414
   1 -15  -6 0.49501 1.96401
  -1  15   6 0.00000 9.44549
   0 -15  -6 37.0526 4.11698
   0  15   6 40.8497 15.2008
  -1 -15  -6 213.714 12.5207
   1  15   6 200.594 40.4069
  -2 -15  -6 12.5588 5.24599
   2  15   6 16.0805 16.2564
  -3 -15  -6 287.678 19.7739
   3  15   6 253.374 51.6988
  -4 -15  -6 35.9690 5.98193
  -5 -15  -6 62.8657 5.06218
   5  15   6 57.0089 21.3000
  -6 -15  -6 3.53459 3.04420
  -7 -15  -6 14.4273 2.15824
   7  15   6 0.84141 4.67014
   8 -16  -6 4.88183 2.68562
   7 -16  -6 254.418 26.6307
   6 -16  -6 43.4302 5.24574
   5 -16  -6 73.0431 4.69140
  -5  16   6 40.8175 11.9824
   4 -16  -6 5.99617 2.79525
  -4  16   6 14.1621 10.9025
   3 -16  -6 101.495 5.83703
  -3  16   6 113.434 15.4461
   2 -16  -6 48.7444 4.55270
  -2  16   6 48.8860 12.3932
   1 -16  -6 433.804 21.3752
  -1  16   6 416.224 78.8209
   0 -16  -6 0.00000 2.60759
   0  16   6 9.33170 12.9800
  -1 -16  -6 256.642 15.1637
   1  16   6 261.287 49.1035
  -2 -16  -6 16.0326 4.20028
   2  16   6 18.9268 15.4786
  -3 -16  -6 40.5237 4.48204
   3  16   6 35.9265 13.5768
  -4 -16  -6 3.83143 7.01715
  -5 -16  -6 247.769 28.8824
  -6 -16  -6 0.38764 3.10825
   7 -17  -6 94.5664 9.04284
   6 -17  -6 65.9457 11.1089
   5 -17  -6 210.088 11.9609
  -5  17   6 192.196 45.5360
   4 -17  -6 91.5993 6.00068
  -4  17   6 79.3455 17.0566
   3 -17  -6 243.954 13.1106
  -3  17   6 232.560 46.0598
   2 -17  -6 63.9612 5.39670
  -2  17   6 59.6035 14.2121
   1 -17  -6 5.16053 2.02446
  -1  17   6 8.15808 10.4459
   0 -17  -6 67.8769 5.83661
   0  17   6 62.3223 20.2064
  -1 -17  -6 23.8796 2.91495
   1  17   6 28.4653 11.8248
  -2 -17  -6 23.0676 4.47437
   2  17   6 4.47524 16.0895
  -3 -17  -6 36.9558 3.39649
   3  17   6 34.0575 13.3286
  -4 -17  -6 36.0617 7.25863
  -5 -17  -6 21.2443 3.12790
  -6 -17  -6 29.6302 9.17728
   7 -18  -6 1.64690 1.67386
   6 -18  -6 54.3658 8.05074
   5 -18  -6 45.1972 6.35494
   4 -18  -6 85.7990 13.4342
   3 -18  -6 108.196 6.41008
  -3  18   6 92.6858 15.5461
   2 -18  -6 77.7469 5.78198
  -2  18   6 84.4620 15.2107
   1 -18  -6 7.10474 1.95114
  -1  18   6 0.00000 10.5678
   0 -18  -6 81.2381 6.25719
   0  18   6 53.1592 21.1628
  -1 -18  -6 16.3102 2.90803
   1  18   6 14.3889 10.8441
  -2 -18  -6 24.0276 5.89767
  -3 -18  -6 22.4822 2.71278
  -4 -18  -6 29.7058 6.18310
  -5 -18  -6 6.30923 1.71632
   5 -19  -6 86.6816 17.7290
   4 -19  -6 16.2264 4.69812
   3 -19  -6 102.253 8.59742
   2 -19  -6 20.4668 4.50377
   1 -19  -6 25.7215 2.97194
   0 -19  -6 60.1161 9.10426
  -1 -19  -6 1.91049 2.70774
  -2 -19  -6 83.2559 19.1083
  -3 -19  -6 8.49182 1.72098
  -4 -19  -6 11.5190 3.16061
   4 -20  -6 33.0911 6.26702
   3 -20  -6 15.1171 2.56759
   2 -20  -6 75.1792 9.23671
   1 -20  -6 49.1260 4.37086
   0 -20  -6 1.29778 3.65646
  -1 -20  -6 18.5215 3.17470
  -2 -20  -6 24.3263 4.41832
 -12   0   7 0.00000 7.07095
 -11   0   7 45.3797 5.33168
 -10   0   7 97.0798 15.0321
  -9   0   7 0.51121 1.82324
  -8   0   7 49.1423 7.77369
  -7   0   7 65.7332 6.68896
  -6   0   7 133.231 11.7098
  -5   0   7 100.733 6.38673
  -4   0   7 11.0686 7.03190
  -3   0   7 504.464 33.0317
  -2   0   7 31.9650 4.28096
  -1   0   7 906.999 41.4345
   0   0   7 28.7317 2.57892
   1   0   7 713.195 32.6617
   2   0   7 2496.51 170.963
   3   0   7 1.09176 1.42357
   4   0   7 33.8400 5.64239
   5   0   7 3.50353 2.61648
   6   0   7 376.422 37.7015
   7   0   7 2.99634 2.43349
   8   0   7 18.7068 11.0519
   9   0   7 13.3350 2.34791
  10   0   7 3.71728 7.59368
  12  -1  -7 46.2591 13.8923
 -12   1   7 17.8881 11.1995
  11  -1  -7 28.2062 3.33535
 -11   1   7 13.5192 5.80419
  10  -1  -7 170.535 28.3262
 -10   1   7 157.525 28.8288
   9  -1  -7 48.7331 5.10035
  -9   1   7 53.8073 5.13556
   8  -1  -7 47.6217 7.83580
  -8   1   7 49.3669 9.21578
   7  -1  -7 21.8713 4.06117
  -7   1   7 14.4932 3.93445
   6  -1  -7 29.0818 9.17149
  -6   1   7 29.8771 9.38412
   5  -1  -7 63.3065 4.47377
  -5   1   7 58.7845 4.39583
   4  -1  -7 141.392 14.0607
  -4   1   7 141.571 11.4368
   3  -1  -7 78.7522 6.90248
  -3   1   7 91.3759 7.03570
   2  -1  -7 1377.01 79.2954
  -2   1   7 1249.00 87.5078
   1  -1  -7 1028.33 55.3165
  -1   1   7 1116.74 56.4854
   0  -1  -7 716.219 42.2778
   0   1   7 725.800 40.7253
  -1  -1  -7 504.659 25.3783
   1   1   7 513.209 26.3000
  -2  -1  -7 153.997 14.1242
   2   1   7 172.054 13.6570
  -3  -1  -7 87.5932 4.56667
   3   1   7 90.8853 5.69936
  -4  -1  -7 20.9120 4.80305
   4   1   7 6.12137 4.44596
  -5  -1  -7 104.420 6.55423
   5   1   7 87.8073 6.26238
  -6  -1  -7 558.946 56.9096
   6   1   7 555.839 49.9524
  -7  -1  -7 318.613 18.6695
   7   1   7 324.614 21.4102
  -8  -1  -7 8.47578 5.13327
   8   1   7 9.20772 4.93188
  -9  -1  -7 53.0455 5.05976
   9   1   7 60.9849 5.52013
 -10  -1  -7 0.00000 7.34228
  10   1   7 12.6694 2.65566
  12  -2  -7 3.79066 6.77671
 -12   2   7 0.00000 5.66299
  11  -2  -7 20.5441 2.96532
 -11   2   7 23.0638 5.84702
  10  -2  -7 75.3758 13.3181
 -10   2   7 59.5663 15.5033
   9  -2  -7 6.46607 2.02844
  -9   2   7 12.7885 2.54762
   8  -2  -7 66.1193 15.5589
  -8   2   7 56.6469 14.3325
   7  -2  -7 235.385 15.4479
  -7   2   7 248.903 18.6064
   6  -2  -7 199.144 13.2984
  -6   2   7 141.285 14.1918
   5  -2  -7 83.1389 4.97940
  -5   2   7 70.3168 4.74943
   4  -2  -7 861.989 54.2590
  -4   2   7 824.066 58.2926
   3  -2  -7 21.6446 3.21046
  -3   2   7 27.2775 3.29634
   2  -2  -7 1509.44 78.0452
  -2   2   7 1524.29 94.0483
   1  -2  -7 48.0395 3.30956
  -1   2   7 34.4430 3.68866
   0  -2  -7 63.6995 4.92520
   0   2   7 55.2603 4.76980
  -1  -2  -7 433.506 22.1510
   1   2   7 435.035 23.4965
  -2  -2  -7 9.73809 7.87652
   2   2   7 14.3590 7.40529
  -3  -2  -7 12.9117 2.09212
   3   2   7 18.6800 2.36006
  -4  -2  -7 608.445 52.3835
   4   2   7 608.733 64.8222
  -5  -2  -7 58.0620 4.50979
   5   2   7 64.9600 5.52961
  -6  -2  -7 118.062 11.0798
   6   2   7 115.789 13.6305
  -7  -2  -7 273.868 15.3810
   7   2   7 267.953 19.2182
  -8  -2  -7 134.505 18.2503
   8   2   7 82.3675 17.7877
  -9  -2  -7 59.7728 5.39459
   9   2   7 63.4029 7.07974
 -10  -2  -7 4.29874 4.05479
  12  -3  -7 23.5003 3.76812
 -12   3   7 7.46635 6.29595
  11  -3  -7 19.6831 2.57295
 -11   3   7 16.0245 5.94049
  10  -3  -7 91.6785 10.0162
 -10   3   7 71.0866 21.9765
   9  -3  -7 260.019 22.2404
  -9   3   7 206.355 29.7402
   8  -3  -7 91.4635 10.0268
  -8   3   7 111.571 12.3836
   7  -3  -7 199.635 13.1739
  -7   3   7 197.584 16.0656
   6  -3  -7 131.306 9.42282
  -6   3   7 96.7021 11.1773
   5  -3  -7 42.7847 3.25054
  -5   3   7 40.9118 3.32365
   4  -3  -7 32.5739 4.80408
  -4   3   7 22.5756 4.86179
   3  -3  -7 548.202 25.6404
  -3   3   7 523.933 26.4319
   2  -3  -7 621.103 48.0313
  -2   3   7 596.199 56.2736
   1  -3  -7 1137.53 59.3611
  -1   3   7 1133.29 64.8873
   0  -3  -7 1509.03 88.9176
   0   3   7 1589.83 112.413
  -1  -3  -7 191.895 9.73653
   1   3   7 196.760 10.3896
  -2  -3  -7 363.094 28.1352
   2   3   7 418.708 27.4653
  -3  -3  -7 319.399 14.3409
   3   3   7 329.107 19.5322
  -4  -3  -7 800.544 50.6500
   4   3   7 852.521 70.5906
  -5  -3  -7 62.0630 4.34645
   5   3   7 49.1563 5.20314
  -6  -3  -7 297.015 25.0024
   6   3   7 290.606 27.4841
  -7  -3  -7 120.312 6.89602
   7   3   7 112.179 9.19192
  -8  -3  -7 84.1591 13.5030
   8   3   7 68.8472 9.34793
  -9  -3  -7 12.8639 2.27481
   9   3   7 16.0947 2.73287
 -10  -3  -7 12.1712 4.31788
  12  -4  -7 19.6375 3.91166
 -12   4   7 25.1878 6.92482
  11  -4  -7 51.0086 4.68110
 -11   4   7 35.8871 9.16417
  10  -4  -7 90.0702 11.2433
 -10   4   7 72.4301 25.3732
   9  -4  -7 125.817 10.0121
  -9   4   7 122.675 16.7638
   8  -4  -7 56.3646 6.73283
  -8   4   7 55.6371 8.31992
   7  -4  -7 93.4650 6.64224
  -7   4   7 87.4720 7.66382
   6  -4  -7 64.0372 5.95799
  -6   4   7 44.7992 8.02997
   5  -4  -7 337.353 18.2150
  -5   4   7 370.370 16.7472
   4  -4  -7 82.1008 7.24944
  -4   4   7 56.7387 6.81843
   3  -4  -7 126.193 6.25115
  -3   4   7 93.0685 6.93905
   2  -4  -7 481.105 30.4844
  -2   4   7 474.063 34.4998
   1  -4  -7 500.231 26.6791
  -1   4   7 490.830 27.4638
   0  -4  -7 421.491 26.6389
   0   4   7 401.411 33.3351
  -1  -4  -7 2352.74 114.012
   1   4   7 2199.63 132.455
  -2  -4  -7 163.923 12.1580
   2   4   7 186.171 11.9176
  -3  -4  -7 249.263 11.4675
   3   4   7 264.174 15.7413
  -4  -4  -7 132.343 11.0495
   4   4   7 136.408 15.1940
  -5  -4  -7 36.4628 3.36759
   5   4   7 33.1120 4.11503
  -6  -4  -7 256.301 18.7764
   6   4   7 228.858 23.6472
  -7  -4  -7 453.408 21.4027
   7   4   7 428.186 30.0086
  -8  -4  -7 37.2053 6.04261
   8   4   7 34.3827 8.13860
  -9  -4  -7 1.38354 1.78361
 -10  -4  -7 42.4408 6.65412
  12  -5  -7 10.3746 2.96271
 -12   5   7 5.81961 5.61551
  11  -5  -7 73.3695 7.57915
 -11   5   7 41.5899 12.1900
  10  -5  -7 17.0887 4.37593
 -10   5   7 3.22982 17.0104
   9  -5  -7 128.767 8.59109
  -9   5   7 85.7299 12.9082
   8  -5  -7 2.16620 5.45247
  -8   5   7 13.2705 7.44617
   7  -5  -7 548.595 40.6790
  -7   5   7 515.635 44.1247
   6  -5  -7 49.3099 9.16563
  -6   5   7 23.8905 11.8675
   5  -5  -7 5.71839 1.74773
  -5   5   7 9.33282 2.21615
   4  -5  -7 300.555 11.9073
  -4   5   7 240.400 14.8394
   3  -5  -7 11.9620 1.68406
  -3   5   7 11.7069 1.99428
   2  -5  -7 684.747 34.3473
  -2   5   7 698.295 41.4430
   1  -5  -7 516.355 24.4773
  -1   5   7 507.372 26.2745
   0  -5  -7 28.4444 3.13930
   0   5   7 22.0244 4.23149
  -1  -5  -7 111.281 6.50052
   1   5   7 104.909 7.70838
  -2  -5  -7 52.4396 7.75941
   2   5   7 70.7585 8.08183
  -3  -5  -7 105.150 5.76391
   3   5   7 111.397 7.49209
  -4  -5  -7 58.1790 6.50350
   4   5   7 73.8103 8.05575
  -5  -5  -7 109.347 6.68059
   5   5   7 93.4120 10.4323
  -6  -5  -7 169.109 16.6926
   6   5   7 139.523 20.7417
  -7  -5  -7 42.2804 3.37485
   7   5   7 48.3959 6.12789
  -8  -5  -7 22.0900 5.11381
   8   5   7 33.5303 10.5011
  -9  -5  -7 235.602 12.7686
 -10  -5  -7 4.84697 3.37282
  12  -6  -7 20.2084 3.81506
 -12   6   7 7.32052 6.07283
  11  -6  -7 39.3220 4.46046
 -11   6   7 36.2333 9.22442
  10  -6  -7 58.4721 7.94865
 -10   6   7 41.8146 21.1275
   9  -6  -7 315.981 21.2501
  -9   6   7 249.400 36.7965
   8  -6  -7 131.924 15.2798
  -8   6   7 101.449 15.5108
   7  -6  -7 35.3122 3.61704
  -7   6   7 28.3531 4.61742
   6  -6  -7 146.412 8.60015
  -6   6   7 103.948 12.6287
   5  -6  -7 552.815 27.2358
  -5   6   7 473.075 29.9355
   4  -6  -7 7.09554 4.03293
  -4   6   7 22.4671 5.99003
   3  -6  -7 868.688 31.4593
  -3   6   7 773.578 42.8297
   2  -6  -7 70.4544 4.68080
  -2   6   7 69.1661 5.55154
   1  -6  -7 105.734 5.55296
  -1   6   7 107.338 6.26187
   0  -6  -7 1184.72 76.7154
   0   6   7 1227.13 78.6783
  -1  -6  -7 387.798 18.9745
   1   6   7 411.410 24.1183
  -2  -6  -7 79.4500 5.89227
   2   6   7 86.4024 6.51706
  -3  -6  -7 111.321 6.42398
   3   6   7 93.9654 7.66525
  -4  -6  -7 99.8376 9.92989
   4   6   7 94.7421 13.4230
  -5  -6  -7 31.1033 3.25942
   5   6   7 25.5581 3.55839
  -6  -6  -7 170.208 14.4864
   6   6   7 133.415 17.4969
  -7  -6  -7 72.3358 4.88150
   7   6   7 84.1047 15.2108
  -8  -6  -7 69.8910 7.61822
   8   6   7 84.1177 17.2061
  -9  -6  -7 76.3385 5.65034
 -10  -6  -7 10.7813 3.12330
  12  -7  -7 11.5568 2.01440
 -12   7   7 8.66660 3.28569
  11  -7  -7 2.72670 1.55457
 -11   7   7 3.25546 4.39031
  10  -7  -7 42.8339 5.00367
 -10   7   7 17.6647 27.7213
   9  -7  -7 3.01901 2.13735
  -9   7   7 7.52816 5.69475
   8  -7  -7 115.389 9.27308
  -8   7   7 51.8718 23.9421
   7  -7  -7 27.0120 3.41666
  -7   7   7 33.8060 4.63185
   6  -7  -7 22.0047 5.84588
  -6   7   7 27.2359 7.93759
   5  -7  -7 250.813 12.6313
  -5   7   7 232.271 15.5511
   4  -7  -7 393.574 16.6038
  -4   7   7 344.425 22.2804
   3  -7  -7 15.1936 1.44053
  -3   7   7 6.29273 2.01452
   2  -7  -7 45.8556 3.55510
  -2   7   7 60.3252 5.37859
   1  -7  -7 403.859 14.2010
  -1   7   7 379.231 17.8755
   0  -7  -7 1410.46 70.1173
   0   7   7 1448.60 88.1939
  -1  -7  -7 138.284 6.86381
   1   7   7 158.819 10.4099
  -2  -7  -7 28.5375 4.69938
   2   7   7 30.4582 7.29510
  -3  -7  -7 279.421 16.2708
   3   7   7 287.571 19.4758
  -4  -7  -7 203.103 17.9483
   4   7   7 211.885 22.6601
  -5  -7  -7 121.931 7.46810
   5   7   7 121.752 9.51014
  -6  -7  -7 71.6620 11.7737
   6   7   7 69.9180 25.8779
  -7  -7  -7 15.6533 2.61757
   7   7   7 26.9277 6.68051
  -8  -7  -7 139.137 13.4848
   8   7   7 178.229 28.9166
  -9  -7  -7 69.9570 6.13658
 -10  -7  -7 39.9574 5.72364
  11  -8  -7 12.5754 2.15365
 -11   8   7 11.9933 4.96792
  10  -8  -7 93.0947 9.56751
   9  -8  -7 12.3215 1.97529
  -9   8   7 5.19126 9.10948
   8  -8  -7 180.434 13.8146
  -8   8   7 86.7353 31.8104
   7  -8  -7 475.150 41.1181
  -7   8   7 440.781 43.1245
   6  -8  -7 122.986 11.7460
  -6   8   7 119.962 15.5144
   5  -8  -7 168.368 7.77266
  -5   8   7 143.303 9.90425
   4  -8  -7 82.4368 5.12887
  -4   8   7 81.7623 9.03106
   3  -8  -7 93.4242 3.67720
  -3   8   7 60.8932 4.90591
   2  -8  -7 431.158 16.1108
  -2   8   7 374.965 22.2095
   1  -8  -7 37.2523 2.14969
  -1   8   7 34.3258 2.83681
   0  -8  -7 59.5817 3.78539
   0   8   7 82.5394 5.37075
  -1  -8  -7 236.141 11.4315
   1   8   7 254.585 16.8305
  -2  -8  -7 14.7894 4.00636
   2   8   7 29.0441 5.82217
  -3  -8  -7 312.181 18.0080
   3   8   7 311.505 23.1863
  -4  -8  -7 7.46831 10.4190
   4   8   7 9.32013 11.5367
  -5  -8  -7 119.716 7.93884
   5   8   7 147.189 10.2084
  -6  -8  -7 235.623 16.0630
   6   8   7 290.309 46.1832
  -7  -8  -7 89.2766 5.98392
   7   8   7 114.753 18.8614
  -8  -8  -7 22.9567 5.15765
   8   8   7 18.5950 10.2993
  -9  -8  -7 2.28312 1.83953
  11  -9  -7 60.0786 6.38112
 -11   9   7 31.3046 11.0265
  10  -9  -7 1.85255 3.28938
   9  -9  -7 16.4196 2.20887
  -9   9   7 3.04803 11.3055
   8  -9  -7 202.678 14.7163
  -8   9   7 63.8356 42.4127
   7  -9  -7 82.3392 5.68424
  -7   9   7 52.5897 8.97710
   6  -9  -7 540.659 31.4726
  -6   9   7 459.674 37.8096
   5  -9  -7 17.8676 2.17840
  -5   9   7 19.7856 2.89318
   4  -9  -7 134.234 6.73505
  -4   9   7 125.591 11.7658
   3  -9  -7 6.70575 1.45059
  -3   9   7 6.98270 2.23532
   2  -9  -7 206.286 10.5023
  -2   9   7 194.004 18.8213
   1  -9  -7 290.706 11.9537
  -1   9   7 313.718 16.8551
   0  -9  -7 22.1886 2.30101
   0   9   7 35.1887 4.21513
  -1  -9  -7 74.7450 4.13019
   1   9   7 76.2182 8.61801
  -2  -9  -7 200.416 13.0198
   2   9   7 232.827 23.0216
  -3  -9  -7 84.8896 5.64801
   3   9   7 99.2676 8.13115
  -4  -9  -7 13.9991 6.94139
   4   9   7 52.0227 7.87170
  -5  -9  -7 233.153 11.7022
   5   9   7 252.653 18.7643
  -6  -9  -7 42.1922 5.69223
   6   9   7 50.9355 12.7327
  -7  -9  -7 161.924 9.93488
   7   9   7 220.621 31.7269
  -8  -9  -7 71.3641 10.4797
  -9  -9  -7 38.1203 3.59616
  11 -10  -7 0.75031 1.09869
 -11  10   7 7.45680 5.32661
  10 -10  -7 45.0399 12.8397
   9 -10  -7 36.9605 3.27734
  -9  10   7 5.41890 12.5300
   8 -10  -7 149.800 14.5817
  -8  10   7 48.2255 41.2059
   7 -10  -7 67.8609 4.99458
  -7  10   7 35.1380 16.0592
   6 -10  -7 77.4404 8.75011
  -6  10   7 62.2818 14.6329
   5 -10  -7 50.4303 3.21780
  -5  10   7 47.1233 4.20817
   4 -10  -7 430.092 19.7598
  -4  10   7 380.743 32.6364
   3 -10  -7 12.1800 1.66073
  -3  10   7 12.4863 2.58466
   2 -10  -7 108.363 5.09287
  -2  10   7 100.748 8.41118
   1 -10  -7 98.3722 4.76619
  -1  10   7 115.821 7.47781
   0 -10  -7 180.367 10.2422
   0  10   7 228.577 16.8100
  -1 -10  -7 159.203 7.94857
   1  10   7 179.735 12.3197
  -2 -10  -7 416.265 26.8808
   2  10   7 443.914 48.1710
  -3 -10  -7 25.7987 3.18399
   3  10   7 39.0287 4.78214
  -4 -10  -7 9.00846 7.96843
   4  10   7 9.62861 6.45011
  -5 -10  -7 7.59342 1.99115
   5  10   7 12.9159 5.30903
  -6 -10  -7 19.8193 5.23531
   6  10   7 47.5175 11.8990
  -7 -10  -7 2.65027 2.12680
   7  10   7 2.38879 5.42224
  -8 -10  -7 45.4559 8.50843
  -9 -10  -7 4.54543 1.53547
  10 -11  -7 36.4724 10.5770
   9 -11  -7 101.537 7.59830
  -9  11   7 19.0408 20.5123
   8 -11  -7 92.7406 7.99940
  -8  11   7 0.00000 26.3679
   7 -11  -7 9.78800 1.94550
  -7  11   7 9.74425 11.1229
   6 -11  -7 178.236 14.8417
  -6  11   7 160.730 29.4376
   5 -11  -7 54.7720 3.71122
  -5  11   7 40.5543 4.70012
   4 -11  -7 13.5375 4.85150
  -4  11   7 18.5709 8.62622
   3 -11  -7 285.403 11.7256
  -3  11   7 281.550 17.8947
   2 -11  -7 77.9642 4.92063
  -2  11   7 66.8390 7.78715
   1 -11  -7 56.0742 3.33090
  -1  11   7 66.9444 5.23514
   0 -11  -7 561.714 35.2165
   0  11   7 696.329 56.0397
  -1 -11  -7 33.2193 2.76554
   1  11   7 44.0645 4.06169
  -2 -11  -7 165.371 14.4319
   2  11   7 211.131 33.9736
  -3 -11  -7 19.2243 2.98094
   3  11   7 32.0406 4.41660
  -4 -11  -7 234.316 16.8222
  -5 -11  -7 66.6832 5.24742
   5  11   7 99.1768 15.9696
  -6 -11  -7 57.7293 7.15565
   6  11   7 80.0723 16.2178
  -7 -11  -7 8.40840 2.14784
   7  11   7 12.0259 5.61950
  -8 -11  -7 5.83199 3.91236
  10 -12  -7 227.741 61.7451
   9 -12  -7 46.2763 4.31949
   8 -12  -7 48.9796 6.60011
  -8  12   7 14.4878 23.5433
   7 -12  -7 111.162 6.42659
  -7  12   7 54.7323 15.5836
   6 -12  -7 207.167 19.1545
  -6  12   7 141.737 39.1501
   5 -12  -7 316.988 16.1325
  -5  12   7 342.301 29.8756
   4 -12  -7 400.945 19.8312
  -4  12   7 359.043 35.4023
   3 -12  -7 157.972 7.22610
  -3  12   7 173.250 12.2758
   2 -12  -7 46.2752 6.12038
  -2  12   7 62.9230 8.87402
   1 -12  -7 38.7601 2.61733
  -1  12   7 30.9882 3.93199
   0 -12  -7 67.8845 4.84046
   0  12   7 82.6632 8.49703
  -1 -12  -7 336.973 16.5671
   1  12   7 350.118 24.6449
  -2 -12  -7 73.9725 7.17703
   2  12   7 115.643 11.4941
  -3 -12  -7 12.3472 1.97504
   3  12   7 12.2074 3.06592
  -4 -12  -7 134.840 20.8499
  -5 -12  -7 7.65881 1.96026
   5  12   7 0.00000 12.3841
  -6 -12  -7 52.3504 6.18738
  -7 -12  -7 43.2132 4.64522
  -8 -12  -7 3.81656 3.25844
  10 -13  -7 15.4642 4.74545
   9 -13  -7 159.743 17.8240
   8 -13  -7 138.362 16.7813
  -8  13   7 11.1089 33.5486
   7 -13  -7 17.1494 2.06035
  -7  13   7 20.9329 8.79189
   6 -13  -7 143.704 12.4951
  -6  13   7 113.253 25.2772
   5 -13  -7 74.9051 4.55690
  -5  13   7 50.0866 12.6789
   4 -13  -7 320.204 16.2358
  -4  13   7 309.111 65.6765
   3 -13  -7 388.137 16.5375
  -3  13   7 402.004 30.1406
   2 -13  -7 325.447 19.4226
  -2  13   7 396.962 30.2250
   1 -13  -7 167.151 8.06747
  -1  13   7 199.578 12.7510
   0 -13  -7 70.5804 5.43522
   0  13   7 103.940 9.82675
  -1 -13  -7 105.108 5.82071
   1  13   7 127.771 8.91776
  -2 -13  -7 122.916 7.56726
   2  13   7 156.213 27.7031
  -3 -13  -7 339.656 15.0580
   3  13   7 318.087 60.5906
  -4 -13  -7 99.5439 10.3334
  -5 -13  -7 126.170 8.30244
   5  13   7 81.3654 20.6917
  -6 -13  -7 10.7773 3.64956
  -7 -13  -7 8.79281 2.38151
  -8 -13  -7 11.3382 3.94505
   9 -14  -7 6.37142 1.81404
   8 -14  -7 16.3686 4.22196
   7 -14  -7 64.7733 4.04682
  -7  14   7 30.8387 11.3462
   6 -14  -7 94.5534 9.63609
  -6  14   7 59.1859 21.3061
   5 -14  -7 170.557 9.42788
  -5  14   7 178.721 25.9484
   4 -14  -7 69.5141 6.06481
  -4  14   7 92.3674 16.8155
   3 -14  -7 285.134 13.2537
  -3  14   7 307.765 38.4073
   2 -14  -7 116.706 6.84932
  -2  14   7 128.233 18.5016
   1 -14  -7 16.0475 1.93492
  -1  14   7 18.6268 3.99496
   0 -14  -7 264.965 19.0751
   0  14   7 452.773 48.4431
  -1 -14  -7 63.3303 4.62825
   1  14   7 51.3232 16.0801
  -2 -14  -7 245.191 14.6474
   2  14   7 273.871 49.4412
  -3 -14  -7 93.0477 5.63017
   3  14   7 119.332 21.8684
  -4 -14  -7 64.1931 7.45460
  -5 -14  -7 17.5090 2.38046
  -6 -14  -7 5.44604 3.22077
  -7 -14  -7 17.5289 2.54380
   8 -15  -7 37.8191 5.54412
   7 -15  -7 86.2020 6.02752
   6 -15  -7 60.2816 6.76459
  -6  15   7 44.1268 16.1572
   5 -15  -7 15.5112 2.22019
  -5  15   7 19.9531 7.85695
   4 -15  -7 14.1745 3.52946
  -4  15   7 13.0843 11.6430
   3 -15  -7 133.390 6.56735
  -3  15   7 146.010 15.7542
   2 -15  -7 133.459 7.32976
  -2  15   7 130.643 17.1478
   1 -15  -7 3.70447 1.99015
  -1  15   7 2.07915 9.66609
   0 -15  -7 5.59068 2.73368
   0  15   7 5.39029 14.0446
  -1 -15  -7 105.340 6.53335
   1  15   7 98.9170 21.5768
  -2 -15  -7 0.00000 5.27844
   2  15   7 8.39046 18.4491
  -3 -15  -7 14.4878 2.28707
   3  15   7 11.5169 15.0381
  -4 -15  -7 0.00000 3.68466
  -5 -15  -7 8.13581 1.89831
  -6 -15  -7 9.49080 3.28706
  -7 -15  -7 25.5935 2.90878
   8 -16  -7 68.6519 10.0827
   7 -16  -7 23.1895 2.62358
   6 -16  -7 42.4143 8.59047
   5 -16  -7 76.8963 5.36260
  -5  16   7 54.2032 12.7674
   4 -16  -7 52.2753 4.35329
  -4  16   7 49.8699 13.4893
   3 -16  -7 27.2808 2.28832
  -3  16   7 20.8328 7.48829
   2 -16  -7 35.2484 3.65411
  -2  16   7 37.8455 10.9090
   1 -16  -7 22.5877 2.48898
  -1  16   7 13.9944 11.7216
   0 -16  -7 27.5769 3.67088
   0  16   7 29.5776 15.2470
  -1 -16  -7 44.6269 3.64270
   1  16   7 37.8736 13.6245
  -2 -16  -7 9.56145 3.78984
   2  16   7 15.7255 15.6048
  -3 -16  -7 3.78107 1.72275
  -4 -16  -7 9.13193 4.51567
  -5 -16  -7 15.2275 2.59417
   7 -17  -7 11.0004 1.54723
   6 -17  -7 4.92663 3.33936
   5 -17  -7 6.96233 2.25612
   4 -17  -7 18.8377 3.71944
  -4  17   7 18.4662 11.3788
   3 -17  -7 88.6734 4.67865
  -3  17   7 75.0275 13.9113
   2 -17  -7 25.4067 3.16777
  -2  17   7 27.6329 15.2040
   1 -17  -7 34.7377 2.80849
  -1  17   7 18.2028 12.4536
   0 -17  -7 36.0368 3.78636
   0  17   7 20.9104 15.6022
  -1 -17  -7 14.8750 2.30523
   1  17   7 5.60207 11.2638
  -2 -17  -7 105.669 10.1170
  -3 -17  -7 87.0597 8.44401
  -4 -17  -7 33.4699 7.22002
  -5 -17  -7 70.1382 8.44733
   6 -18  -7 12.7883 3.10472
   5 -18  -7 109.019 9.46299
   4 -18  -7 39.8656 7.21361
   3 -18  -7 56.2184 4.52692
   2 -18  -7 27.3872 4.18728
   1 -18  -7 7.39645 1.93138
  -1  18   7 18.8734 13.0586
   0 -18  -7 1.27669 2.94813
  -1 -18  -7 43.7187 3.79784
  -2 -18  -7 26.6394 5.89571
  -3 -18  -7 16.6605 2.23519
  -4 -18  -7 15.5153 4.48122
   5 -19  -7 21.6756 2.31700
   4 -19  -7 21.0919 5.28327
   3 -19  -7 18.4385 2.46495
   2 -19  -7 60.7498 8.71457
   1 -19  -7 4.58786 1.94154
   0 -19  -7 3.96377 3.05729
  -1 -19  -7 10.0280 2.82300
  -2 -19  -7 39.4180 7.24460
  -3 -19  -7 80.5745 7.62651
   3 -20  -7 34.9967 3.21533
   2 -20  -7 44.0129 6.73616
   1 -20  -7 28.5085 3.13613
   0 -20  -7 98.0883 18.9095
  -1 -20  -7 16.0224 2.06987
 -12   0   8 6.35709 8.87212
 -11   0   8 1.79644 4.10674
 -10   0   8 0.46099 3.73820
  -9   0   8 3.88380 1.97919
  -8   0   8 551.867 49.9190
  -7   0   8 198.522 15.6782
  -6   0   8 163.100 20.5421
  -5   0   8 167.589 10.0019
  -4   0   8 157.087 26.2092
  -3   0   8 36.2537 4.16447
  -2   0   8 822.978 83.8446
  -1   0   8 211.430 11.5836
   0   0   8 17.5730 2.64583
   1   0   8 847.343 42.3092
   2   0   8 88.3364 7.85000
   3   0   8 374.274 22.1776
   4   0   8 688.747 55.8451
   5   0   8 144.231 10.6032
   6   0   8 4.04016 8.45472
   7   0   8 303.136 23.7589
   8   0   8 140.831 17.6596
   9   0   8 0.16929 1.75093
  10   0   8 4.31766 1.68194
  12  -1  -8 15.5864 7.54199
 -12   1   8 4.40367 7.77433
  11  -1  -8 1.48830 2.02926
 -11   1   8 2.07853 4.20377
  10  -1  -8 76.6963 13.7221
 -10   1   8 95.9891 15.9152
   9  -1  -8 308.851 27.0613
  -9   1   8 309.991 28.7315
   8  -1  -8 230.434 31.5984
  -8   1   8 278.991 31.0724
   7  -1  -8 36.4105 5.45510
  -7   1   8 34.3242 6.27164
   6  -1  -8 100.097 11.5286
  -6   1   8 99.6548 12.4256
   5  -1  -8 10.1025 2.67144
  -5   1   8 5.27945 2.54798
   4  -1  -8 518.384 37.7626
  -4   1   8 550.449 37.8260
   3  -1  -8 189.598 13.4939
  -3   1   8 207.737 13.6487
   2  -1  -8 81.0893 8.97105
  -2   1   8 70.1355 8.96222
   1  -1  -8 588.479 31.8310
  -1   1   8 589.488 32.0287
   0  -1  -8 36.2960 3.50945
   0   1   8 25.3413 3.45175
  -1  -1  -8 95.3376 5.79906
   1   1   8 82.9179 6.07508
  -2  -1  -8 66.7321 4.48073
   2   1   8 37.6125 4.91623
  -3  -1  -8 270.750 14.6479
   3   1   8 250.752 16.5818
  -4  -1  -8 22.6419 9.00012
   4   1   8 23.1852 8.75399
  -5  -1  -8 220.381 15.7631
   5   1   8 219.743 14.6934
  -6  -1  -8 323.880 45.6395
   6   1   8 348.897 39.9444
  -7  -1  -8 112.585 7.50372
   7   1   8 111.125 9.78008
  -8  -1  -8 0.00000 4.73325
   8   1   8 4.82308 5.33533
  -9  -1  -8 32.1429 3.34411
   9   1   8 25.4549 3.22806
 -10  -1  -8 15.8488 2.82941
  10   1   8 14.2992 5.44402
  12  -2  -8 0.00000 7.37756
 -12   2   8 7.83471 6.16460
  11  -2  -8 6.04296 1.64553
 -11   2   8 7.54293 4.49842
  10  -2  -8 70.0165 11.8959
 -10   2   8 59.5126 14.0139
   9  -2  -8 149.466 13.8793
  -9   2   8 153.899 19.5339
   8  -2  -8 40.1407 8.59705
  -8   2   8 53.8664 9.89181
   7  -2  -8 332.642 29.2020
  -7   2   8 351.047 29.7787
   6  -2  -8 231.624 22.3480
  -6   2   8 166.832 24.0626
   5  -2  -8 142.674 8.66487
  -5   2   8 127.124 7.91920
   4  -2  -8 119.669 10.3791
  -4   2   8 127.731 10.8962
   3  -2  -8 324.470 21.9225
  -3   2   8 356.254 21.0566
   2  -2  -8 296.891 22.0904
  -2   2   8 336.296 23.8153
   1  -2  -8 1192.33 64.0019
  -1   2   8 1135.91 66.5923
   0  -2  -8 14.5149 3.01198
   0   2   8 30.2201 2.59174
  -1  -2  -8 70.1139 4.41976
   1   2   8 65.7534 5.14527
  -2  -2  -8 305.561 22.8037
   2   2   8 365.913 29.9401
  -3  -2  -8 26.8256 2.56799
   3   2   8 23.5590 2.97452
  -4  -2  -8 339.606 26.8758
   4   2   8 327.683 32.8644
  -5  -2  -8 74.8746 5.89858
   5   2   8 70.4576 6.18099
  -6  -2  -8 13.8543 7.07729
   6   2   8 22.2030 6.37372
  -7  -2  -8 13.4937 2.11834
   7   2   8 10.4703 2.51118
  -8  -2  -8 35.8872 10.0325
   8   2   8 34.2901 9.67546
  -9  -2  -8 32.3065 3.47872
   9   2   8 28.9886 3.43307
 -10  -2  -8 0.00000 7.35225
  10   2   8 16.7039 6.19738
  12  -3  -8 10.2331 6.53023
 -12   3   8 0.00000 5.55608
  11  -3  -8 77.8053 8.77666
 -11   3   8 68.5506 14.1079
  10  -3  -8 79.3576 12.6528
 -10   3   8 57.5193 14.8037
   9  -3  -8 246.706 18.6325
  -9   3   8 204.964 29.4322
   8  -3  -8 59.8550 9.04056
  -8   3   8 64.8992 10.3553
   7  -3  -8 101.589 8.14670
  -7   3   8 111.971 11.6331
   6  -3  -8 29.0491 5.23812
  -6   3   8 47.3103 7.09032
   5  -3  -8 60.5388 4.05793
  -5   3   8 53.4761 4.40706
   4  -3  -8 19.3139 3.82837
  -4   3   8 16.5953 5.58606
   3  -3  -8 312.907 17.4660
  -3   3   8 251.382 15.2783
   2  -3  -8 147.900 12.8914
  -2   3   8 151.336 14.5728
   1  -3  -8 215.028 11.9495
  -1   3   8 211.395 12.6000
   0  -3  -8 197.682 14.1466
   0   3   8 178.739 13.3407
  -1  -3  -8 144.202 7.73297
   1   3   8 153.287 8.74627
  -2  -3  -8 167.207 13.9875
   2   3   8 187.975 19.7926
  -3  -3  -8 17.3195 2.48712
   3   3   8 28.6281 3.01471
  -4  -3  -8 411.823 28.8678
   4   3   8 394.373 35.3456
  -5  -3  -8 90.6872 6.12759
   5   3   8 105.054 7.61326
  -6  -3  -8 128.658 13.6118
   6   3   8 133.747 17.4435
  -7  -3  -8 6.53110 2.39220
   7   3   8 1.76757 2.08321
  -8  -3  -8 1.74216 5.19435
   8   3   8 0.00000 3.48612
  -9  -3  -8 32.9965 3.42178
   9   3   8 21.0615 6.80045
 -10  -3  -8 1.58893 5.89972
  12  -4  -8 57.0737 8.29796
 -12   4   8 26.1301 8.24685
  11  -4  -8 77.4169 7.38930
 -11   4   8 64.8328 16.4414
  10  -4  -8 7.48331 3.96260
 -10   4   8 3.30382 8.02021
   9  -4  -8 80.8101 7.29363
  -9   4   8 64.2988 17.7961
   8  -4  -8 37.7407 7.94516
  -8   4   8 15.0122 10.1010
   7  -4  -8 43.5886 4.41527
  -7   4   8 31.9760 6.00295
   6  -4  -8 296.496 24.0099
  -6   4   8 276.122 29.3095
   5  -4  -8 18.8150 2.27638
  -5   4   8 9.57349 2.77078
   4  -4  -8 104.841 7.42000
  -4   4   8 89.6539 10.4801
   3  -4  -8 275.133 12.4435
  -3   4   8 264.083 14.5550
   2  -4  -8 29.4889 4.96829
  -2   4   8 31.2221 5.76221
   1  -4  -8 2431.66 125.367
  -1   4   8 2409.76 130.573
   0  -4  -8 146.138 11.4068
   0   4   8 151.774 10.7970
  -1  -4  -8 20.3743 2.14137
   1   4   8 20.4330 2.34691
  -2  -4  -8 393.413 20.3319
   2   4   8 436.725 30.0094
  -3  -4  -8 62.6608 4.14671
   3   4   8 65.7533 6.04750
  -4  -4  -8 50.2991 7.27780
   4   4   8 37.3213 8.46436
  -5  -4  -8 179.803 10.2231
   5   4   8 178.706 12.7028
  -6  -4  -8 163.509 11.2583
   6   4   8 147.174 13.3110
  -7  -4  -8 79.7654 4.63473
   7   4   8 69.0611 6.53301
  -8  -4  -8 6.45638 5.85187
   8   4   8 15.3262 5.86961
  -9  -4  -8 10.6781 2.04056
   9   4   8 2.15487 4.66180
 -10  -4  -8 12.5503 3.34756
  12  -5  -8 27.3105 4.15110
 -12   5   8 11.5763 5.77876
  11  -5  -8 16.4098 2.46398
 -11   5   8 13.0254 5.49443
  10  -5  -8 12.9094 4.48058
 -10   5   8 0.00000 22.4356
   9  -5  -8 75.7634 6.89035
  -9   5   8 66.2364 22.2618
   8  -5  -8 63.9722 6.02246
  -8   5   8 64.2824 26.8011
   7  -5  -8 140.001 11.0554
  -7   5   8 105.150 12.6414
   6  -5  -8 145.056 13.2085
  -6   5   8 82.7710 18.8348
   5  -5  -8 5.76846 2.04321
  -5   5   8 9.20903 2.61917
   4  -5  -8 26.7667 6.68147
  -4   5   8 16.6768 9.45710
   3  -5  -8 81.1337 4.46518
  -3   5   8 99.0485 5.61356
   2  -5  -8 329.108 14.4256
  -2   5   8 316.596 19.4114
   1  -5  -8 417.027 17.0313
  -1   5   8 390.649 19.5481
   0  -5  -8 248.430 12.4298
   0   5   8 214.602 16.3373
  -1  -5  -8 834.998 37.1047
   1   5   8 821.490 47.2898
  -2  -5  -8 146.324 8.97855
   2   5   8 144.796 14.0847
  -3  -5  -8 116.279 6.67169
   3   5   8 120.123 10.1170
  -4  -5  -8 26.1679 6.57768
   4   5   8 26.6265 7.21885
  -5  -5  -8 219.140 11.9306
   5   5   8 194.972 16.9666
  -6  -5  -8 66.6936 6.57379
   6   5   8 69.2340 13.8219
  -7  -5  -8 596.138 28.7298
   7   5   8 557.749 45.9331
  -8  -5  -8 7.37909 5.71691
   8   5   8 4.10477 6.76887
  -9  -5  -8 25.0972 2.37892
  12  -6  -8 28.7841 3.25618
 -12   6   8 13.8658 5.97442
  11  -6  -8 84.0703 9.93023
 -11   6   8 95.1539 12.0634
  10  -6  -8 116.691 15.8803
 -10   6   8 82.4921 41.4525
   9  -6  -8 52.5272 4.26997
  -9   6   8 32.8992 18.7835
   8  -6  -8 35.7266 5.16062
  -8   6   8 5.78779 15.2112
   7  -6  -8 104.375 7.64916
  -7   6   8 74.7029 10.0605
   6  -6  -8 80.2100 7.24742
  -6   6   8 54.3252 10.9724
   5  -6  -8 133.291 6.42849
  -5   6   8 102.033 8.04634
   4  -6  -8 172.226 7.76382
  -4   6   8 128.169 10.9421
   3  -6  -8 220.894 8.71564
  -3   6   8 209.870 11.6493
   2  -6  -8 51.8399 3.64067
  -2   6   8 57.8654 5.35698
   1  -6  -8 680.769 27.0520
  -1   6   8 686.062 34.6812
   0  -6  -8 281.413 14.1330
   0   6   8 294.163 18.7598
  -1  -6  -8 164.771 8.77563
   1   6   8 173.697 13.7883
  -2  -6  -8 1021.99 65.4866
   2   6   8 966.613 104.755
  -3  -6  -8 100.519 5.65755
   3   6   8 83.7658 8.07706
  -4  -6  -8 11.5548 5.02913
   4   6   8 12.2094 3.87271
  -5  -6  -8 401.840 22.0083
   5   6   8 396.487 31.5719
  -6  -6  -8 163.923 11.2457
   6   6   8 175.403 25.7432
  -7  -6  -8 3.03610 1.86616
   7   6   8 2.73907 3.64522
  -8  -6  -8 132.241 12.1646
   8   6   8 193.098 29.0270
  -9  -6  -8 101.788 7.34460
  11  -7  -8 150.348 16.3447
 -11   7   8 89.8254 28.7445
  10  -7  -8 90.0910 9.87152
   9  -7  -8 10.2822 1.97261
  -9   7   8 3.87807 8.71349
   8  -7  -8 64.6232 8.94848
  -8   7   8 28.0157 20.1431
   7  -7  -8 8.67596 3.23005
  -7   7   8 9.94263 4.21951
   6  -7  -8 27.8916 4.65562
  -6   7   8 20.8852 6.59720
   5  -7  -8 56.0035 3.82738
  -5   7   8 61.0295 5.44268
   4  -7  -8 194.913 8.84933
  -4   7   8 154.646 14.6172
   3  -7  -8 178.455 7.23716
  -3   7   8 172.336 10.2657
   2  -7  -8 183.346 8.23611
  -2   7   8 185.820 12.9210
   1  -7  -8 389.162 16.3744
  -1   7   8 373.006 19.5754
   0  -7  -8 127.483 7.09700
   0   7   8 109.609 9.89265
  -1  -7  -8 545.708 27.9519
   1   7   8 491.602 53.8770
  -2  -7  -8 124.420 9.19674
   2   7   8 118.053 12.4556
  -3  -7  -8 130.486 6.89502
   3   7   8 110.795 9.95323
  -4  -7  -8 130.826 11.7522
   4   7   8 132.980 14.6444
  -5  -7  -8 42.0431 2.96903
   5   7   8 41.2484 4.87150
  -6  -7  -8 91.2336 7.33387
   6   7   8 91.6619 16.7994
  -7  -7  -8 79.1762 5.25510
   7   7   8 86.3302 16.1770
  -8  -7  -8 50.0870 8.35009
  -9  -7  -8 49.8749 3.85620
  11  -8  -8 27.6407 3.55499
 -11   8   8 24.1113 6.40181
  10  -8  -8 20.6021 5.66585
   9  -8  -8 37.8100 2.73300
  -9   8   8 13.5485 10.1701
   8  -8  -8 52.7366 7.15400
  -8   8   8 34.4717 19.2212
   7  -8  -8 164.873 9.79616
  -7   8   8 101.210 12.2583
   6  -8  -8 75.1714 7.13959
  -6   8   8 75.3722 9.83266
   5  -8  -8 7.71936 2.03864
  -5   8   8 15.2310 2.90543
   4  -8  -8 38.4155 3.75840
  -4   8   8 31.9318 6.19492
   3  -8  -8 455.787 18.2194
  -3   8   8 435.799 27.7185
   2  -8  -8 102.506 4.99697
  -2   8   8 105.412 8.45116
   1  -8  -8 103.354 5.09697
  -1   8   8 120.131 7.34293
   0  -8  -8 275.290 16.8582
   0   8   8 294.688 26.6247
  -1  -8  -8 28.7714 2.71562
   1   8   8 24.7040 4.46821
  -2  -8  -8 179.610 16.6790
   2   8   8 167.307 26.2559
  -3  -8  -8 92.2430 6.34516
   3   8   8 91.4521 7.44975
  -4  -8  -8 475.650 32.4708
   4   8   8 460.158 46.8662
  -5  -8  -8 77.3296 4.66563
   5   8   8 80.7693 9.61273
  -6  -8  -8 102.606 8.36344
   6   8   8 120.103 22.7319
  -7  -8  -8 27.0823 2.87219
   7   8   8 36.4933 7.46427
  -8  -8  -8 14.7971 6.20819
  -9  -8  -8 96.5592 7.88667
  11  -9  -8 18.9728 2.62626
 -11   9   8 22.2707 5.30670
  10  -9  -8 87.7102 16.5364
   9  -9  -8 19.9827 2.00211
  -9   9   8 0.00000 11.4164
   8  -9  -8 201.313 15.1426
  -8   9   8 102.600 35.1739
   7  -9  -8 90.4670 5.64182
  -7   9   8 48.3722 11.0160
   6  -9  -8 52.3971 8.93768
  -6   9   8 60.1141 11.7887
   5  -9  -8 9.77763 2.02377
  -5   9   8 8.22376 2.77547
   4  -9  -8 251.081 10.3962
  -4   9   8 205.297 17.5861
   3  -9  -8 132.849 5.55219
  -3   9   8 119.092 8.68087
   2  -9  -8 72.8010 5.63708
  -2   9   8 88.7915 9.59518
   1  -9  -8 9.14328 1.60194
  -1   9   8 6.44444 2.20964
   0  -9  -8 11.7970 2.35793
   0   9   8 4.43840 3.20440
  -1  -9  -8 117.801 6.54435
   1   9   8 110.598 9.08098
  -2  -9  -8 368.626 26.3474
   2   9   8 366.473 55.7218
  -3  -9  -8 218.140 14.9019
   3   9   8 218.684 19.5153
  -4  -9  -8 93.3680 14.9238
   4   9   8 100.536 16.8631
  -5  -9  -8 10.4864 1.81018
   5   9   8 14.3704 5.44166
  -6  -9  -8 69.0892 7.05009
   6   9   8 98.4817 15.9060
  -7  -9  -8 1.08701 2.02339
   7   9   8 5.71800 4.85382
  -8  -9  -8 77.0955 14.7371
  -9  -9  -8 80.2558 6.64769
  11 -10  -8 12.4937 3.73946
  10 -10  -8 2.99001 2.99522
   9 -10  -8 13.8551 1.98120
  -9  10   8 5.78529 11.7376
   8 -10  -8 9.82697 3.62828
  -8  10   8 2.74113 20.1647
   7 -10  -8 58.9777 4.10933
  -7  10   8 28.4747 8.73549
   6 -10  -8 76.2283 8.94776
  -6  10   8 35.7199 14.7494
   5 -10  -8 6.91611 1.87689
  -5  10   8 2.60263 2.70105
   4 -10  -8 12.2919 3.16233
  -4  10   8 9.76789 5.33801
   3 -10  -8 29.4708 2.25224
  -3  10   8 30.6173 3.52665
   2 -10  -8 295.705 15.5886
  -2  10   8 314.211 26.7179
   1 -10  -8 19.9027 2.01676
  -1  10   8 23.2694 2.88921
   0 -10  -8 480.492 31.9349
   0  10   8 524.600 47.6096
  -1 -10  -8 158.526 9.21802
   1  10   8 182.196 14.1757
  -2 -10  -8 298.598 16.9137
   2  10   8 270.980 53.0954
  -3 -10  -8 551.142 37.4384
   3  10   8 517.279 52.9941
  -4 -10  -8 313.949 20.1091
   4  10   8 360.436 61.8895
  -5 -10  -8 13.2563 1.89986
   5  10   8 16.6334 5.70624
  -6 -10  -8 59.5088 8.19085
   6  10   8 98.6265 16.4995
  -7 -10  -8 10.8029 2.13097
   7  10   8 7.58927 7.56583
  -8 -10  -8 27.2017 7.03437
  10 -11  -8 129.136 21.3672
   9 -11  -8 57.3377 4.84433
   8 -11  -8 134.721 11.6427
  -8  11   8 34.0582 34.8774
   7 -11  -8 33.5709 2.85026
  -7  11   8 6.95551 8.34859
   6 -11  -8 28.9477 6.18146
  -6  11   8 13.9319 13.9089
   5 -11  -8 601.114 26.7498
  -5  11   8 550.069 49.1644
   4 -11  -8 32.4469 4.38769
  -4  11   8 31.6027 7.03783
   3 -11  -8 81.8802 4.02368
  -3  11   8 76.0850 6.04943
   2 -11  -8 411.425 18.2869
  -2  11   8 460.598 31.5364
   1 -11  -8 12.3981 1.90797
  -1  11   8 17.0296 2.75390
   0 -11  -8 63.7116 4.65010
   0  11   8 57.6193 7.76546
  -1 -11  -8 350.767 19.0624
   1  11   8 409.400 29.3817
  -2 -11  -8 304.715 24.3026
   2  11   8 336.701 55.4546
  -3 -11  -8 136.312 8.20457
   3  11   8 102.235 29.9289
  -4 -11  -8 91.9492 10.9092
  -5 -11  -8 7.99312 1.97770
   5  11   8 21.7565 5.62481
  -6 -11  -8 66.8980 8.79170
   6  11   8 91.0204 17.6420
  -7 -11  -8 28.8664 3.71360
  -8 -11  -8 78.1138 9.74007
  10 -12  -8 57.5138 9.21033
   9 -12  -8 66.7078 7.67136
   8 -12  -8 84.8029 10.4993
  -8  12   8 11.9667 26.9929
   7 -12  -8 328.691 20.8142
  -7  12   8 185.225 43.1979
   6 -12  -8 299.920 23.3521
  -6  12   8 172.551 43.1728
   5 -12  -8 91.7692 5.73756
  -5  12   8 82.9119 14.8792
   4 -12  -8 143.452 7.63652
  -4  12   8 125.731 13.1433
   3 -12  -8 73.7732 3.84857
  -3  12   8 66.2708 5.80822
   2 -12  -8 100.264 5.62662
  -2  12   8 103.520 9.14557
   1 -12  -8 30.2924 2.49640
  -1  12   8 31.0540 3.49295
   0 -12  -8 219.690 13.4226
   0  12   8 246.298 20.6162
  -1 -12  -8 417.297 20.6990
   1  12   8 425.438 32.7286
  -2 -12  -8 223.684 16.0186
   2  12   8 232.730 58.0850
  -3 -12  -8 34.5799 3.17528
  -4 -12  -8 61.1262 5.52571
  -5 -12  -8 8.74516 1.94456
   5  12   8 13.4144 5.43338
  -6 -12  -8 18.9850 6.64940
  -7 -12  -8 23.0276 3.15279
   9 -13  -8 2.58927 1.44877
   8 -13  -8 21.6192 6.52475
   7 -13  -8 10.7897 1.65131
  -7  13   8 10.8937 7.79829
   6 -13  -8 35.6345 5.36673
  -6  13   8 27.3401 14.1781
   5 -13  -8 28.1500 2.43858
  -5  13   8 17.8797 8.50859
   4 -13  -8 284.811 21.6932
  -4  13   8 301.112 65.0982
   3 -13  -8 43.1533 2.89608
  -3  13   8 50.8726 8.15421
   2 -13  -8 33.0801 4.34888
  -2  13   8 38.7199 18.6656
   1 -13  -8 30.9773 2.22975
  -1  13   8 20.2392 4.39247
   0 -13  -8 764.073 46.1193
   0  13   8 844.690 113.603
  -1 -13  -8 20.4193 2.55429
   1  13   8 22.2304 9.81853
  -2 -13  -8 613.527 35.4408
   2  13   8 523.317 123.359
  -3 -13  -8 53.4483 4.34801
  -4 -13  -8 24.5891 4.84305
  -5 -13  -8 19.6305 2.73352
  -6 -13  -8 19.2028 5.85871
  -7 -13  -8 6.67125 2.00524
   9 -14  -8 5.99397 1.40952
   8 -14  -8 14.2010 4.37578
   7 -14  -8 11.3664 1.61969
  -7  14   8 8.83500 8.97900
   6 -14  -8 74.7034 7.56702
  -6  14   8 51.9232 17.3128
   5 -14  -8 74.7348 4.81208
  -5  14   8 71.3004 13.4420
   4 -14  -8 79.4478 7.43903
  -4  14   8 82.4930 17.2061
   3 -14  -8 131.933 6.57951
  -3  14   8 120.804 15.9539
   2 -14  -8 83.3687 7.65436
  -2  14   8 117.186 30.2561
   1 -14  -8 113.387 5.84235
  -1  14   8 104.549 13.4923
   0 -14  -8 1.38594 2.60783
   0  14   8 6.02194 11.8524
  -1 -14  -8 203.221 10.3656
   1  14   8 188.728 38.3449
  -2 -14  -8 12.4857 3.59044
   2  14   8 12.5099 17.4348
  -3 -14  -8 200.884 11.9523
  -4 -14  -8 27.5164 5.30146
  -5 -14  -8 151.223 14.2044
  -6 -14  -8 21.7947 5.76637
   8 -15  -8 43.3331 8.48832
   7 -15  -8 17.3712 1.96773
   6 -15  -8 6.47541 3.40136
   5 -15  -8 101.329 6.10283
  -5  15   8 81.4615 16.5768
   4 -15  -8 51.6774 5.83478
  -4  15   8 45.4206 14.3354
   3 -15  -8 244.754 11.5198
  -3  15   8 253.969 27.7776
   2 -15  -8 252.939 12.0547
  -2  15   8 246.469 35.7537
   1 -15  -8 38.6760 2.86454
  -1  15   8 48.0110 8.36694
   0 -15  -8 39.1868 3.99462
   0  15   8 21.5596 16.7036
  -1 -15  -8 269.711 14.9037
   1  15   8 241.502 48.6638
  -2 -15  -8 136.095 9.83493
  -3 -15  -8 77.9359 5.40100
  -4 -15  -8 15.5621 4.56592
  -5 -15  -8 11.4181 2.06410
  -6 -15  -8 6.11360 4.93728
   7 -16  -8 18.3444 1.91569
   6 -16  -8 71.4844 9.57170
   5 -16  -8 13.4757 1.91474
  -5  16   8 18.8066 16.9068
   4 -16  -8 171.739 13.8471
  -4  16   8 173.871 27.8144
   3 -16  -8 50.5727 3.16004
  -3  16   8 42.9246 9.11801
   2 -16  -8 9.70903 2.55453
  -2  16   8 3.59566 12.8551
   1 -16  -8 40.4725 3.13730
  -1  16   8 48.5868 9.46204
   0 -16  -8 143.904 10.4266
   0  16   8 118.053 33.6702
  -1 -16  -8 71.1784 4.82503
   1  16   8 47.8810 16.9591
  -2 -16  -8 11.0593 2.75734
  -3 -16  -8 204.909 18.9718
  -4 -16  -8 21.4854 6.22113
  -5 -16  -8 55.0821 5.56155
   7 -17  -8 12.0809 1.39073
   6 -17  -8 55.6110 7.13944
   5 -17  -8 205.209 17.2878
   4 -17  -8 172.411 21.4803
   3 -17  -8 6.08313 1.54831
  -3  17   8 1.04057 10.9982
   2 -17  -8 122.696 10.9748
  -2  17   8 101.211 33.9288
   1 -17  -8 45.8999 3.36365
  -1  17   8 41.9213 10.6124
   0 -17  -8 157.094 10.7357
   0  17   8 97.9384 34.4540
  -1 -17  -8 15.2958 1.83601
  -2 -17  -8 17.4727 3.61530
  -3 -17  -8 55.9042 5.62423
  -4 -17  -8 47.2011 13.9503
   5 -18  -8 113.507 9.85045
   4 -18  -8 65.3670 10.0278
   3 -18  -8 73.7074 5.47937
   2 -18  -8 84.1706 11.5384
   1 -18  -8 6.11084 2.05989
   0 -18  -8 12.9932 3.60248
  -1 -18  -8 13.2147 1.79071
  -2 -18  -8 27.3227 5.33594
  -3 -18  -8 22.0303 2.50927
   4 -19  -8 38.4334 6.63902
   3 -19  -8 18.8289 2.27223
   2 -19  -8 41.2074 6.14900
   1 -19  -8 24.4748 2.86173
   0 -19  -8 116.572 18.2129
  -1 -19  -8 9.92830 1.49933
  -2 -19  -8 30.1017 6.27787
 -12   0   9 58.4307 8.41293
 -11   0   9 21.9852 4.88206
 -10   0   9 116.833 24.7279
  -9   0   9 103.403 8.47309
  -8   0   9 21.3693 11.4802
  -7   0   9 244.526 24.9356
  -6   0   9 277.719 23.0397
  -5   0   9 35.6849 4.13710
  -4   0   9 23.1639 5.01453
  -3   0   9 10.5829 2.56007
  -2   0   9 3.13883 3.99412
  -1   0   9 26.9180 3.31450
   0   0   9 20.7269 2.66852
   1   0   9 33.5086 3.35179
   2   0   9 20.9853 7.11511
   3   0   9 297.635 18.7957
   4   0   9 16.9203 9.89384
   5   0   9 18.4600 4.24230
   6   0   9 19.1249 7.87659
   7   0   9 565.317 41.0976
   8   0   9 50.3337 9.96051
   9   0   9 2.79303 1.57019
  12  -1  -9 0.63903 6.63816
 -12   1   9 2.03630 6.78889
  11  -1  -9 27.3763 5.15117
 -11   1   9 27.8490 5.24792
  10  -1  -9 20.2164 3.32234
 -10   1   9 10.3658 7.82343
   9  -1  -9 101.711 8.14759
  -9   1   9 131.747 12.0626
   8  -1  -9 404.268 35.3181
  -8   1   9 511.905 57.0404
   7  -1  -9 76.8343 10.6174
  -7   1   9 87.5639 10.8064
   6  -1  -9 234.636 21.3089
  -6   1   9 257.855 21.3049
   5  -1  -9 68.7803 5.73326
  -5   1   9 61.1068 5.60908
   4  -1  -9 121.750 9.56579
  -4   1   9 96.7032 9.13801
   3  -1  -9 52.1782 4.45962
  -3   1   9 48.1206 4.41142
   2  -1  -9 32.9694 6.60832
  -2   1   9 49.5692 5.53863
   1  -1  -9 397.760 20.8144
  -1   1   9 389.794 22.1663
   0  -1  -9 292.561 17.9140
   0   1   9 301.494 20.1144
  -1  -1  -9 974.851 50.6991
   1   1   9 962.731 52.6170
  -2  -1  -9 202.545 14.8295
   2   1   9 192.919 18.0481
  -3  -1  -9 134.124 9.91232
   3   1   9 129.061 10.4050
  -4  -1  -9 41.9811 7.42182
   4   1   9 40.6146 7.90620
  -5  -1  -9 57.9592 6.50619
   5   1   9 67.3736 6.94429
  -6  -1  -9 57.4675 10.3993
   6   1   9 55.1238 9.18269
  -7  -1  -9 4.63125 2.15758
   7   1   9 2.85317 2.34654
  -8  -1  -9 72.2204 10.4529
   8   1   9 51.4158 8.40989
  -9  -1  -9 23.8790 2.87509
   9   1   9 26.3987 2.88456
  12  -2  -9 17.9239 11.7643
 -12   2   9 31.8109 11.9345
  11  -2  -9 3.79152 3.52856
 -11   2   9 5.66799 3.70564
  10  -2  -9 67.0347 11.1611
 -10   2   9 78.5101 20.5853
   9  -2  -9 99.4564 8.06531
  -9   2   9 113.143 11.7742
   8  -2  -9 309.884 31.4753
  -8   2   9 394.120 49.7163
   7  -2  -9 343.472 31.7579
  -7   2   9 327.375 31.6296
   6  -2  -9 896.692 74.5609
  -6   2   9 760.837 74.3909
   5  -2  -9 211.543 13.9781
  -5   2   9 206.494 13.9095
   4  -2  -9 836.160 92.8254
  -4   2   9 752.881 81.2849
   3  -2  -9 44.3645 3.76624
  -3   2   9 33.2379 3.87957
   2  -2  -9 606.118 43.3549
  -2   2   9 615.416 48.2210
   1  -2  -9 9.72136 2.01555
  -1   2   9 4.10283 1.90991
   0  -2  -9 131.946 7.34694
   0   2   9 111.288 9.30658
  -1  -2  -9 67.0662 4.06198
   1   2   9 66.1475 4.91601
  -2  -2  -9 92.6071 9.45868
   2   2   9 109.249 16.6382
  -3  -2  -9 258.951 14.5063
   3   2   9 252.136 19.5667
  -4  -2  -9 15.0701 10.6722
   4   2   9 0.00000 12.1755
  -5  -2  -9 237.290 17.3415
   5   2   9 228.681 18.2527
  -6  -2  -9 16.1826 9.08509
   6   2   9 25.8290 6.51930
  -7  -2  -9 136.500 8.25337
   7   2   9 132.628 11.5269
  -8  -2  -9 240.544 24.7539
   8   2   9 158.903 18.2509
  -9  -2  -9 23.8441 2.90730
   9   2   9 31.3975 3.93509
  12  -3  -9 0.00000 9.14951
 -12   3   9 24.3136 7.37361
  11  -3  -9 7.41424 1.53184
 -11   3   9 13.2403 3.05849
  10  -3  -9 35.0824 7.40988
 -10   3   9 38.1625 18.2929
   9  -3  -9 27.2661 3.31817
  -9   3   9 43.3279 5.99906
   8  -3  -9 720.097 64.3537
  -8   3   9 835.397 98.7396
   7  -3  -9 18.8789 5.28328
  -7   3   9 24.4253 6.49504
   6  -3  -9 369.839 33.6211
  -6   3   9 236.768 33.2273
   5  -3  -9 362.521 25.3613
  -5   3   9 336.977 25.5179
   4  -3  -9 86.3558 17.1010
  -4   3   9 68.6477 22.8258
   3  -3  -9 15.7889 2.95421
  -3   3   9 17.5624 2.99782
   2  -3  -9 504.487 30.9936
  -2   3   9 551.431 37.6070
   1  -3  -9 155.090 7.35027
  -1   3   9 135.483 8.24290
   0  -3  -9 171.481 9.95660
   0   3   9 176.083 11.6535
  -1  -3  -9 100.029 5.15995
   1   3   9 94.4850 6.37847
  -2  -3  -9 189.987 12.4804
   2   3   9 184.355 21.7929
  -3  -3  -9 467.305 23.3402
   3   3   9 455.633 34.8199
  -4  -3  -9 136.972 11.7285
   4   3   9 101.824 13.2964
  -5  -3  -9 208.163 14.8623
   5   3   9 232.560 17.8257
  -6  -3  -9 46.8297 11.5825
   6   3   9 43.1235 9.50734
  -7  -3  -9 56.6361 3.76673
   7   3   9 44.3874 4.86787
  -8  -3  -9 67.2933 8.75899
   8   3   9 48.1914 10.4842
  -9  -3  -9 97.0791 8.23153
   9   3   9 81.9022 10.3833
  12  -4  -9 8.59518 2.87639
 -12   4   9 8.38725 3.14869
  11  -4  -9 66.5675 7.21258
 -11   4   9 81.1303 9.72770
  10  -4  -9 106.629 12.7523
 -10   4   9 115.486 26.2067
   9  -4  -9 32.3154 3.48285
  -9   4   9 35.6117 6.13233
   8  -4  -9 6.72868 4.42621
  -8   4   9 0.00000 23.3317
   7  -4  -9 64.1699 8.73218
  -7   4   9 51.0301 9.20177
   6  -4  -9 29.7010 6.50820
  -6   4   9 17.8714 9.07291
   5  -4  -9 76.6761 6.56187
  -5   4   9 103.711 7.92807
   4  -4  -9 171.057 11.5540
  -4   4   9 124.856 21.3265
   3  -4  -9 86.0686 5.90870
  -3   4   9 97.4298 6.61934
   2  -4  -9 26.5099 6.87510
  -2   4   9 16.4674 11.2181
   1  -4  -9 54.0056 3.50179
  -1   4   9 62.6563 4.20194
   0  -4  -9 4.53924 2.24726
   0   4   9 6.60471 2.19200
  -1  -4  -9 43.3343 3.09616
   1   4   9 24.1797 3.73136
  -2  -4  -9 215.225 15.1691
   2   4   9 198.283 25.7208
  -3  -4  -9 56.6033 3.89916
   3   4   9 50.4979 5.31552
  -4  -4  -9 287.516 27.7832
   4   4   9 288.770 33.7252
  -5  -4  -9 401.951 19.0279
   5   4   9 436.259 25.3556
  -6  -4  -9 14.5113 4.32086
   6   4   9 5.78105 3.90887
  -7  -4  -9 57.5987 4.41688
   7   4   9 59.7965 6.94026
  -8  -4  -9 40.1784 7.86359
   8   4   9 33.4007 10.2854
  -9  -4  -9 4.05888 1.57314
   9   4   9 0.00000 3.84685
  11  -5  -9 24.6788 2.83910
 -11   5   9 27.5858 5.02523
  10  -5  -9 30.8863 5.90225
 -10   5   9 41.2448 24.0072
   9  -5  -9 84.0627 7.23108
  -9   5   9 83.6609 13.4937
   8  -5  -9 94.8162 11.5201
  -8   5   9 72.8473 37.0876
   7  -5  -9 239.624 36.5259
  -7   5   9 278.712 23.3904
   6  -5  -9 21.5299 5.68015
  -6   5   9 20.6277 7.77173
   5  -5  -9 143.353 8.07120
  -5   5   9 127.377 10.0811
   4  -5  -9 44.4312 5.16051
  -4   5   9 44.7398 8.33698
   3  -5  -9 494.819 26.4420
  -3   5   9 499.155 27.4602
   2  -5  -9 10.9102 3.22116
  -2   5   9 3.98425 6.35741
   1  -5  -9 362.530 15.8837
  -1   5   9 343.030 19.0003
   0  -5  -9 4.94748 2.38761
   0   5   9 3.18133 2.40439
  -1  -5  -9 157.709 8.97383
   1   5   9 164.736 14.4573
  -2  -5  -9 103.526 8.74566
   2   5   9 108.941 12.8125
  -3  -5  -9 91.2590 5.85858
   3   5   9 112.998 8.79348
  -4  -5  -9 168.371 14.8205
   4   5   9 178.984 17.3790
  -5  -5  -9 21.6151 2.41584
   5   5   9 29.0492 3.29697
  -6  -5  -9 7.19253 8.23812
   6   5   9 14.8165 13.2129
  -7  -5  -9 33.4189 2.82917
   7   5   9 41.5756 5.22941
  -8  -5  -9 36.4875 5.48996
   8   5   9 27.1349 9.18306
  -9  -5  -9 33.1746 3.34754
  11  -6  -9 60.4732 6.47813
 -11   6   9 65.6465 11.8459
  10  -6  -9 98.7167 17.7448
   9  -6  -9 160.929 13.4538
  -9   6   9 189.538 24.0072
   8  -6  -9 17.7260 3.74923
  -8   6   9 3.99159 24.3957
   7  -6  -9 6.96296 1.68620
  -7   6   9 5.41413 4.12627
   6  -6  -9 165.476 13.7690
  -6   6   9 113.791 18.9303
   5  -6  -9 258.417 14.4264
  -5   6   9 242.501 15.4925
   4  -6  -9 232.372 13.6731
  -4   6   9 193.315 22.9411
   3  -6  -9 51.8328 3.11035
  -3   6   9 38.7878 3.98799
   2  -6  -9 605.716 35.8946
  -2   6   9 533.001 60.2850
   1  -6  -9 4.69807 1.76553
  -1   6   9 6.01525 2.17279
   0  -6  -9 100.384 6.29268
   0   6   9 72.6959 10.1434
  -1  -6  -9 17.9701 2.72328
   1   6   9 28.6036 3.28359
  -2  -6  -9 92.5005 8.18727
   2   6   9 76.5148 13.0944
  -3  -6  -9 829.829 44.1824
   3   6   9 848.433 63.4099
  -4  -6  -9 79.1041 8.51119
   4   6   9 67.7387 10.1017
  -5  -6  -9 224.402 11.8369
   5   6   9 230.633 19.1975
  -6  -6  -9 46.1098 5.77260
   6   6   9 60.3064 12.3534
  -7  -6  -9 55.8665 4.01206
   7   6   9 76.8448 7.19793
  -8  -6  -9 9.92350 4.97961
  -9  -6  -9 7.41646 1.28729
  11  -7  -9 26.6426 3.20016
 -11   7   9 30.9083 6.47866
  10  -7  -9 38.4001 8.03964
   9  -7  -9 232.200 20.4235
  -9   7   9 243.595 34.5246
   8  -7  -9 120.762 9.69530
  -8   7   9 98.4436 37.6528
   7  -7  -9 85.0759 5.18414
  -7   7   9 76.5313 9.81757
   6  -7  -9 5.00509 5.20551
  -6   7   9 8.98139 8.71844
   5  -7  -9 45.3491 3.48793
  -5   7   9 33.5792 4.14694
   4  -7  -9 210.466 13.9802
  -4   7   9 192.482 23.4048
   3  -7  -9 210.284 10.1945
  -3   7   9 221.652 14.7861
   2  -7  -9 29.0650 3.79310
  -2   7   9 31.8774 6.11028
   1  -7  -9 49.1678 3.09988
  -1   7   9 43.4285 3.94170
   0  -7  -9 27.0629 2.77745
   0   7   9 18.8824 4.07797
  -1  -7  -9 124.614 7.41864
   1   7   9 133.005 9.93997
  -2  -7  -9 5.44334 4.45862
   2   7   9 18.4607 7.22213
  -3  -7  -9 683.714 37.8869
   3   7   9 678.096 51.9539
  -4  -7  -9 198.235 15.4785
   4   7   9 192.202 18.6760
  -5  -7  -9 0.86844 2.11526
   5   7   9 3.32826 3.61442
  -6  -7  -9 9.40748 4.48102
   6   7   9 21.9215 8.64602
  -7  -7  -9 9.85203 1.88733
   7   7   9 13.8092 3.71087
  -8  -7  -9 0.67694 4.23582
  -9  -7  -9 26.0648 2.20356
  11  -8  -9 58.0468 6.47788
 -11   8   9 66.2116 11.7834
  10  -8  -9 4.27384 3.34464
   9  -8  -9 5.59569 1.50004
  -9   8   9 0.00000 15.0293
   8  -8  -9 36.8744 3.66266
  -8   8   9 13.1885 16.2868
   7  -8  -9 127.975 7.54198
  -7   8   9 67.2977 13.4204
   6  -8  -9 6.48016 4.55157
  -6   8   9 0.00000 8.27190
   5  -8  -9 62.3430 4.37590
  -5   8   9 66.1782 5.40831
   4  -8  -9 546.486 26.2482
  -4   8   9 460.335 40.3839
   3  -8  -9 161.770 8.00335
  -3   8   9 169.240 11.6770
   2  -8  -9 432.393 21.3914
  -2   8   9 421.359 40.3698
   1  -8  -9 53.1615 3.47996
  -1   8   9 54.7274 4.76280
   0  -8  -9 22.6325 2.80401
   0   8   9 17.3673 4.18595
  -1  -8  -9 298.422 16.6030
   1   8   9 327.159 22.2981
  -2  -8  -9 48.0021 6.33432
   2   8   9 47.5795 13.3993
  -3  -8  -9 18.1610 3.18729
   3   8   9 29.4062 3.72963
  -4  -8  -9 14.9934 3.60970
   4   8   9 18.4815 7.27447
  -5  -8  -9 6.77500 2.28128
   5   8   9 10.9706 3.93168
  -6  -8  -9 30.2005 5.06894
   6   8   9 30.7679 10.9525
  -7  -8  -9 80.8822 5.09721
   7   8   9 112.269 17.0349
  -8  -8  -9 3.10900 4.47909
  11  -9  -9 10.7754 3.45072
  10  -9  -9 13.1162 3.60434
   9  -9  -9 89.8443 5.78377
  -9   9   9 60.1093 32.4819
   8  -9  -9 51.2985 5.10220
  -8   9   9 25.4141 17.0242
   7  -9  -9 198.886 11.4385
  -7   9   9 135.985 23.6729
   6  -9  -9 403.375 23.4278
  -6   9   9 254.978 60.7852
   5  -9  -9 19.3661 2.57217
  -5   9   9 17.9963 3.61747
   4  -9  -9 44.1013 4.37964
  -4   9   9 44.0650 7.60819
   3  -9  -9 40.5398 2.88936
  -3   9   9 45.3584 4.12077
   2  -9  -9 498.763 27.7881
  -2   9   9 541.114 43.9689
   1  -9  -9 502.851 22.3964
  -1   9   9 493.327 32.2593
   0  -9  -9 11.3027 2.52119
   0   9   9 7.19436 3.55858
  -1  -9  -9 258.040 13.6114
   1   9   9 286.350 21.4826
  -2  -9  -9 534.447 41.4540
   2   9   9 544.626 106.692
  -3  -9  -9 193.081 9.75874
   3   9   9 175.220 17.3712
  -4  -9  -9 73.2723 5.89363
   4   9   9 91.4308 14.0675
  -5  -9  -9 87.5423 5.94676
   5   9   9 100.092 10.9653
  -6  -9  -9 66.1308 7.76190
   6   9   9 107.349 18.3136
  -7  -9  -9 74.6874 5.72315
  -8  -9  -9 24.3810 5.77577
  10 -10  -9 186.355 36.8120
   9 -10  -9 26.8199 2.43301
   8 -10  -9 98.7978 7.65872
  -8  10   9 33.9553 27.7773
   7 -10  -9 115.813 7.13482
  -7  10   9 73.0155 13.0303
   6 -10  -9 86.3202 7.05519
  -6  10   9 39.4972 17.2187
   5 -10  -9 105.622 5.70075
  -5  10   9 89.7396 8.85989
   4 -10  -9 134.694 7.39297
  -4  10   9 145.858 11.9573
   3 -10  -9 156.814 7.20078
  -3  10   9 168.694 10.2296
   2 -10  -9 82.3723 7.68724
  -2  10   9 55.3076 11.3835
   1 -10  -9 175.645 8.58270
  -1  10   9 181.950 12.3306
   0 -10  -9 115.549 7.11608
   0  10   9 95.6000 11.7436
  -1 -10  -9 115.863 8.05361
   1  10   9 118.302 10.4633
  -2 -10  -9 645.339 61.2369
   2  10   9 844.670 107.146
  -3 -10  -9 21.9521 2.55156
   3  10   9 21.1689 4.60444
  -4 -10  -9 32.0494 4.50070
   4  10   9 50.2885 9.84335
  -5 -10  -9 7.27158 2.21470
   5  10   9 13.2916 5.10062
  -6 -10  -9 87.7243 10.4683
   6  10   9 126.941 22.5305
  -7 -10  -9 3.80773 2.27333
  -8 -10  -9 66.8634 12.0894
  10 -11  -9 39.7277 6.38752
   9 -11  -9 1.92455 1.13685
   8 -11  -9 21.6555 3.89924
  -8  11   9 52.8984 20.9005
   7 -11  -9 27.7941 2.57178
  -7  11   9 7.81970 8.15792
   6 -11  -9 151.884 13.1897
  -6  11   9 76.1901 22.9675
   5 -11  -9 69.8031 4.18027
  -5  11   9 48.7533 10.7954
   4 -11  -9 144.245 12.6311
  -4  11   9 137.387 22.8940
   3 -11  -9 107.492 5.40562
  -3  11   9 111.035 7.40500
   2 -11  -9 595.941 30.8311
  -2  11   9 619.232 47.3636
   1 -11  -9 34.1738 3.01451
  -1  11   9 41.4059 4.18796
   0 -11  -9 588.536 38.4996
   0  11   9 666.937 59.1342
  -1 -11  -9 71.8959 3.83926
   1  11   9 70.0153 6.53381
  -2 -11  -9 111.968 8.67688
   2  11   9 109.582 16.4152
  -3 -11  -9 105.448 7.06616
   3  11   9 98.3678 11.8567
  -4 -11  -9 40.3294 5.59553
   4  11   9 59.1715 12.4306
  -5 -11  -9 38.8356 3.07272
   5  11   9 62.1433 9.40586
  -6 -11  -9 71.3833 15.8861
  -7 -11  -9 88.6277 8.59177
   9 -12  -9 32.9112 2.85304
   8 -12  -9 31.5176 6.88554
   7 -12  -9 33.1512 2.91441
  -7  12   9 8.59723 8.34708
   6 -12  -9 72.5151 8.82824
  -6  12   9 31.1978 17.9058
   5 -12  -9 152.131 8.73468
  -5  12   9 110.799 18.9240
   4 -12  -9 483.639 36.6382
  -4  12   9 440.211 82.5268
   3 -12  -9 381.352 17.2115
  -3  12   9 382.357 37.1923
   2 -12  -9 387.668 19.6848
  -2  12   9 387.316 60.8477
   1 -12  -9 129.320 5.69931
  -1  12   9 109.188 10.9346
   0 -12  -9 479.876 29.3654
   0  12   9 594.136 53.3849
  -1 -12  -9 459.226 21.2770
   1  12   9 417.721 46.1868
  -2 -12  -9 381.018 24.9531
   2  12   9 360.893 73.1399
  -3 -12  -9 59.6940 4.69734
   3  12   9 83.1697 13.1653
  -4 -12  -9 51.2706 5.32861
   4  12   9 72.8715 13.4711
  -5 -12  -9 16.8618 2.10869
   5  12   9 26.1144 6.11767
  -6 -12  -9 95.0903 19.0310
  -7 -12  -9 104.325 9.93413
   9 -13  -9 11.1264 1.34267
   8 -13  -9 30.6947 4.95701
   7 -13  -9 56.5264 4.15558
  -7  13   9 22.4763 9.57558
   6 -13  -9 64.1768 6.34307
  -6  13   9 26.5632 15.9211
   5 -13  -9 20.4990 2.26241
  -5  13   9 12.1813 8.46038
   4 -13  -9 60.5645 6.82802
  -4  13   9 33.5661 23.7664
   3 -13  -9 50.1590 3.15196
  -3  13   9 38.7047 8.06330
   2 -13  -9 225.652 16.6205
  -2  13   9 234.299 48.7336
   1 -13  -9 122.198 6.06883
  -1  13   9 128.891 18.1061
   0 -13  -9 278.681 17.8564
   0  13   9 303.733 36.5802
  -1 -13  -9 52.1853 3.48833
   1  13   9 58.0814 8.58548
  -2 -13  -9 28.8872 3.72249
  -3 -13  -9 48.9352 4.06839
  -4 -13  -9 29.3854 4.23810
   4  13   9 49.3733 11.1657
  -5 -13  -9 22.8982 3.07497
  -6 -13  -9 16.7045 4.90654
   8 -14  -9 34.8911 5.57824
   7 -14  -9 2.80328 1.47446
   6 -14  -9 20.2417 3.74345
  -6  14   9 0.00000 19.5802
   5 -14  -9 134.328 7.78971
  -5  14   9 84.6922 16.2707
   4 -14  -9 95.2246 8.28289
  -4  14   9 78.5613 18.4603
   3 -14  -9 48.1825 3.14507
  -3  14   9 34.8898 8.84449
   2 -14  -9 103.525 5.78414
  -2  14   9 84.2371 25.6758
   1 -14  -9 120.607 5.77693
  -1  14   9 111.858 13.3782
   0 -14  -9 14.4779 2.73958
   0  14   9 0.80447 12.5483
  -1 -14  -9 468.548 23.4635
   1  14   9 373.233 54.8442
  -2 -14  -9 45.7373 3.97528
  -3 -14  -9 3.25314 1.60127
  -4 -14  -9 30.2823 5.35997
  -5 -14  -9 16.0007 3.84070
  -6 -14  -9 15.6953 5.71576
   8 -15  -9 31.2192 4.92628
   7 -15  -9 109.883 9.27240
   6 -15  -9 24.6720 4.31881
   5 -15  -9 231.477 13.4801
  -5  15   9 214.762 24.4339
   4 -15  -9 64.5059 5.96122
  -4  15   9 45.9585 14.5733
   3 -15  -9 209.062 10.0188
  -3  15   9 187.534 28.0919
   2 -15  -9 115.162 11.1433
  -2  15   9 117.768 34.7471
   1 -15  -9 155.207 8.05384
  -1  15   9 173.016 18.2926
   0 -15  -9 290.919 21.3757
   0  15   9 259.627 61.9125
  -1 -15  -9 80.9120 4.50039
   1  15   9 53.8089 22.1607
  -2 -15  -9 10.6436 4.52847
  -3 -15  -9 111.532 9.04283
  -4 -15  -9 52.9010 11.0435
  -5 -15  -9 96.7225 12.1303
   7 -16  -9 6.48207 1.21808
   6 -16  -9 8.87978 3.00605
   5 -16  -9 258.774 21.0301
   4 -16  -9 11.4484 3.37568
   3 -16  -9 28.6838 2.26277
  -3  16   9 18.5178 7.72779
   2 -16  -9 21.1985 3.62546
  -2  16   9 30.9750 14.0361
   1 -16  -9 18.9367 1.98330
  -1  16   9 15.2207 8.09882
   0 -16  -9 165.587 11.1346
   0  16   9 130.907 38.9569
  -1 -16  -9 69.2549 4.62310
  -2 -16  -9 138.653 25.2735
  -3 -16  -9 103.252 8.09055
  -4 -16  -9 45.5187 10.0975
   6 -17  -9 42.4412 5.28252
   5 -17  -9 77.6741 6.92509
   4 -17  -9 19.9276 4.02648
   3 -17  -9 209.452 14.5604
   2 -17  -9 29.0819 4.56196
   1 -17  -9 113.673 10.5485
   0 -17  -9 60.9456 10.1300
  -1 -17  -9 26.5273 2.55184
  -2 -17  -9 50.7482 8.27882
  -3 -17  -9 127.792 13.5335
   5 -18  -9 109.465 9.09270
   4 -18  -9 17.5511 3.79960
   3 -18  -9 32.5603 2.65935
   2 -18  -9 60.2035 7.98721
   1 -18  -9 77.8230 6.30772
   0 -18  -9 55.9022 8.11471
  -1 -18  -9 131.327 10.2577
  -2 -18  -9 34.5972 7.74068
   2 -19  -9 16.3707 3.47580
   1 -19  -9 8.51148 1.32403
   0 -19  -9 103.492 15.0758
 -11   0  10 25.3646 3.85105
 -10   0  10 15.8801 16.4731
  -9   0  10 104.714 11.3528
  -8   0  10 30.5610 17.7056
  -7   0  10 11.0514 5.33378
  -6   0  10 253.991 25.3543
  -5   0  10 16.5595 3.47779
  -4   0  10 151.801 22.1568
  -3   0  10 114.222 8.05164
  -2   0  10 189.113 24.2994
  -1   0  10 20.7840 4.55927
   0   0  10 2.53907 3.13679
   1   0  10 91.9699 8.05967
   2   0  10 139.154 14.5844
   3   0  10 1.68233 3.59662
   4   0  10 559.667 61.3168
   5   0  10 196.795 13.8138
   6   0  10 112.284 10.1073
   7   0  10 3.97609 1.89494
   8   0  10 25.0683 4.82480
   9   0  10 1.53084 2.15509
  11  -1 -10 10.1266 3.04829
 -11   1  10 16.5667 4.04503
  10  -1 -10 0.00000 21.8827
 -10   1  10 0.92152 16.5595
   9  -1 -10 130.731 10.7868
  -9   1  10 129.426 13.2337
   8  -1 -10 95.9427 18.5034
  -8   1  10 124.539 28.7005
   7  -1 -10 339.430 30.5291
  -7   1  10 305.837 30.4537
   6  -1 -10 45.5490 14.9312
  -6   1  10 89.8730 15.1833
   5  -1 -10 88.7769 7.30082
  -5   1  10 103.665 7.35272
   4  -1 -10 279.803 24.0149
  -4   1  10 240.168 24.0274
   3  -1 -10 469.811 31.9949
  -3   1  10 425.866 32.3110
   2  -1 -10 78.3452 12.2629
  -2   1  10 79.2815 11.5888
   1  -1 -10 73.1911 5.62545
  -1   1  10 70.6639 6.54480
   0  -1 -10 119.064 8.45425
   0   1  10 109.123 9.41780
  -1  -1 -10 51.0038 4.85801
   1   1  10 58.2668 6.48985
  -2  -1 -10 150.341 18.5906
   2   1  10 138.615 20.5411
  -3  -1 -10 10.1211 3.57824
   3   1  10 3.25487 3.40533
  -4  -1 -10 136.047 21.3633
   4   1  10 117.504 25.9471
  -5  -1 -10 51.7829 4.18599
   5   1  10 48.8375 4.54799
  -6  -1 -10 50.2433 8.66798
   6   1  10 47.5024 9.13640
  -7  -1 -10 125.609 9.39209
   7   1  10 118.807 10.7281
  -8  -1 -10 53.8676 7.65486
   8   1  10 50.0201 6.82210
  -9  -1 -10 43.8197 3.83057
   9   1  10 34.7694 4.88779
  11  -2 -10 5.12189 2.68521
 -11   2  10 8.87431 3.74857
  10  -2 -10 18.4596 3.19096
 -10   2  10 22.9621 17.2071
   9  -2 -10 175.407 14.7585
  -9   2  10 186.264 17.7856
   8  -2 -10 42.8545 8.13586
  -8   2  10 72.1821 19.7163
   7  -2 -10 312.548 29.9896
  -7   2  10 291.893 26.2769
   6  -2 -10 23.3668 7.81486
  -6   2  10 38.7149 8.68154
   5  -2 -10 40.4677 5.12794
  -5   2  10 27.1580 4.58256
   4  -2 -10 227.605 25.8189
  -4   2  10 227.130 25.9850
   3  -2 -10 332.295 21.4014
  -3   2  10 340.875 24.8051
   2  -2 -10 261.331 20.9203
  -2   2  10 264.666 25.6437
   1  -2 -10 400.432 24.0633
  -1   2  10 401.296 23.6261
   0  -2 -10 99.1359 6.92423
   0   2  10 89.8263 8.16332
  -1  -2 -10 85.2681 6.90673
   1   2  10 111.645 8.91202
  -2  -2 -10 290.098 19.3006
   2   2  10 259.741 31.5234
  -3  -2 -10 175.844 13.4202
   3   2  10 185.892 17.0712
  -4  -2 -10 125.691 13.3222
   4   2  10 143.185 16.3014
  -5  -2 -10 45.2337 3.92333
   5   2  10 47.0490 3.99143
  -6  -2 -10 79.9504 7.98632
   6   2  10 73.7841 9.10143
  -7  -2 -10 27.6642 3.13176
   7   2  10 25.3954 3.59080
  -8  -2 -10 17.3270 6.13302
   8   2  10 23.1524 8.83146
  -9  -2 -10 0.10338 1.21991
   9   2  10 1.42118 2.13424
  11  -3 -10 5.45143 2.63138
 -11   3  10 6.06403 3.81920
  10  -3 -10 193.806 27.7987
 -10   3  10 216.924 38.8484
   9  -3 -10 87.2503 8.05319
  -9   3  10 104.845 10.2914
   8  -3 -10 51.5885 10.8913
  -8   3  10 67.9666 21.1474
   7  -3 -10 313.031 23.2745
  -7   3  10 295.662 30.1488
   6  -3 -10 220.347 20.2662
  -6   3  10 185.200 23.9213
   5  -3 -10 121.394 9.80453
  -5   3  10 106.606 9.49439
   4  -3 -10 56.1629 11.9886
  -4   3  10 43.0644 13.7762
   3  -3 -10 93.8240 7.50934
  -3   3  10 113.341 7.64232
   2  -3 -10 204.721 15.6417
  -2   3  10 185.929 21.7437
   1  -3 -10 216.534 11.7545
  -1   3  10 214.374 14.0162
   0  -3 -10 92.8096 6.21290
   0   3  10 82.7250 7.60355
  -1  -3 -10 152.882 8.82257
   1   3  10 132.668 10.7230
  -2  -3 -10 654.019 42.7516
   2   3  10 651.950 64.6783
  -3  -3 -10 90.9689 6.52049
   3   3  10 92.4288 9.91172
  -4  -3 -10 212.176 18.9127
   4   3  10 171.636 23.1007
  -5  -3 -10 3.73405 2.74334
   5   3  10 7.77591 2.20040
  -6  -3 -10 146.064 12.1195
   6   3  10 114.203 12.3379
  -7  -3 -10 26.4550 2.38047
   7   3  10 17.7716 3.61115
  -8  -3 -10 52.0350 8.13191
   8   3  10 25.1102 9.86854
  -9  -3 -10 44.0112 3.80378
   9   3  10 38.8030 4.92064
  11  -4 -10 80.3080 9.13637
 -11   4  10 87.0638 10.9068
  10  -4 -10 7.00978 5.76685
   9  -4 -10 187.513 14.9626
  -9   4  10 199.046 27.8187
   8  -4 -10 38.6915 8.46118
  -8   4  10 12.4752 25.6079
   7  -4 -10 6.58104 1.75255
  -7   4  10 4.12775 4.44933
   6  -4 -10 104.569 13.8052
  -6   4  10 52.5784 16.1196
   5  -4 -10 163.675 12.2663
  -5   4  10 148.390 12.0648
   4  -4 -10 182.039 13.0622
  -4   4  10 172.052 18.1205
   3  -4 -10 58.5587 5.75548
  -3   4  10 84.8632 5.99370
   2  -4 -10 289.096 21.0023
  -2   4  10 252.076 32.1990
   1  -4 -10 202.277 10.2197
  -1   4  10 171.999 11.4832
   0  -4 -10 123.510 7.97509
   0   4  10 113.680 11.0012
  -1  -4 -10 25.3169 3.11500
   1   4  10 19.5016 3.16681
  -2  -4 -10 89.1197 9.73712
   2   4  10 78.7582 17.8023
  -3  -4 -10 339.493 17.8141
   3   4  10 341.046 30.1838
  -4  -4 -10 64.2532 8.83987
   4   4  10 60.0505 7.29407
  -5  -4 -10 59.7744 4.11536
   5   4  10 58.2143 5.42144
  -6  -4 -10 114.032 14.8293
   6   4  10 80.0609 15.0520
  -7  -4 -10 27.7803 2.48914
   7   4  10 23.9921 4.95305
  -8  -4 -10 3.56698 4.32949
   8   4  10 0.00000 5.97040
  11  -5 -10 31.2154 3.26916
 -11   5  10 36.9446 7.28472
  10  -5 -10 137.308 26.9931
   9  -5 -10 189.862 15.1434
  -9   5  10 191.206 28.2036
   8  -5 -10 472.207 61.6211
   7  -5 -10 59.8321 4.41513
  -7   5  10 49.1570 10.5395
   6  -5 -10 392.007 31.8455
  -6   5  10 301.742 40.1623
   5  -5 -10 202.005 14.2054
  -5   5  10 168.210 14.0622
   4  -5 -10 172.834 12.5214
  -4   5  10 178.760 17.3613
   3  -5 -10 316.434 20.5215
  -3   5  10 308.583 20.4587
   2  -5 -10 110.294 8.16536
  -2   5  10 102.404 14.3173
   1  -5 -10 6.60016 2.28298
  -1   5  10 14.0265 2.59626
   0  -5 -10 483.226 30.2961
   0   5  10 459.627 44.0838
  -1  -5 -10 494.677 26.0110
   1   5  10 490.909 34.9769
  -2  -5 -10 49.5010 6.21133
   2   5  10 23.0406 12.9110
  -3  -5 -10 318.060 17.8869
   3   5  10 326.413 29.1781
  -4  -5 -10 114.967 10.4382
   4   5  10 98.3590 14.6284
  -5  -5 -10 112.175 6.71504
   5   5  10 133.834 11.1427
  -6  -5 -10 53.6268 5.43298
   6   5  10 55.1723 12.0647
  -7  -5 -10 192.243 9.71095
   7   5  10 165.508 17.8378
  -8  -5 -10 69.5889 9.71961
   8   5  10 53.1188 11.3948
  11  -6 -10 16.9658 2.24433
 -11   6  10 19.8499 5.36187
  10  -6 -10 53.0568 10.1065
   9  -6 -10 36.2038 3.73429
  -9   6  10 37.9985 7.75107
   8  -6 -10 73.5194 8.41523
  -8   6  10 24.7038 30.9920
   7  -6 -10 19.0769 2.37902
  -7   6  10 21.9406 8.53262
   6  -6 -10 172.732 25.4274
  -6   6  10 120.277 27.4328
   5  -6 -10 199.989 12.0608
  -5   6  10 205.867 15.7392
   4  -6 -10 12.4288 4.41181
  -4   6  10 21.3469 7.91147
   3  -6 -10 153.239 8.46760
  -3   6  10 131.400 9.26800
   2  -6 -10 119.756 7.37795
  -2   6  10 98.3813 14.5931
   1  -6 -10 49.7166 3.52537
  -1   6  10 39.6354 4.09869
   0  -6 -10 131.826 8.71637
   0   6  10 116.149 12.6903
  -1  -6 -10 481.359 24.4889
   1   6  10 459.042 32.9182
  -2  -6 -10 390.956 30.9229
   2   6  10 414.252 62.0208
  -3  -6 -10 138.046 9.00286
   3   6  10 133.808 16.6143
  -4  -6 -10 167.353 13.4715
   4   6  10 174.940 25.4295
  -5  -6 -10 2.68355 1.97247
   5   6  10 4.68425 3.55159
  -6  -6 -10 27.1596 4.52025
   6   6  10 21.9077 9.41158
  -7  -6 -10 115.993 6.99340
   7   6  10 120.777 15.0738
  -8  -6 -10 13.9857 3.53561
   8   6  10 5.37495 6.21157
  11  -7 -10 28.0990 3.30591
 -11   7  10 29.9643 6.61887
  10  -7 -10 4.48580 3.50812
   9  -7 -10 17.1818 2.38892
  -9   7  10 10.3079 14.8440
   8  -7 -10 14.2404 4.94014
  -8   7  10 25.6022 24.7319
   7  -7 -10 10.1957 1.70855
  -7   7  10 10.0128 8.38671
   6  -7 -10 427.196 27.1302
  -6   7  10 283.591 98.5457
   5  -7 -10 202.032 12.7727
  -5   7  10 193.862 14.6309
   4  -7 -10 119.690 9.49496
  -4   7  10 96.8955 14.9821
   3  -7 -10 205.094 9.80770
  -3   7  10 200.077 12.0633
   2  -7 -10 65.1794 4.36252
  -2   7  10 58.6344 9.29099
   1  -7 -10 211.193 10.8700
  -1   7  10 209.604 13.3851
   0  -7 -10 42.7164 4.04683
   0   7  10 38.2753 5.77451
  -1  -7 -10 841.793 43.1655
   1   7  10 836.237 58.0911
  -2  -7 -10 40.3713 5.72247
   2   7  10 34.3261 8.78839
  -3  -7 -10 107.137 5.69514
   3   7  10 113.553 10.8235
  -4  -7 -10 22.7629 5.02031
   4   7  10 31.2141 8.79256
  -5  -7 -10 42.6932 3.65097
   5   7  10 57.3077 6.02847
  -6  -7 -10 58.3808 5.34684
   6   7  10 54.7369 12.2166
  -7  -7 -10 42.9324 3.41086
   7   7  10 36.3032 8.18724
  -8  -7 -10 17.0558 3.98229
  10  -8 -10 22.4400 5.90620
   9  -8 -10 90.5489 8.81302
  -9   8  10 59.5148 30.3786
   8  -8 -10 33.4357 5.31240
  -8   8  10 23.9688 25.5001
   7  -8 -10 115.160 6.26521
  -7   8  10 73.9959 12.8530
   6  -8 -10 148.364 12.6791
  -6   8  10 61.3824 31.7646
   5  -8 -10 113.760 6.19439
  -5   8  10 102.572 8.27270
   4  -8 -10 376.606 26.9059
  -4   8  10 365.320 42.8867
   3  -8 -10 201.747 9.58367
  -3   8  10 191.470 11.7386
   2  -8 -10 104.298 6.18244
  -2   8  10 97.9725 10.1442
   1  -8 -10 1275.70 56.5462
  -1   8  10 1213.18 75.7727
   0  -8 -10 77.8668 6.08378
   0   8  10 79.7058 9.85611
  -1  -8 -10 219.879 11.8392
   1   8  10 201.944 15.6883
  -2  -8 -10 11.6065 6.62409
   2   8  10 31.5352 9.64180
  -3  -8 -10 124.634 7.43790
   3   8  10 126.061 13.7458
  -4  -8 -10 63.3272 6.72676
   4   8  10 71.2748 14.0812
  -5  -8 -10 30.6756 2.86704
   5   8  10 28.0000 4.74492
  -6  -8 -10 55.3978 5.84841
   6   8  10 70.8627 12.3326
  -7  -8 -10 8.13528 1.61984
   7   8  10 1.89713 7.11155
  -8  -8 -10 6.92976 2.96248
  10  -9 -10 80.6263 14.4415
   9  -9 -10 0.63425 1.39236
   8  -9 -10 86.5082 7.51340
  -8   9  10 59.4360 34.2159
   7  -9 -10 18.5568 1.86694
  -7   9  10 9.95776 7.01862
   6  -9 -10 70.8076 5.84977
  -6   9  10 25.5031 18.6337
   5  -9 -10 26.0790 2.53901
  -5   9  10 18.5582 5.63091
   4  -9 -10 410.183 23.5174
  -4   9  10 325.008 37.5670
   3  -9 -10 174.278 8.57804
  -3   9  10 182.326 10.6541
   2  -9 -10 285.196 19.4486
  -2   9  10 285.276 34.4174
   1  -9 -10 186.519 8.53858
  -1   9  10 172.424 11.1864
   0  -9 -10 460.514 29.1752
   0   9  10 383.670 45.9095
  -1  -9 -10 166.452 9.94607
   1   9  10 184.455 13.2998
  -2  -9 -10 154.447 10.1680
   2   9  10 155.162 20.1008
  -3  -9 -10 120.236 7.12913
   3   9  10 111.897 13.1862
  -4  -9 -10 125.872 10.1002
   4   9  10 154.755 21.6530
  -5  -9 -10 21.0054 2.49471
   5   9  10 21.2126 4.26322
  -6  -9 -10 5.65906 4.28687
  -7  -9 -10 3.15980 1.46534
  10 -10 -10 14.0126 3.75683
   9 -10 -10 15.8498 1.77151
   8 -10 -10 86.4277 6.03273
   7 -10 -10 192.846 11.1724
  -7  10  10 152.930 24.1598
   6 -10 -10 112.455 7.93400
  -6  10  10 64.2455 23.9659
   5 -10 -10 152.507 7.80290
  -5  10  10 124.020 13.9943
   4 -10 -10 238.777 14.6278
  -4  10  10 182.687 45.2283
   3 -10 -10 112.515 4.93323
  -3  10  10 107.679 7.58321
   2 -10 -10 535.708 36.2011
  -2  10  10 637.190 57.8362
   1 -10 -10 31.6076 3.04447
  -1  10  10 38.3191 3.93227
   0 -10 -10 120.301 8.03795
   0  10  10 106.733 13.9758
  -1 -10 -10 20.9091 2.12646
   1  10  10 21.2264 4.13256
  -2 -10 -10 7.44334 6.83162
   2  10  10 18.3630 9.36587
  -3 -10 -10 70.2283 5.28631
   3  10  10 82.8166 9.16124
  -4 -10 -10 16.5388 4.78086
   4  10  10 17.7114 8.89920
  -5 -10 -10 18.8341 2.43371
   5  10  10 23.1430 4.26122
  -6 -10 -10 28.6331 5.89023
  -7 -10 -10 2.43595 1.82224
   9 -11 -10 45.2985 4.28055
   8 -11 -10 74.3669 9.53593
   7 -11 -10 43.0706 2.91313
  -7  11  10 12.2299 8.05797
   6 -11 -10 106.512 7.92183
  -6  11  10 31.5494 23.8894
   5 -11 -10 42.1208 2.81787
  -5  11  10 29.3026 6.48500
   4 -11 -10 242.772 18.9119
  -4  11  10 208.368 68.7112
   3 -11 -10 176.065 8.33815
  -3  11  10 175.048 14.9353
   2 -11 -10 88.3696 5.83937
  -2  11  10 85.3252 20.5254
   1 -11 -10 340.663 14.8851
  -1  11  10 326.093 31.6504
   0 -11 -10 182.644 10.4186
   0  11  10 184.261 30.7753
  -1 -11 -10 12.0645 1.79729
   1  11  10 19.9433 5.88007
  -2 -11 -10 230.696 18.1265
   2  11  10 208.512 35.3512
  -3 -11 -10 26.6588 2.88125
   3  11  10 31.9962 5.31336
  -4 -11 -10 69.6069 6.09039
   4  11  10 90.0433 16.8069
  -5 -11 -10 4.19409 2.11547
   5  11  10 6.59624 11.7827
  -6 -11 -10 19.3289 7.14553
  -7 -11 -10 13.5399 2.08440
   9 -12 -10 8.46030 1.33409
   8 -12 -10 51.2456 5.83484
   7 -12 -10 13.6266 1.54146
  -7  12  10 6.81464 7.47415
   6 -12 -10 46.0321 6.12098
  -6  12  10 9.66334 22.6084
   5 -12 -10 70.9297 3.91793
  -5  12  10 56.4096 7.99315
   4 -12 -10 14.0029 3.76675
  -4  12  10 0.00000 14.9049
   3 -12 -10 452.628 20.6780
  -3  12  10 437.985 34.8272
   2 -12 -10 463.168 23.5192
  -2  12  10 391.950 73.3791
   1 -12 -10 475.101 20.3457
  -1  12  10 449.349 42.7618
   0 -12 -10 147.924 8.61380
   0  12  10 157.537 25.7533
  -1 -12 -10 166.283 8.50433
   1  12  10 167.902 17.5940
  -2 -12 -10 65.7452 5.76066
   2  12  10 89.9776 11.9445
  -3 -12 -10 25.3800 2.47078
   3  12  10 22.5200 5.00238
  -4 -12 -10 19.8850 3.09505
   4  12  10 17.7640 9.41849
  -5 -12 -10 9.40669 2.34234
  -6 -12 -10 29.3662 7.47529
   8 -13 -10 49.1220 5.65552
   7 -13 -10 18.5216 1.86365
   6 -13 -10 54.5394 6.44607
   5 -13 -10 29.0777 2.32796
  -5  13  10 13.4433 6.22131
   4 -13 -10 30.6397 4.29505
  -4  13  10 27.1704 16.2021
   3 -13 -10 62.6257 3.52482
  -3  13  10 52.6329 7.51926
   2 -13 -10 38.0397 4.88174
  -2  13  10 35.7864 16.0112
   1 -13 -10 83.5848 4.45196
  -1  13  10 97.9688 10.8827
   0 -13 -10 4.35218 2.67458
   0  13  10 0.00000 22.1391
  -1 -13 -10 133.431 7.17483
   1  13  10 153.886 14.9575
  -2 -13 -10 40.3948 4.57176
   2  13  10 64.4684 12.3046
  -3 -13 -10 40.4572 3.27378
   3  13  10 48.9712 9.88409
  -4 -13 -10 10.2638 3.32294
  -5 -13 -10 42.4783 4.48156
  -6 -13 -10 6.41040 4.42295
   8 -14 -10 12.3074 2.50969
   7 -14 -10 37.7841 3.00589
   6 -14 -10 30.6524 5.05053
   5 -14 -10 42.8822 3.15665
  -5  14  10 23.2372 6.74688
   4 -14 -10 80.1415 7.11774
  -4  14  10 59.7732 16.8592
   3 -14 -10 113.989 5.69377
  -3  14  10 100.705 11.3539
   2 -14 -10 7.70424 3.39466
  -2  14  10 0.00000 14.5988
   1 -14 -10 383.997 17.4869
  -1  14  10 372.094 53.5675
   0 -14 -10 12.3915 2.34487
   0  14  10 17.0760 9.00898
  -1 -14 -10 48.9429 3.58669
   1  14  10 54.5333 7.20482
  -2 -14 -10 34.1922 5.15396
  -3 -14 -10 7.36479 1.67120
  -4 -14 -10 26.2613 6.60392
  -5 -14 -10 3.96939 2.75038
   7 -15 -10 1.39530 0.89314
   6 -15 -10 30.0889 4.62223
   5 -15 -10 184.104 15.2742
   4 -15 -10 21.6977 3.57545
   3 -15 -10 53.2386 3.27748
  -3  15  10 40.6681 7.40324
   2 -15 -10 134.512 11.5861
  -2  15  10 100.905 35.2353
   1 -15 -10 237.135 11.1777
  -1  15  10 233.516 25.3179
   0 -15 -10 1.88178 1.85997
   0  15  10 4.15516 5.13207
  -1 -15 -10 371.563 21.6106
   1  15  10 410.318 61.8385
  -2 -15 -10 44.7420 6.55766
  -3 -15 -10 0.48157 1.35642
  -4 -15 -10 34.2297 8.73834
   6 -16 -10 29.5829 4.85670
   5 -16 -10 3.27590 1.51316
   4 -16 -10 49.4463 6.95490
   3 -16 -10 329.830 23.3363
   2 -16 -10 84.4279 9.62581
   1 -16 -10 63.4336 4.73472
   0 -16 -10 55.8883 10.5967
  -1 -16 -10 195.309 14.8479
  -2 -16 -10 73.5442 10.1129
  -3 -16 -10 19.7750 2.17708
   5 -17 -10 73.4891 4.91194
   4 -17 -10 157.278 18.7078
   3 -17 -10 47.0203 3.25882
   2 -17 -10 32.9402 5.62670
   1 -17 -10 157.053 12.1296
  -1  17  10 148.359 25.4480
   0 -17 -10 121.494 18.3261
  -1 -17 -10 166.056 13.9603
  -2 -17 -10 16.5120 3.67953
   3 -18 -10 78.6127 5.67756
   2 -18 -10 26.4870 4.33261
   1 -18 -10 11.9811 1.53033
   0 -18 -10 36.8386 5.83448
 -11   0  11 2.08439 3.48720
  -9   0  11 30.7234 5.57174
  -8   0  11 297.119 42.4482
  -7   0  11 80.1490 8.20980
  -6   0  11 9.32025 6.01797
  -5   0  11 237.282 15.2265
  -4   0  11 356.906 32.5611
  -3   0  11 48.9544 6.99289
  -2   0  11 0.00000 8.34800
  -1   0  11 0.00000 4.15600
   0   0  11 56.2214 8.16652
   1   0  11 8.64948 4.45033
   2   0  11 130.833 32.8473
   3   0  11 314.609 25.4004
   4   0  11 76.8189 8.46668
   5   0  11 3.02563 1.95780
   6   0  11 280.622 28.9788
   7   0  11 1.51970 1.62622
   8   0  11 58.3299 8.62267
  11  -1 -11 27.9492 5.03184
 -11   1  11 30.6125 5.10865
   9  -1 -11 19.1220 5.00381
  -9   1  11 18.1599 4.97835
   8  -1 -11 3.86004 17.5125
  -8   1  11 6.39851 17.3370
   7  -1 -11 72.1303 6.47534
  -7   1  11 71.0824 7.22963
   6  -1 -11 474.940 42.3066
  -6   1  11 439.666 41.3260
   5  -1 -11 25.6913 5.13967
  -5   1  11 41.7375 4.99149
   4  -1 -11 16.6593 7.18024
  -4   1  11 2.99126 6.44310
   3  -1 -11 118.401 9.40128
  -3   1  11 110.315 9.32082
   2  -1 -11 230.165 31.6811
  -2   1  11 221.144 31.6560
   1  -1 -11 7.55242 4.44079
  -1   1  11 1.75770 4.31201
   0  -1 -11 99.9456 10.5645
   0   1  11 119.468 11.8989
  -1  -1 -11 204.419 18.7652
   1   1  11 189.631 22.0713
  -2  -1 -11 22.8332 7.64939
   2   1  11 22.5981 10.6547
  -3  -1 -11 152.816 11.9223
   3   1  11 170.279 14.2348
  -4  -1 -11 65.1219 10.1845
   4   1  11 53.4142 7.50581
  -5  -1 -11 47.6718 4.36621
   5   1  11 48.9090 4.36901
  -6  -1 -11 33.4972 5.31648
   6   1  11 36.1416 6.43817
  -7  -1 -11 67.2969 5.58809
   7   1  11 64.4962 5.56945
  -8  -1 -11 26.5654 4.74421
   8   1  11 0.00000 7.63116
  11  -2 -11 25.4118 4.61635
 -11   2  11 24.9809 4.73575
   9  -2 -11 259.066 25.0393
  -9   2  11 254.526 24.8584
   8  -2 -11 327.528 39.0053
  -8   2  11 305.225 49.8466
   7  -2 -11 11.7584 2.05786
  -7   2  11 4.04127 3.59901
   6  -2 -11 1.44237 6.86547
  -6   2  11 16.9815 7.00446
   5  -2 -11 58.1494 6.31854
  -5   2  11 44.5386 5.89138
   4  -2 -11 438.267 31.6380
  -4   2  11 434.240 38.5512
   3  -2 -11 292.995 21.4661
  -3   2  11 293.884 21.6542
   2  -2 -11 165.286 15.9176
  -2   2  11 125.548 18.8575
   1  -2 -11 46.9526 4.50334
  -1   2  11 37.1551 5.11666
   0  -2 -11 119.059 9.06423
   0   2  11 111.131 10.6961
  -1  -2 -11 76.0590 8.16094
   1   2  11 91.8893 11.1627
  -2  -2 -11 258.360 28.1163
   2   2  11 274.796 34.9788
  -3  -2 -11 75.0099 7.23751
   3   2  11 74.5303 7.66817
  -4  -2 -11 118.924 9.50597
   4   2  11 109.539 10.4840
  -5  -2 -11 36.1523 3.23025
   5   2  11 29.8874 4.14776
  -6  -2 -11 63.2308 7.31092
   6   2  11 39.8904 8.52998
  -7  -2 -11 20.9885 2.59972
   7   2  11 13.4474 5.47189
  -8  -2 -11 30.1110 4.72061
   8   2  11 6.89055 5.75377
  11  -3 -11 56.8150 8.21491
 -11   3  11 65.5027 8.40159
   9  -3 -11 80.2579 7.89469
  -9   3  11 82.1471 10.5278
   8  -3 -11 122.115 17.6452
  -8   3  11 84.4958 37.9964
   7  -3 -11 114.458 10.4513
  -7   3  11 105.965 12.6038
   6  -3 -11 26.7132 11.4230
  -6   3  11 33.4900 10.8128
   5  -3 -11 89.6265 8.88568
  -5   3  11 110.459 8.85917
   4  -3 -11 129.644 12.6040
  -4   3  11 112.859 14.6700
   3  -3 -11 9.01763 3.40754
  -3   3  11 12.6103 3.77192
   2  -3 -11 446.293 39.0139
  -2   3  11 423.267 50.2366
   1  -3 -11 23.8605 3.74003
  -1   3  11 21.8775 4.17172
   0  -3 -11 144.851 10.0781
   0   3  11 133.777 13.8426
  -1  -3 -11 158.453 11.1223
   1   3  11 153.198 15.1211
  -2  -3 -11 147.312 14.6132
   2   3  11 151.494 23.8022
  -3  -3 -11 190.572 12.1585
   3   3  11 187.875 11.8148
  -4  -3 -11 70.0040 8.59897
   4   3  11 58.0067 9.05674
  -5  -3 -11 43.4145 3.66902
   5   3  11 42.6570 4.29513
  -6  -3 -11 2.52385 4.52326
   6   3  11 6.65001 2.70884
  -7  -3 -11 30.5624 3.23063
   7   3  11 24.5849 6.60550
  -8  -3 -11 22.8268 5.43152
   8   3  11 6.11729 6.93794
  11  -4 -11 10.3133 3.26730
 -11   4  11 11.1111 4.81329
  10  -4 -11 24.5670 3.88835
   9  -4 -11 62.7783 6.34992
  -9   4  11 70.9714 11.0196
   8  -4 -11 50.7755 8.94500
  -8   4  11 36.8448 26.9424
   7  -4 -11 7.34302 1.61497
  -7   4  11 7.72201 5.45143
   6  -4 -11 0.59714 4.26158
  -6   4  11 0.00000 23.9451
   5  -4 -11 26.0947 4.80711
  -5   4  11 12.0964 4.13940
   4  -4 -11 519.087 39.3694
  -4   4  11 435.832 47.8666
   3  -4 -11 73.4969 6.03421
  -3   4  11 66.8304 6.06253
   2  -4 -11 164.038 11.9578
  -2   4  11 137.706 16.3636
   1  -4 -11 161.573 8.51462
  -1   4  11 120.092 9.60237
   0  -4 -11 75.3478 6.31667
   0   4  11 79.6153 8.98518
  -1  -4 -11 416.607 24.9321
   1   4  11 399.109 31.7723
  -2  -4 -11 21.2600 5.79269
   2   4  11 30.9584 7.34903
  -3  -4 -11 58.6569 4.32035
   3   4  11 41.8425 4.68251
  -4  -4 -11 53.4255 6.19947
   4   4  11 45.7130 11.8034
  -5  -4 -11 138.204 9.02695
   5   4  11 135.224 12.3622
  -6  -4 -11 32.4346 5.20273
   6   4  11 29.4148 8.44506
  -7  -4 -11 204.510 17.0419
   7   4  11 164.794 31.7973
  -8  -4 -11 8.69349 3.56225
   8   4  11 10.1181 5.12139
  11  -5 -11 57.6867 6.45434
 -11   5  11 57.3629 10.3733
  10  -5 -11 71.1131 10.3168
   9  -5 -11 106.106 9.94426
  -9   5  11 89.4904 16.3097
   8  -5 -11 33.8804 6.75762
  -8   5  11 0.00000 25.5103
   7  -5 -11 38.2194 3.36058
  -7   5  11 57.4806 9.65019
   6  -5 -11 22.8140 4.56242
  -6   5  11 28.1875 25.0435
   5  -5 -11 44.1007 6.29673
  -5   5  11 55.1508 6.12577
   4  -5 -11 86.8571 9.20566
  -4   5  11 57.8524 12.2324
   3  -5 -11 530.125 34.5671
  -3   5  11 552.446 34.4997
   2  -5 -11 115.935 9.27371
  -2   5  11 106.128 12.6126
   1  -5 -11 481.689 24.1071
  -1   5  11 478.896 28.0430
   0  -5 -11 353.908 22.2796
   0   5  11 336.741 32.4779
  -1  -5 -11 45.4236 4.53128
   1   5  11 49.4899 5.44912
  -2  -5 -11 86.7170 9.30950
   2   5  11 117.697 13.8716
  -3  -5 -11 95.1159 6.88248
   3   5  11 111.011 9.94353
  -4  -5 -11 4.23241 4.64710
   4   5  11 2.83301 8.40608
  -5  -5 -11 156.207 8.64713
   5   5  11 167.362 14.1505
  -6  -5 -11 82.8586 7.46314
   6   5  11 81.3726 11.4029
  -7  -5 -11 30.8076 2.70916
   7   5  11 23.0796 6.39038
  -8  -5 -11 69.5224 8.50706
   8   5  11 49.1922 9.84956
  10  -6 -11 10.3718 9.95697
   9  -6 -11 14.2999 2.29807
  -9   6  11 19.4959 5.89275
   8  -6 -11 71.8782 12.8467
  -8   6  11 43.5373 31.3918
   7  -6 -11 256.090 16.9800
  -7   6  11 265.483 31.6649
   6  -6 -11 89.9283 10.2274
  -6   6  11 73.2011 37.2944
   5  -6 -11 45.8964 3.28237
  -5   6  11 61.2127 5.96340
   4  -6 -11 121.264 10.2365
  -4   6  11 117.252 14.0376
   3  -6 -11 379.922 23.1646
  -3   6  11 340.775 23.0617
   2  -6 -11 462.835 30.3575
  -2   6  11 403.581 46.9447
   1  -6 -11 1036.68 49.8599
  -1   6  11 1016.24 58.0081
   0  -6 -11 30.5054 3.70308
   0   6  11 32.2249 5.30421
  -1  -6 -11 88.4770 6.43412
   1   6  11 110.887 9.02446
  -2  -6 -11 186.945 14.6881
   2   6  11 146.747 20.8304
  -3  -6 -11 465.442 27.1890
   3   6  11 445.715 45.6524
  -4  -6 -11 43.8368 5.89392
   4   6  11 51.2519 11.3890
  -5  -6 -11 66.5441 4.45399
   5   6  11 72.9541 7.56683
  -6  -6 -11 28.9024 5.64223
   6   6  11 22.1046 8.48301
  -7  -6 -11 78.3139 4.87251
   7   6  11 40.8253 12.3372
  10  -7 -11 11.4638 2.02031
   9  -7 -11 23.4477 2.79035
   8  -7 -11 16.9084 7.09097
  -8   7  11 2.04660 25.5789
   7  -7 -11 117.767 8.57842
  -7   7  11 120.335 16.8047
   6  -7 -11 22.5308 4.78217
  -6   7  11 27.2828 25.9569
   5  -7 -11 75.9141 4.25996
  -5   7  11 81.1262 8.62614
   4  -7 -11 39.1334 9.39212
  -4   7  11 32.1106 10.2867
   3  -7 -11 180.694 14.7956
  -3   7  11 227.896 14.1818
   2  -7 -11 50.1970 4.85714
  -2   7  11 39.7718 6.96721
   1  -7 -11 106.995 6.31405
  -1   7  11 107.352 7.12110
   0  -7 -11 284.677 18.5539
   0   7  11 253.892 26.1065
  -1  -7 -11 160.596 9.16208
   1   7  11 148.287 13.3997
  -2  -7 -11 168.732 11.4410
   2   7  11 165.173 24.6710
  -3  -7 -11 13.3286 2.71118
   3   7  11 14.7843 4.19285
  -4  -7 -11 29.8053 5.30589
   4   7  11 23.0339 9.94186
  -5  -7 -11 24.4169 2.49388
   5   7  11 20.1215 4.34372
  -6  -7 -11 47.5373 7.69940
   6   7  11 33.9675 11.6239
  -7  -7 -11 14.9083 1.50341
   7   7  11 12.8271 4.70468
  10  -8 -11 52.8118 7.71679
   9  -8 -11 111.203 10.5335
   8  -8 -11 53.0986 4.97320
  -8   8  11 24.1482 25.8835
   7  -8 -11 128.334 8.14282
  -7   8  11 99.9633 14.8695
   6  -8 -11 94.6483 8.30091
  -6   8  11 57.3228 35.7224
   5  -8 -11 7.52053 1.41015
  -5   8  11 4.52760 6.77033
   4  -8 -11 1.54856 2.84799
  -4   8  11 0.00000 21.9459
   3  -8 -11 94.4593 4.83637
  -3   8  11 121.302 7.81228
   2  -8 -11 168.797 9.59874
  -2   8  11 155.412 14.4091
   1  -8 -11 39.4948 3.65344
  -1   8  11 33.2095 4.15256
   0  -8 -11 47.5509 4.12708
   0   8  11 33.4452 6.62463
  -1  -8 -11 116.208 5.88683
   1   8  11 127.778 9.83771
  -2  -8 -11 31.6603 4.70687
   2   8  11 31.2820 10.9100
  -3  -8 -11 69.5658 5.27927
   3   8  11 79.5446 9.05048
  -4  -8 -11 5.70029 4.57355
   4   8  11 5.76619 8.51605
  -5  -8 -11 20.7131 2.40242
   5   8  11 26.2948 4.28304
  -6  -8 -11 65.0292 10.0256
   6   8  11 56.0197 13.2466
  -7  -8 -11 5.88570 1.17100
   7   8  11 4.62143 3.90370
  10  -9 -11 51.1099 7.45772
   9  -9 -11 8.04413 1.53365
   8  -9 -11 190.599 20.0607
   7  -9 -11 40.8689 3.25036
  -7   9  11 37.9433 8.56477
   6  -9 -11 0.09125 3.25600
  -6   9  11 3.20571 24.0620
   5  -9 -11 104.724 5.43558
  -5   9  11 107.242 11.4670
   4  -9 -11 15.5325 3.37961
  -4   9  11 10.4610 24.3677
   3  -9 -11 292.404 12.1321
  -3   9  11 301.181 24.9582
   2  -9 -11 63.3953 5.21274
  -2   9  11 48.8073 29.6480
   1  -9 -11 100.194 4.79462
  -1   9  11 81.1245 8.37298
   0  -9 -11 32.0954 3.06695
   0   9  11 27.2772 8.32250
  -1  -9 -11 651.082 30.9285
   1   9  11 647.247 63.9690
  -2  -9 -11 32.2345 4.00087
   2   9  11 37.2201 9.66083
  -3  -9 -11 52.7351 4.38343
   3   9  11 61.0824 7.58359
  -4  -9 -11 59.8415 6.28132
   4   9  11 58.4541 12.8674
  -5  -9 -11 15.2943 2.13677
   5   9  11 18.5437 4.10740
  -6  -9 -11 7.18345 3.96989
   6   9  11 0.00000 5.94897
  -7  -9 -11 64.3501 6.18785
   9 -10 -11 29.4367 4.20269
   8 -10 -11 18.5810 4.13632
   7 -10 -11 44.3401 3.37547
  -7  10  11 23.7247 8.53814
   6 -10 -11 36.6850 4.41696
  -6  10  11 39.2919 26.9665
   5 -10 -11 21.7674 1.88427
  -5  10  11 27.5946 6.60753
   4 -10 -11 31.8521 3.58259
  -4  10  11 25.0789 25.3654
   3 -10 -11 140.692 6.54517
  -3  10  11 142.405 14.0477
   2 -10 -11 243.149 11.6173
  -2  10  11 251.097 58.8629
   1 -10 -11 200.784 9.46094
  -1  10  11 222.694 23.5949
   0 -10 -11 73.6699 5.42430
   0  10  11 85.6152 15.4500
  -1 -10 -11 170.388 8.48467
   1  10  11 157.024 17.7034
  -2 -10 -11 118.592 8.24241
   2  10  11 119.797 20.0017
  -3 -10 -11 37.1057 3.08530
   3  10  11 40.0693 5.90968
  -4 -10 -11 125.712 12.7794
   4  10  11 155.386 24.1695
  -5 -10 -11 11.7613 2.36855
   5  10  11 10.1098 5.05247
  -6 -10 -11 65.1322 11.2813
   9 -11 -11 21.6750 2.23032
   8 -11 -11 109.291 11.0757
   7 -11 -11 1.58808 1.06004
  -7  11  11 0.00000 7.84655
   6 -11 -11 93.7203 7.75140
  -6  11  11 56.0113 35.4522
   5 -11 -11 27.3170 2.15843
  -5  11  11 31.5375 6.08766
   4 -11 -11 71.7004 4.69343
  -4  11  11 61.0807 30.1951
   3 -11 -11 35.3841 2.39081
  -3  11  11 36.4589 6.53499
   2 -11 -11 315.172 15.6882
  -2  11  11 354.531 81.7149
   1 -11 -11 231.471 11.8970
  -1  11  11 295.265 32.0691
   0 -11 -11 236.998 14.3222
   0  11  11 230.481 37.9189
  -1 -11 -11 20.1566 2.04213
   1  11  11 17.0195 4.78102
  -2 -11 -11 26.4876 3.72798
   2  11  11 34.5350 9.68135
  -3 -11 -11 5.13405 1.51985
   3  11  11 5.83128 3.91455
  -4 -11 -11 88.3116 11.6345
  -5 -11 -11 1.10472 1.86253
   5  11  11 7.13230 7.87963
  -6 -11 -11 21.4306 4.67013
   8 -12 -11 8.38914 2.34548
   7 -12 -11 26.1194 2.21424
   6 -12 -11 39.6281 4.80410
   5 -12 -11 7.59057 1.25581
  -5  12  11 4.02846 5.49423
   4 -12 -11 40.0775 3.73813
  -4  12  11 24.8236 16.9812
   3 -12 -11 112.801 5.39114
  -3  12  11 99.9280 10.7777
   2 -12 -11 55.6610 4.20123
  -2  12  11 77.7752 28.2010
   1 -12 -11 27.2076 2.23814
  -1  12  11 42.3280 8.35949
   0 -12 -11 69.9888 5.36647
   0  12  11 52.2150 26.7499
  -1 -12 -11 7.78115 1.57082
   1  12  11 14.9544 4.43280
  -2 -12 -11 61.5690 5.46358
   2  12  11 59.9886 13.8887
  -3 -12 -11 3.93630 1.41599
   3  12  11 5.52958 3.95807
  -4 -12 -11 10.2489 4.60499
  -5 -12 -11 39.9768 4.26792
   8 -13 -11 20.3039 3.09855
   7 -13 -11 44.3625 3.47885
   6 -13 -11 51.0207 5.83009
   5 -13 -11 38.1777 2.30619
  -5  13  11 26.6365 8.10221
   4 -13 -11 37.5431 3.42065
  -4  13  11 37.2204 15.3911
   3 -13 -11 15.8423 1.60769
  -3  13  11 9.73904 5.67885
   2 -13 -11 17.6577 2.69557
  -2  13  11 45.8512 24.2885
   1 -13 -11 75.5359 4.28302
  -1  13  11 82.7431 11.9357
   0 -13 -11 45.4120 4.25918
   0  13  11 70.0915 9.08454
  -1 -13 -11 121.077 6.79654
   1  13  11 118.185 14.0287
  -2 -13 -11 32.4296 5.24070
  -3 -13 -11 19.3866 2.25798
   3  13  11 9.28658 5.77925
  -4 -13 -11 20.9738 5.28300
  -5 -13 -11 9.65942 1.85155
   7 -14 -11 2.01653 0.89937
   6 -14 -11 108.176 11.5843
   5 -14 -11 48.8931 3.29495
   4 -14 -11 39.5497 5.04071
   3 -14 -11 39.8870 2.59002
  -3  14  11 33.8479 7.82559
   2 -14 -11 39.4018 4.87672
   1 -14 -11 83.9256 5.01432
  -1  14  11 88.9128 12.9604
   0 -14 -11 19.5132 2.24272
   0  14  11 14.1713 5.53814
  -1 -14 -11 9.14363 1.52367
   1  14  11 9.82503 5.41709
  -2 -14 -11 13.3735 3.29332
  -3 -14 -11 11.0587 1.67118
  -4 -14 -11 15.6771 4.38573
   6 -15 -11 68.8613 6.48028
   5 -15 -11 103.321 6.35565
   4 -15 -11 73.1281 9.11035
   3 -15 -11 1.33868 1.10693
   2 -15 -11 16.6339 3.35885
   1 -15 -11 47.3181 4.02100
   0 -15 -11 7.42951 1.91579
   0  15  11 11.8256 6.01478
  -1 -15 -11 43.3653 3.42296
   1  15  11 35.1492 8.30827
  -2 -15 -11 61.4150 8.60813
  -3 -15 -11 14.3385 2.30850
   5 -16 -11 23.4901 1.81222
   4 -16 -11 17.0640 3.02303
   3 -16 -11 5.17313 1.03085
   2 -16 -11 19.1270 3.84842
   1 -16 -11 196.470 16.4244
  -1  16  11 191.335 31.5239
   0 -16 -11 40.2792 4.40482
   0  16  11 40.3026 9.60460
  -1 -16 -11 158.839 12.3769
  -2 -16 -11 3.47104 2.22666
   3 -17 -11 59.8175 4.49378
   2 -17 -11 60.4622 13.1047
   1 -17 -11 25.6735 2.65255
  -1  17  11 33.1844 6.16954
   0 -17 -11 10.0900 1.96753
 -11   0  12 33.1332 5.21033
  -9   0  12 0.84745 4.31781
  -8   0  12 125.884 27.3153
  -7   0  12 2.02628 3.22267
  -6   0  12 227.893 35.1564
  -5   0  12 27.1019 4.45093
  -4   0  12 268.504 47.1827
  -3   0  12 4.54685 4.72971
  -2   0  12 545.396 68.1330
  -1   0  12 18.3921 5.22919
   0   0  12 224.872 40.2348
   1   0  12 97.7908 26.2506
   2   0  12 18.7804 4.83049
   3   0  12 11.5976 2.32982
   4   0  12 30.4079 5.06826
   5   0  12 8.75640 1.93256
   6   0  12 76.3945 9.98379
   7   0  12 2.81886 1.40783
  11  -1 -12 20.0989 3.83799
 -11   1  12 17.3674 3.96165
   9  -1 -12 7.34299 4.49495
  -9   1  12 10.1212 4.51568
   8  -1 -12 0.00000 25.4021
  -8   1  12 6.84254 17.2656
   7  -1 -12 55.7689 5.50893
  -7   1  12 49.8505 5.71653
   6  -1 -12 173.601 25.5380
  -6   1  12 216.228 50.1315
   5  -1 -12 382.929 22.8794
  -5   1  12 354.547 24.8220
   4  -1 -12 583.228 46.3685
  -4   1  12 532.720 60.8039
   3  -1 -12 95.0114 9.52389
  -3   1  12 88.6734 9.66582
   2  -1 -12 114.540 12.1216
  -2   1  12 86.0981 15.4162
   1  -1 -12 49.2144 6.93082
  -1   1  12 41.5852 6.94457
   0  -1 -12 12.5828 10.2422
   0   1  12 0.00000 22.7529
   1   1  12 117.222 15.7183
  -2  -1 -12 48.2384 7.61102
   2   1  12 60.7262 8.80257
  -3  -1 -12 259.299 17.3529
   3   1  12 252.188 17.3641
  -4  -1 -12 11.5184 3.96211
   4   1  12 17.0035 3.85366
  -5  -1 -12 25.2850 2.80665
   5   1  12 25.6630 3.42736
  -6  -1 -12 64.7437 13.8399
   6   1  12 67.8005 10.9441
  -7  -1 -12 9.68303 1.69725
   7   1  12 8.01457 2.67219
   9  -2 -12 39.2940 6.39821
  -9   2  12 40.1559 6.41578
   8  -2 -12 160.260 38.3640
  -8   2  12 153.873 42.5532
   7  -2 -12 150.056 13.8819
  -7   2  12 152.367 13.5449
   6  -2 -12 130.931 20.2567
  -6   2  12 142.025 37.9350
   5  -2 -12 15.1463 2.43457
  -5   2  12 9.10023 4.34159
   4  -2 -12 32.4357 8.20949
  -4   2  12 25.8813 8.94513
   3  -2 -12 259.231 17.7685
  -3   2  12 199.560 17.7986
   2  -2 -12 387.686 35.0114
  -2   2  12 386.837 45.9901
   1  -2 -12 8.09159 4.93641
  -1   2  12 19.0527 5.18487
   0  -2 -12 125.216 14.3155
   0   2  12 132.035 34.8861
  -1  -2 -12 207.495 21.1017
   1   2  12 170.323 27.1319
  -2  -2 -12 86.3771 14.8955
   2   2  12 95.6524 16.6152
  -3  -2 -12 47.6551 3.78923
   3   2  12 37.1441 3.98608
  -4  -2 -12 2.79738 4.48191
   4   2  12 4.80666 3.23676
  -5  -2 -12 109.841 8.16550
   5   2  12 109.171 9.37737
  -6  -2 -12 104.331 13.9265
   6   2  12 60.5227 20.8228
  -7  -2 -12 7.57970 1.69278
   7   2  12 12.7259 2.76852
   9  -3 -12 53.2911 7.70177
  -9   3  12 57.3564 9.98439
   8  -3 -12 25.4412 4.16908
  -8   3  12 11.6645 23.0877
   7  -3 -12 115.207 9.78442
  -7   3  12 88.8006 9.71481
   6  -3 -12 270.612 20.8502
  -6   3  12 256.610 63.0394
   5  -3 -12 430.544 24.3600
  -5   3  12 432.983 35.9603
   4  -3 -12 102.444 12.7784
  -4   3  12 93.3309 14.7860
   3  -3 -12 180.837 13.0066
  -3   3  12 151.153 12.7475
   2  -3 -12 49.7333 9.04606
  -2   3  12 54.9267 10.0565
   1  -3 -12 48.3159 5.63434
  -1   3  12 79.8383 6.04725
   0  -3 -12 19.3422 4.14907
   0   3  12 8.18426 6.02569
  -1  -3 -12 132.677 11.7877
   1   3  12 122.325 15.5848
  -2  -3 -12 142.661 11.9818
   2   3  12 123.992 14.4154
  -3  -3 -12 100.864 6.95798
   3   3  12 82.6473 6.50294
  -4  -3 -12 18.2327 4.41500
   4   3  12 9.60940 4.17230
  -5  -3 -12 46.0050 3.74787
   5   3  12 34.8980 6.96830
  -6  -3 -12 1.82002 3.58585
   6   3  12 3.75836 6.51864
  -7  -3 -12 100.532 8.81033
   7   3  12 100.223 11.0443
   9  -4 -12 53.9707 7.27246
  -9   4  12 47.6689 10.5126
   8  -4 -12 30.4575 4.79729
  -8   4  12 2.34838 23.0571
   7  -4 -12 119.606 9.61304
  -7   4  12 108.116 16.9510
   6  -4 -12 11.0299 2.92664
  -6   4  12 14.3761 22.7122
   5  -4 -12 119.461 6.94241
  -5   4  12 116.424 13.6454
   4  -4 -12 0.00000 9.05343
  -4   4  12 0.00000 8.14619
   3  -4 -12 183.303 12.7205
  -3   4  12 185.810 13.5900
   2  -4 -12 2.56923 5.09955
  -2   4  12 28.8007 6.47009
   1  -4 -12 313.854 20.0679
  -1   4  12 309.516 21.0366
   0  -4 -12 53.9564 5.22893
   0   4  12 56.5172 7.36929
  -1  -4 -12 18.4641 2.95250
   1   4  12 30.2770 4.48724
  -2  -4 -12 37.1181 6.20289
   2   4  12 47.0861 11.3958
  -3  -4 -12 137.392 11.5217
   3   4  12 119.592 11.7231
  -4  -4 -12 29.0591 5.54201
   4   4  12 28.6562 10.8669
  -5  -4 -12 31.7089 2.69369
   5   4  12 32.4542 6.10620
  -6  -4 -12 43.7708 8.25767
   6   4  12 32.0554 12.2088
  -7  -4 -12 45.4394 4.18778
   7   4  12 41.8470 5.32378
  10  -5 -12 0.00000 11.9922
   9  -5 -12 159.664 14.0753
  -9   5  12 122.885 27.8947
   8  -5 -12 113.156 15.4588
  -8   5  12 81.2226 35.3381
   7  -5 -12 84.3055 6.70534
  -7   5  12 80.5400 12.9750
   6  -5 -12 288.302 19.4998
  -6   5  12 275.950 70.6174
   5  -5 -12 423.531 22.3624
  -5   5  12 380.344 47.8391
   4  -5 -12 123.207 9.17820
  -4   5  12 77.2478 37.2378
   3  -5 -12 85.3519 7.81973
  -3   5  12 95.8938 7.90948
   2  -5 -12 21.9152 5.87427
  -2   5  12 16.1389 7.30611
   1  -5 -12 160.423 9.60299
  -1   5  12 139.648 12.0287
   0  -5 -12 50.1092 4.82918
   0   5  12 44.8894 7.39378
  -1  -5 -12 47.1935 4.09108
   1   5  12 58.9221 6.21896
  -2  -5 -12 31.6876 8.63042
   2   5  12 21.5955 15.1086
  -3  -5 -12 5.37199 2.54007
   3   5  12 8.21120 3.81975
  -4  -5 -12 49.3294 7.39743
   4   5  12 53.6705 12.9108
  -5  -5 -12 19.2601 1.99490
   5   5  12 16.0177 4.20817
  -6  -5 -12 4.94664 3.54241
   6   5  12 2.76594 6.25523
  -7  -5 -12 27.1881 2.79137
   7   5  12 19.6659 5.69597
  10  -6 -12 45.6819 9.97263
   9  -6 -12 152.402 14.9946
   8  -6 -12 71.4446 12.7929
  -8   6  12 43.4553 34.0525
   7  -6 -12 166.248 12.5842
  -7   6  12 140.555 21.3251
   6  -6 -12 58.6551 5.99342
  -6   6  12 49.0854 28.1920
   5  -6 -12 38.2148 2.89460
  -5   6  12 36.3458 9.16216
   4  -6 -12 51.4369 6.02466
  -4   6  12 13.5025 28.5816
   3  -6 -12 378.294 17.6942
  -3   6  12 378.426 27.4311
   2  -6 -12 57.0797 9.74516
  -2   6  12 50.1962 12.8865
   1  -6 -12 360.897 15.4126
  -1   6  12 333.821 26.1296
   0  -6 -12 143.442 8.60839
   0   6  12 129.638 15.2684
  -1  -6 -12 150.885 9.81195
   1   6  12 150.792 21.6188
  -2  -6 -12 153.995 14.1286
   2   6  12 172.345 28.5868
  -3  -6 -12 127.108 9.06724
   3   6  12 115.490 13.9214
  -4  -6 -12 28.7298 4.85681
   4   6  12 29.6979 10.1237
  -5  -6 -12 9.38673 1.60595
   5   6  12 12.0002 4.67594
  -6  -6 -12 32.2645 4.66863
   6   6  12 18.3869 7.91112
  -7  -6 -12 62.1876 4.93366
   7   6  12 31.0389 9.11957
  10  -7 -12 71.0025 13.6300
   9  -7 -12 10.3428 1.80992
   8  -7 -12 230.081 26.8480
   7  -7 -12 200.955 13.4504
  -7   7  12 151.376 24.9693
   6  -7 -12 57.2787 5.36540
  -6   7  12 57.2751 27.3384
   5  -7 -12 40.5796 2.75701
  -5   7  12 28.1734 8.34667
   4  -7 -12 5.64255 2.66201
  -4   7  12 24.6324 22.6012
   3  -7 -12 223.441 11.5816
  -3   7  12 231.642 20.3190
   2  -7 -12 15.0163 4.39903
  -2   7  12 4.44619 24.2624
   1  -7 -12 147.680 7.37675
  -1   7  12 143.838 17.4071
   0  -7 -12 88.8234 5.63593
   0   7  12 67.9543 11.8831
  -1  -7 -12 93.7464 5.55215
   1   7  12 84.2771 10.2682
  -2  -7 -12 26.9396 11.7676
   2   7  12 43.6987 18.8823
  -3  -7 -12 43.1231 4.31471
   3   7  12 52.1159 6.80890
  -4  -7 -12 85.9758 9.92137
   4   7  12 108.214 18.9516
  -5  -7 -12 130.270 8.72143
   5   7  12 110.310 13.3764
  -6  -7 -12 84.7343 10.3857
   6   7  12 63.0621 16.3758
   9  -8 -12 12.3783 2.03257
   8  -8 -12 174.116 20.8251
   7  -8 -12 9.08031 1.50673
  -7   8  12 1.19327 8.10432
   6  -8 -12 91.2379 5.92493
  -6   8  12 47.3786 31.3306
   5  -8 -12 1.80676 1.21775
  -5   8  12 8.28164 7.16804
   4  -8 -12 77.6674 5.76067
  -4   8  12 57.2025 30.3232
   3  -8 -12 129.737 6.80522
  -3   8  12 129.364 12.4103
   2  -8 -12 70.3789 4.48261
  -2   8  12 71.0975 27.0968
   1  -8 -12 18.6254 2.06827
  -1   8  12 19.1026 6.98904
   0  -8 -12 92.6495 6.45645
   0   8  12 103.617 13.6255
  -1  -8 -12 18.7655 2.09584
   1   8  12 12.0341 4.53972
  -2  -8 -12 178.740 12.7046
   2   8  12 187.979 27.4414
  -3  -8 -12 43.9354 4.20275
   3   8  12 49.2582 6.61449
  -4  -8 -12 29.0078 4.96600
   4   8  12 42.4856 10.4865
  -5  -8 -12 1.06092 1.75684
   5   8  12 0.00000 4.41829
  -6  -8 -12 6.16901 2.96868
   6   8  12 0.00000 5.29783
   9  -9 -12 7.76715 1.57324
   8  -9 -12 47.5732 8.31632
   7  -9 -12 71.8640 4.73668
  -7   9  12 39.3397 11.3291
   6  -9 -12 73.0455 6.32836
  -6   9  12 72.4804 31.6207
   5  -9 -12 94.0134 5.34996
  -5   9  12 80.3249 12.1831
   4  -9 -12 30.6407 4.40728
  -4   9  12 19.3702 26.8648
   3  -9 -12 277.756 13.6333
  -3   9  12 285.825 25.1765
   2  -9 -12 8.48031 2.36464
  -2   9  12 3.03927 21.1339
   1  -9 -12 458.535 23.2182
  -1   9  12 549.779 52.2333
   0  -9 -12 9.92355 2.05470
   0   9  12 10.8046 4.92257
  -1  -9 -12 160.116 7.95081
   1   9  12 151.412 16.5141
  -2  -9 -12 194.213 20.5036
   2   9  12 209.537 38.7428
  -3  -9 -12 46.0393 4.14487
   3   9  12 37.8004 6.48280
  -4  -9 -12 13.3630 4.69400
  -5  -9 -12 18.9830 2.57047
   5   9  12 16.2134 5.42587
  -6  -9 -12 38.0157 5.80303
   6   9  12 23.4994 8.02252
   9 -10 -12 5.89844 1.34593
   8 -10 -12 227.687 27.1129
   7 -10 -12 82.9425 5.73996
   6 -10 -12 110.734 8.32872
  -6  10  12 84.5448 37.9793
   5 -10 -12 11.4504 1.48359
  -5  10  12 6.03410 7.09848
   4 -10 -12 54.6737 4.26936
  -4  10  12 43.0843 25.8840
   3 -10 -12 49.5475 2.94195
  -3  10  12 62.4226 7.65881
   2 -10 -12 28.9593 3.74646
  -2  10  12 24.7924 24.8283
   1 -10 -12 3.27004 1.36622
  -1  10  12 6.12803 7.33849
   0 -10 -12 19.4115 2.51491
   0  10  12 23.7536 7.86172
  -1 -10 -12 4.49477 1.44371
   1  10  12 8.70937 4.23109
  -2 -10 -12 52.8901 5.88591
   2  10  12 75.4191 13.2683
  -3 -10 -12 98.6008 7.84297
   3  10  12 117.510 12.3633
  -4 -10 -12 12.4883 4.71960
  -5 -10 -12 10.5239 2.00326
   5  10  12 7.78731 4.31277
   8 -11 -12 32.4557 5.91534
   7 -11 -12 13.9339 1.62749
   6 -11 -12 78.7745 9.37870
   5 -11 -12 12.0417 1.47478
  -5  11  12 6.28464 6.88731
   4 -11 -12 44.2153 4.74384
  -4  11  12 40.2708 26.9480
   3 -11 -12 11.1606 1.44666
  -3  11  12 9.95720 6.03408
   2 -11 -12 2.54396 2.15498
  -2  11  12 3.45229 21.7651
   1 -11 -12 8.22405 1.55586
  -1  11  12 18.1909 7.51936
   0 -11 -12 160.930 9.83450
   0  11  12 132.698 24.2183
  -1 -11 -12 6.17320 1.45868
   1  11  12 9.07684 4.30305
  -2 -11 -12 196.998 16.8107
   2  11  12 222.176 34.3073
  -3 -11 -12 33.5548 3.81839
   3  11  12 25.6741 7.14289
  -4 -11 -12 13.7018 4.70482
  -5 -11 -12 18.4353 2.32871
   5  11  12 17.6453 4.79910
   8 -12 -12 124.662 10.2109
   7 -12 -12 7.47355 1.18094
   6 -12 -12 31.7837 6.68998
   5 -12 -12 3.28511 1.11143
  -5  12  12 0.45001 7.11955
   4 -12 -12 4.89455 2.14895
  -4  12  12 10.5786 13.4774
   3 -12 -12 11.5161 1.42945
  -3  12  12 15.0105 6.14566
   2 -12 -12 19.6643 2.79559
  -2  12  12 39.7737 22.9451
   1 -12 -12 45.2929 3.20217
  -1  12  12 54.9704 9.57217
   0 -12 -12 46.0415 4.01722
   0  12  12 68.3243 8.25137
  -1 -12 -12 43.9081 3.06644
   1  12  12 51.4945 8.29578
  -2 -12 -12 6.74846 4.59916
  -3 -12 -12 11.0523 2.48930
   3  12  12 12.7659 4.86829
  -4 -12 -12 52.5772 8.73427
   7 -13 -12 22.2485 2.02806
   6 -13 -12 19.6272 3.47308
   5 -13 -12 8.84575 1.22466
   4 -13 -12 3.90442 2.67820
   3 -13 -12 66.2114 3.83433
  -3  13  12 63.8539 11.5813
   2 -13 -12 6.44158 2.67782
   1 -13 -12 21.1495 2.01874
  -1  13  12 33.5477 5.25567
   0 -13 -12 42.8898 3.65858
   0  13  12 54.5789 10.7052
  -1 -13 -12 31.4278 2.76989
   1  13  12 33.2326 7.30388
  -2 -13 -12 27.0579 6.59089
  -3 -13 -12 3.05932 1.92593
   3  13  12 3.74452 4.27563
  -4 -13 -12 28.1764 5.96028
   6 -14 -12 8.07645 2.77334
   5 -14 -12 13.5353 1.33165
   4 -14 -12 111.034 11.8372
   3 -14 -12 7.75909 1.24484
   2 -14 -12 6.15167 2.80030
   1 -14 -12 12.4802 1.64700
  -1  14  12 1.37014 5.28663
   0 -14 -12 69.0692 7.34029
   0  14  12 110.230 17.0048
  -1 -14 -12 13.4744 1.61349
   1  14  12 3.73401 4.98870
  -2 -14 -12 26.4448 5.69375
  -3 -14 -12 24.7973 2.91535
   5 -15 -12 18.7708 1.52645
   4 -15 -12 18.5743 3.42258
   3 -15 -12 37.8841 2.99829
   2 -15 -12 43.5935 6.93756
   1 -15 -12 9.18207 1.52253
  -1  15  12 19.9427 4.90566
   0 -15 -12 5.58547 1.65537
   0  15  12 4.93699 5.31410
  -1 -15 -12 21.3022 1.99304
   1  15  12 19.5486 5.55664
  -2 -15 -12 40.7552 7.92213
   3 -16 -12 24.0340 2.30134
  -3  16  12 32.9877 5.83731
   2 -16 -12 14.8948 2.33465
   1 -16 -12 11.1305 1.47218
  -1  16  12 11.0024 4.54328
   0 -16 -12 22.2872 2.47291
   0  16  12 11.4708 6.05162
 -10   0  13 19.8904 9.58827
  -9   0  13 1.10563 4.25302
  -7   0  13 66.7825 6.32499
  -6   0  13 13.5997 16.4664
  -5   0  13 6.80690 3.57329
  -4   0  13 9.89748 9.80567
  -3   0  13 74.6599 6.25057
  -2   0  13 4.46855 4.09438
  -1   0  13 17.4496 2.86959
   0   0  13 48.6009 9.47438
   1   0  13 0.73473 2.70372
   2   0  13 151.205 20.8747
   3   0  13 53.1147 4.92214
   4   0  13 33.0873 4.98673
   5   0  13 4.67536 1.88965
   6   0  13 5.66537 1.73225
  10  -1 -13 1.12878 8.71680
 -10   1  13 2.00565 9.23468
   9  -1 -13 67.7443 9.65121
  -9   1  13 70.5346 9.53540
   8  -1 -13 38.1676 25.4706
   7  -1 -13 33.9350 4.17178
  -7   1  13 27.3455 4.46911
   6  -1 -13 144.556 17.7650
  -6   1  13 104.103 41.6103
   5  -1 -13 11.0669 3.56770
  -5   1  13 11.5114 3.51911
   4  -1 -13 16.8365 5.19152
   3  -1 -13 48.2445 4.60707
  -3   1  13 60.2912 6.42566
   2  -1 -13 9.01114 4.81902
  -2   1  13 6.57327 4.78910
   1  -1 -13 19.7803 2.92045
  -1   1  13 15.2659 2.74225
   0  -1 -13 20.2252 5.43277
   0   1  13 20.9078 5.18447
  -1  -1 -13 9.15336 3.09470
   1   1  13 4.80777 2.54749
  -2  -1 -13 62.0659 8.42088
   2   1  13 49.8656 10.4726
  -3  -1 -13 51.2233 4.52599
   3   1  13 45.7995 4.36842
  -4  -1 -13 88.9202 8.80276
   4   1  13 76.5260 10.5081
  -5  -1 -13 5.40179 1.43485
   5   1  13 1.14413 1.81201
  -6  -1 -13 10.9351 3.62447
   6   1  13 0.25729 5.89126
  10  -2 -13 29.7689 10.3681
   9  -2 -13 22.7820 5.39423
  -9   2  13 33.3014 7.20627
   8  -2 -13 77.2992 19.4027
   7  -2 -13 44.5104 5.04922
  -7   2  13 48.2867 5.52425
   6  -2 -13 15.7064 10.0021
  -6   2  13 11.3814 24.3418
   5  -2 -13 94.9536 6.88917
  -5   2  13 97.2238 10.0578
   4  -2 -13 50.6793 7.92317
  -4   2  13 25.7986 26.8814
   3  -2 -13 66.1289 5.51652
  -3   2  13 74.5821 7.69537
   2  -2 -13 107.165 10.9994
   1  -2 -13 10.9897 2.54602
  -1   2  13 10.4350 2.42370
   0  -2 -13 38.4182 6.11160
   0   2  13 20.1049 5.86408
  -1  -2 -13 10.2849 3.46524
   1   2  13 5.96271 2.50142
  -2  -2 -13 123.557 17.3748
   2   2  13 73.4079 20.1110
  -3  -2 -13 55.2115 5.17021
   3   2  13 61.9521 5.07290
  -4  -2 -13 23.0505 5.55068
   4   2  13 13.8414 7.58410
  -5  -2 -13 11.5306 1.73689
   5   2  13 12.8375 4.69917
  -6  -2 -13 42.3793 7.45774
   6   2  13 34.0384 9.26479
  10  -3 -13 1.71928 11.0190
   9  -3 -13 17.3354 4.75650
  -9   3  13 23.4687 6.42265
   8  -3 -13 0.58818 10.7648
   7  -3 -13 290.314 21.3349
  -7   3  13 279.038 24.0349
   6  -3 -13 55.6018 12.3004
  -6   3  13 31.9119 28.7186
   5  -3 -13 123.667 8.38849
  -5   3  13 120.889 12.1633
   4  -3 -13 74.0418 8.08152
  -4   3  13 68.4989 28.8049
   3  -3 -13 162.645 11.1214
  -3   3  13 184.950 16.3854
   2  -3 -13 45.9039 7.74807
  -2   3  13 16.5717 26.1091
   1  -3 -13 29.7278 3.62154
  -1   3  13 34.4968 5.41056
   0  -3 -13 36.3827 4.97111
   0   3  13 21.0877 9.69361
  -1  -3 -13 88.0992 7.14890
   1   3  13 81.2430 13.1672
  -2  -3 -13 31.8601 8.77582
   2   3  13 28.1660 30.1890
  -3  -3 -13 63.7558 6.56812
   3   3  13 48.0625 8.18573
  -4  -3 -13 93.2753 9.00667
   4   3  13 106.627 31.9041
  -5  -3 -13 14.5025 1.86939
   5   3  13 13.1060 4.96099
  -6  -3 -13 40.7640 7.12189
   6   3  13 33.5806 8.84349
  10  -4 -13 5.23257 6.50774
   9  -4 -13 31.9670 5.62815
  -9   4  13 27.1672 7.45135
   8  -4 -13 45.8539 12.9499
   7  -4 -13 122.885 11.0788
  -7   4  13 135.079 13.9320
   6  -4 -13 145.620 11.7748
  -6   4  13 135.472 42.1910
   5  -4 -13 95.0132 6.23903
  -5   4  13 116.731 14.2540
   4  -4 -13 13.4919 4.78796
  -4   4  13 2.22416 22.5095
   3  -4 -13 63.3306 5.15525
  -3   4  13 42.6994 10.8792
   2  -4 -13 26.7272 5.31915
  -2   4  13 24.4260 22.3130
   1  -4 -13 199.851 12.3970
  -1   4  13 179.147 17.4965
   0  -4 -13 25.3063 3.73030
   0   4  13 29.6757 9.06343
  -1  -4 -13 218.847 15.0564
   1   4  13 195.246 22.3432
  -2  -4 -13 5.07273 4.05456
   2   4  13 0.00000 28.6126
  -3  -4 -13 19.0045 2.64871
   3   4  13 15.7232 5.35712
  -4  -4 -13 5.26835 3.74870
   4   4  13 22.3854 27.5296
  -5  -4 -13 66.5309 5.18257
   5   4  13 61.1484 11.5700
  -6  -4 -13 16.6083 4.13567
   6   4  13 3.70497 5.72281
   9  -5 -13 1.93693 3.72669
   8  -5 -13 5.24183 11.2591
   7  -5 -13 33.6262 3.46338
  -7   5  13 25.2409 5.36832
   6  -5 -13 16.1382 3.66418
  -6   5  13 11.6580 24.7094
   5  -5 -13 90.8844 5.78664
  -5   5  13 86.6365 13.1007
   4  -5 -13 27.4160 3.69279
  -4   5  13 25.0446 22.8811
   3  -5 -13 4.25736 1.41319
  -3   5  13 13.4614 7.53196
   2  -5 -13 274.075 18.7016
  -2   5  13 228.412 66.6536
   1  -5 -13 141.498 8.81751
  -1   5  13 138.888 12.1132
   0  -5 -13 26.2276 2.87166
   0   5  13 19.8127 8.76801
  -1  -5 -13 167.701 9.93207
   1   5  13 141.860 23.2771
  -2  -5 -13 24.1703 4.10466
   2   5  13 32.3460 10.2774
  -3  -5 -13 118.082 8.91155
   3   5  13 114.044 10.9724
  -4  -5 -13 17.9188 4.64381
   4   5  13 32.7361 27.8911
  -5  -5 -13 49.5875 4.31511
   5   5  13 34.1635 8.73473
  -6  -5 -13 17.5940 4.63438
   6   5  13 12.3635 5.97391
   9  -6 -13 40.7603 6.23262
   8  -6 -13 20.4209 3.21573
   7  -6 -13 131.205 10.2882
  -7   6  13 115.419 13.6368
   6  -6 -13 58.2605 5.50842
  -6   6  13 9.18239 26.9027
   5  -6 -13 107.219 6.45471
  -5   6  13 109.714 15.0884
   4  -6 -13 13.2527 3.34449
  -4   6  13 16.4612 23.0257
   3  -6 -13 29.7883 2.23890
  -3   6  13 29.8059 7.96676
   2  -6 -13 244.396 17.0699
  -2   6  13 227.622 66.3441
   1  -6 -13 175.522 10.1738
  -1   6  13 185.603 18.0261
   0  -6 -13 154.820 10.1798
   0   6  13 146.932 23.4824
  -1  -6 -13 317.713 18.0879
   1   6  13 244.965 30.2279
  -2  -6 -13 30.5071 5.74051
   2   6  13 28.0497 11.8426
  -3  -6 -13 6.44096 1.85897
   3   6  13 2.17623 3.74797
  -4  -6 -13 48.3839 8.02414
  -5  -6 -13 10.3232 1.57937
   5   6  13 8.30682 4.49518
  -6  -6 -13 39.2344 6.57244
   6   6  13 13.1193 8.45273
   9  -7 -13 5.32805 3.40125
   8  -7 -13 1.17196 1.21802
   7  -7 -13 41.9653 3.74930
  -7   7  13 30.5771 9.57442
   6  -7 -13 13.1552 3.22571
  -6   7  13 0.00000 23.1470
   5  -7 -13 58.5922 3.75398
  -5   7  13 45.9896 10.5360
   4  -7 -13 47.7782 4.22541
  -4   7  13 29.9284 25.5153
   3  -7 -13 47.3310 3.02826
  -3   7  13 42.7215 8.88271
   2  -7 -13 377.077 21.3948
  -2   7  13 383.521 88.8107
   1  -7 -13 62.1886 4.01585
  -1   7  13 72.3892 8.24303
   0  -7 -13 31.1940 3.47874
   0   7  13 34.3827 9.13054
  -1  -7 -13 80.9560 6.05121
   1   7  13 81.7352 10.3434
  -2  -7 -13 28.6967 5.28953
   2   7  13 26.9009 10.9246
  -3  -7 -13 257.096 16.4791
   3   7  13 190.064 19.0493
  -4  -7 -13 12.4509 5.48885
  -5  -7 -13 13.4574 1.69538
   5   7  13 5.93497 4.41384
   9  -8 -13 50.5476 7.04877
   8  -8 -13 83.5111 12.0753
   7  -8 -13 58.3932 5.34907
   6  -8 -13 24.7840 3.65962
  -6   8  13 7.37505 24.4276
   5  -8 -13 47.4115 3.16143
  -5   8  13 46.2743 8.58116
   4  -8 -13 45.2048 3.67819
  -4   8  13 30.0577 24.6234
   3  -8 -13 20.5095 1.87232
  -3   8  13 27.0111 6.43734
   2  -8 -13 61.2224 6.81952
  -2   8  13 44.8563 31.2246
   1  -8 -13 98.1496 5.45692
  -1   8  13 79.6650 10.5773
   0  -8 -13 61.0205 5.30116
   0   8  13 80.7366 10.8983
  -1  -8 -13 19.9162 2.86279
   1   8  13 18.2132 4.88810
  -2  -8 -13 58.0507 7.69612
   2   8  13 68.9289 15.2431
  -3  -8 -13 99.7680 7.49519
   3   8  13 85.2976 10.6526
  -4  -8 -13 0.73740 4.00914
  -5  -8 -13 20.7989 2.06569
   5   8  13 17.5578 5.08170
   8  -9 -13 123.714 17.7774
   7  -9 -13 108.079 9.01794
   6  -9 -13 12.2927 2.88427
   5  -9 -13 23.8936 2.01246
  -5   9  13 11.5677 7.13254
   4  -9 -13 3.75082 2.48423
  -4   9  13 0.00000 22.9568
   3  -9 -13 112.702 6.08664
  -3   9  13 102.602 11.9167
   2  -9 -13 474.574 24.7657
  -2   9  13 419.201 115.911
   1  -9 -13 81.5971 4.94135
  -1   9  13 79.1456 9.72356
   0  -9 -13 152.772 10.0082
   0   9  13 178.452 18.9618
  -1  -9 -13 55.1827 4.51948
   1   9  13 47.5824 9.28342
  -2  -9 -13 1.75108 3.66851
   2   9  13 0.00000 9.06482
  -3  -9 -13 18.4569 2.91620
   3   9  13 20.5087 5.82806
  -4  -9 -13 13.8213 4.55848
  -5  -9 -13 4.21612 1.22073
   5   9  13 2.84603 3.56987
   8 -10 -13 189.754 27.1712
   7 -10 -13 59.0427 4.80586
   6 -10 -13 44.7034 4.87562
   5 -10 -13 3.09853 1.08066
  -5  10  13 2.70538 6.61757
   4 -10 -13 155.773 10.1276
  -4  10  13 117.809 48.5649
   3 -10 -13 38.6176 2.48026
  -3  10  13 46.4457 7.08392
   2 -10 -13 30.0999 3.55551
  -2  10  13 36.5157 24.2996
   1 -10 -13 54.7399 3.65530
  -1  10  13 68.8274 7.64194
   0 -10 -13 70.0628 5.14339
   0  10  13 79.6757 10.2352
  -1 -10 -13 19.0034 2.40706
   1  10  13 18.4010 6.05039
  -2 -10 -13 6.28348 4.36691
  -3 -10 -13 52.5745 5.44160
   3  10  13 56.1025 9.68668
  -4 -10 -13 2.50445 3.68234
   7 -11 -13 5.22024 1.07766
   6 -11 -13 30.3104 4.06286
   5 -11 -13 27.3224 2.13950
   4 -11 -13 38.4615 5.41178
   3 -11 -13 16.2789 1.58666
  -3  11  13 13.6316 6.10212
   2 -11 -13 236.317 14.3965
  -2  11  13 269.109 64.6088
   1 -11 -13 7.57472 1.43747
  -1  11  13 6.30636 4.40603
   0 -11 -13 85.0541 6.16166
   0  11  13 108.390 12.0941
  -1 -11 -13 44.7155 3.60971
   1  11  13 50.9193 8.64577
  -2 -11 -13 1.90949 4.09284
  -3 -11 -13 6.13167 1.91901
   3  11  13 0.26208 4.16502
  -4 -11 -13 43.2790 8.21976
   7 -12 -13 34.4575 3.08609
   6 -12 -13 33.7637 4.79243
   5 -12 -13 1.17255 0.94419
   4 -12 -13 33.1768 4.15976
   3 -12 -13 14.5716 1.71339
  -3  12  13 10.7044 27.9144
   2 -12 -13 25.1245 3.93753
   1 -12 -13 46.9138 3.39301
  -1  12  13 68.6609 9.31282
   0 -12 -13 17.5838 2.50031
   0  12  13 27.8739 7.12807
  -1 -12 -13 24.3208 2.69447
   1  12  13 18.7408 6.22847
  -2 -12 -13 37.0208 7.86963
  -3 -12 -13 8.29753 1.84865
   3  12  13 1.46201 3.92297
   6 -13 -13 17.3943 3.05955
   5 -13 -13 29.9298 2.24699
   4 -13 -13 10.9434 2.35244
   3 -13 -13 53.7600 3.89951
   2 -13 -13 24.0124 4.17372
   1 -13 -13 49.0341 3.86938
  -1  13  13 51.6872 9.33846
   0 -13 -13 2.86822 1.62841
   0  13  13 17.0273 5.53241
  -1 -13 -13 39.2472 3.67633
   1  13  13 44.4548 7.82215
  -2 -13 -13 3.79843 3.54775
   5 -14 -13 41.5654 3.51591
   4 -14 -13 40.4119 4.49460
   3 -14 -13 17.4792 1.61583
  -3  14  13 12.4139 5.05071
   2 -14 -13 22.7590 3.91695
   1 -14 -13 49.3778 3.90677
  -1  14  13 55.7804 9.39435
   0 -14 -13 57.8582 5.55417
   0  14  13 60.9342 13.0105
  -1 -14 -13 104.011 8.24809
   1  14  13 97.7865 16.9977
   2 -15 -13 29.6003 5.42384
   1 -15 -13 97.8128 7.83796
  -1  15  13 93.2285 16.9407
  -9   0  14 1.39362 3.79109
  -7   0  14 59.8268 6.79271
  -6   0  14 135.717 30.5909
  -5   0  14 4.56407 3.30485
  -4   0  14 11.1063 14.2562
  -3   0  14 41.7573 6.23753
  -2   0  14 87.3235 12.7157
  -1   0  14 19.0359 2.90651
   0   0  14 144.641 25.7492
   1   0  14 130.141 18.9885
   2   0  14 48.5613 9.91211
   3   0  14 0.40415 1.64829
   4   0  14 16.5055 4.60046
   5   0  14 3.92243 2.43561
   9  -1 -14 8.96098 3.93666
  -9   1  14 8.75216 5.23296
   8  -1 -14 3.18779 10.8131
   7  -1 -14 108.997 10.0116
  -7   1  14 116.213 11.1665
   6  -1 -14 39.8189 16.8659
  -6   1  14 47.9442 17.0599
   5  -1 -14 7.26624 3.38787
  -5   1  14 9.39778 3.45506
   4  -1 -14 8.98898 8.84874
  -4   1  14 17.5874 14.2197
   3  -1 -14 2.96916 2.14177
  -3   1  14 9.81388 3.94090
   2  -1 -14 70.5490 9.94323
  -2   1  14 69.5137 17.6527
   1  -1 -14 32.4289 3.45558
  -1   1  14 21.1545 3.33862
   0  -1 -14 162.292 22.9584
   0   1  14 99.9189 22.8277
  -1  -1 -14 46.3889 7.91105
   1   1  14 51.8722 6.05890
  -2  -1 -14 85.3948 18.5754
   2   1  14 64.5302 21.4238
  -3  -1 -14 61.2153 5.46608
   3   1  14 49.4204 5.88190
  -4  -1 -14 5.72894 3.49633
   4   1  14 12.7879 9.52560
  -5  -1 -14 14.6621 1.96670
   5   1  14 12.2465 2.86946
   9  -2 -14 33.6368 5.47587
  -9   2  14 27.7076 7.29109
   8  -2 -14 97.2643 20.9110
   7  -2 -14 56.9344 5.47728
  -7   2  14 52.4846 6.00160
   6  -2 -14 116.296 12.7448
  -6   2  14 84.5620 19.4162
   5  -2 -14 46.6438 4.72461
  -5   2  14 35.8316 6.14940
   4  -2 -14 27.8381 4.93133
   3  -2 -14 131.518 10.0704
  -3   2  14 124.223 13.9485
   2  -2 -14 318.715 28.9977
  -2   2  14 242.639 46.8773
   1  -2 -14 52.1963 4.83436
  -1   2  14 43.5937 7.27161
   0  -2 -14 23.7268 9.40815
  -1  -2 -14 104.735 15.1382
   1   2  14 94.2393 15.1116
  -2  -2 -14 38.2146 6.51992
   2   2  14 58.9646 31.0781
  -3  -2 -14 101.232 10.1375
   3   2  14 81.3026 11.0699
  -4  -2 -14 58.5284 9.84481
   4   2  14 79.0043 14.4923
  -5  -2 -14 23.0130 2.47217
   5   2  14 16.7783 5.28069
   9  -3 -14 39.3265 6.57376
  -9   3  14 54.6823 9.01572
   8  -3 -14 56.6381 10.1068
   7  -3 -14 135.546 10.9530
  -7   3  14 137.476 15.3562
   6  -3 -14 43.6493 7.76382
  -6   3  14 23.4380 26.2379
   5  -3 -14 51.4222 4.47118
  -5   3  14 54.7587 6.79974
   4  -3 -14 10.0034 3.88989
  -4   3  14 12.7622 23.4531
   3  -3 -14 89.3277 6.75638
  -3   3  14 90.7331 10.0607
   2  -3 -14 47.0972 8.04015
   1  -3 -14 171.610 13.2764
  -1   3  14 167.515 28.1731
   0  -3 -14 17.4031 4.45920
   0   3  14 12.9026 7.87599
  -1  -3 -14 8.17413 2.43715
   1   3  14 11.1970 5.81260
  -2  -3 -14 43.6966 6.51825
   2   3  14 71.2546 30.4916
  -3  -3 -14 31.7193 3.78068
   3   3  14 28.0949 6.05854
  -4  -3 -14 11.6445 4.50502
   4   3  14 7.67814 7.70821
  -5  -3 -14 41.5921 3.78382
   5   3  14 21.4538 7.28496
   9  -4 -14 114.577 14.4022
   8  -4 -14 34.1315 7.57050
   7  -4 -14 20.3812 3.72916
  -7   4  14 31.8538 4.70657
   6  -4 -14 24.7383 7.16684
  -6   4  14 5.04541 24.5552
   5  -4 -14 115.070 8.96611
  -5   4  14 143.932 13.1176
   4  -4 -14 20.0047 4.77133
  -4   4  14 17.3929 24.5768
   3  -4 -14 48.9725 4.49444
  -3   4  14 65.2015 7.06148
   2  -4 -14 6.54677 5.18821
  -2   4  14 0.41219 23.1060
   1  -4 -14 55.1006 4.94543
  -1   4  14 74.0673 10.5661
   0  -4 -14 98.0750 12.6656
   0   4  14 71.4035 16.1319
  -1  -4 -14 5.97957 2.19871
   1   4  14 2.15976 4.88454
  -2  -4 -14 105.191 11.4039
   2   4  14 113.737 34.4634
  -3  -4 -14 17.1562 2.63656
   3   4  14 18.8183 5.16057
  -4  -4 -14 12.7719 4.26444
   4   4  14 21.4635 7.25307
  -5  -4 -14 29.3942 2.77480
   5   4  14 18.5146 5.81042
   9  -5 -14 6.44526 3.30146
   8  -5 -14 32.6359 8.14589
   7  -5 -14 129.674 12.5196
  -7   5  14 161.818 21.3194
   6  -5 -14 52.7143 7.09050
  -6   5  14 37.3666 28.1391
   5  -5 -14 107.109 8.00566
  -5   5  14 113.594 11.6996
   4  -5 -14 35.3002 6.08532
  -4   5  14 35.9159 26.1614
   3  -5 -14 0.44814 2.17535
  -3   5  14 6.02602 3.55978
   2  -5 -14 12.2244 4.40112
  -2   5  14 0.00000 23.3138
   1  -5 -14 77.4067 5.72222
  -1   5  14 55.6435 10.3362
   0  -5 -14 2.02276 2.36477
   0   5  14 0.53217 6.36881
  -1  -5 -14 15.2387 2.34458
   1   5  14 14.2107 5.22573
  -2  -5 -14 15.5273 3.98984
   2   5  14 0.00000 28.5377
  -3  -5 -14 4.67820 1.76169
   3   5  14 6.60252 4.61777
  -4  -5 -14 3.21263 3.95009
  -5  -5 -14 25.8274 2.50574
   5   5  14 21.8067 5.11428
   8  -6 -14 22.8502 6.43844
   7  -6 -14 82.4390 8.33489
  -7   6  14 77.4704 12.6708
   6  -6 -14 42.9877 5.79659
   5  -6 -14 1.14724 2.04527
  -5   6  14 8.65737 3.46195
   4  -6 -14 0.00000 4.15487
  -4   6  14 0.00000 22.8569
   3  -6 -14 297.839 19.9972
  -3   6  14 300.954 22.8891
   2  -6 -14 76.9069 7.85913
  -2   6  14 66.4019 29.3460
   1  -6 -14 91.4339 6.31313
  -1   6  14 90.9806 12.6027
   0  -6 -14 38.7520 3.62940
   0   6  14 42.2569 8.78638
  -1  -6 -14 3.78641 1.96419
   1   6  14 3.58919 5.01552
  -2  -6 -14 21.9210 4.31220
   2   6  14 4.69981 29.0652
  -3  -6 -14 59.9849 5.08348
   3   6  14 63.4414 10.8203
  -4  -6 -14 33.7115 5.98967
  -5  -6 -14 25.8124 2.83359
   5   6  14 16.2746 4.90471
   8  -7 -14 55.2689 12.2849
   7  -7 -14 10.5991 2.86873
  -7   7  14 14.9182 3.65411
   6  -7 -14 10.7058 1.69708
   5  -7 -14 4.88115 1.22906
  -5   7  14 6.13883 7.60587
   4  -7 -14 144.909 11.7047
  -4   7  14 116.792 42.8499
   3  -7 -14 18.1860 2.63934
  -3   7  14 17.6202 7.74511
   2  -7 -14 69.9319 6.32926
  -2   7  14 37.0579 27.6752
   1  -7 -14 4.27465 1.86421
  -1   7  14 5.17142 5.25188
   0  -7 -14 36.9551 3.28450
   0   7  14 38.4385 7.52732
  -1  -7 -14 21.2904 2.48449
   1   7  14 19.2795 5.16883
  -2  -7 -14 64.0656 10.8230
  -3  -7 -14 14.5472 1.94813
   3   7  14 7.71692 4.94916
  -4  -7 -14 51.5750 7.07918
   8  -8 -14 24.0510 8.40909
   7  -8 -14 3.30405 3.96696
  -7   8  14 4.80448 2.98045
   6  -8 -14 16.7225 2.54092
   5  -8 -14 48.7257 3.66888
  -5   8  14 49.6416 9.96745
   4  -8 -14 36.1674 4.06072
  -4   8  14 17.6748 24.5443
   3  -8 -14 147.063 10.1175
  -3   8  14 119.447 16.5452
   2  -8 -14 117.463 8.76914
  -2   8  14 97.9083 36.5727
   1  -8 -14 52.5237 3.65376
  -1   8  14 61.5306 7.56494
   0  -8 -14 45.9783 3.65748
   0   8  14 38.4122 7.87096
  -1  -8 -14 7.99621 1.94121
   1   8  14 5.72014 5.19095
  -2  -8 -14 17.1874 4.30007
  -3  -8 -14 2.19930 1.45081
   3   8  14 0.00000 4.25245
  -4  -8 -14 36.3748 5.47415
   7  -9 -14 17.5236 2.01516
  -7   9  14 12.4050 3.69953
   6  -9 -14 58.4222 4.75257
   5  -9 -14 15.5511 1.82055
   4  -9 -14 85.7925 9.89384
   3  -9 -14 27.6682 2.44710
  -3   9  14 15.4436 8.01210
   2  -9 -14 7.62551 2.96489
  -2   9  14 12.8713 21.6507
   1  -9 -14 30.2635 2.55898
  -1   9  14 37.5422 6.10058
   0  -9 -14 23.6224 2.67114
   0   9  14 8.57649 7.12974
  -1  -9 -14 11.2031 2.67493
   1   9  14 13.3710 5.43028
  -2  -9 -14 37.8375 7.36728
  -3  -9 -14 6.22508 1.45440
   3   9  14 0.56179 4.11935
   7 -10 -14 86.3643 7.09432
  -7  10  14 67.9829 13.3229
   6 -10 -14 100.793 14.5331
   5 -10 -14 7.92888 1.31929
   4 -10 -14 17.9788 3.74371
   3 -10 -14 25.9070 2.42053
  -3  10  14 39.4780 7.17194
   2 -10 -14 12.9699 3.28503
   1 -10 -14 24.5402 2.45352
  -1  10  14 23.6619 6.22154
   0 -10 -14 17.2213 3.03548
   0  10  14 30.5560 7.07821
  -1 -10 -14 68.7471 6.81586
   1  10  14 72.1472 12.1263
  -2 -10 -14 18.9986 5.00785
  -3 -10 -14 29.2316 2.55935
   3  10  14 20.1846 5.62812
   6 -11 -14 48.7467 7.18072
   5 -11 -14 6.39824 1.21234
   4 -11 -14 67.0913 8.13412
   3 -11 -14 25.9758 2.37771
  -3  11  14 24.5557 6.34076
   2 -11 -14 3.98803 2.40461
   1 -11 -14 31.7070 3.17346
  -1  11  14 24.4068 6.80210
   0 -11 -14 23.6623 3.23853
   0  11  14 28.3247 7.17745
  -1 -11 -14 21.4053 2.92031
   1  11  14 17.6910 5.41361
  -2 -11 -14 54.6885 10.1516
   5 -12 -14 15.6075 1.67480
   4 -12 -14 45.5942 6.96563
   3 -12 -14 11.4144 1.40612
  -3  12  14 24.4523 4.88974
   2 -12 -14 37.5458 5.03341
   1 -12 -14 2.52940 1.71107
  -1  12  14 0.00000 4.07815
   0 -12 -14 22.0884 2.93838
   0  12  14 23.5791 6.59652
  -1 -12 -14 7.15179 1.91701
   1  12  14 2.13025 3.83733
   4 -13 -14 54.8651 7.81965
   3 -13 -14 1.78204 0.95336
  -3  13  14 4.39663 3.71010
   2 -13 -14 11.2374 2.85874
   1 -13 -14 1.69343 1.47682
  -1  13  14 0.00000 3.70386
   0 -13 -14 4.62405 1.69564
   0  13  14 0.00000 4.48507
  -8   0  15 50.7071 13.0892
  -7   0  15 30.2857 4.53794
  -6   0  15 34.5229 10.3073
  -5   0  15 0.00000 2.86471
  -4   0  15 42.7687 15.2326
  -3   0  15 1.08339 3.48404
  -2   0  15 55.6870 16.3822
  -1   0  15 115.436 11.6227
   0   0  15 22.8851 4.99570
   1   0  15 14.0494 2.97720
   2   0  15 7.49805 3.95768
   3   0  15 0.00000 4.53470
   4   0  15 0.00000 7.37421
   8  -1 -15 134.361 21.5929
  -8   1  15 102.951 21.5183
   7  -1 -15 38.1968 5.44603
  -7   1  15 41.7675 5.39047
   6  -1 -15 132.445 26.0428
   5  -1 -15 0.73086 2.91236
  -5   1  15 2.80846 3.42173
   4  -1 -15 85.7579 14.2185
  -4   1  15 66.3267 19.7580
   3  -1 -15 27.4495 4.36397
  -3   1  15 21.0988 4.75588
   2  -1 -15 414.478 43.4068
  -2   1  15 404.563 59.7829
   1  -1 -15 169.500 13.8571
   0  -1 -15 204.697 61.6618
  -1  -1 -15 50.8803 7.92472
  -2  -1 -15 74.3196 22.5478
  -3  -1 -15 38.7970 5.66183
   3   1  15 26.7514 7.34034
  -4  -1 -15 24.0631 10.3951
   4   1  15 24.3635 10.3806
   8  -2 -15 31.9025 6.53627
  -8   2  15 8.21472 8.85577
   7  -2 -15 71.6624 7.59430
  -7   2  15 78.2168 11.5863
   6  -2 -15 177.480 33.0014
   5  -2 -15 59.3827 6.72856
  -5   2  15 59.9021 7.96007
   4  -2 -15 135.513 17.2173
  -4   2  15 104.611 23.1553
   3  -2 -15 17.4040 2.55228
  -3   2  15 19.2149 4.27140
   2  -2 -15 43.1374 9.30686
  -2   2  15 48.2910 15.9199
   1  -2 -15 11.3010 2.38885
   0  -2 -15 80.8585 25.9499
  -1  -2 -15 16.0147 3.35361
   1   2  15 18.2260 6.13418
  -2  -2 -15 100.482 29.8783
  -3  -2 -15 96.7505 9.96136
   3   2  15 89.0440 16.3760
  -4  -2 -15 17.7849 4.96669
   4   2  15 6.97599 8.24635
   8  -3 -15 61.2973 9.33723
   7  -3 -15 24.9048 3.65438
  -7   3  15 28.3350 5.02438
   6  -3 -15 14.4625 7.05642
   5  -3 -15 3.81128 2.70561
  -5   3  15 5.66997 3.34155
   4  -3 -15 16.3931 6.85248
  -4   3  15 18.9573 14.7913
   3  -3 -15 94.9397 8.07636
  -3   3  15 103.121 11.2772
   2  -3 -15 30.5869 7.19930
  -2   3  15 27.3702 15.2058
   1  -3 -15 28.0603 3.22357
   0  -3 -15 20.8464 4.89185
   0   3  15 13.0181 8.00904
  -1  -3 -15 12.0670 2.91792
   1   3  15 8.50242 5.51495
  -2  -3 -15 27.3677 7.32367
  -3  -3 -15 9.99951 1.85988
   3   3  15 9.84419 4.63041
  -4  -3 -15 0.33878 3.20960
   4   3  15 9.90360 5.46351
   8  -4 -15 10.2280 5.45727
   7  -4 -15 13.2274 2.91451
  -7   4  15 18.4253 3.79792
   6  -4 -15 86.4160 13.1347
   5  -4 -15 20.3241 3.09346
  -5   4  15 10.5201 3.83035
   4  -4 -15 2.69186 4.84288
  -4   4  15 5.19028 13.4707
   3  -4 -15 6.65227 1.94944
  -3   4  15 3.96059 3.43230
   2  -4 -15 6.08290 6.67742
  -2   4  15 0.00000 14.5373
   1  -4 -15 53.6578 4.95993
  -1   4  15 55.4792 10.5609
   0  -4 -15 94.6500 13.3141
   0   4  15 96.2999 16.9277
  -1  -4 -15 68.4085 6.35619
   1   4  15 63.9471 10.7573
  -2  -4 -15 94.8933 20.8260
  -3  -4 -15 7.32920 1.65001
   3   4  15 0.00000 4.28300
  -4  -4 -15 13.3573 3.83845
   4   4  15 15.8849 6.07650
   8  -5 -15 11.3128 5.58932
   7  -5 -15 80.8021 8.04867
  -7   5  15 76.5284 12.2819
   6  -5 -15 4.74288 6.40633
   5  -5 -15 71.5008 5.39412
  -5   5  15 59.4471 8.44950
   4  -5 -15 3.88684 4.92417
   3  -5 -15 73.4736 5.78685
  -3   5  15 67.4761 8.71018
   2  -5 -15 33.8583 5.66772
  -2   5  15 37.8418 14.6904
   1  -5 -15 29.3906 3.21661
  -1   5  15 40.9290 7.30357
   0  -5 -15 50.0742 6.98033
   0   5  15 31.8321 10.0066
  -1  -5 -15 50.1916 4.80967
   1   5  15 39.5340 9.31854
  -2  -5 -15 36.3109 7.26415
  -3  -5 -15 69.0529 6.72246
   3   5  15 41.6105 10.8518
  -4  -5 -15 28.3936 5.48145
   4   5  15 27.8860 7.40516
   7  -6 -15 47.5025 4.93055
  -7   6  15 38.0482 7.05233
   6  -6 -15 38.5275 5.78820
   5  -6 -15 134.294 11.0759
  -5   6  15 142.615 20.7079
   4  -6 -15 20.7459 5.32588
   3  -6 -15 9.81287 2.07527
  -3   6  15 12.3528 3.59297
   2  -6 -15 29.0443 4.67575
  -2   6  15 16.6839 30.5274
   1  -6 -15 1.56037 1.83008
  -1   6  15 0.44344 5.18931
   0  -6 -15 3.65929 2.29520
   0   6  15 0.00000 6.09719
  -1  -6 -15 39.6687 3.64655
   1   6  15 31.0999 8.02448
  -2  -6 -15 21.2558 5.40550
  -3  -6 -15 65.7307 5.74900
   3   6  15 51.4763 10.9210
   7  -7 -15 7.04603 2.29980
  -7   7  15 9.68243 2.84921
   6  -7 -15 96.2162 10.9164
   5  -7 -15 25.8812 2.88456
  -5   7  15 27.2750 5.11882
   4  -7 -15 98.2816 13.5863
   3  -7 -15 69.0751 5.53370
  -3   7  15 72.9858 7.63318
   2  -7 -15 21.1584 5.49387
   1  -7 -15 38.1230 3.78098
  -1   7  15 44.0783 8.06743
   0  -7 -15 60.0899 5.13148
   0   7  15 34.4970 12.0027
  -1  -7 -15 39.8360 3.70237
   1   7  15 41.9772 8.11883
  -2  -7 -15 28.7320 5.76780
  -3  -7 -15 35.6556 3.22607
   3   7  15 19.5254 6.06597
   7  -8 -15 7.62191 2.17298
  -7   8  15 3.11458 2.49236
   6  -8 -15 36.3738 3.75794
   5  -8 -15 41.5589 3.87304
  -5   8  15 43.0602 7.00508
   4  -8 -15 17.5399 3.90494
   3  -8 -15 2.64553 1.80509
  -3   8  15 6.12088 2.74146
   2  -8 -15 12.3023 4.23618
   1  -8 -15 29.6525 3.03766
  -1   8  15 20.2691 6.75464
   0  -8 -15 17.4379 2.35106
   0   8  15 14.9112 6.61663
  -1  -8 -15 43.9049 3.98986
   1   8  15 46.8911 8.38877
  -2  -8 -15 25.2930 4.83874
   6  -9 -15 20.5043 2.59913
   5  -9 -15 57.6820 5.26716
  -5   9  15 70.2109 7.37836
   4  -9 -15 53.6346 8.26085
   3  -9 -15 10.2364 1.98632
  -3   9  15 12.6122 2.87989
   2  -9 -15 37.8532 6.86515
   1  -9 -15 5.07382 1.53188
  -1   9  15 9.18984 4.72485
   0  -9 -15 10.5585 1.92832
   0   9  15 9.36918 5.71364
  -1  -9 -15 1.41178 1.43704
   1   9  15 3.69473 4.02414
  -2  -9 -15 14.7053 3.39493
   5 -10 -15 7.98002 1.60160
  -5  10  15 6.90988 2.29712
   4 -10 -15 11.4319 3.63476
   3 -10 -15 1.68724 1.58696
  -3  10  15 1.72839 2.36256
   2 -10 -15 22.4277 5.13846
   1 -10 -15 16.0491 1.81282
  -1  10  15 9.80479 4.98923
   0 -10 -15 87.1053 7.82856
   0  10  15 96.4864 17.9708
  -1 -10 -15 2.78112 1.33829
   1  10  15 0.00000 3.57355
   4 -11 -15 34.5996 5.74596
   3 -11 -15 7.81394 1.66022
  -3  11  15 10.5496 2.39726
   2 -11 -15 93.9049 13.2423
   1 -11 -15 27.6090 2.37777
  -1  11  15 29.3384 5.92848
   0 -11 -15 69.7067 6.23493
   0  11  15 72.4131 14.3609
  -7   0  16 15.8234 2.97106
  -6   0  16 0.00000 8.06150
  -5   0  16 26.8171 5.17846
  -3   0  16 10.2467 3.50937
   7  -1 -16 42.1751 4.64065
  -7   1  16 23.5557 5.48746
   6  -1 -16 0.00000 8.01085
   5  -1 -16 6.62611 2.86715
  -5   1  16 8.32544 3.37912
   3  -1 -16 9.94514 3.45271
  -3   1  16 9.25987 3.45315
   3   1  16 60.0518 10.4883
   7  -2 -16 53.7348 6.32404
  -7   2  16 45.7550 8.12181
   6  -2 -16 27.8501 10.0702
   5  -2 -16 79.6968 9.55381
  -5   2  16 79.9571 12.4483
   4  -2 -16 18.5852 10.9779
   3  -2 -16 85.4263 8.81261
  -3   2  16 91.4100 10.9561
   1  -2 -16 21.9885 2.91741
   0  -2 -16 31.8696 9.80045
  -1  -2 -16 45.5110 6.92629
   2   2  16 30.0097 7.65389
   3   2  16 53.4397 6.04312
   7  -3 -16 28.9309 3.44531
  -7   3  16 24.8595 4.81543
   6  -3 -16 29.7996 10.0587
   5  -3 -16 14.3642 3.20112
  -5   3  16 15.5156 3.86879
   4  -3 -16 63.1089 13.8928
   3  -3 -16 57.1271 7.56484
  -3   3  16 64.1874 9.89454
   2  -3 -16 87.0997 21.9705
   1  -3 -16 3.70958 1.78650
   0  -3 -16 21.5530 8.25929
  -1  -3 -16 0.00000 1.79657
   1   3  16 3.65284 4.50863
  -2  -3 -16 24.9843 7.69851
   2   3  16 15.8287 8.60252
   7  -4 -16 36.1378 3.78356
  -7   4  16 24.3617 5.21654
   6  -4 -16 7.47000 5.60724
   5  -4 -16 12.0771 2.70346
  -5   4  16 11.4249 3.47640
   4  -4 -16 22.3282 9.63938
   3  -4 -16 15.5225 2.37735
  -3   4  16 20.9311 4.17282
   2  -4 -16 114.134 23.5920
   1  -4 -16 25.2749 2.98898
   0  -4 -16 121.645 19.5938
   0   4  16 87.3827 22.0138
  -1  -4 -16 10.6329 2.28671
   1   4  16 0.00000 4.48299
  -2  -4 -16 39.3683 8.39571
   6  -5 -16 29.4959 4.67351
   5  -5 -16 100.368 10.3365
  -5   5  16 114.170 16.0350
   4  -5 -16 60.2516 9.16712
   3  -5 -16 13.9181 2.03421
  -3   5  16 12.6083 3.74702
   2  -5 -16 55.0080 11.2024
   1  -5 -16 132.300 11.6488
  -1   5  16 122.509 21.5430
   0  -5 -16 1.84442 2.73188
   0   5  16 0.97470 5.41459
  -1  -5 -16 50.1219 5.71979
   1   5  16 39.1525 8.73891
  -2  -5 -16 17.1762 4.46782
   6  -6 -16 85.5544 8.95596
   5  -6 -16 5.36633 2.27271
  -5   6  16 9.89632 3.06658
   4  -6 -16 26.0557 5.03014
   3  -6 -16 14.3145 2.01906
  -3   6  16 13.0577 3.70262
   2  -6 -16 47.8866 8.19730
   1  -6 -16 31.3419 3.01361
  -1   6  16 23.2502 6.68209
   0  -6 -16 37.7146 5.92791
   0   6  16 35.4707 9.02757
  -1  -6 -16 37.2115 3.50887
   1   6  16 27.1169 6.78275
  -2  -6 -16 5.86705 4.56344
   5  -7 -16 5.49360 2.09392
  -5   7  16 6.62797 2.77564
   4  -7 -16 4.55435 3.69537
   3  -7 -16 7.31182 1.69000
  -3   7  16 11.0969 2.83446
   2  -7 -16 54.7612 8.34825
   1  -7 -16 69.2929 5.76719
  -1   7  16 63.7548 12.0980
   0  -7 -16 8.91982 2.62397
   0   7  16 9.22028 5.01886
  -1  -7 -16 85.4446 6.73247
   1   7  16 67.7069 14.0290
   5  -8 -16 23.0810 2.94956
  -5   8  16 21.9484 4.17737
   4  -8 -16 24.9710 5.24309
   3  -8 -16 50.5793 4.29256
  -3   8  16 45.6070 5.92877
   2  -8 -16 74.5885 13.2221
   1  -8 -16 15.6001 1.98083
  -1   8  16 13.4701 4.53685
   0  -8 -16 9.66034 1.81971
   0   8  16 0.00000 4.54841
   4  -9 -16 14.8474 3.26337
   3  -9 -16 27.6292 2.62650
  -3   9  16 24.2831 3.66610
   2  -9 -16 1.79282 2.86019
   1  -9 -16 25.2089 2.48024
  -1   9  16 21.0505 5.27217
  -5   0  17 3.77283 2.53303
  -3   0  17 0.00000 2.71450
   5  -1 -17 10.0979 3.02562
  -5   1  17 13.4565 3.26815
   3  -1 -17 21.9194 4.04664
  -3   1  17 17.0113 4.03832
   5  -2 -17 72.9263 8.97239
  -5   2  17 82.8704 11.8187
   3  -2 -17 33.6587 5.54761
  -3   2  17 30.2300 5.52458
   2  -2 -17 1.36407 4.32698
   5  -3 -17 4.30835 2.10084
  -5   3  17 3.19968 2.43735
   4  -3 -17 0.10521 6.96886
   3  -3 -17 3.56489 2.27216
  -3   3  17 0.00000 2.63887
   2  -3 -17 76.8350 12.5688
   5  -4 -17 45.3640 7.04678
  -5   4  17 40.2165 7.02588
   4  -4 -17 29.6870 5.21380
   3  -4 -17 0.21700 2.25237
  -3   4  17 0.88799 2.52319
   2  -4 -17 41.3834 12.1058
   4  -5 -17 19.9523 4.52194
   3  -5 -17 171.645 18.7158
  -3   5  17 160.884 24.9189
   2  -5 -17 18.0218 6.35408
   1  -5 -17 17.9413 2.75584
   3  -6 -17 6.31967 2.51289
  -3   6  17 0.67309 2.45933
   2  -6 -17 34.4620 5.44038
   0   0   0    0.00    0.00   0
;
_shelx_hkl_checksum              25084
#END Tags that were not found in dictionaries
loop_
_space_group_symop_operation_xyz
'x, y, z'
'-x, y+1/2, -z'
loop_
_atom_site_label
_atom_site_type_symbol
_atom_site_fract_x
_atom_site_fract_y
_atom_site_fract_z
_atom_site_U_iso_or_equiv
_atom_site_adp_type
_atom_site_occupancy
_atom_site_site_symmetry_order
_atom_site_calc_flag
_atom_site_refinement_flags_posn
_atom_site_refinement_flags_adp
C1 C -0.9044(5) -0.2438(3) -0.8482(4) 0.0252(12) Uani 1 1 d . .
C2 C -0.9787(6) -0.2756(3) -0.7893(4) 0.0259(12) Uani 1 1 d . .
C3 C -1.1028(6) -0.2611(3) -0.8016(4) 0.0305(13) Uani 1 1 d . .
H3 H -1.1524 -0.2838 -0.7640 0.037 Uiso 1 1 calc R U
C4 C -1.1579(6) -0.2122(3) -0.8700(4) 0.0312(14) Uani 1 1 d . .
H4 H -1.2440 -0.2018 -0.8769 0.037 Uiso 1 1 calc R U
C5 C -1.0903(6) -0.1800(3) -0.9260(4) 0.0305(14) Uani 1 1 d . .
H5 H -1.1291 -0.1473 -0.9714 0.037 Uiso 1 1 calc R U
C6 C -0.9622(6) -0.1951(3) -0.9168(4) 0.0273(13) Uani 1 1 d . .
C7 C -0.8882(6) -0.1663(3) -0.9762(4) 0.0317(14) Uani 1 1 d . .
H7 H -0.9232 -0.1338 -1.0233 0.038 Uiso 1 1 calc R U
C8 C -0.7668(6) -0.1854(3) -0.9656(4) 0.0319(14) Uani 1 1 d . .
H8 H -0.7158 -0.1669 -1.0052 0.038 Uiso 1 1 calc R U
C9 C -0.7182(6) -0.2331(3) -0.8947(4) 0.0331(14) Uani 1 1 d . .
H9 H -0.6330 -0.2459 -0.8880 0.040 Uiso 1 1 calc R U
C10 C -0.9676(5) -0.3572(3) -0.6550(4) 0.0254(12) Uani 1 1 d . .
C11 C -0.9168(6) -0.4183(3) -0.5083(4) 0.0281(13) Uani 1 1 d . .
H11A H -0.9852 -0.3885 -0.4939 0.034 Uiso 1 1 calc R U
H11B H -0.8456 -0.4135 -0.4566 0.034 Uiso 1 1 calc R U
C12 C -0.9587(5) -0.4952(3) -0.5134(4) 0.0240(12) Uani 1 1 d . .
C13 C -0.9306(5) -0.5412(3) -0.5747(4) 0.0247(12) Uani 1 1 d . .
H13A H -0.8801 -0.5200 -0.6128 0.030 Uiso 1 1 calc R U
C14 C -0.9585(5) -0.6182(3) -0.5990(4) 0.0244(12) Uani 1 1 d . .
C15 C -1.1693(5) -0.6047(3) -0.5686(4) 0.0263(13) Uani 1 1 d . .
H15A H -1.2508 -0.6237 -0.5995 0.032 Uiso 1 1 calc R U
H15B H -1.1635 -0.5546 -0.5888 0.032 Uiso 1 1 calc R U
C16 C -1.1645(5) -0.6053(3) -0.4642(4) 0.0268(13) Uani 1 1 d . .
H16 H -1.2267 -0.5693 -0.4518 0.032 Uiso 1 1 calc R U
C17 C -1.0386(6) -0.5795(3) -0.4149(4) 0.0248(12) Uani 1 1 d . .
H17 H -0.9719 -0.6116 -0.4295 0.030 Uiso 1 1 calc R U
C18 C -1.0286(5) -0.5747(3) -0.3110(4) 0.0278(13) Uani 1 1 d . .
H18A H -1.1011 -0.5480 -0.2974 0.033 Uiso 1 1 calc R U
H18B H -1.0310 -0.6235 -0.2856 0.033 Uiso 1 1 calc R U
C19 C -0.8567(5) -0.4558(3) -0.1192(4) 0.0261(12) Uani 1 1 d . .
C20 C -0.9265(6) -0.4915(3) -0.0657(4) 0.0295(13) Uani 1 1 d . .
H20 H -0.9986 -0.5174 -0.0931 0.035 Uiso 1 1 calc R U
C21 C -0.8897(6) -0.4889(3) 0.0296(4) 0.0286(13) Uani 1 1 d . .
C22 C -0.9427(7) -0.4952(4) 0.1729(4) 0.0383(16) Uani 1 1 d . .
H22A H -0.9856 -0.5259 0.2115 0.046 Uiso 1 1 calc R U
H22B H -0.9779 -0.4464 0.1724 0.046 Uiso 1 1 calc R U
C23 C -0.8078(7) -0.4932(4) 0.2116(5) 0.0410(16) Uani 1 1 d . .
H23A H -0.7953 -0.4773 0.2762 0.049 Uiso 1 1 calc R U
H23B H -0.7729 -0.5420 0.2107 0.049 Uiso 1 1 calc R U
C24 C -0.7841(6) -0.4504(3) 0.0673(4) 0.0278(13) Uani 1 1 d . .
C25 C -0.7148(6) -0.4145(3) 0.0133(4) 0.0325(14) Uani 1 1 d . .
H25 H -0.6425 -0.3888 0.0407 0.039 Uiso 1 1 calc R U
C26 C -0.7515(6) -0.4160(3) -0.0816(4) 0.0329(14) Uani 1 1 d . .
H26 H -0.7061 -0.3906 -0.1199 0.039 Uiso 1 1 calc R U
C27 C -1.1043(6) -0.7124(3) -0.6533(4) 0.0276(13) Uani 1 1 d . .
H27 H -1.0260 -0.7398 -0.6539 0.033 Uiso 1 1 calc R U
C28 C -1.1592(6) -0.6916(3) -0.7518(4) 0.0305(14) Uani 1 1 d . .
H28A H -1.1781 -0.7355 -0.7889 0.037 Uiso 1 1 calc R U
H28B H -1.2384 -0.6658 -0.7528 0.037 Uiso 1 1 calc R U
C29 C -1.1932(6) -0.7615(3) -0.6172(4) 0.0320(14) Uani 1 1 d . .
H29A H -1.2080 -0.8042 -0.6559 0.048 Uiso 1 1 calc R U
H29B H -1.2721 -0.7365 -0.6181 0.048 Uiso 1 1 calc R U
H29C H -1.1573 -0.7755 -0.5543 0.048 Uiso 1 1 calc R U
C30 C -1.1996(6) -0.6767(3) -0.4249(4) 0.0319(14) Uani 1 1 d . .
H30A H -1.1335 -0.7117 -0.4264 0.048 Uiso 1 1 calc R U
H30B H -1.2777 -0.6942 -0.4618 0.048 Uiso 1 1 calc R U
H30C H -1.2101 -0.6696 -0.3615 0.048 Uiso 1 1 calc R U
C31 C -0.7957(6) -0.5706(3) -0.2768(4) 0.0303(14) Uani 1 1 d . .
H31A H -0.7764 -0.5564 -0.3360 0.045 Uiso 1 1 calc R U
H31B H -0.8011 -0.6228 -0.2739 0.045 Uiso 1 1 calc R U
H31C H -0.7299 -0.5535 -0.2273 0.045 Uiso 1 1 calc R U
N1 N -0.7817(5) -0.2611(2) -0.8370(3) 0.0279(11) Uani 1 1 d . .
N2 N -0.9155(5) -0.3222(3) -0.7208(3) 0.0253(11) Uani 1 1 d . .
H2 H -0.842(7) -0.327(4) -0.714(5) 0.030 Uiso 1 1 d . U
N3 N -0.8803(5) -0.3897(3) -0.5893(4) 0.0271(11) Uani 1 1 d . .
H3A H -0.815(7) -0.383(4) -0.590(5) 0.033 Uiso 1 1 d . U
N4 N -1.0708(4) -0.6465(2) -0.5982(3) 0.0241(10) Uani 1 1 d . .
N5 N -0.9144(5) -0.5392(3) -0.2664(3) 0.0273(11) Uani 1 1 d . .
O1 O -1.0770(4) -0.3588(2) -0.6537(3) 0.0334(10) Uani 1 1 d . .
O2 O -1.0187(4) -0.50682(19) -0.4440(3) 0.0238(8) Uani 1 1 d . .
O3 O -0.8756(4) -0.6523(2) -0.6273(3) 0.0315(10) Uani 1 1 d . .
O4 O -1.0384(4) -0.4309(2) -0.2557(3) 0.0300(10) Uani 1 1 d . .
O5 O -0.8230(4) -0.4181(2) -0.2792(3) 0.0314(10) Uani 1 1 d . .
O6 O -0.9625(5) -0.5231(2) 0.0809(3) 0.0393(11) Uani 1 1 d . .
O7 O -0.7432(4) -0.4461(2) 0.1614(3) 0.0365(10) Uani 1 1 d . .
O8 O -1.0783(5) -0.6474(2) -0.7927(3) 0.0340(10) Uani 1 1 d . .
H8A H -1.004(7) -0.671(4) -0.794(5) 0.04(2) Uiso 1 1 d . .
S1 S -0.91254(13) -0.45516(7) -0.23894(9) 0.0247(3) Uani 1 1 d . .
C41 C -0.7337(6) -0.7575(3) -0.8469(4) 0.0271(12) Uani 1 1 d . .
C42 C -0.6286(6) -0.7203(3) -0.7935(4) 0.0279(13) Uani 1 1 d . .
C43 C -0.5153(6) -0.7270(3) -0.8163(4) 0.0327(14) Uani 1 1 d . .
H43 H -0.4463 -0.7025 -0.7814 0.039 Uiso 1 1 calc R U
C44 C -0.4974(6) -0.7701(3) -0.8915(5) 0.0347(14) Uani 1 1 d . .
H44 H -0.4170 -0.7734 -0.9064 0.042 Uiso 1 1 calc R U
C45 C -0.5944(6) -0.8071(3) -0.9429(5) 0.0341(15) Uani 1 1 d . .
H45 H -0.5811 -0.8359 -0.9928 0.041 Uiso 1 1 calc R U
C46 C -0.7136(6) -0.8020(3) -0.9212(4) 0.0309(14) Uani 1 1 d . .
C47 C -0.8193(6) -0.8377(3) -0.9707(4) 0.0327(14) Uani 1 1 d . .
H47 H -0.8114 -0.8671 -1.0215 0.039 Uiso 1 1 calc R U
C48 C -0.9299(6) -0.8304(3) -0.9465(4) 0.0318(14) Uani 1 1 d . .
H48 H -1.0002 -0.8554 -0.9790 0.038 Uiso 1 1 calc R U
C49 C -0.9419(6) -0.7854(3) -0.8723(4) 0.0323(14) Uani 1 1 d . .
H49 H -1.0215 -0.7807 -0.8563 0.039 Uiso 1 1 calc R U
C50 C -0.5694(6) -0.6454(3) -0.6536(4) 0.0277(13) Uani 1 1 d . .
C51 C -0.5427(6) -0.5833(3) -0.5072(4) 0.0298(13) Uani 1 1 d . .
H51A H -0.4663 -0.6128 -0.4946 0.036 Uiso 1 1 calc R U
H51B H -0.5866 -0.5898 -0.4554 0.036 Uiso 1 1 calc R U
C52 C -0.5052(5) -0.5053(3) -0.5103(4) 0.0244(12) Uani 1 1 d . .
C53 C -0.5623(5) -0.4589(3) -0.5720(4) 0.0273(12) Uani 1 1 d . .
H53 H -0.6284 -0.4809 -0.6134 0.033 Uiso 1 1 calc R U
C54 C -0.5505(6) -0.3819(3) -0.5936(4) 0.0295(13) Uani 1 1 d . .
C55 C -0.3236(6) -0.3918(3) -0.5604(4) 0.0263(13) Uani 1 1 d . .
H55A H -0.2574 -0.3705 -0.5890 0.032 Uiso 1 1 calc R U
H55B H -0.3375 -0.4413 -0.5836 0.032 Uiso 1 1 calc R U
C56 C -0.2774(5) -0.3944(3) -0.4553(4) 0.0246(12) Uani 1 1 d . .
H56 H -0.2075 -0.4296 -0.4434 0.030 Uiso 1 1 calc R U
C57 C -0.3772(5) -0.4219(3) -0.4074(4) 0.0232(12) Uani 1 1 d . .
H57 H -0.4518 -0.3901 -0.4208 0.028 Uiso 1 1 calc R U
C58 C -0.3321(5) -0.4284(3) -0.3033(4) 0.0260(13) Uani 1 1 d . .
H58A H -0.2530 -0.4555 -0.2917 0.031 Uiso 1 1 calc R U
H58B H -0.3147 -0.3799 -0.2773 0.031 Uiso 1 1 calc R U
C59 C -0.4304(5) -0.5488(3) -0.1136(4) 0.0269(12) Uani 1 1 d . .
C60 C -0.3539(6) -0.5068(3) -0.0493(4) 0.0306(13) Uani 1 1 d . .
H60 H -0.2930 -0.4764 -0.0670 0.037 Uiso 1 1 calc R U
C61 C -0.3686(6) -0.5102(3) 0.0420(4) 0.0310(14) Uani 1 1 d . .
C62 C -0.2844(7) -0.4928(4) 0.1976(4) 0.0398(16) Uani 1 1 d . .
H62A H -0.2407 -0.4568 0.2410 0.048 Uiso 1 1 calc R U
H62B H -0.2363 -0.5379 0.2067 0.048 Uiso 1 1 calc R U
C63 C -0.4103(7) -0.5049(3) 0.2162(5) 0.0388(16) Uani 1 1 d . .
H63A H -0.4044 -0.5204 0.2806 0.047 Uiso 1 1 calc R U
H63B H -0.4580 -0.4597 0.2076 0.047 Uiso 1 1 calc R U
C64 C -0.4568(6) -0.5534(3) 0.0675(4) 0.0308(13) Uani 1 1 d . .
C65 C -0.5324(6) -0.5962(3) 0.0024(4) 0.0330(14) Uani 1 1 d . .
H65 H -0.5925 -0.6270 0.0203 0.040 Uiso 1 1 calc R U
C66 C -0.5191(6) -0.5934(3) -0.0894(4) 0.0277(13) Uani 1 1 d . .
H66 H -0.5705 -0.6219 -0.1343 0.033 Uiso 1 1 calc R U
C67 C -0.4371(6) -0.2818(3) -0.6399(4) 0.0301(14) Uani 1 1 d . .
H67 H -0.5167 -0.2563 -0.6376 0.036 Uiso 1 1 calc R U
C68 C -0.4337(6) -0.2967(3) -0.7404(4) 0.0319(14) Uani 1 1 d . .
H68A H -0.4421 -0.2508 -0.7741 0.038 Uiso 1 1 calc R U
H68B H -0.3514 -0.3171 -0.7443 0.038 Uiso 1 1 calc R U
C69 C -0.3313(6) -0.2317(3) -0.6017(4) 0.0345(14) Uani 1 1 d . .
H69A H -0.3376 -0.1882 -0.6392 0.052 Uiso 1 1 calc R U
H69B H -0.2518 -0.2554 -0.6027 0.052 Uiso 1 1 calc R U
H69C H -0.3361 -0.2189 -0.5385 0.052 Uiso 1 1 calc R U
C70 C -0.2259(6) -0.3229(3) -0.4146(4) 0.0312(14) Uani 1 1 d . .
H70A H -0.2950 -0.2909 -0.4092 0.047 Uiso 1 1 calc R U
H70B H -0.1749 -0.3011 -0.4547 0.047 Uiso 1 1 calc R U
H70C H -0.1749 -0.3310 -0.3538 0.047 Uiso 1 1 calc R U
C71 C -0.5454(6) -0.4333(3) -0.2661(4) 0.0313(14) Uani 1 1 d . .
H71A H -0.5938 -0.4466 -0.3262 0.047 Uiso 1 1 calc R U
H71B H -0.5395 -0.3811 -0.2615 0.047 Uiso 1 1 calc R U
H71C H -0.5867 -0.4518 -0.2178 0.047 Uiso 1 1 calc R U
N11 N -0.8477(5) -0.7493(3) -0.8239(3) 0.0281(11) Uani 1 1 d . .
N12 N -0.6555(5) -0.6788(3) -0.7209(4) 0.0281(11) Uani 1 1 d . .
H12 H -0.727(7) -0.682(4) -0.713(5) 0.034 Uiso 1 1 d . U
N13 N -0.6223(5) -0.6102(3) -0.5905(3) 0.0274(11) Uani 1 1 d . .
H13 H -0.700(7) -0.620(4) -0.588(5) 0.033 Uiso 1 1 d . U
N14 N -0.4383(4) -0.3508(3) -0.5895(3) 0.0262(11) Uani 1 1 d . .
N15 N -0.4205(5) -0.4639(3) -0.2554(3) 0.0267(11) Uani 1 1 d . .
O11 O -0.4573(4) -0.6460(2) -0.6516(3) 0.0336(10) Uani 1 1 d . .
O12 O -0.4111(3) -0.4946(2) -0.4375(3) 0.0242(8) Uani 1 1 d . .
O13 O -0.6484(4) -0.3482(2) -0.6214(3) 0.0358(10) Uani 1 1 d . .
O14 O -0.5067(4) -0.5897(2) -0.2798(3) 0.0339(10) Uani 1 1 d . .
O15 O -0.2823(4) -0.5678(2) -0.2304(3) 0.0334(10) Uani 1 1 d . .
O16 O -0.2913(4) -0.4677(2) 0.1041(3) 0.0382(11) Uani 1 1 d . .
O17 O -0.4748(4) -0.5591(2) 0.1554(3) 0.0359(10) Uani 1 1 d . .
O18 O -0.5274(4) -0.3442(2) -0.7845(3) 0.0343(10) Uani 1 1 d . .
H18 H -0.601(8) -0.328(5) -0.780(6) 0.06(3) Uiso 1 1 d . .
S2 S -0.40667(14) -0.54790(7) -0.22855(10) 0.0267(3) Uani 1 1 d . .
loop_
_atom_site_aniso_label
_atom_site_aniso_U_11
_atom_site_aniso_U_22
_atom_site_aniso_U_33
_atom_site_aniso_U_23
_atom_site_aniso_U_13
_atom_site_aniso_U_12
C1 0.033(3) 0.012(3) 0.032(3) -0.001(2) 0.010(2) -0.002(2)
C2 0.036(3) 0.015(3) 0.027(3) -0.002(2) 0.006(3) 0.000(2)
C3 0.037(3) 0.023(3) 0.033(3) -0.003(3) 0.009(3) 0.000(3)
C4 0.035(3) 0.021(3) 0.038(3) -0.003(3) 0.008(3) 0.002(3)
C5 0.039(4) 0.018(3) 0.031(3) -0.003(2) -0.002(3) 0.004(3)
C6 0.040(3) 0.011(3) 0.029(3) -0.001(2) 0.003(3) -0.004(2)
C7 0.048(4) 0.017(3) 0.029(3) 0.002(2) 0.004(3) -0.001(3)
C8 0.042(4) 0.026(3) 0.030(3) 0.006(2) 0.011(3) -0.006(3)
C9 0.036(3) 0.026(3) 0.038(4) 0.003(3) 0.009(3) -0.003(3)
C10 0.029(3) 0.016(3) 0.033(3) 0.000(2) 0.010(3) 0.001(2)
C11 0.036(3) 0.017(3) 0.033(3) 0.001(2) 0.012(3) -0.004(2)
C12 0.025(3) 0.024(3) 0.023(3) 0.002(2) 0.005(2) -0.002(2)
C13 0.027(3) 0.019(3) 0.029(3) -0.001(2) 0.009(2) -0.003(2)
C14 0.031(3) 0.020(3) 0.022(3) -0.004(2) 0.005(2) 0.000(2)
C15 0.030(3) 0.017(3) 0.030(3) 0.000(2) 0.002(3) -0.003(2)
C16 0.030(3) 0.021(3) 0.032(3) -0.002(2) 0.010(3) 0.001(2)
C17 0.035(3) 0.013(3) 0.028(3) 0.000(2) 0.012(2) 0.001(2)
C18 0.029(3) 0.023(3) 0.033(3) 0.003(2) 0.012(3) 0.001(2)
C19 0.032(3) 0.017(3) 0.028(3) -0.004(2) 0.002(2) 0.002(2)
C20 0.039(3) 0.019(3) 0.030(3) 0.000(2) 0.006(3) -0.002(3)
C21 0.036(3) 0.019(3) 0.030(3) -0.001(2) 0.004(3) -0.003(3)
C22 0.058(4) 0.033(4) 0.026(3) -0.005(3) 0.012(3) -0.012(3)
C23 0.055(4) 0.039(4) 0.029(3) 0.004(3) 0.006(3) -0.003(3)
C24 0.034(3) 0.023(3) 0.025(3) -0.002(2) 0.003(2) 0.001(3)
C25 0.029(3) 0.036(4) 0.032(3) -0.006(3) 0.003(3) -0.004(3)
C26 0.036(3) 0.026(3) 0.037(3) -0.001(3) 0.010(3) -0.004(3)
C27 0.031(3) 0.017(3) 0.034(3) -0.008(2) 0.003(3) 0.005(2)
C28 0.035(3) 0.022(3) 0.035(3) -0.007(3) 0.008(3) 0.000(3)
C29 0.043(4) 0.017(3) 0.036(3) -0.005(2) 0.007(3) -0.003(3)
C30 0.036(3) 0.024(3) 0.037(3) -0.002(3) 0.010(3) -0.008(3)
C31 0.030(3) 0.021(3) 0.039(3) 0.001(3) 0.006(3) 0.002(2)
N1 0.034(3) 0.020(3) 0.030(3) 0.002(2) 0.007(2) -0.001(2)
N2 0.030(3) 0.019(3) 0.028(3) 0.005(2) 0.009(2) 0.003(2)
N3 0.028(3) 0.024(3) 0.031(3) 0.004(2) 0.011(2) -0.004(2)
N4 0.029(3) 0.012(2) 0.031(3) -0.0036(19) 0.004(2) 0.0006(19)
N5 0.031(3) 0.017(3) 0.033(3) -0.006(2) 0.005(2) -0.006(2)
O1 0.028(2) 0.034(2) 0.040(3) 0.0068(19) 0.0124(19) -0.0011(18)
O2 0.031(2) 0.0150(19) 0.028(2) 0.0010(16) 0.0126(17) -0.0038(16)
O3 0.032(2) 0.028(2) 0.036(2) -0.0075(18) 0.0075(19) 0.0022(18)
O4 0.035(2) 0.024(2) 0.033(2) -0.0021(17) 0.0087(19) -0.0004(18)
O5 0.039(2) 0.023(2) 0.032(2) 0.0013(17) 0.0065(19) 0.0008(18)
O6 0.063(3) 0.030(2) 0.026(2) -0.0022(18) 0.014(2) -0.018(2)
O7 0.045(3) 0.036(3) 0.027(2) -0.0015(18) 0.0017(19) -0.009(2)
O8 0.042(3) 0.029(2) 0.032(2) -0.0028(18) 0.010(2) -0.003(2)
S1 0.0299(7) 0.0182(7) 0.0268(7) 0.0007(6) 0.0068(6) -0.0003(6)
C41 0.036(3) 0.016(3) 0.029(3) 0.003(2) 0.006(3) -0.002(2)
C42 0.036(3) 0.015(3) 0.032(3) 0.002(2) 0.004(3) 0.000(2)
C43 0.034(3) 0.022(3) 0.041(4) 0.004(3) 0.006(3) 0.000(3)
C44 0.035(3) 0.029(3) 0.042(4) 0.004(3) 0.012(3) 0.005(3)
C45 0.044(4) 0.024(3) 0.037(4) 0.002(3) 0.015(3) 0.007(3)
C46 0.045(4) 0.015(3) 0.032(3) 0.007(2) 0.006(3) 0.002(3)
C47 0.048(4) 0.017(3) 0.030(3) 0.001(2) 0.002(3) -0.001(3)
C48 0.039(4) 0.019(3) 0.034(3) -0.003(3) 0.000(3) -0.002(3)
C49 0.041(4) 0.023(3) 0.036(3) 0.003(3) 0.012(3) -0.001(3)
C50 0.033(3) 0.019(3) 0.031(3) 0.002(2) 0.006(3) -0.004(2)
C51 0.034(3) 0.027(3) 0.027(3) -0.002(2) 0.001(3) -0.008(3)
C52 0.028(3) 0.019(3) 0.026(3) -0.001(2) 0.004(2) -0.003(2)
C53 0.027(3) 0.024(3) 0.032(3) -0.001(3) 0.009(2) -0.009(3)
C54 0.033(3) 0.028(3) 0.029(3) 0.005(2) 0.009(3) -0.001(3)
C55 0.029(3) 0.024(3) 0.028(3) 0.001(2) 0.010(2) 0.000(2)
C56 0.028(3) 0.016(3) 0.028(3) -0.002(2) 0.002(2) 0.001(2)
C57 0.028(3) 0.013(3) 0.027(3) -0.003(2) 0.000(2) -0.002(2)
C58 0.027(3) 0.019(3) 0.031(3) -0.003(2) 0.003(2) 0.000(2)
C59 0.030(3) 0.023(3) 0.029(3) -0.003(2) 0.008(2) 0.003(3)
C60 0.038(3) 0.022(3) 0.034(3) 0.003(3) 0.013(3) -0.003(3)
C61 0.042(4) 0.022(3) 0.031(3) -0.005(3) 0.010(3) 0.000(3)
C62 0.064(5) 0.028(3) 0.026(3) -0.001(3) 0.007(3) -0.008(3)
C63 0.062(5) 0.021(3) 0.033(3) -0.004(3) 0.010(3) -0.003(3)
C64 0.045(4) 0.022(3) 0.028(3) 0.002(2) 0.016(3) 0.002(3)
C65 0.036(3) 0.030(3) 0.035(3) 0.004(3) 0.012(3) -0.002(3)
C66 0.031(3) 0.025(3) 0.028(3) 0.001(2) 0.008(2) -0.002(2)
C67 0.036(3) 0.021(3) 0.034(3) 0.009(2) 0.007(3) -0.004(3)
C68 0.033(3) 0.030(3) 0.032(3) 0.006(3) 0.004(3) -0.005(3)
C69 0.043(4) 0.021(3) 0.040(4) 0.003(3) 0.010(3) -0.001(3)
C70 0.036(3) 0.020(3) 0.037(3) 0.000(3) 0.005(3) -0.009(3)
C71 0.031(3) 0.030(3) 0.034(3) 0.003(3) 0.011(3) 0.003(3)
N11 0.033(3) 0.020(2) 0.030(3) 0.000(2) 0.005(2) -0.003(2)
N12 0.028(3) 0.022(3) 0.034(3) -0.005(2) 0.007(2) 0.001(2)
N13 0.029(3) 0.022(3) 0.031(3) -0.006(2) 0.004(2) -0.007(2)
N14 0.031(3) 0.021(3) 0.026(3) 0.0037(19) 0.005(2) -0.003(2)
N15 0.028(3) 0.023(3) 0.031(3) 0.002(2) 0.011(2) 0.003(2)
O11 0.029(2) 0.035(2) 0.037(2) -0.0020(19) 0.0029(19) -0.0009(19)
O12 0.026(2) 0.0189(19) 0.026(2) -0.0017(16) 0.0006(16) -0.0050(16)
O13 0.031(2) 0.033(2) 0.042(3) 0.013(2) 0.005(2) 0.000(2)
O14 0.044(3) 0.026(2) 0.032(2) -0.0033(18) 0.010(2) -0.0102(19)
O15 0.042(3) 0.022(2) 0.040(2) 0.0059(18) 0.015(2) 0.0025(18)
O16 0.058(3) 0.027(2) 0.030(2) -0.0027(18) 0.010(2) -0.014(2)
O17 0.051(3) 0.028(2) 0.031(2) -0.0005(18) 0.014(2) -0.007(2)
O18 0.034(3) 0.029(2) 0.039(2) -0.0003(19) 0.003(2) -0.001(2)
S2 0.0332(8) 0.0198(7) 0.0290(7) 0.0004(6) 0.0104(6) -0.0015(6)
loop_
_atom_type_symbol
_atom_type_description
_atom_type_scat_dispersion_real
_atom_type_scat_dispersion_imag
_atom_type_scat_source
C C 0.0181 0.0091 'International Tables Vol C Tables 4.2.6.8 and 6.1.1.4'
H H 0.0000 0.0000 'International Tables Vol C Tables 4.2.6.8 and 6.1.1.4'
N N 0.0311 0.0180 'International Tables Vol C Tables 4.2.6.8 and 6.1.1.4'
O O 0.0492 0.0322 'International Tables Vol C Tables 4.2.6.8 and 6.1.1.4'
S S 0.3331 0.5567 'International Tables Vol C Tables 4.2.6.8 and 6.1.1.4'
loop_
_geom_angle_atom_site_label_1
_geom_angle_atom_site_label_2
_geom_angle_atom_site_label_3
_geom_angle
N1 C1 C6 122.3(5)
N1 C1 C2 119.2(5)
C6 C1 C2 118.5(5)
C3 C2 N2 123.9(5)
C3 C2 C1 120.2(5)
N2 C2 C1 116.0(5)
C2 C3 C4 120.2(6)
C2 C3 H3 119.9
C4 C3 H3 119.9
C5 C4 C3 121.4(6)
C5 C4 H4 119.3
C3 C4 H4 119.3
C4 C5 C6 120.0(6)
C4 C5 H5 120.0
C6 C5 H5 120.0
C5 C6 C7 122.7(5)
C5 C6 C1 119.7(5)
C7 C6 C1 117.5(6)
C8 C7 C6 119.5(5)
C8 C7 H7 120.2
C6 C7 H7 120.2
C7 C8 C9 118.6(6)
C7 C8 H8 120.7
C9 C8 H8 120.7
N1 C9 C8 124.8(6)
N1 C9 H9 117.6
C8 C9 H9 117.6
O1 C10 N3 122.7(5)
O1 C10 N2 124.6(6)
N3 C10 N2 112.7(5)
N3 C11 C12 116.3(5)
N3 C11 H11A 108.2
C12 C11 H11A 108.2
N3 C11 H11B 108.2
C12 C11 H11B 108.2
H11A C11 H11B 107.4
C13 C12 O2 129.2(5)
C13 C12 C11 122.9(5)
O2 C12 C11 107.8(5)
C12 C13 C14 136.2(5)
C12 C13 H13A 111.9
C14 C13 H13A 111.9
O3 C14 N4 122.1(5)
O3 C14 C13 116.3(5)
N4 C14 C13 121.4(5)
N4 C15 C16 114.3(5)
N4 C15 H15A 108.7
C16 C15 H15A 108.7
N4 C15 H15B 108.7
C16 C15 H15B 108.7
H15A C15 H15B 107.6
C17 C16 C30 111.3(5)
C17 C16 C15 109.8(5)
C30 C16 C15 115.2(5)
C17 C16 H16 106.7
C30 C16 H16 106.7
C15 C16 H16 106.7
O2 C17 C16 109.1(5)
O2 C17 C18 105.0(4)
C16 C17 C18 113.1(5)
O2 C17 H17 109.8
C16 C17 H17 109.8
C18 C17 H17 109.8
N5 C18 C17 112.1(5)
N5 C18 H18A 109.2
C17 C18 H18A 109.2
N5 C18 H18B 109.2
C17 C18 H18B 109.2
H18A C18 H18B 107.9
C20 C19 C26 122.3(6)
C20 C19 S1 117.4(5)
C26 C19 S1 120.1(5)
C19 C20 C21 118.9(6)
C19 C20 H20 120.5
C21 C20 H20 120.5
O6 C21 C24 123.3(5)
O6 C21 C20 117.6(5)
C24 C21 C20 119.1(6)
O6 C22 C23 109.8(6)
O6 C22 H22A 109.7
C23 C22 H22A 109.7
O6 C22 H22B 109.7
C23 C22 H22B 109.7
H22A C22 H22B 108.2
O7 C23 C22 111.7(6)
O7 C23 H23A 109.3
C22 C23 H23A 109.3
O7 C23 H23B 109.3
C22 C23 H23B 109.3
H23A C23 H23B 107.9
C25 C24 C21 121.7(5)
C25 C24 O7 116.7(5)
C21 C24 O7 121.5(5)
C24 C25 C26 119.7(6)
C24 C25 H25 120.2
C26 C25 H25 120.2
C25 C26 C19 118.3(6)
C25 C26 H26 120.8
C19 C26 H26 120.8
N4 C27 C29 114.6(5)
N4 C27 C28 109.2(5)
C29 C27 C28 109.5(5)
N4 C27 H27 107.8
C29 C27 H27 107.8
C28 C27 H27 107.8
O8 C28 C27 113.1(5)
O8 C28 H28A 108.9
C27 C28 H28A 109.0
O8 C28 H28B 109.0
C27 C28 H28B 109.0
H28A C28 H28B 107.8
C27 C29 H29A 109.5
C27 C29 H29B 109.5
H29A C29 H29B 109.5
C27 C29 H29C 109.5
H29A C29 H29C 109.5
H29B C29 H29C 109.5
C16 C30 H30A 109.5
C16 C30 H30B 109.5
H30A C30 H30B 109.5
C16 C30 H30C 109.5
H30A C30 H30C 109.5
H30B C30 H30C 109.5
N5 C31 H31A 109.5
N5 C31 H31B 109.5
H31A C31 H31B 109.5
N5 C31 H31C 109.5
H31A C31 H31C 109.5
H31B C31 H31C 109.5
C9 N1 C1 117.3(5)
C10 N2 C2 125.9(5)
C10 N2 H2 113(5)
C2 N2 H2 121(5)
C10 N3 C11 119.5(5)
C10 N3 H3A 117(6)
C11 N3 H3A 121(6)
C14 N4 C15 121.4(5)
C14 N4 C27 116.9(5)
C15 N4 C27 119.2(5)
C18 N5 C31 118.2(5)
C18 N5 S1 121.6(4)
C31 N5 S1 116.5(4)
C12 O2 C17 120.1(4)
C21 O6 C22 111.2(5)
C24 O7 C23 113.2(5)
C28 O8 H8A 110(5)
O5 S1 O4 119.4(3)
O5 S1 N5 110.1(3)
O4 S1 N5 107.3(3)
O5 S1 C19 107.0(3)
O4 S1 C19 108.5(3)
N5 S1 C19 103.4(3)
N11 C41 C46 122.7(5)
N11 C41 C42 118.6(5)
C46 C41 C42 118.7(5)
C43 C42 N12 125.4(6)
C43 C42 C41 119.3(6)
N12 C42 C41 115.3(5)
C42 C43 C44 121.3(6)
C42 C43 H43 119.4
C44 C43 H43 119.4
C45 C44 C43 121.1(6)
C45 C44 H44 119.5
C43 C44 H44 119.5
C44 C45 C46 119.5(6)
C44 C45 H45 120.2
C46 C45 H45 120.2
C45 C46 C47 123.5(6)
C45 C46 C41 120.1(6)
C47 C46 C41 116.4(6)
C48 C47 C46 120.4(6)
C48 C47 H47 119.8
C46 C47 H47 119.8
C47 C48 C49 119.6(6)
C47 C48 H48 120.2
C49 C48 H48 120.2
N11 C49 C48 123.4(6)
N11 C49 H49 118.3
C48 C49 H49 118.3
O11 C50 N13 123.0(6)
O11 C50 N12 123.8(6)
N13 C50 N12 113.2(5)
N13 C51 C52 115.2(5)
N13 C51 H51A 108.5
C52 C51 H51A 108.5
N13 C51 H51B 108.5
C52 C51 H51B 108.5
H51A C51 H51B 107.5
C53 C52 O12 129.8(5)
C53 C52 C51 123.6(5)
O12 C52 C51 106.6(5)
C52 C53 C54 137.0(6)
C52 C53 H53 111.5
C54 C53 H53 111.5
O13 C54 N14 121.1(5)
O13 C54 C53 117.2(5)
N14 C54 C53 121.5(5)
N14 C55 C56 114.3(5)
N14 C55 H55A 108.7
C56 C55 H55A 108.7
N14 C55 H55B 108.7
C56 C55 H55B 108.7
H55A C55 H55B 107.6
C57 C56 C70 111.0(5)
C57 C56 C55 111.2(5)
C70 C56 C55 113.4(5)
C57 C56 H56 107.0
C70 C56 H56 107.0
C55 C56 H56 107.0
O12 C57 C56 109.8(4)
O12 C57 C58 104.5(4)
C56 C57 C58 112.3(5)
O12 C57 H57 110.0
C56 C57 H57 110.0
C58 C57 H57 110.0
N15 C58 C57 114.2(5)
N15 C58 H58A 108.7
C57 C58 H58A 108.7
N15 C58 H58B 108.7
C57 C58 H58B 108.7
H58A C58 H58B 107.6
C66 C59 C60 121.7(5)
C66 C59 S2 119.7(4)
C60 C59 S2 118.5(4)
C59 C60 C61 118.5(6)
C59 C60 H60 120.7
C61 C60 H60 120.7
C64 C61 O16 122.1(5)
C64 C61 C60 120.9(6)
O16 C61 C60 117.1(5)
O16 C62 C63 110.3(6)
O16 C62 H62A 109.6
C63 C62 H62A 109.6
O16 C62 H62B 109.6
C63 C62 H62B 109.6
H62A C62 H62B 108.1
O17 C63 C62 110.7(5)
O17 C63 H63A 109.5
C62 C63 H63A 109.5
O17 C63 H63B 109.5
C62 C63 H63B 109.5
H63A C63 H63B 108.1
O17 C64 C61 123.4(6)
O17 C64 C65 116.4(5)
C61 C64 C65 120.2(5)
C66 C65 C64 119.7(6)
C66 C65 H65 120.1
C64 C65 H65 120.1
C59 C66 C65 119.0(6)
C59 C66 H66 120.5
C65 C66 H66 120.5
N14 C67 C69 115.2(5)
N14 C67 C68 109.6(5)
C69 C67 C68 108.8(5)
N14 C67 H67 107.7
C69 C67 H67 107.7
C68 C67 H67 107.7
O18 C68 C67 114.7(5)
O18 C68 H68A 108.6
C67 C68 H68A 108.6
O18 C68 H68B 108.6
C67 C68 H68B 108.6
H68A C68 H68B 107.6
C67 C69 H69A 109.5
C67 C69 H69B 109.5
H69A C69 H69B 109.5
C67 C69 H69C 109.5
H69A C69 H69C 109.5
H69B C69 H69C 109.5
C56 C70 H70A 109.5
C56 C70 H70B 109.5
H70A C70 H70B 109.5
C56 C70 H70C 109.5
H70A C70 H70C 109.5
H70B C70 H70C 109.5
N15 C71 H71A 109.5
N15 C71 H71B 109.5
H71A C71 H71B 109.5
N15 C71 H71C 109.5
H71A C71 H71C 109.5
H71B C71 H71C 109.5
C49 N11 C41 117.5(5)
C50 N12 C42 126.1(5)
C50 N12 H12 118(5)
C42 N12 H12 115(5)
C50 N13 C51 119.1(5)
C50 N13 H13 118(5)
C51 N13 H13 118(4)
C54 N14 C55 120.7(5)
C54 N14 C67 116.3(5)
C55 N14 C67 120.8(5)
C71 N15 C58 117.4(5)
C71 N15 S2 116.6(4)
C58 N15 S2 121.3(4)
C52 O12 C57 119.5(4)
C61 O16 C62 111.6(5)
C64 O17 C63 113.7(5)
C68 O18 H18 110(6)
O15 S2 O14 119.0(3)
O15 S2 N15 107.2(3)
O14 S2 N15 111.7(3)
O15 S2 C59 109.4(3)
O14 S2 C59 105.6(3)
N15 S2 C59 102.8(3)
loop_
_geom_bond_atom_site_label_1
_geom_bond_atom_site_label_2
_geom_bond_distance
C1 N1 1.362(7)
C1 C6 1.424(8)
C1 C2 1.433(8)
C2 C3 1.364(9)
C2 N2 1.417(8)
C3 C4 1.414(9)
C3 H3 0.9500
C4 C5 1.355(9)
C4 H4 0.9500
C5 C6 1.412(9)
C5 H5 0.9500
C6 C7 1.413(9)
C7 C8 1.357(9)
C7 H7 0.9500
C8 C9 1.406(9)
C8 H8 0.9500
C9 N1 1.311(8)
C9 H9 0.9500
C10 O1 1.202(7)
C10 N3 1.373(8)
C10 N2 1.386(7)
C11 N3 1.441(7)
C11 C12 1.506(8)
C11 H11A 0.9900
C11 H11B 0.9900
C12 C13 1.331(8)
C12 O2 1.342(7)
C13 C14 1.502(8)
C13 H13A 0.9500
C14 O3 1.246(7)
C14 N4 1.340(7)
C15 N4 1.464(7)
C15 C16 1.542(8)
C15 H15A 0.9900
C15 H15B 0.9900
C16 C17 1.513(8)
C16 C30 1.534(8)
C16 H16 1.0000
C17 O2 1.455(6)
C17 C18 1.531(8)
C17 H17 1.0000
C18 N5 1.459(8)
C18 H18A 0.9900
C18 H18B 0.9900
C19 C20 1.376(9)
C19 C26 1.396(8)
C19 S1 1.769(6)
C20 C21 1.400(8)
C20 H20 0.9500
C21 O6 1.362(7)
C21 C24 1.387(8)
C22 O6 1.441(7)
C22 C23 1.481(10)
C22 H22A 0.9900
C22 H22B 0.9900
C23 O7 1.426(8)
C23 H23A 0.9900
C23 H23B 0.9900
C24 C25 1.380(9)
C24 O7 1.388(7)
C25 C26 1.393(9)
C25 H25 0.9500
C26 H26 0.9500
C27 N4 1.488(7)
C27 C29 1.508(9)
C27 C28 1.524(8)
C27 H27 1.0000
C28 O8 1.428(8)
C28 H28A 0.9900
C28 H28B 0.9900
C29 H29A 0.9800
C29 H29B 0.9800
C29 H29C 0.9800
C30 H30A 0.9800
C30 H30B 0.9800
C30 H30C 0.9800
C31 N5 1.462(8)
C31 H31A 0.9800
C31 H31B 0.9800
C31 H31C 0.9800
N2 H2 0.80(7)
N3 H3A 0.73(7)
N5 S1 1.622(5)
O4 S1 1.427(4)
O5 S1 1.423(5)
O8 H8A 0.93(8)
C41 N11 1.365(8)
C41 C46 1.433(8)
C41 C42 1.446(8)
C42 C43 1.353(9)
C42 N12 1.404(8)
C43 C44 1.421(9)
C43 H43 0.9500
C44 C45 1.371(9)
C44 H44 0.9500
C45 C46 1.405(9)
C45 H45 0.9500
C46 C47 1.417(9)
C47 C48 1.335(9)
C47 H47 0.9500
C48 C49 1.414(9)
C48 H48 0.9500
C49 N11 1.325(8)
C49 H49 0.9500
C50 O11 1.222(7)
C50 N13 1.361(8)
C50 N12 1.387(8)
C51 N13 1.463(7)
C51 C52 1.518(8)
C51 H51A 0.9900
C51 H51B 0.9900
C52 C53 1.329(8)
C52 O12 1.360(7)
C53 C54 1.486(8)
C53 H53 0.9500
C54 O13 1.245(7)
C54 N14 1.350(8)
C55 N14 1.465(8)
C55 C56 1.549(8)
C55 H55A 0.9900
C55 H55B 0.9900
C56 C57 1.504(8)
C56 C70 1.530(8)
C56 H56 1.0000
C57 O12 1.457(6)
C57 C58 1.537(8)
C57 H57 1.0000
C58 N15 1.465(8)
C58 H58A 0.9900
C58 H58B 0.9900
C59 C66 1.380(8)
C59 C60 1.388(8)
C59 S2 1.776(6)
C60 C61 1.398(9)
C60 H60 0.9500
C61 C64 1.367(9)
C61 O16 1.379(7)
C62 O16 1.455(8)
C62 C63 1.475(10)
C62 H62A 0.9900
C62 H62B 0.9900
C63 O17 1.449(8)
C63 H63A 0.9900
C63 H63B 0.9900
C64 O17 1.362(7)
C64 C65 1.400(9)
C65 C66 1.399(9)
C65 H65 0.9500
C66 H66 0.9500
C67 N14 1.494(7)
C67 C69 1.514(9)
C67 C68 1.527(9)
C67 H67 1.0000
C68 O18 1.419(7)
C68 H68A 0.9900
C68 H68B 0.9900
C69 H69A 0.9800
C69 H69B 0.9800
C69 H69C 0.9800
C70 H70A 0.9800
C70 H70B 0.9800
C70 H70C 0.9800
C71 N15 1.464(8)
C71 H71A 0.9800
C71 H71B 0.9800
C71 H71C 0.9800
N12 H12 0.82(7)
N13 H13 0.88(7)
N15 S2 1.620(5)
O14 S2 1.441(4)
O15 S2 1.417(5)
O18 H18 0.88(9)
loop_
_geom_hbond_atom_site_label_D
_geom_hbond_atom_site_label_H
_geom_hbond_atom_site_label_A
_geom_hbond_distance_DH
_geom_hbond_distance_HA
_geom_hbond_distance_DA
_geom_hbond_angle_DHA
N2 H2 O13 0.80(7) 2.33(7) 3.057(7) 152(6)
N3 H3A O13 0.73(7) 2.07(7) 2.781(7) 166(8)
loop_
_geom_torsion_atom_site_label_1
_geom_torsion_atom_site_label_2
_geom_torsion_atom_site_label_3
_geom_torsion_atom_site_label_4
_geom_torsion
N1 C1 C2 C3 -177.6(5)
C6 C1 C2 C3 2.2(8)
N1 C1 C2 N2 1.9(8)
C6 C1 C2 N2 -178.4(5)
N2 C2 C3 C4 178.1(5)
C1 C2 C3 C4 -2.5(9)
C2 C3 C4 C5 1.3(9)
C3 C4 C5 C6 0.2(9)
C4 C5 C6 C7 176.4(6)
C4 C5 C6 C1 -0.4(8)
N1 C1 C6 C5 179.0(5)
C2 C1 C6 C5 -0.7(8)
N1 C1 C6 C7 2.0(8)
C2 C1 C6 C7 -177.7(5)
C5 C6 C7 C8 -177.3(6)
C1 C6 C7 C8 -0.4(8)
C6 C7 C8 C9 -0.5(9)
C7 C8 C9 N1 0.0(10)
N3 C11 C12 C13 19.6(9)
N3 C11 C12 O2 -164.0(5)
O2 C12 C13 C14 6.0(11)
C11 C12 C13 C14 -178.5(6)
C12 C13 C14 O3 -146.9(7)
C12 C13 C14 N4 39.1(10)
N4 C15 C16 C17 56.0(6)
N4 C15 C16 C30 -70.7(6)
C30 C16 C17 O2 -170.7(4)
C15 C16 C17 O2 60.5(6)
C30 C16 C17 C18 -54.3(6)
C15 C16 C17 C18 176.9(5)
O2 C17 C18 N5 -52.0(6)
C16 C17 C18 N5 -170.8(5)
C26 C19 C20 C21 -1.1(9)
S1 C19 C20 C21 -175.6(5)
C19 C20 C21 O6 178.2(5)
C19 C20 C21 C24 0.0(9)
O6 C22 C23 O7 62.9(7)
O6 C21 C24 C25 -177.8(6)
C20 C21 C24 C25 0.3(9)
O6 C21 C24 O7 1.9(9)
C20 C21 C24 O7 -179.9(5)
C21 C24 C25 C26 0.5(9)
O7 C24 C25 C26 -179.3(6)
C24 C25 C26 C19 -1.5(9)
C20 C19 C26 C25 1.9(9)
S1 C19 C26 C25 176.3(5)
N4 C27 C28 O8 56.3(6)
C29 C27 C28 O8 -177.5(5)
C8 C9 N1 C1 1.4(9)
C6 C1 N1 C9 -2.5(8)
C2 C1 N1 C9 177.3(5)
O1 C10 N2 C2 8.7(9)
N3 C10 N2 C2 -170.5(5)
C3 C2 N2 C10 -2.5(9)
C1 C2 N2 C10 178.1(5)
O1 C10 N3 C11 -9.2(9)
N2 C10 N3 C11 170.0(5)
C12 C11 N3 C10 90.3(7)
O3 C14 N4 C15 -177.2(5)
C13 C14 N4 C15 -3.5(8)
O3 C14 N4 C27 -15.0(8)
C13 C14 N4 C27 158.7(5)
C16 C15 N4 C14 -85.6(6)
C16 C15 N4 C27 112.6(6)
C29 C27 N4 C14 151.0(5)
C28 C27 N4 C14 -85.7(6)
C29 C27 N4 C15 -46.4(7)
C28 C27 N4 C15 76.9(6)
C17 C18 N5 C31 -59.6(7)
C17 C18 N5 S1 97.9(5)
C13 C12 O2 C17 13.7(9)
C11 C12 O2 C17 -162.3(5)
C16 C17 O2 C12 -93.4(6)
C18 C17 O2 C12 145.1(5)
C24 C21 O6 C22 19.6(8)
C20 C21 O6 C22 -158.6(6)
C23 C22 O6 C21 -50.0(7)
C25 C24 O7 C23 -170.9(6)
C21 C24 O7 C23 9.3(8)
C22 C23 O7 C24 -40.8(8)
C18 N5 S1 O5 -124.3(5)
C31 N5 S1 O5 33.6(5)
C18 N5 S1 O4 7.2(5)
C31 N5 S1 O4 165.0(4)
C18 N5 S1 C19 121.7(5)
C31 N5 S1 C19 -80.4(5)
C20 C19 S1 O5 -177.6(4)
C26 C19 S1 O5 7.7(6)
C20 C19 S1 O4 52.3(5)
C26 C19 S1 O4 -122.3(5)
C20 C19 S1 N5 -61.4(5)
C26 C19 S1 N5 124.0(5)
N11 C41 C42 C43 -179.0(5)
C46 C41 C42 C43 1.6(8)
N11 C41 C42 N12 0.5(8)
C46 C41 C42 N12 -178.9(5)
N12 C42 C43 C44 -179.7(6)
C41 C42 C43 C44 -0.2(9)
C42 C43 C44 C45 -0.8(9)
C43 C44 C45 C46 0.3(9)
C44 C45 C46 C47 179.5(6)
C44 C45 C46 C41 1.1(9)
N11 C41 C46 C45 178.6(6)
C42 C41 C46 C45 -2.0(8)
N11 C41 C46 C47 0.1(8)
C42 C41 C46 C47 179.4(5)
C45 C46 C47 C48 -179.9(6)
C41 C46 C47 C48 -1.4(8)
C46 C47 C48 C49 1.5(9)
C47 C48 C49 N11 -0.3(10)
N13 C51 C52 C53 16.5(9)
N13 C51 C52 O12 -166.6(5)
O12 C52 C53 C54 3.5(12)
C51 C52 C53 C54 179.7(6)
C52 C53 C54 O13 -143.6(7)
C52 C53 C54 N14 40.9(11)
N14 C55 C56 C57 54.8(6)
N14 C55 C56 C70 -71.0(6)
C70 C56 C57 O12 -171.3(5)
C55 C56 C57 O12 61.5(6)
C70 C56 C57 C58 -55.6(6)
C55 C56 C57 C58 177.3(4)
O12 C57 C58 N15 -53.3(6)
C56 C57 C58 N15 -172.2(5)
C66 C59 C60 C61 -0.2(9)
S2 C59 C60 C61 -176.9(5)
C59 C60 C61 C64 -0.5(9)
C59 C60 C61 O16 -179.9(5)
O16 C62 C63 O17 61.1(7)
O16 C61 C64 O17 -0.9(10)
C60 C61 C64 O17 179.7(6)
O16 C61 C64 C65 -179.3(6)
C60 C61 C64 C65 1.3(9)
O17 C64 C65 C66 -179.8(6)
C61 C64 C65 C66 -1.3(9)
C60 C59 C66 C65 0.1(9)
S2 C59 C66 C65 176.8(5)
C64 C65 C66 C59 0.6(9)
N14 C67 C68 O18 52.3(7)
C69 C67 C68 O18 179.1(5)
C48 C49 N11 C41 -1.0(9)
C46 C41 N11 C49 1.1(8)
C42 C41 N11 C49 -178.3(5)
O11 C50 N12 C42 2.9(10)
N13 C50 N12 C42 -178.4(5)
C43 C42 N12 C50 -8.8(10)
C41 C42 N12 C50 171.7(5)
O11 C50 N13 C51 -12.0(9)
N12 C50 N13 C51 169.4(5)
C52 C51 N13 C50 96.0(7)
O13 C54 N14 C55 -177.4(5)
C53 C54 N14 C55 -2.1(8)
O13 C54 N14 C67 -14.1(8)
C53 C54 N14 C67 161.1(5)
C56 C55 N14 C54 -85.7(6)
C56 C55 N14 C67 111.8(6)
C69 C67 N14 C54 152.5(5)
C68 C67 N14 C54 -84.4(6)
C69 C67 N14 C55 -44.2(8)
C68 C67 N14 C55 78.8(6)
C57 C58 N15 C71 -56.6(7)
C57 C58 N15 S2 98.1(5)
C53 C52 O12 C57 12.9(9)
C51 C52 O12 C57 -163.8(5)
C56 C57 O12 C52 -91.0(6)
C58 C57 O12 C52 148.3(5)
C64 C61 O16 C62 20.3(8)
C60 C61 O16 C62 -160.3(6)
C63 C62 O16 C61 -49.3(7)
C61 C64 O17 C63 11.9(8)
C65 C64 O17 C63 -169.6(5)
C62 C63 O17 C64 -41.2(7)
C71 N15 S2 O15 174.5(4)
C58 N15 S2 O15 19.6(5)
C71 N15 S2 O14 42.5(5)
C58 N15 S2 O14 -112.4(5)
C71 N15 S2 C59 -70.3(5)
C58 N15 S2 C59 134.8(5)
C66 C59 S2 O15 -120.0(5)
C60 C59 S2 O15 56.8(5)
C66 C59 S2 O14 9.2(5)
C60 C59 S2 O14 -174.0(5)
C66 C59 S2 N15 126.4(5)
C60 C59 S2 N15 -56.8(5)
