#------------------------------------------------------------------------------
#$Date: 2016-02-18 17:37:37 +0200 (Thu, 18 Feb 2016) $
#$Revision: 176729 $
#$URL: svn://www.crystallography.net/cod/cif/1/51/82/1518274.cif $
#------------------------------------------------------------------------------
#
# This file is available in the Crystallography Open Database (COD),
# http://www.crystallography.net/
#
# All data on this site have been placed in the public domain by the
# contributors.
#
data_1518274
loop_
_publ_author_name
'Kern, Nicolas'
'Felten, Anne-Sophie'
'Weibel, Jean-Marc'
'Pale, Patrick'
'Blanc, Aur\'elien'
_publ_section_title
;
 Robust Synthesis of N-Sulfonylazetidine Building Blocks via Ring
 Contraction of \a-Bromo N-Sulfonylpyrrolidinones.
;
_journal_issue                   23
_journal_name_full               'Organic letters'
_journal_page_first              6104
_journal_paper_doi               10.1021/ol5029496
_journal_volume                  16
_journal_year                    2014
_chemical_absolute_configuration rmad
_chemical_formula_moiety         'C18 H28 Br N O4 S Si'
_chemical_formula_sum            'C18 H28 Br N O4 S Si'
_chemical_formula_weight         462.47
_chemical_name_systematic
;
 ?
;
_space_group_crystal_system      monoclinic
_space_group_IT_number           4
_space_group_name_Hall           'P 2yb'
_space_group_name_H-M_alt        'P 1 21 1'
_symmetry_space_group_name_Hall  'P 2yb'
_symmetry_space_group_name_H-M   'P 1 21 1'
_atom_sites_solution_hydrogens   geom
_audit_creation_method           SHELXL-2013
_cell_angle_alpha                90
_cell_angle_beta                 95.852(3)
_cell_angle_gamma                90
_cell_formula_units_Z            2
_cell_length_a                   7.0702(6)
_cell_length_b                   12.6435(5)
_cell_length_c                   12.3450(10)
_cell_measurement_reflns_used    4913
_cell_measurement_temperature    173(2)
_cell_measurement_theta_max      27.485
_cell_measurement_theta_min      0.998
_cell_volume                     1097.79(14)
_computing_cell_refinement       'Denzo (Nonius B.V., 1998)'
_computing_data_collection       'Collect (Nonius B.V., 1998)'
_computing_data_reduction        'Denzo (Nonius B.V., 1998)'
_computing_molecular_graphics    'PLATON 98 (Spek, 1998)'
_computing_publication_material  'SHELXL-2013 (Sheldrick, 2013)'
_computing_structure_refinement  'SHELXL-2013 (Sheldrick, 2013)'
_computing_structure_solution    'SHELXS-2013 (Sheldrick, 2013)'
_diffrn_ambient_temperature      173(2)
_diffrn_measured_fraction_theta_full 0.999
_diffrn_measured_fraction_theta_max 0.993
_diffrn_measurement_device_type  KappaCCD
_diffrn_measurement_method       'phi and omega scans'
_diffrn_radiation_monochromator  graphite
_diffrn_radiation_type           MoK\a
_diffrn_radiation_wavelength     0.71073
_diffrn_reflns_av_R_equivalents  0.0430
_diffrn_reflns_av_unetI/netI     0.0749
_diffrn_reflns_Laue_measured_fraction_full 0.999
_diffrn_reflns_Laue_measured_fraction_max 0.993
_diffrn_reflns_limit_h_max       9
_diffrn_reflns_limit_h_min       -9
_diffrn_reflns_limit_k_max       16
_diffrn_reflns_limit_k_min       -13
_diffrn_reflns_limit_l_max       16
_diffrn_reflns_limit_l_min       -11
_diffrn_reflns_number            6629
_diffrn_reflns_point_group_measured_fraction_full 0.913
_diffrn_reflns_point_group_measured_fraction_max 0.882
_diffrn_reflns_theta_full        25.242
_diffrn_reflns_theta_max         27.456
_diffrn_reflns_theta_min         1.658
_diffrn_source                   'sealed tube'
_exptl_absorpt_coefficient_mu    2.043
_exptl_absorpt_correction_T_max  0.70071
_exptl_absorpt_correction_T_min  0.60802
_exptl_absorpt_correction_type   multi-scan
_exptl_absorpt_process_details   'MULscanABS in PLATON (Spek, 2003)'
_exptl_crystal_colour            colorless
_exptl_crystal_density_diffrn    1.399
_exptl_crystal_description       block
_exptl_crystal_F_000             480
_exptl_crystal_size_max          0.30
_exptl_crystal_size_mid          0.20
_exptl_crystal_size_min          0.15
_refine_diff_density_max         0.411
_refine_diff_density_min         -0.600
_refine_diff_density_rms         0.129
_refine_ls_abs_structure_details
;
 Flack x determined using 1125 quotients [(I+)-(I-)]/[(I+)+(I-)]
 (Parsons and Flack (2004), Acta Cryst. A60, s61).
;
_refine_ls_abs_structure_Flack   -0.010(8)
_refine_ls_extinction_method     none
_refine_ls_goodness_of_fit_ref   1.049
_refine_ls_hydrogen_treatment    constr
_refine_ls_matrix_type           full
_refine_ls_number_parameters     241
_refine_ls_number_reflns         4427
_refine_ls_number_restraints     1
_refine_ls_restrained_S_all      1.049
_refine_ls_R_factor_all          0.0791
_refine_ls_R_factor_gt           0.0450
_refine_ls_shift/su_max          0.000
_refine_ls_shift/su_mean         0.000
_refine_ls_structure_factor_coef Fsqd
_refine_ls_weighting_details
'w=1/[\s^2^(Fo^2^)+(0.0601P)^2^] where P=(Fo^2^+2Fc^2^)/3'
_refine_ls_weighting_scheme      calc
_refine_ls_wR_factor_gt          0.0975
_refine_ls_wR_factor_ref         0.1248
_reflns_Friedel_coverage         0.699
_reflns_Friedel_fraction_full    0.819
_reflns_Friedel_fraction_max     0.761
_reflns_number_gt                3190
_reflns_number_total             4427
_reflns_threshold_expression     'I > 2\s(I)'
_cod_data_source_file            ol5029496_si_002.cif
_cod_data_source_block           ppasf140619
_cod_depositor_comments
'Adding full bibliography for 1518273--1518274.cif.'
_cod_database_code               1518274
#BEGIN Tags that were not found in dictionaries:
_shelx_space_group_comment
;
The symmetry employed for this shelxl refinement is uniquely defined
by the following loop, which should always be used as a source of
symmetry information in preference to the above space-group names.
They are only intended as comments.
;
_shelxl_version_number           2013-4
_shelx_res_file
;
TITL import in P 21
CELL  0.71073   7.0702  12.6435  12.3450   90.000   95.852   90.000
ZERR     2.00   0.0006   0.0005   0.0010    0.000    0.003    0.000
LATT  -1
SYMM  - X, 1/2 + Y, - Z
SFAC  C    H    N    O    SI   S    BR
UNIT  36   56   2    8    2    2    2
MERG   2
FMAP   2
PLAN   10
ACTA
BOND   $H
CONF
L.S.   8
TEMP  -100.00
WGHT    0.060100
FVAR       0.48295
C1    1    0.827856    0.307817    0.942133    11.00000    0.03661    0.02396 =
         0.03184   -0.00689   -0.00290    0.00058
C2    1    0.638755    0.326837    0.954512    11.00000    0.03701    0.03737 =
         0.03863   -0.01066    0.00142    0.00346
AFIX  43
H2    2    0.568898    0.281393    0.997034    11.00000   -1.20000
AFIX   0
C3    1    0.555159    0.414524    0.902646    11.00000    0.03031    0.04863 =
         0.04483   -0.00895   -0.00604    0.01253
AFIX  43
H3    2    0.424957    0.428383    0.909796    11.00000   -1.20000
AFIX   0
C4    1    0.653130    0.483398    0.840440    11.00000    0.05082    0.03238 =
         0.03487   -0.01013   -0.01211    0.01073
C5    1    0.843264    0.461636    0.831591    11.00000    0.05271    0.02887 =
         0.03261   -0.00089   -0.00183    0.00485
AFIX  43
H5    2    0.914509    0.507678    0.790467    11.00000   -1.20000
AFIX   0
C6    1    0.930738    0.374209    0.881526    11.00000    0.03914    0.03279 =
         0.04492   -0.01185    0.00104    0.00404
AFIX  43
H6    2    1.060724    0.359875    0.874218    11.00000   -1.20000
AFIX   0
C7    1    0.558482    0.579215    0.787545    11.00000    0.07127    0.04698 =
         0.05417   -0.00104   -0.01555    0.02456
AFIX 137
H7A   2    0.654907    0.625585    0.761106    11.00000   -1.50000
H7B   2    0.490592    0.617437    0.840795    11.00000   -1.50000
H7C   2    0.468148    0.557186    0.726198    11.00000   -1.50000
AFIX   0
C8    1    0.749225    0.049210    0.894383    11.00000    0.03935    0.02798 =
         0.03241    0.00709   -0.00418    0.00169
C9    1    0.794875   -0.054633    0.842949    11.00000    0.04347    0.03301 =
         0.03511    0.00124   -0.01259   -0.00216
AFIX  13
H9    2    0.801933   -0.110443    0.900619    11.00000   -1.20000
AFIX   0
C10   1    0.992050   -0.041506    0.805604    11.00000    0.04447    0.02413 =
         0.03553   -0.00118   -0.00181    0.00200
AFIX  23
H10A  2    0.982921   -0.024759    0.726905    11.00000   -1.20000
H10B  2    1.067019   -0.107223    0.818738    11.00000   -1.20000
AFIX   0
C11   1    1.086053    0.050507    0.873139    11.00000    0.03217    0.02715 =
         0.03218    0.00132   -0.00732    0.01054
AFIX  13
H11   2    1.177882    0.022215    0.933136    11.00000   -1.20000
AFIX   0
C12   1    1.187193    0.124878    0.802028    11.00000    0.03106    0.03764 =
         0.03436    0.00561   -0.00244    0.00508
AFIX  23
H12A  2    1.244501    0.184095    0.846446    11.00000   -1.20000
H12B  2    1.290349    0.086691    0.770006    11.00000   -1.20000
AFIX   0
C13   1    1.240914    0.345665    0.635131    11.00000    0.03689    0.04305 =
         0.06732    0.00204    0.00077   -0.00774
AFIX 137
H13A  2    1.153214    0.394994    0.665405    11.00000   -1.50000
H13B  2    1.282331    0.375348    0.568117    11.00000   -1.50000
H13C  2    1.351829    0.334215    0.688204    11.00000   -1.50000
AFIX   0
C14   1    1.281985    0.126319    0.540762    11.00000    0.04579    0.05572 =
         0.05597    0.00115    0.01228    0.00667
AFIX 137
H14A  2    1.399382    0.118128    0.589544    11.00000   -1.50000
H14B  2    1.312026    0.155934    0.471179    11.00000   -1.50000
H14C  2    1.221156    0.057140    0.528217    11.00000   -1.50000
AFIX   0
C15   1    0.888458    0.234513    0.515454    11.00000    0.03564    0.05346 =
         0.03118    0.01131   -0.00199   -0.00012
C16   1    0.748378    0.299538    0.574036    11.00000    0.03989    0.07143 =
         0.05636    0.00641   -0.00603    0.01394
AFIX 137
H16A  2    0.632486    0.311612    0.524969    11.00000   -1.50000
H16B  2    0.806138    0.367672    0.596103    11.00000   -1.50000
H16C  2    0.716497    0.261113    0.638682    11.00000   -1.50000
AFIX   0
C17   1    0.926621    0.294304    0.410752    11.00000    0.05955    0.09902 =
         0.04797    0.03103   -0.00297   -0.00306
AFIX 137
H17A  2    0.806792    0.303658    0.364394    11.00000   -1.50000
H17B  2    1.015478    0.253478    0.371324    11.00000   -1.50000
H17C  2    0.981805    0.363710    0.430112    11.00000   -1.50000
AFIX   0
C18   1    0.803665    0.125891    0.485197    11.00000    0.04759    0.06891 =
         0.06173   -0.01036   -0.01222   -0.01705
AFIX 137
H18A  2    0.780017    0.087772    0.551611    11.00000   -1.50000
H18B  2    0.892978    0.085473    0.445701    11.00000   -1.50000
H18C  2    0.683672    0.134831    0.438891    11.00000   -1.50000
AFIX   0
N1    3    0.921123    0.100488    0.919405    11.00000    0.03245    0.02445 =
         0.03119   -0.00193   -0.00388    0.00186
O1    4    0.844552    0.170873    1.100740    11.00000    0.06394    0.05114 =
         0.02778    0.00155    0.00542    0.01339
O2    4    1.142612    0.220570    1.025212    11.00000    0.03932    0.03672 =
         0.04954   -0.01373   -0.01724    0.00669
O3    4    0.596549    0.080529    0.916214    11.00000    0.03777    0.04197 =
         0.04788   -0.00026    0.00209    0.00115
O4    4    1.053863    0.165010    0.717336    11.00000    0.02823    0.04064 =
         0.03614    0.01145   -0.00107    0.00442
SI1   5    1.117725    0.216889    0.604002    11.00000    0.02881    0.03244 =
         0.03558    0.00416    0.00134   -0.00079
S1    6    0.943836    0.199548    1.009496    11.00000    0.04145    0.03226 =
         0.03145   -0.00579   -0.00604    0.00674
BR1   7    0.599792   -0.094721    0.729302    11.00000    0.06055    0.05024 =
         0.07908   -0.02063   -0.02894    0.00295
HKLF    4

REM  import in P 21
REM R1 =  0.0450 for    3190 Fo > 4sig(Fo)  and  0.0791 for all    4427 data
REM    241 parameters refined using      1 restraints

END

WGHT      0.0601      0.0000

REM Highest difference peak  0.411,  deepest hole -0.600,  1-sigma level  0.129
Q1    1   1.0548  0.0943  0.3757  11.00000  0.05    0.41
Q2    1   0.8698  0.0941  0.3965  11.00000  0.05    0.40
Q3    1   0.3728  0.5854  0.7835  11.00000  0.05    0.38
Q4    1   1.0759  0.0168  0.3682  11.00000  0.05    0.35
Q5    1   1.2792  0.4111  0.5568  11.00000  0.05    0.35
Q6    1   1.3732  0.0791  0.4121  11.00000  0.05    0.34
Q7    1   0.5743  0.4133  0.6248  11.00000  0.05    0.34
Q8    1   0.9002  0.1579  0.2826  11.00000  0.05    0.34
Q9    1   0.8331  0.1820  0.3785  11.00000  0.05    0.34
Q10   1   0.6808  0.4019  0.5466  11.00000  0.05    0.33
;
_shelx_res_checksum              10114
_shelx_hkl_file
;
   9  -2   0    1.92    4.58
   9  -1   1    6.05    4.87
   9  -1   0   13.29    7.53
  -9   0   4   22.99    5.40
   9   1  -1   -4.93    7.47
   9   1  -2   10.27    8.30
  -9   1   4    2.62    4.77
   9   2  -1   12.75   10.35
   9   2  -2   -1.82    7.72
   9   2  -3   -3.83    5.36
   9   3  -1   -9.93    7.37
   9   3  -2    1.67    7.43
   8  -6   3   15.89    5.74
   8  -6   2   -2.50    4.12
   8  -6   1   38.15    7.53
   8  -6   0    9.62    6.51
   8  -5   4   43.29    7.78
   8  -5   3    7.74    4.17
   8  -5   2    4.90    5.64
   8  -5   1    4.31    4.45
   8  -5   0   11.02    5.66
   8  -4   5    7.40    5.29
   8  -4   4    0.45    5.72
   8  -4   3   36.08    6.75
   8  -4   2    4.32    5.66
   8  -4   1   22.17    4.91
   8  -4   0   10.58    6.11
   8  -3   5   -0.76    4.70
   8  -3   4   16.88    6.93
   8  -3   3   24.71    5.85
   8  -3   2   24.43    6.26
   8  -3   1    2.97    3.86
   8  -3   0   13.56    4.02
   8  -2   6   25.45    6.86
   8  -2   5    2.12    5.31
   8  -2   4    7.83    4.52
   8  -2   3   36.63    6.74
   8  -2   2    8.92    4.31
   8  -2   1   17.82    6.24
   8  -2   0    4.47    3.87
   8  -1   6   25.74    8.99
   8  -1   5    2.12    7.57
   8  -1   4   52.77    6.63
   8  -1   3   20.61    6.27
   8  -1   2   16.50    6.24
   8  -1   1    3.56    3.71
   8  -1   0   15.35    4.77
  -8   0   2    2.59    4.27
  -8   0   3   -0.77    4.17
  -8   0   4    2.81    4.22
  -8   0   5   -5.37    5.85
  -8   0   6   -5.26    4.30
  -8   0   7   -0.16    4.33
  -8   0   8   -0.32    5.15
  -8   0   9    5.48    6.76
   8   1  -1   -9.54    5.45
  -8   1   3    6.16    4.31
  -8   1   4   -1.71    3.59
  -8   1   5    5.83    5.83
  -8   1   6    7.32    6.36
  -8   1   7    4.48    4.48
  -8   1   8    1.61    7.23
  -8   1   9  -10.15    5.48
   8   2  -1   43.74    7.45
  -8   2   3    1.23    4.76
  -8   2   4   40.10    6.85
  -8   2   5   -2.67    5.66
  -8   2   6   -2.86    4.92
  -8   2   7   -1.28    4.79
  -8   2   8   -3.69    5.94
   8   3  -1   15.53    5.63
   8   3  -2    3.53    4.76
  -8   3   3   -0.77    3.68
  -8   3   4    0.62    3.72
  -8   3   5    0.47    3.92
  -8   3   6    6.96    4.75
  -8   3   7    7.81    5.10
  -8   3   8   -5.44    5.12
   8   4  -1    8.22    4.72
   8   4  -2   14.13    5.38
  -8   4   3    9.95    5.36
  -8   4   4    6.50    3.87
  -8   4   5    4.22    4.07
  -8   4   6   -2.21    4.58
  -8   4   7   -7.78    5.72
  -8   4   8   -4.95    4.63
   8   5  -1    3.50    7.45
   8   5  -2    1.23    7.82
  -8   5   3    5.05    3.98
  -8   5   4   -2.17    4.49
  -8   5   5    1.72    5.00
  -8   5   6    6.61    5.35
  -8   5   7   11.40    4.75
   8   6  -1    1.36    7.13
   8   6  -2   -2.14    5.35
  -8   6   4   11.46    5.42
  -8   6   5    2.81    6.25
  -8   6   6    7.87    6.14
   8   7  -1   15.71    6.49
   8   7  -2   -0.30    4.56
   8   7  -3    5.37    6.29
  -8   7   4    7.26    5.25
   8   8  -1    6.62    9.03
   7  -7   3    0.15    3.05
   7  -7   2   17.82    3.78
   7  -7   1    8.41    2.76
   7  -7   0   10.97    3.07
   7  -6   7   -2.07    4.14
   7  -6   6   30.04    5.34
   7  -6   5   20.42    6.96
   7  -6   4   24.98    5.48
   7  -6   3   17.25   11.06
   7  -6   2    0.74    3.09
   7  -6   1   18.58    3.84
   7  -6   0   19.62    3.87
   7  -5   7   22.04    6.75
   7  -5   6   10.66    6.00
   7  -5   5    4.20    3.45
   7  -5   4   10.03    5.24
   7  -5   3   58.31    6.59
   7  -5   2    2.08    3.12
   7  -5   1   -0.30    2.98
   7  -5   0   81.48    6.79
   7  -4   8   12.11    6.66
   7  -4   7    1.06    5.76
   7  -4   6   20.47    5.61
   7  -4   5   -1.21    4.84
   7  -4   4    5.88    3.62
   7  -4   3   77.06    7.53
   7  -4   2    3.14    5.08
   7  -4   1   39.30    4.94
   7  -4   0   10.66    3.31
   7  -3   8    6.40    7.17
   7  -3   7   43.16    7.63
   7  -3   6    5.79    3.66
   7  -3   5   93.32    8.68
   7  -3   4   45.28    5.14
   7  -3   3    4.80    4.65
   7  -3   1   30.06    4.79
   7  -3   0   -1.65    3.31
   7  -2   8   50.43   10.55
   7  -2   7   27.03    7.33
   7  -2   6   13.26    4.42
   7  -2   5    2.12    4.10
   7  -2   4   38.00    5.74
   7  -2   3   35.39    5.71
   7  -2   2   60.38    6.89
   7  -2   1   18.85    4.79
   7  -2   0   -2.41    4.06
   7  -1   9   32.68    7.03
   7  -1   8   14.21    6.72
   7  -1   7   14.50    5.04
   7  -1   6   24.97    6.09
   7  -1   5   33.49    5.61
   7  -1   4   12.05    5.27
   7  -1   3   78.26    6.93
   7  -1   2   18.99    5.54
   7  -1   1    2.40    2.85
   7  -1   0   69.39    6.96
  -7   0   2   15.63    4.33
  -7   0   3   14.08    4.07
  -7   0   4   29.07    5.22
  -7   0   5   24.50    5.73
  -7   0   6    0.16    4.48
  -7   0   7   15.40    4.01
  -7   0   8   10.92    6.10
  -7   0   9    1.76    4.49
  -7   0  10   -1.44    4.80
  -7   0  11  -10.69    4.63
  -7   1   2   51.34    5.26
  -7   1   3   -0.78    2.65
  -7   1   4   -5.67    4.41
  -7   1   5   17.47    5.40
  -7   1   6    2.72    4.47
  -7   1   7    4.49    4.01
  -7   1   8   13.17    5.30
  -7   1   9   -2.09    3.53
  -7   1  10   -2.40    4.33
  -7   1  11    4.31    5.75
   7   2  -1    2.31    3.39
  -7   2   2   14.14    5.07
  -7   2   3   20.37    3.42
  -7   2   4   30.32    5.19
  -7   2   5   -0.16    4.28
  -7   2   6    9.56    5.10
  -7   2   7   14.25    4.00
  -7   2   8    8.98    4.49
  -7   2   9    5.94    4.17
  -7   2  10    6.41    5.29
  -7   2  11    3.35    7.18
   7   3  -1   -1.23    3.24
  -7   3   2   43.41    5.23
  -7   3   3    2.64    2.95
  -7   3   4   26.48    4.55
  -7   3   5   35.23    5.85
  -7   3   6    5.25    5.09
  -7   3   7   10.86    3.83
  -7   3   8    1.28    4.16
  -7   3   9   -3.53    4.33
  -7   3  10   13.12    7.20
  -7   3  11   -7.02    5.58
   7   4  -1   63.02    8.79
  -7   4   2   -2.30    4.14
  -7   4   3   11.78    4.65
  -7   4   4   33.17    4.39
  -7   4   5    1.58    3.00
  -7   4   6    0.16    4.44
  -7   4   7   19.43    4.46
  -7   4   8    2.55    4.15
  -7   4   9   20.30    5.43
  -7   4  10    4.15    4.95
   7   5  -1    0.15    3.84
  -7   5   2   13.03    3.22
  -7   5   3   -0.16    3.88
  -7   5   4    0.78    3.13
  -7   5   5   14.81    4.88
  -7   5   6   28.33    5.07
  -7   5   7   22.87    4.13
  -7   5   8    3.02    5.89
  -7   5   9    4.30    5.10
  -7   5  10    7.64    5.25
   7   6  -1   19.58    5.97
  -7   6   3   19.53    3.42
  -7   6   4   12.37    4.70
  -7   6   5    1.89    3.15
  -7   6   6    2.53    3.48
  -7   6   7   12.20    4.44
  -7   6   8    1.11    3.81
  -7   6   9   34.90   11.74
   7   7  -1    9.74    5.02
   7   7  -2   21.81    5.38
  -7   7   3   11.27    4.33
  -7   7   4    4.70    5.17
  -7   7   5   26.20    4.74
  -7   7   6    3.17    5.38
  -7   7   7   19.32    5.86
  -7   7   8    3.48    3.96
   7   8  -1   13.18    5.30
   7   8  -2   14.06    5.50
  -7   8   4   12.00    3.12
  -7   8   5    3.47    3.16
  -7   8   6    7.45    3.80
   7   9  -1   11.92    5.28
   7   9  -2   12.03    6.09
   7   9  -3    1.23    4.77
   7  10  -1   12.66    5.27
   7  10  -2    7.76    5.32
   7  10  -3   16.76    6.00
   6  -8   3   32.24    3.71
   6  -8   2   22.71    3.35
   6  -8   1    3.44    1.86
   6  -8   0   13.75    2.30
   6  -7   7   73.08    8.71
   6  -7   6    3.86    4.31
   6  -7   5   11.55    4.89
   6  -7   4   33.77    4.45
   6  -7   3  119.04    8.07
   6  -7   2    4.52    2.33
   6  -7   1   11.06    3.20
   6  -7   0  114.96    7.19
   6  -6   9   22.40    6.58
   6  -6   8   47.44    6.74
   6  -6   7   18.50    4.03
   6  -6   6   54.91    5.71
   6  -6   5   18.64    3.73
   6  -6   4    8.03    3.42
   6  -6   3   17.33    3.71
   6  -6   2  102.01    7.02
   6  -6   1   94.51    6.58
   6  -6   1   79.07    6.62
   6  -6   0  112.48    8.25
   6  -6   0  132.60    7.74
   6  -5   9   23.59    5.56
   6  -5   8   13.68    4.36
   6  -5   7   16.41    5.27
   6  -5   6   12.96    3.62
   6  -5   5  308.74   15.32
   6  -5   4    0.90    3.45
   6  -5   3    2.39    3.74
   6  -5   2   43.52    4.64
   6  -5   1   27.20    3.30
   6  -5   0   -0.47    3.91
   6  -5   0   -2.41    3.17
   6  -4  10   20.87    8.62
   6  -4   9   33.89    7.12
   6  -4   8    8.79    6.21
   6  -4   7    5.16    3.18
   6  -4   6   41.85    6.38
   6  -4   5    8.63    3.03
   6  -4   4   73.71    5.76
   6  -4   3   25.21    3.31
   6  -4   2   49.26    4.81
   6  -4   1   16.82    2.86
   6  -4   0   41.69    4.71
   6  -3  10   45.06    8.05
   6  -3   9   39.47   15.19
   6  -3   8   11.25    4.56
   6  -3   7   64.48    6.86
   6  -3   5    6.21    2.88
   6  -3   4    7.09    2.87
   6  -3   3  339.80   17.00
   6  -3   2   49.94    4.96
   6  -2  10   -2.73    6.52
   6  -2   9   15.18    6.38
   6  -2   8   85.83    9.74
   6  -2   7   25.83    5.32
   6  -2   6   95.45    7.77
   6  -2   5   22.69    4.09
   6  -2   4   60.25    5.74
   6  -2   3   65.15    5.43
   6  -2   2   57.20    4.97
   6  -2   1   25.95    3.78
   6  -2   0    0.15    3.20
   6  -1  10   15.88    5.90
   6  -1   9   20.74    5.00
   6  -1   8   39.56    7.28
   6  -1   7   43.82    6.38
   6  -1   6   27.11    5.46
   6  -1   5  243.48   13.41
   6  -1   4    1.96    4.21
   6  -1   3   15.32    4.36
   6  -1   2  122.59    8.77
   6  -1   1   59.48    5.47
   6  -1   0   99.05    7.37
  -6   0   1   56.35    5.14
  -6   0   2    5.02    2.67
  -6   0   3    0.00    3.00
  -6   0   4    4.13    3.65
  -6   0   5   16.42    3.51
  -6   0   6   28.43    4.16
  -6   0   7   83.59    9.44
  -6   0   8   11.18    3.84
  -6   0   9    9.57    5.11
  -6   0  10   15.11    5.73
  -6   0  11    2.38    5.71
  -6   0  12   13.88    5.36
  -6   0  13    2.35    6.43
  -6   1   1   54.11    5.12
  -6   1   3  119.08    8.23
  -6   1   4   45.47    4.13
  -6   1   5   49.96    5.42
  -6   1   6   30.64    4.31
  -6   1   7    5.12    3.84
  -6   1   8   10.87    4.80
  -6   1   9    1.60    3.67
  -6   1  10    6.21    3.98
  -6   1  11    0.32    5.07
  -6   1  12  -10.41    6.94
  -6   1  13   10.04    5.49
  -6   2   1   83.81    5.89
  -6   2   2   76.60    5.79
  -6   2   3   73.32    5.99
  -6   2   4    7.90    2.84
  -6   2   7   32.91    4.16
  -6   2   8    1.76    3.20
  -6   2   9    9.58    4.95
  -6   2  10    1.75    3.82
  -6   2  11    0.79    3.65
  -6   2  12   23.19    6.00
  -6   3   1   22.90    4.46
  -6   3   2   88.69    5.94
  -6   3   3   11.90    3.29
  -6   3   4    6.46    4.10
  -6   3   5  122.88    8.75
  -6   3   6    3.50    2.86
  -6   3   7   22.97    3.83
  -6   3   8   43.44    4.80
  -6   3   9    3.83    3.83
  -6   3  10   10.67    5.09
  -6   3  11    0.16    3.96
  -6   3  12    1.74    4.58
  -6   4   1   29.92    3.54
  -6   4   2   37.09    3.89
  -6   4   3   59.76    6.12
  -6   4   4  120.50    8.07
  -6   4   5   33.97    5.06
  -6   4   6    6.03    7.61
  -6   4   7   37.38    4.78
  -6   4   8    0.00    3.19
  -6   4   9    4.46    3.51
  -6   4  10    0.95    3.50
  -6   4  11    7.13    5.23
  -6   4  12    0.16    5.84
  -6   5   2   60.65    5.30
  -6   5   3   77.01    6.61
  -6   5   4   21.40    3.94
  -6   5   5   48.92    5.38
  -6   5   6   23.89    4.12
  -6   5   7    8.72    3.33
  -6   5   8   10.01    4.92
  -6   5   9    1.75    3.81
  -6   5   9    3.81    3.18
  -6   5  10   19.51    4.60
  -6   5  11   -3.64    3.80
  -6   5  12    0.95    4.73
   6   6  -1   12.20    4.32
  -6   6   2    2.63    3.41
  -6   6   3    7.52    4.08
  -6   6   4    8.51    3.31
  -6   6   5   33.32   10.58
  -6   6   6    8.69    3.00
  -6   6   7   28.94    4.43
  -6   6   8   13.61    3.32
  -6   6   9    5.54    4.91
  -6   6   9    6.51    3.17
  -6   6  10    1.74    3.79
  -6   6  11    1.26    3.94
   6   7  -1   91.28    7.85
  -6   7   2    0.61    2.30
  -6   7   3   30.83    5.33
  -6   7   4   10.90    3.48
  -6   7   5   21.21    3.64
  -6   7   6   -2.21    3.64
  -6   7   7    1.11    4.10
  -6   7   8    6.31    4.42
  -6   7   8    4.29    3.18
  -6   7   9    3.96    3.33
  -6   7   9   -1.89    3.94
  -6   7  10    0.79    4.41
  -6   7  11    8.17    4.56
   6   8  -1    0.61    4.12
  -6   8   3   11.94    2.80
  -6   8   4    0.79    3.00
  -6   8   5    8.10    4.13
  -6   8   7    6.00    5.05
  -6   8   8    1.59    4.77
  -6   8   8    0.63    4.57
  -6   8   9    7.12    6.17
  -6   8  10    3.61    5.49
   6   9  -1   -3.64    3.94
   6   9  -2   12.44    4.76
  -6   9   7    9.64    4.34
  -6   9   8    5.88    3.50
  -6   9   9    5.20    5.83
   6  10  -1   14.53    4.54
   6  10  -2    2.60    3.98
   6  10  -3    4.19    4.19
  -6  10   6    5.35    5.68
  -6  10   7    5.78    5.30
  -6  10   8   -0.95    3.49
   6  11  -1   19.69    6.82
   6  11  -2    0.00    4.60
   6  11  -3    6.21    3.88
  -6  11   5   -1.14    4.89
  -6  11   6   -6.49    4.70
   6  12  -1   11.56    7.45
   6  12  -2   10.59    7.22
   6  12  -3    6.06    8.07
   6  12  -4   -4.24    5.34
  -6  12   4   -4.21    5.34
   5  -9   1   22.65    2.43
   5  -9   0   43.26    3.27
   5  -8   7    3.87    2.94
   5  -8   6   45.64    5.14
   5  -8   5    4.73    2.60
   5  -8   4   18.77    3.35
   5  -8   3   11.09    2.25
   5  -8   2   82.41    5.02
   5  -8   1   12.29    3.08
   5  -8   1   13.49    2.04
   5  -8   0   66.59    4.78
   5  -8   0   72.28    5.14
   5  -7  10   10.53    4.28
   5  -7   9   39.39    5.35
   5  -7   8   41.50    5.94
   5  -7   7   45.57    5.47
   5  -7   6   13.69    2.71
   5  -7   5  171.29    9.39
   5  -7   4  131.40    9.28
   5  -7   4  151.38    8.12
   5  -7   3    5.20    1.78
   5  -7   3    5.49    2.83
   5  -7   2   40.75    3.71
   5  -7   2   33.81    4.44
   5  -7   1   31.06    3.20
   5  -7   1   37.42    3.68
   5  -7   0   46.44    3.88
   5  -7   0   46.16    3.57
   5  -6  11   38.80    6.38
   5  -6  10    6.20    3.63
   5  -6   9   12.81    3.77
   5  -6   8    0.00    2.86
   5  -6   7   67.63    6.20
   5  -6   6   40.26    4.53
   5  -6   5   42.04    4.08
   5  -6   4   90.03    6.20
   5  -6   4   81.75    5.34
   5  -6   3    2.83    2.53
   5  -6   3    3.76    2.98
   5  -6   2  125.23    7.76
   5  -6   2  135.38    6.92
   5  -6   1   30.24    3.12
   5  -6   1   25.00    2.84
   5  -6   0   72.51    4.56
   5  -6   0   55.63    4.45
   5  -5  11    7.72    4.84
   5  -5  10   57.39    7.12
   5  -5   9   -6.18    5.88
   5  -5   8   26.99    5.89
   5  -5   7  105.73    7.90
   5  -5   6  121.94    7.92
   5  -5   5    0.00    2.50
   5  -5   5    0.15    2.26
   5  -5   4    5.65    3.77
   5  -5   4    4.36    2.41
   5  -5   3  140.93    7.42
   5  -5   3  125.88    7.77
   5  -5   2  135.79    8.09
   5  -5   2  159.69    7.55
   5  -5   1   55.00    4.07
   5  -5   1   49.44    4.41
   5  -5   0  109.73    6.79
   5  -5   0  108.52    6.60
   5  -4  11   20.90    6.21
   5  -4  10    1.21    3.63
   5  -4   9   52.59    5.61
   5  -4   8   44.74    4.85
   5  -4   7  100.59    8.36
   5  -4   6   33.28    3.64
   5  -4   5   17.52    3.33
   5  -4   4   53.87    4.53
   5  -4   4   49.70    5.69
   5  -4   3   53.92    4.96
   5  -4   3   50.19    4.76
   5  -4   2  293.82   14.11
   5  -4   2  308.92   14.67
   5  -4   1   33.47    3.64
   5  -4   1   41.93    3.33
   5  -4   0  178.92   10.29
   5  -4   0  202.13   10.67
   5  -3  12   37.60    8.19
   5  -3  11    2.72    4.54
   5  -3  10    3.02    3.78
   5  -3   9   24.47    4.69
   5  -3   8   88.99    7.89
   5  -3   7   14.06    3.33
   5  -3   6   17.53    4.23
   5  -3   4  163.53   10.04
   5  -3   4  155.56    9.37
   5  -3   3   63.47    4.96
   5  -3   3   62.30    5.10
   5  -3   2  125.66    7.85
   5  -3   2  143.84    7.26
   5  -3   1   95.90    6.87
   5  -3   1  101.18    6.10
   5  -3   0   32.12    3.65
   5  -3   0   34.59    3.70
   5  -2  12    1.06    9.21
   5  -2  11    8.28    5.42
   5  -2  10   26.94    4.97
   5  -2   9  158.60   11.20
   5  -2   8    6.93    4.22
   5  -2   7   56.48    5.14
   5  -2   6   22.73    4.52
   5  -2   5   36.19    3.76
   5  -2   4   88.80    7.51
   5  -2   4   69.77    6.66
   5  -2   3  114.45    6.93
   5  -2   3   85.01    6.86
   5  -2   2   89.44    5.60
   5  -2   1   14.22    4.15
   5  -2   1   15.36    2.44
   5  -2   0  361.34   16.22
  -5  -2   0  331.56   14.96
   5  -1  12   54.74    7.51
   5  -1  11    0.90    4.34
   5  -1  10  143.97   10.53
   5  -1   9    2.99    3.59
   5  -1   8   26.08    5.55
   5  -1   7  180.57   10.87
   5  -1   6   55.93    5.56
   5  -1   5  123.69    7.53
   5  -1   4   10.47    2.54
   5  -1   3  218.22    9.70
   5  -1   3  168.18    9.55
   5  -1   2  235.99   12.48
   5  -1   2  242.20   11.28
   5  -1   1  297.32   12.84
   5  -1   1  279.67   13.83
  -5  -1   0   52.17    4.38
   5  -1   0   49.10    4.97
  -5   0   0   72.21    5.15
  -5   0   1   26.76    3.47
  -5   0   2  159.48    7.97
  -5   0   3   24.45    3.02
  -5   0   4   37.33    3.50
  -5   0   5   87.41    6.37
  -5   0   6    7.79    2.54
  -5   0   7  142.56    9.42
  -5   0   8  116.42    7.97
  -5   0   9   71.45    6.36
  -5   0  10    5.70    4.43
  -5   0  11   15.45    4.26
  -5   0  12    0.63    3.61
  -5   0  13   -6.56    4.69
  -5   0  14    1.09    7.15
  -5   1   1  150.81    8.84
   5   1  -2    8.79    3.20
  -5   1   2   13.25    2.84
   5   1  -3  135.35   10.40
  -5   1   3  142.26    7.49
  -5   1   4   11.73    2.85
  -5   1   5  112.10    6.70
  -5   1   6   29.91    3.66
  -5   1   7    1.27    2.55
  -5   1   8   42.35    5.74
  -5   1   9   18.11    4.29
  -5   1  10    6.49    3.01
  -5   1  11    3.15    6.15
  -5   1  12    5.65    4.55
  -5   1  13   17.32    6.24
  -5   1  14    0.47    4.97
  -5   2   1   21.55    3.13
   5   2  -1   19.86    3.66
   5   2  -2   47.06    6.54
  -5   2   2   52.99    4.26
  -5   2   3    8.20    3.31
  -5   2   4   78.56    5.56
  -5   2   5   53.27    3.98
  -5   2   6   45.16    5.09
  -5   2   7   63.25    5.59
  -5   2   8   13.70    3.82
  -5   2   9    9.54    2.07
  -5   2   9   10.18    4.45
  -5   2  10   25.03    4.44
  -5   2  11    2.68    3.47
  -5   2  12   15.84    6.12
  -5   2  13    1.25    5.78
  -5   2  14    1.09    5.28
  -5   3   1  154.16    8.96
  -5   3   2   14.43    2.35
  -5   3   3  353.37   15.00
  -5   3   4    8.98    3.15
  -5   3   5  101.55    6.36
  -5   3   6  123.06    7.50
  -5   3   7   19.74    4.94
  -5   3   9    9.22    2.23
  -5   3   9    8.75    4.13
  -5   3  10    6.65    5.07
  -5   3  11   -0.32    3.31
  -5   3  12    2.04    3.30
  -5   3  13    6.09    4.84
  -5   4   1   11.19    2.64
  -5   4   2  168.88    9.03
  -5   4   3   11.46    2.67
  -5   4   4   17.30    2.68
  -5   4   5   41.65    4.58
  -5   4   6    7.76    4.12
  -5   4   7    3.02    3.81
  -5   4   8    8.75    3.02
  -5   4   9    8.26    4.93
  -5   4   9    9.69    2.22
  -5   4  10   15.84    4.75
  -5   4  10   22.92    3.43
  -5   4  11    5.36    3.31
  -5   4  12   10.36    4.24
  -5   4  13    0.16    4.69
  -5   5   1  335.55   18.04
  -5   5   2    4.86    2.66
  -5   5   3   22.94    2.83
  -5   5   4   29.55    5.35
  -5   5   5  105.79    7.59
  -5   5   6   17.06    3.32
  -5   5   7    9.19    3.64
  -5   5   8   85.86    6.52
  -5   5   8   86.78    6.54
  -5   5   9   -7.45    4.12
  -5   5   9    0.16    1.74
  -5   5  10    5.69    4.59
  -5   5  11    9.77    3.94
  -5   5  12    5.81    4.55
  -5   5  13    1.25    4.06
  -5   6   2   53.58    4.26
  -5   6   3   29.15    3.32
  -5   6   4   63.60    5.38
  -5   6   5   40.42    3.79
  -5   6   6   18.58    2.99
  -5   6   7   24.78    3.48
  -5   6   8    6.35    3.50
  -5   6   8    9.01    4.11
  -5   6   9   -1.90    3.16
  -5   6   9    1.43    2.22
  -5   6  10   41.19    5.21
  -5   6  10   27.38    4.23
  -5   6  11    7.08    4.56
  -5   6  12    9.09    6.74
   5   7  -1   64.90    6.35
  -5   7   2   38.64    3.76
  -5   7   3  115.45    7.35
  -5   7   4    4.74    1.90
  -5   7   5    4.41    2.21
  -5   7   6   30.50    4.09
  -5   7   7   13.84    3.93
  -5   7   7   10.20    3.35
  -5   7   8   13.96    3.02
  -5   7   8   12.91    4.09
  -5   7   9    0.63    2.84
  -5   7   9    0.94    4.57
  -5   7  10   25.63    6.45
  -5   7  11   10.67    5.18
  -5   7  12   -1.41    4.70
   5   8  -1   11.50    3.53
  -5   8   2   -2.60    2.45
  -5   8   3   34.79    4.27
  -5   8   4   21.11    3.34
  -5   8   5   22.46    3.17
  -5   8   6   20.46    4.09
  -5   8   7   17.38    4.15
  -5   8   7   17.89    4.71
  -5   8   8   21.32    4.39
  -5   8   8   28.19    3.65
  -5   8   9   14.65    3.94
  -5   8   9   10.03    3.29
  -5   8  10    8.76    3.60
  -5   8  10   11.43    5.33
  -5   8  11    3.13    4.22
   5   9  -1   30.49    4.43
  -5   9   3   54.05    4.54
  -5   9   4    1.74    2.69
  -5   9   5    7.47    3.50
  -5   9   6    2.05    3.16
  -5   9   6   -1.45    4.18
  -5   9   7    6.75    3.92
  -5   9   7    0.32    3.35
  -5   9   8   20.39    3.80
  -5   9   8   18.92    4.85
  -5   9   9    2.03    2.97
  -5   9   9    1.41    3.61
  -5   9  10   -2.18    5.31
   5  10  -1   22.03    8.21
   5  10  -2   67.69    8.34
  -5  10   5   41.01    6.65
  -5  10   6    8.68    4.18
  -5  10   7    0.16    3.18
  -5  10   8    3.31    5.52
  -5  10   9    3.44    5.79
   5  11  -1   19.43    4.56
   5  11  -2   28.33    6.01
   5  11  -3   28.17    5.33
  -5  11   4    2.76    5.36
  -5  11   5   19.60    5.35
  -5  11   6   11.24    5.30
  -5  11   7   12.71    6.04
  -5  11   8   21.39   13.21
   5  12  -1   10.65    6.09
   5  12  -2   14.32    5.70
   5  12  -3   12.19    4.22
  -5  12   3    4.84    6.13
  -5  12   4    9.08    5.51
   5  12  -4    6.98    4.44
  -5  12   5    3.07    6.79
  -5  12   6   12.35    5.93
  -5  12   7   -0.48    7.29
  -5  13   1    7.69    4.71
   5  13  -1   13.29    5.20
   5  13  -2    3.70    3.85
  -5  13   2   10.83    5.90
   5  13  -3   37.11    7.03
  -5  13   3   34.63    6.61
   5  13  -4   10.72    6.47
  -5  13   4   22.65    7.93
  -5  13   5    2.58    5.65
   4  -9   6   20.73    3.31
   4  -9   5   24.03    2.98
   4  -9   4   63.25    4.15
   4  -9   3    3.36    1.28
   4  -9   2   31.35    2.47
   4  -9   2   35.70    2.34
   4  -9   1   34.45    2.13
   4  -9   1   37.96    2.60
   4  -9   0   33.58    2.18
   4  -9   0   31.80    2.41
   4  -8  10    0.16    4.60
   4  -8   9   -2.37    3.64
   4  -8   8    9.30    3.00
   4  -8   7   72.01    5.61
   4  -8   6   27.14    3.30
   4  -8   5   84.09    5.63
   4  -8   5   86.03    5.42
   4  -8   4   23.24    2.79
   4  -8   3   60.36    4.20
   4  -8   3   61.26    4.05
   4  -8   2   97.19    5.59
   4  -8   2  101.27    5.75
   4  -8   1   61.10    3.21
   4  -8   1   60.82    3.78
   4  -8   0    2.57    1.13
   4  -8   0    0.58    1.16
   4  -7  11   -0.77    3.40
   4  -7  10   28.70    5.72
   4  -7   9   47.51    4.95
   4  -7   8   45.48    4.93
   4  -7   7   15.86    3.36
   4  -7   6  143.78    8.21
   4  -7   6  136.31    9.03
   4  -7   5    3.78    1.51
   4  -7   5   -1.07    2.76
   4  -7   4   34.42    3.28
   4  -7   4   31.38    2.74
   4  -7   3  119.06    5.99
   4  -7   3  115.72    6.38
   4  -7   2  267.67   12.67
   4  -7   1   65.70    4.20
   4  -7   1   74.33    4.04
   4  -7   0  101.78    4.97
   4  -7   0   90.92    5.06
   4  -6  12    6.89    5.82
   4  -6  11   11.91    3.67
   4  -6  10   24.82    5.34
   4  -6   9   84.84    7.64
   4  -6   8   12.10    3.33
   4  -6   7   89.79    6.10
   4  -6   6   61.32    5.01
   4  -6   5   34.89    4.31
   4  -6   5   34.64    3.03
   4  -6   4   23.18    2.81
   4  -6   4   24.83    2.87
   4  -6   3   87.64    4.77
   4  -6   3   77.83    5.15
   4  -6   2   82.42    4.47
   4  -6   2   91.77    4.82
   4  -6   1  302.14   12.69
   4  -6   1  339.16   13.90
   4  -6   0  239.90   10.79
   4  -6   0  286.82   10.65
   4  -5  12   40.25    6.72
   4  -5  11    1.82    3.34
   4  -5  10   44.71    5.78
   4  -5   9    8.16    3.33
   4  -5   8  121.15    7.92
   4  -5   7   70.99    5.61
   4  -5   6    9.95    2.87
   4  -5   5   41.76    3.64
   4  -5   5   48.46    4.64
   4  -5   4  774.51   30.78
   4  -5   4  751.35   30.88
   4  -5   3    7.57    2.37
   4  -5   3    7.78    2.25
   4  -5   2  138.79    7.51
   4  -5   2  135.38    7.83
   4  -5   1  331.88   13.95
   4  -5   1  378.31   14.59
   4  -5   0  125.99    6.50
   4  -5   0  106.34    5.86
   4  -4  13   14.95    5.95
   4  -4  12   21.29    6.24
   4  -4  11   46.25    6.08
   4  -4  10   32.97    5.00
   4  -4   9   56.13    5.45
   4  -4   8   18.39    3.47
   4  -4   7   59.97    5.30
   4  -4   6   14.31    2.87
   4  -4   5  219.64   10.38
   4  -4   4   58.76    7.20
   4  -4   4   61.65    4.67
   4  -4   3  263.64   11.79
   4  -4   3  267.43   12.63
   4  -4   2   50.91    3.29
   4  -4   2   54.82    4.32
   4  -4   1  205.32    9.17
   4  -4   1  222.85    9.91
   4  -4   0  117.22    5.57
  -4  -4   0  123.77    6.49
   4  -3  13    3.19    4.56
   4  -3  12    9.54    4.85
   4  -3  11   17.37    7.10
   4  -3  10  102.58    8.18
   4  -3   9   40.75    4.67
   4  -3   8   32.45    4.66
   4  -3   7   93.10    6.65
   4  -3   6  255.88   12.75
   4  -3   5  145.71    7.71
   4  -3   4   96.32    5.41
   4  -3   4   87.46    5.65
   4  -3   3  109.74    5.69
   4  -3   3   86.07    5.56
   4  -3   2 1163.82   39.33
   4  -3   2 1110.44   40.10
   4  -3   1   73.15    4.88
   4  -3   1   71.62    5.31
   4  -3   0   16.38    2.55
  -4  -3   0   17.39    2.69
   4  -2  13   17.67    5.14
   4  -2  12    2.71    4.67
   4  -2  11   71.87    7.83
   4  -2  10    7.63    4.94
   4  -2   9   22.12    4.64
   4  -2   8    3.14    3.88
   4  -2   7  210.63   11.15
   4  -2   6   42.65    4.33
   4  -2   5  200.37   10.21
   4  -2   4  234.36   10.49
   4  -2   4  221.10   11.45
   4  -2   3   63.99    4.73
   4  -2   3   63.40    4.46
   4  -2   2  380.89   14.72
   4  -2   2  356.12   14.81
   4  -2   1   94.81    5.69
   4  -2   1   84.35    6.13
  -4  -2   0   60.17    3.97
   4  -2   0   60.94    4.02
   4  -1  13    5.99    5.24
   4  -1  12   94.06    8.99
   4  -1  11    3.13    4.76
   4  -1  10   46.81    5.81
   4  -1   9   39.19    5.05
   4  -1   8  133.24   10.28
   4  -1   7   32.04    3.71
   4  -1   6   97.09    6.11
  -4  -1  -5  240.68   14.31
   4  -1   5  235.87   12.23
   4  -1   4  322.62   14.21
   4  -1   4  324.50   13.45
   4  -1   3   92.20    5.51
   4  -1   3   76.77    5.17
   4  -1   2  329.79   13.38
   4  -1   2  304.35   12.94
   4  -1   1  170.18    9.03
   4  -1   1  185.09    8.08
  -4  -1   0  172.08    9.05
   4  -1   0  175.44    8.27
  -4   0  -5  296.84   15.98
  -4   0   0  572.62   22.93
  -4   0   1  378.97   16.69
  -4   0   2   29.59    3.19
  -4   0   3    3.80    1.90
  -4   0   4   50.79    5.39
  -4   0   5   22.32    2.69
  -4   0   6  127.35    6.69
  -4   0   7    2.54    3.18
  -4   0   8  167.41    9.87
  -4   0   9   53.84    5.55
  -4   0  10    4.10    4.73
  -4   0  11    3.46    2.99
  -4   0  12   11.73    5.95
  -4   0  13   -2.34    3.58
  -4   0  14    2.02    4.19
  -4   0  15    1.86    5.11
  -4   1   1  142.23    7.98
   4   1  -1  153.83    7.75
   4   1  -2    6.56    2.08
  -4   1   2    4.91    2.38
   4   1  -3  212.02   10.39
  -4   1   3  204.95    9.72
   4   1  -4   61.44    5.55
  -4   1   4   57.99    4.28
   4   1  -5  274.06   12.87
  -4   1   5  257.43   11.33
   4   1  -6  146.08    8.57
  -4   1   6  142.63    7.50
  -4   1   7  161.55    8.78
  -4   1   8   37.33    4.29
  -4   1   9   13.46    1.40
  -4   1   9   21.22    3.64
  -4   1  10    1.42    3.31
  -4   1  11   10.68    3.93
  -4   1  12   12.82    4.38
  -4   1  13    4.98    5.60
  -4   1  14    1.09    7.14
  -4   1  15   -2.79    6.81
   4   2  -1   61.25    4.33
  -4   2   1   52.60    3.97
   4   2  -2   89.38    5.61
  -4   2   2   75.30    5.08
   4   2  -3   10.51    2.23
  -4   2   3    8.82    2.36
  -4   2   4  187.72    9.06
   4   2  -4  194.93   10.50
   4   2  -5   89.51    6.50
  -4   2   5   79.68    5.72
  -4   2   6   13.04    3.18
   4   2  -6    2.85    4.27
  -4   2   7   11.78    2.71
  -4   2   8   30.83    2.71
  -4   2   8   30.68    3.98
  -4   2   9   23.77    4.28
  -4   2   9   34.52    2.80
  -4   2  10   93.37    7.90
  -4   2  11    2.67    3.30
  -4   2  12   -1.09    5.31
  -4   2  13    0.31    3.89
  -4   2  14    6.52    5.75
  -4   3   1  371.50   16.15
   4   3  -1  406.66   16.48
  -4   3   2    5.35    2.20
   4   3  -2    8.92    3.03
  -4   3   3   47.73    4.10
   4   3  -3   52.74    4.93
  -4   3   4   26.44    2.84
   4   3  -4   25.32    3.96
   4   3  -5   91.57    6.80
  -4   3   5   79.29    5.87
  -4   3   6   91.27    6.06
  -4   3   7   33.13    4.30
  -4   3   8   40.88    4.46
  -4   3   8   54.83    3.98
  -4   3   9   45.65    4.92
  -4   3   9   39.94    3.28
  -4   3  10   16.06    6.80
  -4   3  10    1.74    2.68
  -4   3  11   23.55    5.34
  -4   3  12   -2.97    4.07
  -4   3  13   18.70    5.61
  -4   3  14    4.20    4.66
   4   4  -1  103.91    9.66
  -4   4   1   99.49    5.87
   4   4  -2  258.49   12.59
  -4   4   2  232.68   11.62
  -4   4   3   43.08    3.46
   4   4  -3   47.79    4.91
   4   4  -4   52.04    4.90
  -4   4   4   57.76    4.41
  -4   4   5   14.06    2.21
   4   4  -5   12.43    2.99
  -4   4   6  114.50    6.38
  -4   4   7   28.97    4.14
  -4   4   8  116.26    7.34
  -4   4   8  128.80    8.12
  -4   4   9    7.61    3.17
  -4   4   9   10.60    2.65
  -4   4  10    9.94    3.47
  -4   4  10   12.28    2.30
  -4   4  11    1.89    4.87
  -4   4  12   14.40    3.91
  -4   4  13    7.02    4.84
  -4   4  14   -0.47    4.20
   4   5  -1   17.64    3.47
  -4   5   1   17.72    2.20
   4   5  -2   45.62    4.43
  -4   5   2   51.63    5.84
  -4   5   3  286.87   13.48
   4   5  -3  302.02   15.22
   4   5  -4    0.00    4.40
  -4   5   4    1.41    1.57
  -4   5   5   83.61    4.91
  -4   5   6   76.66    6.03
  -4   5   7   14.30    3.50
  -4   5   7   13.53    2.87
  -4   5   8   27.80    3.66
  -4   5   8   25.38    3.33
  -4   5   9    3.49    2.53
  -4   5   9    4.06    2.66
  -4   5  10    7.42    3.31
  -4   5  10    8.45    2.00
  -4   5  11   18.54    6.29
  -4   5  12    8.61    3.60
  -4   5  13    7.18    4.37
  -4   5  14   -1.56    3.90
   4   6  -1   13.04    3.14
  -4   6   1   17.77    2.50
   4   6  -2    4.56    3.77
  -4   6   2    5.68    2.37
   4   6  -3    6.43    2.67
  -4   6   3    8.95    1.89
  -4   6   4   24.88    2.67
  -4   6   5   58.55    4.41
  -4   6   6   30.30    4.26
  -4   6   7    2.22    3.33
  -4   6   7    1.43    1.91
  -4   6   8    9.50    2.22
  -4   6   8   10.30    2.85
  -4   6   9   15.33    2.97
  -4   6   9   13.92    3.16
  -4   6  10    8.83    3.31
  -4   6  10   11.55    3.39
  -4   6  11    3.93    4.56
  -4   6  12    0.16    3.13
  -4   6  13    1.25    5.16
   4   7  -1  258.18   14.38
   4   7  -2  107.93    7.88
  -4   7   2  117.37    6.72
  -4   7   3   50.18    3.50
  -4   7   4    9.56    2.04
  -4   7   5   91.46    5.98
  -4   7   6   37.08    4.25
  -4   7   6   33.68    4.32
  -4   7   7   29.71    3.82
  -4   7   7   29.00    3.31
  -4   7   8   63.99    6.01
  -4   7   8   57.60    6.00
  -4   7   9   32.38    4.85
  -4   7   9   19.24    3.47
  -4   7  10    3.86    2.47
  -4   7  10    1.89    4.56
  -4   7  11    4.39    3.61
  -4   7  12    2.97    5.01
  -4   7  13    8.12    4.53
   4   8  -1   88.64    6.35
  -4   8   2  148.33    6.73
  -4   8   3   26.79    2.55
  -4   8   4  122.58    6.08
  -4   8   5    5.95    2.73
  -4   8   5    0.47    2.19
  -4   8   6   12.77    3.03
  -4   8   6    9.86    2.66
  -4   8   7    3.14    2.20
  -4   8   7    2.38    3.49
  -4   8   8    2.21    2.36
  -4   8   8    2.67    2.36
  -4   8   9    5.47    2.66
  -4   8   9    4.08    2.98
  -4   8  10   24.16    4.34
  -4   8  10   24.00    4.39
  -4   8  11    4.23    3.60
  -4   8  12    2.66    3.91
   4   9  -1  174.10    9.88
  -4   9   3  123.78    6.00
  -4   9   4   62.81    3.86
  -4   9   5   -0.32    2.73
  -4   9   5    1.10    1.57
  -4   9   6   47.07    5.17
  -4   9   6   44.48    6.38
  -4   9   7   41.92    5.70
  -4   9   7   38.42    3.60
  -4   9   8    2.67    2.67
  -4   9   8   -1.09    2.34
  -4   9   9    4.68    4.06
  -4   9   9    6.57    4.38
  -4   9  10    2.02    5.74
  -4   9  10    1.41    4.38
  -4   9  11    6.25    5.15
  -4   9  12   -6.71    5.77
   4  10  -1    5.32    3.50
   4  10  -2   37.03    4.19
  -4  10   3   38.69    2.79
  -4  10   4   12.94    3.56
  -4  10   4   15.53    2.23
  -4  10   5   18.79    3.86
  -4  10   5   24.86    3.18
  -4  10   6   13.85    5.09
  -4  10   6   21.02    2.52
  -4  10   7   -4.68    3.28
  -4  10   7    6.31    3.63
  -4  10   8    2.66    3.29
  -4  10   8    3.11    3.27
  -4  10   9    8.10    4.83
  -4  10   9   12.78    5.46
  -4  10  10   14.02    6.54
  -4  10  10    1.40    3.73
  -4  10  11   -1.56    5.92
   4  11  -1   73.26    6.86
   4  11  -2   71.31    6.21
  -4  11   2   60.68    6.33
  -4  11   3   37.79    5.20
  -4  11   4    5.01    6.95
  -4  11   5    6.90    3.53
  -4  11   6   13.03    6.83
  -4  11   7    0.79    3.62
  -4  11   8   19.07    4.69
  -4  11   9    6.38    3.89
  -4  11  10    3.11    5.59
   4  12  -1   35.17    6.38
  -4  12   1   26.83    5.15
   4  12  -2    3.54    2.92
  -4  12   2    7.76    5.17
   4  12  -3   16.78    4.55
  -4  12   3   13.93    5.99
  -4  12   4   24.36    5.33
  -4  12   5   22.09    6.57
  -4  12   6   -0.79    3.65
  -4  12   7    4.24    3.93
  -4  12   8    6.24    4.37
  -4  12   9   11.97    4.66
  -4  13   1   26.64    6.91
   4  13  -1   44.00    7.00
  -4  13   2    3.23    4.03
   4  13  -2    7.37    4.15
   4  13  -3   14.34    5.61
  -4  13   3    6.62    5.01
  -4  13   4    6.28    6.60
   4  13  -4   10.44    3.96
  -4  13   5    3.83    4.95
  -4  13   6    5.85    5.06
  -4  13   7    4.86    5.17
  -4  14   1    0.00    7.36
  -4  14   2   12.54    7.72
  -4  14   3    0.80    7.57
  -4  14   4    8.83    5.62
  -4  14   5   -0.32    5.58
   3  -9   9   28.96    4.47
   3  -9   8   20.56    3.45
   3  -9   7   26.34    3.14
   3  -9   6   63.00    4.38
   3  -9   5   15.64    2.31
   3  -9   5   17.41    1.96
   3  -9   4  173.99    7.38
   3  -9   4  158.70    7.38
   3  -9   3    3.56    0.81
   3  -9   3    2.36    0.63
   3  -8  12    4.46    3.66
   3  -8  11   -8.60    3.98
   3  -8  10   32.95    4.48
   3  -8   9   89.40    7.11
   3  -8   8   49.74    4.97
   3  -8   7   81.09    5.81
   3  -8   6    3.49    1.74
   3  -8   5   53.40    3.20
   3  -8   5   50.76    3.69
   3  -8   4   15.83    2.49
   3  -8   4   19.40    2.22
   3  -8   3  169.15    7.21
   3  -8   3  166.26    6.73
   3  -8   2   34.91    1.92
   3  -8   2   37.65    3.25
   3  -8   1  225.49    7.82
   3  -8   1  211.46    8.08
   3  -8   0   18.85    1.13
   3  -8   0   18.68    1.07
  -3  -8   0    8.78    2.72
   3  -7  12    3.43    4.67
   3  -7  11   31.13    5.61
   3  -7  10   13.52    4.20
   3  -7   9   17.38    2.95
   3  -7   8   50.47    4.37
   3  -7   7   62.98    4.67
   3  -7   6   31.84    2.94
   3  -7   5   58.49    3.87
   3  -7   4  445.19   18.12
   3  -7   4  427.90   16.52
   3  -7   3   53.85    3.96
   3  -7   3   46.66    2.76
  -3  -7  -2  117.54    8.15
   3  -7   2  129.68    5.13
   3  -7   1   46.56    2.60
   3  -7   1   47.29    2.58
  -3  -7  -1   48.10    4.42
  -3  -7   0   89.37    6.23
   3  -7   0   99.92    3.93
   3  -7   0   91.28    3.94
   3  -6  13    4.77    4.16
   3  -6  12   20.31    5.85
   3  -6  11   73.12    7.71
   3  -6  10   19.31    3.68
   3  -6   9    6.11    2.45
   3  -6   8   19.96    3.81
   3  -6   7   25.96    3.65
   3  -6   6   69.88    4.88
   3  -6   5  429.13   17.03
  -3  -6  -5  459.56   24.02
   3  -6   4  142.35    6.89
   3  -6   3  229.01    8.51
   3  -6   3  215.43    9.07
   3  -6   2   37.32    2.57
   3  -6   1  233.69    9.35
   3  -6   1  257.02    8.99
   3  -6   0    7.22    1.20
   3  -6   0    5.74    0.96
  -3  -6   0    2.74    1.93
   3  -5  13    2.15    5.83
   3  -5  12   18.67    4.59
   3  -5  11   10.69    3.67
   3  -5  10   24.35    4.57
   3  -5   9  156.90   10.11
   3  -5   8   12.25    2.27
   3  -5   7    3.02    2.11
   3  -5   6  410.87   17.21
   3  -5   5   68.11    4.55
  -3  -5  -5   69.34    5.32
  -3  -5  -4   46.59    4.15
   3  -5   4   45.70    5.43
   3  -5   3   51.09    3.45
   3  -5   3   52.66    3.78
   3  -5   2  579.18   21.75
   3  -5   2  637.56   21.15
   3  -5   1   42.06    2.83
   3  -5   1   41.05    2.40
   3  -5   0  332.93   12.97
  -3  -5   0  342.72   13.81
   3  -5   0  409.66   14.72
   3  -4  14   50.25    9.20
   3  -4  13    4.43    3.98
   3  -4  12   33.40    5.80
   3  -4  11   21.59    5.33
   3  -4  10   10.61    3.03
   3  -4   9   19.34    3.48
   3  -4   8   10.10    2.56
   3  -4   7  280.78   12.83
   3  -4   6  243.81   10.69
  -3  -4  -5  136.97    8.26
   3  -4   5  133.77    6.83
   3  -4   4  132.47    6.23
  -3  -4  -4  132.83    7.10
   3  -4   3  210.83    9.37
   3  -4   3  206.14   19.15
   3  -4   2   32.75    3.03
   3  -4   2   38.80    2.82
   3  -4   1  640.96   22.62
   3  -4   1  603.72   22.33
  -3  -4   0   32.01    2.70
   3  -3  14   15.57    8.09
   3  -3  13   32.74    7.62
   3  -3  12   30.22    5.93
   3  -3  11   18.92    4.24
   3  -3  10    5.13    4.07
   3  -3   9   54.61    5.58
   3  -3   8  118.11    8.31
   3  -3   7  191.31   10.14
   3  -3   6   17.65    2.55
  -3  -3  -6   10.47    3.10
   3  -3   5   24.49    2.40
  -3  -3  -5   20.31    3.53
   3  -3   4 1082.53   40.78
  -3  -3  -4 1093.12   40.26
   3  -3   3   16.51    3.83
   3  -3   2  237.31    9.31
   3  -3   2  247.27    9.41
   3  -3   1  167.67    7.01
   3  -3   1  180.07    7.04
  -3  -3   0  107.75    5.61
   3  -3   0  105.07    5.46
   3  -2  14   11.99    7.29
   3  -2  13   13.47    4.39
   3  -2  12   78.92    8.17
   3  -2  11   28.58    4.22
   3  -2  10   47.98    5.11
   3  -2   9   93.75    7.06
   3  -2   8  204.97    9.96
   3  -2   7  116.30    6.60
  -3  -2  -6  107.38    6.98
   3  -2   6  107.16    6.29
  -3  -2  -5  119.61    6.53
   3  -2   5  114.65    9.37
   3  -2   4  106.00    5.35
  -3  -2  -4  117.86    6.67
   3  -2   3  170.95    7.69
  -3  -2  -3  181.65    7.92
   3  -2   2  143.54    6.69
   3  -2   2  128.16    5.86
   3  -2   1  808.43   27.20
   3  -2   1  723.16   30.60
  -3  -2   0  158.08    7.87
   3  -2   0  159.83    6.68
   3  -1  14   12.36    8.29
   3  -1  13   13.07    4.96
   3  -1  12   51.08    7.05
   3  -1  11   68.24    6.29
   3  -1  10   44.37    4.33
   3  -1   9  213.24   11.53
   3  -1   8   28.75    4.01
   3  -1   7   21.89    2.96
  -3  -1  -6  243.60   11.84
   3  -1   6  221.96   11.45
   3  -1   5   15.29    2.21
  -3  -1  -5   17.56    3.57
  -3  -1  -4  633.35   22.99
   3  -1   4  581.73   23.10
   3  -1   3   59.65    3.67
  -3  -1  -3   61.80    3.90
   3  -1   2 1111.13   43.70
   3  -1   2 1228.20   43.16
   3  -1   1  222.17    9.01
   3  -1   1  201.75    9.67
   3  -1   0   52.76    3.25
  -3  -1   0   51.15    3.37
  -3   0  -7  121.05    9.01
  -3   0  -6   61.78    4.51
  -3   0  -5  417.80   17.11
  -3   0  -4    2.55    2.40
  -3   0  -3  768.93   28.97
  -3   0   0   20.57    2.08
  -3   0   1  250.35   11.31
  -3   0   2    1.11    1.27
  -3   0   3   55.96    3.33
  -3   0   4  595.52   22.16
  -3   0   5  118.04    5.73
  -3   0   6   14.93    2.54
  -3   0   7  108.00    4.49
  -3   0   7  112.69    6.85
  -3   0   8   75.84    5.56
  -3   0   9   20.24    6.33
  -3   0  10  123.17    8.05
  -3   0  11   -2.98    4.08
  -3   0  12    2.97    3.13
  -3   0  13   13.70    4.83
  -3   0  14   -2.95    5.28
  -3   1   1  448.62   17.32
   3   1  -1  484.19   17.12
   3   1  -2  221.70    8.84
  -3   1   2  217.44    9.73
   3   1  -3  222.02    9.07
  -3   1   3  222.40    9.85
   3   1  -4  233.00    9.53
  -3   1   4  220.47   10.50
   3   1  -5  124.23    6.66
  -3   1   5  126.74    7.18
   3   1  -6  298.11   14.80
  -3   1   6  256.30   13.58
  -3   1   7   59.78    3.83
   3   1  -7   69.73    6.20
  -3   1   7   52.50    4.30
  -3   1   8   15.70    3.33
  -3   1   9   49.92    4.90
  -3   1  10    7.08    3.46
  -3   1  11   45.90    5.80
  -3   1  12   -1.25    3.43
  -3   1  13    5.92    3.27
  -3   1  14    5.59    4.19
  -3   1  15    0.93    4.65
   3   2  -1  493.82   17.84
  -3   2   2  205.07   10.01
   3   2  -2  225.10    9.31
   3   2  -3  296.14   11.16
  -3   2   3  269.62   11.60
  -3   2   4  151.54    7.17
   3   2  -4  157.49    7.44
   3   2  -5   80.31    5.06
  -3   2   5   69.22    4.63
   3   2  -6  111.46    7.14
  -3   2   6  101.58    6.08
  -3   2   7  195.36    9.44
   3   2  -7  229.17   12.42
  -3   2   7  193.06    8.81
  -3   2   8  191.25    8.49
  -3   2   8  167.20    8.60
  -3   2   9   79.75    6.17
  -3   2  10    6.13    4.40
  -3   2  11   14.10    5.01
  -3   2  12    2.81    2.81
  -3   2  13    6.70    4.05
  -3   2  14   11.98    5.29
  -3   2  15    9.95    5.29
  -3   3   1  149.58    6.75
   3   3  -1  152.50    7.23
   3   3  -2  362.63   13.48
   3   3  -3  304.23   11.77
  -3   3   3  289.23   11.91
   3   3  -4  348.78   15.97
  -3   3   4  354.94   14.23
   3   3  -5   38.86    3.62
  -3   3   5   35.21    3.19
   3   3  -6  160.11   10.14
  -3   3   6  144.80    8.49
  -3   3   7   70.59    5.43
   3   3  -7   77.29    6.82
  -3   3   7   79.41    4.47
  -3   3   8   69.83    3.91
  -3   3   8   62.52    5.25
  -3   3   9   27.01    3.95
  -3   3  10   -1.42    3.46
  -3   3  11   29.16    4.39
  -3   3  12   28.15    4.69
  -3   3  13    8.90    3.90
  -3   3  14    2.34    3.90
  -3   3  15   -0.47    5.93
  -3   4   1  266.71   12.06
   3   4  -1  285.05   11.08
  -3   4   2   59.41    3.78
   3   4  -2   60.29    4.13
  -3   4   3  131.32    6.78
   3   4  -3  147.96    6.81
   3   4  -4  143.07    8.02
  -3   4   4  128.42    6.99
   3   4  -5   27.43    3.30
  -3   4   5   27.23    2.55
  -3   4   6  108.10    6.56
   3   4  -6  120.52    7.27
  -3   4   6  105.70    8.63
  -3   4   7   37.15    3.18
  -3   4   7   34.91    4.78
   3   4  -7   23.37    4.26
  -3   4   8    7.30    2.06
  -3   4   8    3.89    1.71
  -3   4   9   14.04    1.85
  -3   4   9   14.07    3.64
  -3   4  11   -1.88    2.82
  -3   4  12    3.13    3.76
  -3   4  13    7.98    3.44
  -3   4  14    4.38    4.69
  -3   4  15    5.48    5.16
   3   5  -1  163.31    8.14
  -3   5   1  155.14    6.45
  -3   5   2   71.00    3.95
   3   5  -2   79.71    4.13
   3   5  -3   15.02    2.50
  -3   5   3   15.43    1.72
  -3   5   4   46.79    3.63
   3   5  -4   47.08    4.22
   3   5  -5   62.91    5.32
  -3   5   5   59.46    4.46
  -3   5   6  176.25    9.28
   3   5  -6  193.38   11.34
  -3   5   6  185.44    9.61
  -3   5   7   11.42    2.54
   3   5  -7    7.24    4.56
  -3   5   7   16.73    2.87
  -3   5   8   25.76    2.66
  -3   5   8   21.11    2.86
  -3   5   9  172.11    9.95
  -3   5   9  166.79    9.54
  -3   5  10   17.01    3.31
  -3   5  11   10.21    3.93
  -3   5  12   14.59    5.18
  -3   5  13   17.24    4.86
  -3   5  14    2.19    4.39
  -3   6   1  272.82   11.88
   3   6  -1  273.31   12.13
   3   6  -2   10.04    2.67
  -3   6   2    8.48    1.57
   3   6  -3  161.57    8.33
  -3   6   3  152.25    7.55
   3   6  -4  106.40    7.03
  -3   6   4   98.39    5.21
  -3   6   5   53.54    4.16
   3   6  -5   69.69    5.31
  -3   6   5   53.86    3.97
  -3   6   6  158.30    8.46
  -3   6   6  167.66    8.95
   3   6  -6  169.92   10.99
  -3   6   7   17.74    3.96
  -3   6   7   20.04    3.34
  -3   6   8    4.76    2.22
  -3   6   8    2.35    2.03
  -3   6   9    1.23    2.47
  -3   6   9    3.16    3.32
  -3   6  10    7.56    2.99
  -3   6  11    9.59    3.30
  -3   6  12   18.68    4.40
  -3   6  13    2.20    4.55
  -3   6  14    8.31    4.86
   3   7  -1   24.57    3.15
  -3   7   1   24.93    2.64
   3   7  -2  115.74    7.39
  -3   7   2  112.76    5.00
   3   7  -3  215.98   11.60
  -3   7   3  203.18    9.18
   3   7  -4  123.37    7.49
  -3   7   4  106.15    5.98
  -3   7   5  107.38    7.05
   3   7  -5  131.03    8.28
  -3   7   5  110.03    7.27
  -3   7   6   17.27    2.85
   3   7  -6   18.39    3.28
  -3   7   6   25.61    4.30
  -3   7   7   66.28    5.72
  -3   7   7   74.91    6.49
  -3   7   8   17.21    3.29
  -3   7   8   13.77    3.17
  -3   7   9   12.38    3.41
  -3   7   9    4.26    2.68
  -3   7  10    2.05    3.15
  -3   7  11   30.64    5.50
  -3   7  12    3.30    3.77
  -3   7  13    8.15    4.39
   3   8  -1   19.17    3.30
  -3   8   2  135.07    6.62
   3   8  -2  125.15    8.01
  -3   8   3   48.18    3.01
   3   8  -3   38.02    3.89
  -3   8   4   71.97    5.00
   3   8  -4   75.14    6.22
  -3   8   4   72.24    4.40
   3   8  -5   18.01    3.88
  -3   8   5   21.07    3.51
  -3   8   5   26.50    2.98
  -3   8   6   32.93    3.63
  -3   8   6   31.10    4.76
  -3   8   7    4.73    3.00
  -3   8   7    2.05    5.37
  -3   8   8   66.48    5.64
  -3   8   8   65.49    5.22
  -3   8   9   11.50    8.82
  -3   8   9   11.32    4.03
  -3   8  10   -4.09    3.93
  -3   8  11   -2.20    5.02
  -3   8  12    3.76    4.39
  -3   8  13    4.38    4.54
   3   9  -1  175.02   11.19
   3   9  -1  210.38    9.47
   3   9  -2  118.71    8.15
  -3   9   2  128.24    5.09
   3   9  -3    4.35    3.57
  -3   9   3    9.86    3.56
  -3   9   3   10.13    1.43
  -3   9   4   11.40    4.17
   3   9  -4   11.33    3.88
  -3   9   4   10.01    1.72
  -3   9   5  111.67    8.16
   3   9  -5   88.69    7.04
  -3   9   5   94.96    7.03
  -3   9   6    4.43    3.32
  -3   9   6    1.72    2.35
  -3   9   7   10.21    2.98
  -3   9   7   12.27    4.25
  -3   9   8   11.95    3.14
  -3   9   8   10.63    4.69
  -3   9   9   46.77    5.60
  -3   9   9   44.93    5.03
  -3   9  10   15.22    4.08
  -3   9  11   25.07    5.17
  -3   9  12    4.07    3.60
   3  10  -1  109.72    7.23
   3  10  -1  121.04    7.65
   3  10  -2   22.72    3.74
   3  10  -2   29.32    3.11
  -3  10   2   19.64    4.22
  -3  10   3   49.75    5.50
  -3  10   3   54.84    2.75
   3  10  -3   43.68    4.99
  -3  10   4   85.12    4.49
   3  10  -4   70.69    6.88
  -3  10   4   91.22    7.40
  -3  10   5    9.84    2.50
  -3  10   5    5.41    2.70
  -3  10   6   25.25    4.74
  -3  10   6   22.61    2.66
  -3  10   7   17.81    3.75
  -3  10   7   14.27    4.55
  -3  10   8    8.43    3.90
  -3  10   8    3.76    2.82
  -3  10   9   13.53    4.67
  -3  10   9   14.40    3.45
  -3  10  10   21.44    4.23
  -3  10  11    7.35    5.16
  -3  10  12    9.06    5.94
   3  11  -1   69.46    5.31
  -3  11   1   62.56    7.00
   3  11  -1   55.91    5.15
   3  11  -2    6.62    2.31
   3  11  -2    8.08    3.89
  -3  11   2   16.06    4.87
   3  11  -3   11.22    3.27
  -3  11   3   14.68    3.87
  -3  11   4   11.84    3.52
  -3  11   5    9.52    3.97
  -3  11   6   52.41    5.67
  -3  11   6   55.00    4.39
  -3  11   7   71.58    5.93
  -3  11   7   82.30    8.30
  -3  11   8   28.53    5.93
  -3  11   9    2.96    4.67
   3  12  -1   22.35    3.76
  -3  12   1   14.93    3.90
  -3  12   2   26.39    7.13
   3  12  -2   14.05    3.52
   3  12  -3   82.92    6.48
  -3  12   3   59.40    6.61
  -3  12   4    7.98    7.50
  -3  12   5    4.27    4.12
  -3  12   6   -1.41    3.93
  -3  12   7    4.84    4.53
  -3  12   8   -7.63    6.07
  -3  12   9   38.60    7.47
  -3  13   1   -1.94    4.69
   3  13  -1   -2.69    2.39
  -3  13   2   34.23    6.30
   3  13  -2   32.43    3.82
   3  13  -3   17.30    3.56
  -3  13   3   12.36    6.58
   3  13  -4   56.80    5.92
  -3  13   4   45.24    6.70
  -3  13   5   34.44    6.01
  -3  13   6    2.51    3.92
  -3  13   7   10.91    7.33
  -3  13   8    4.98    4.51
  -3  14   1   23.55    7.91
  -3  14   2    0.64    6.76
  -3  14   3    0.48    4.64
  -3  14   4    2.54    5.25
  -3  14   5   10.41    5.05
  -3  14   6   -2.82    5.48
  -3  15   1    7.23    5.30
  -3  15   2   14.91    6.25
  -3  15   3    3.67    5.59
  -3  15   4    2.54    5.08
   2 -10   7   -1.24    1.55
   2 -10   6    4.60    1.38
   2 -10   5   39.15    2.93
   2  -9  11   11.16    4.86
   2  -9  10   -1.61    3.39
   2  -9   9   35.44    4.71
   2  -9   8   20.23    4.83
   2  -9   7   57.04    4.25
   2  -9   6   46.17    4.18
  -2  -9  -5   35.28    4.06
   2  -9   5   31.16    2.24
   2  -9   4   51.32    2.61
   2  -9   4   53.09    2.83
   2  -8  13    4.12    4.91
   2  -8  12   18.71    5.24
   2  -8  11   91.36   13.55
   2  -8  10  110.94    8.39
   2  -8   9    9.09    2.71
   2  -8   8   24.77    3.37
   2  -8   7    1.28    2.08
   2  -8   6  181.82    8.25
  -2  -8  -5   44.21    4.61
   2  -8   5   40.34    2.60
   2  -8   4  201.33    8.09
  -2  -8  -3  235.80   14.13
   2  -8   3  256.36    9.76
   2  -8   3  237.28    8.86
  -2  -8  -2   36.72    4.01
  -2  -8  -1   62.13    5.13
  -2  -8   0   14.78    3.82
   2  -7  13    5.14    5.45
   2  -7  12    6.40    4.52
   2  -7  11    6.25    3.13
   2  -7  10    7.20    2.98
   2  -7   9  121.92    7.77
   2  -7   8    8.49    2.99
   2  -7   7   73.95    4.62
   2  -7   6   52.03    3.51
  -2  -7  -6   53.64    5.13
  -2  -7  -5  200.37    9.95
  -2  -7  -5  162.14   10.30
   2  -7   5  159.71    7.73
  -2  -7  -4  159.49    8.25
  -2  -7  -4  142.78    8.78
   2  -7   4  130.67    6.62
   2  -7   3  107.81    4.26
  -2  -7  -3  106.78    7.11
   2  -7   3  105.36    4.22
   2  -7   2   89.68    3.43
   2  -7   2   87.98    3.30
  -2  -7  -2   93.93    5.81
  -2  -7  -1   71.03    5.13
  -2  -7   0  347.50   16.79
   2  -6  14   11.87    5.40
   2  -6  13   16.36    3.86
   2  -6  12    2.93    3.86
   2  -6  11    3.25    2.78
   2  -6  10   46.09    4.35
   2  -6   9   14.85    2.94
   2  -6   8  125.21    7.81
   2  -6   7  153.70    8.30
  -2  -6  -7  168.13   11.26
  -2  -6  -6  124.80    8.70
   2  -6   6  126.74    6.27
  -2  -6  -6  152.19    8.53
  -2  -6  -5   67.04    5.37
  -2  -6  -5   70.52    4.84
   2  -6   5   68.05    3.75
   2  -6   4   82.46    4.07
  -2  -6  -4   95.99    5.62
  -2  -6  -4   83.29    5.71
  -2  -6  -3  203.24    8.89
  -2  -6  -3  194.62    9.29
   2  -6   3  174.28    6.91
  -2  -6  -2   87.93    5.04
   2  -6   2   86.88    3.88
   2  -6   2   87.85    3.71
   2  -6   1  409.98   14.15
  -2  -6  -1  390.50   18.26
   2  -6   1  429.19   14.16
   2  -6   0  328.63   10.52
  -2  -6   0  305.81   13.16
   2  -6   0  300.07   11.08
   2  -5  14   -4.00    5.53
   2  -5  13   28.43   11.07
   2  -5  12   10.45    3.69
   2  -5  11   71.89    6.02
   2  -5  10    1.23    2.30
   2  -5   9   16.86    3.53
   2  -5   8   45.00    4.60
   2  -5   7  136.39    7.41
  -2  -5  -6   65.04    4.99
   2  -5   6   60.02    4.14
  -2  -5  -5  265.63   11.19
   2  -5   5  225.01    9.42
   2  -5   4  176.94    7.98
  -2  -5  -4  208.93    9.71
   2  -5   3  146.84    6.42
  -2  -5  -3  161.64    6.98
   2  -5   2  323.53   11.83
   2  -5   2  336.09   12.01
   2  -5   1  305.07   10.39
  -2  -5  -1  272.54   11.27
   2  -5   1  276.83   10.37
   2  -5   0  250.67    9.99
  -2  -5   0  255.68   10.90
   2  -5   0  291.54    9.87
   2  -4  14    6.29    5.06
   2  -4  13   -1.69    3.68
   2  -4  12   54.09    7.21
   2  -4  11   69.16    6.91
   2  -4  10   48.27    5.21
   2  -4   9    6.40    2.29
   2  -4   8  116.60    6.89
  -2  -4  -7   42.63    4.43
   2  -4   7   40.62    3.65
  -2  -4  -6  278.86   12.27
   2  -4   6  227.86   10.11
  -2  -4  -5  144.53    7.34
  -2  -4  -4  506.06   17.83
   2  -4   4  449.77   18.34
  -2  -4  -3  438.66   16.38
   2  -4   3  423.61   16.96
   2  -4   2  110.11    4.40
   2  -4   1  988.39   31.61
   2  -4   1  906.78   34.42
  -2  -4   0  244.62    9.66
   2  -3  14   -0.92    3.67
   2  -3  13    1.84    5.97
   2  -3  12    5.04    4.74
   2  -3  11    2.59    2.90
   2  -3  10    9.43    4.26
   2  -3   9  181.30    9.65
   2  -3   8   18.91    3.48
   2  -3   7  186.11    8.99
  -2  -3  -7  223.05   11.17
  -2  -3  -6  246.66   11.72
   2  -3   6  217.03    9.75
  -2  -3  -5   42.40    3.97
   2  -3   5   30.46    2.56
   2  -3   4  431.23   16.47
  -2  -3  -4  477.32   17.10
  -2  -3  -3  904.43   30.22
   2  -3   3  891.90   31.37
  -2  -3  -2  296.08   10.89
   2  -3   2  274.98   10.32
   2  -3   1  763.88   24.76
   2  -3   1  725.54   25.73
  -2  -3   0  499.26   18.52
   2  -3   0  485.87   17.03
   2  -2  15    2.14    4.73
   2  -2  14   30.66    5.50
   2  -2  13   68.27    7.48
   2  -2  12    8.37    4.26
   2  -2  11   22.93    3.80
   2  -2  10   44.67    5.31
   2  -2   9   30.81    3.63
   2  -2   8  161.55    8.65
  -2  -2  -7   30.72    3.43
   2  -2   7   23.72    2.86
  -2  -2  -6  458.62   17.82
   2  -2   6  401.15   15.95
  -2  -2  -5   52.45    4.00
   2  -2   5   60.33    3.61
   2  -2   4  253.72   10.26
  -2  -2  -4  259.62   10.50
  -2  -2  -3 1423.41   47.12
   2  -2   3 1407.93   51.72
  -2  -2  -2  354.09   12.22
   2  -2   2  336.63   12.68
   2  -2   1   11.41    1.34
   2  -2   1    6.52    1.11
  -2  -2   0    5.79    1.61
   2  -2   0    7.75    1.13
   2  -1  15   -0.30    4.56
   2  -1  14   18.07    4.86
   2  -1  13   11.23    5.61
   2  -1  12    7.42    3.48
   2  -1  11   80.09    6.67
   2  -1  10   29.69    4.22
   2  -1   9   53.65    5.12
   2  -1   8    3.45    1.95
  -2  -1  -7  124.11    7.07
   2  -1   7  109.10    6.46
  -2  -1  -6  197.55    9.47
   2  -1   6  200.31    8.88
  -2  -1  -5  606.62   24.34
   2  -1   5  572.57   22.70
  -2  -1  -4  735.87   23.86
   2  -1   4  685.77   24.45
  -2  -1  -3  213.11    7.72
   2  -1   3  201.39    8.26
  -2  -1  -2  241.67    8.66
   2  -1   2  221.99    8.65
   2  -1   1  179.48    7.01
   2  -1   1  197.27    7.50
  -2  -1   0  577.19   21.68
   2  -1   0  601.60   20.88
  -2   0  -8  426.63   21.83
  -2   0  -7  128.48   10.42
  -2   0  -6  205.26    9.55
  -2   0  -5  183.09    7.73
  -2   0  -4  584.23   20.14
  -2   0  -3   25.22    2.07
  -2   0  -2  567.56   18.88
  -2   0   0   74.31    3.56
  -2   0   1  614.93   22.09
  -2   0   2   10.38    1.42
  -2   0   3  434.01   16.75
  -2   0   4   30.67    3.98
  -2   0   5  124.62    6.25
  -2   0   6    3.35    2.55
  -2   0   7  633.34   24.80
  -2   0   8   23.30    3.01
  -2   0   9   11.37    2.53
  -2   0  10  120.00    7.88
  -2   0  11    5.80    2.82
  -2   0  12    4.69    3.44
  -2   0  13    0.78    4.83
  -2   0  14   13.37    4.66
  -2   0  15    0.16    4.03
   2   1  -1  104.60    5.81
  -2   1   1  103.68    4.66
   2   1  -2 1195.90   39.90
  -2   1   2 1102.26   40.06
  -2   1   3   28.01    2.38
   2   1  -3   31.47    2.37
   2   1  -4  177.57    7.34
  -2   1   4  168.90    7.39
   2   1  -5   86.98    4.48
  -2   1   5   76.72    4.65
   2   1  -6  176.85    9.61
  -2   1   6  186.14    9.61
  -2   1   6  198.42    7.49
  -2   1   7  110.26    6.69
   2   1  -7  105.84    6.23
   2   1  -8   94.21    6.53
  -2   1   8   84.80    5.55
  -2   1   9  119.92    7.43
  -2   1  10   25.29    4.24
  -2   1  11   23.50    4.70
  -2   1  12   39.71    6.26
  -2   1  13   16.70    4.68
  -2   1  14    8.88    4.36
  -2   1  15   -3.58    5.75
  -2   2   1  161.11    6.43
   2   2  -1  172.97    8.08
  -2   2   2  381.29   14.65
   2   2  -2  415.51   15.34
  -2   2   3   77.46    3.84
   2   2  -3   81.81    4.26
  -2   2   4  178.19    8.21
   2   2  -4  177.26    7.48
   2   2  -5  566.55   20.23
  -2   2   5  546.96   22.08
  -2   2   5  494.79   19.34
  -2   2   6    4.56    1.10
   2   2  -6    6.54    3.19
  -2   2   6    2.23    2.07
   2   2  -7  139.45    8.00
  -2   2   7  130.80    7.01
   2   2  -8   24.67    3.34
  -2   2   8   26.39    3.48
  -2   2   9   25.99    3.31
  -2   2  10   21.52    3.77
  -2   2  11   26.19    4.24
  -2   2  12   34.77    4.70
  -2   2  13    7.98    5.01
  -2   2  14    3.75    3.91
  -2   2  15   -1.87    4.84
  -2   3   1   21.40    1.58
   2   3  -1   27.79    2.24
  -2   3   2 1110.03   40.04
   2   3  -2 1194.61   38.62
   2   3  -3   89.85    4.10
  -2   3   3   80.17    4.32
   2   3  -4   39.36    3.31
  -2   3   4   33.98    2.57
  -2   3   5  122.78    5.82
  -2   3   5  113.71    6.27
   2   3  -5  126.61    5.75
   2   3  -6  218.07   10.10
  -2   3   6  194.73    9.55
  -2   3   6  183.08    8.82
   2   3  -7   85.20    6.24
  -2   3   7   88.58    4.86
  -2   3   7   83.00    5.10
   2   3  -8    9.71    3.03
  -2   3   8   17.07    3.00
  -2   3   9  167.99    9.66
  -2   3  10   19.19    3.30
  -2   3  11   30.79    5.34
  -2   3  13    3.77    3.45
  -2   3  14   12.55    6.91
  -2   3  15    2.98    5.02
   2   4  -1  250.87   10.62
  -2   4   1  223.02    8.83
   2   4  -2  347.42   11.97
  -2   4   2  328.89   11.94
  -2   4   3  789.96   30.10
   2   4  -3  852.52   29.33
  -2   4   4   94.48    5.31
   2   4  -4  101.31    5.99
  -2   4   5  440.17   18.22
  -2   4   5  458.93   18.43
   2   4  -5  436.00   17.25
   2   4  -6   37.06    3.82
  -2   4   6   30.79    3.35
  -2   4   6   38.78    2.86
   2   4  -7  223.13   12.48
  -2   4   7  199.57   10.38
  -2   4   7  218.20   10.99
  -2   4   8    7.12    2.37
   2   4  -8    7.64    2.87
  -2   4   9   28.71    3.63
  -2   4  10   68.69    6.16
  -2   4  11    8.66    2.83
  -2   4  12   10.08    4.72
  -2   4  13    1.89    3.31
  -2   4  14   -1.89    4.10
  -2   4  15    3.47    5.99
   2   5  -1   40.66    2.86
  -2   5   1   35.02    1.91
  -2   5   2  274.89   11.38
   2   5  -2  295.40   11.11
   2   5  -3   21.90    2.64
  -2   5   3   23.67    1.91
   2   5  -4  840.42   28.44
  -2   5   4  750.03   31.13
  -2   5   4  758.51   29.87
  -2   5   5   50.95    3.53
  -2   5   5   56.96    4.01
   2   5  -5   54.85    4.58
  -2   5   6    2.23    1.75
  -2   5   6    5.38    2.38
   2   5  -6    2.38    1.90
   2   5  -7   63.46    5.10
  -2   5   7   56.23    5.09
  -2   5   7   65.40    4.39
  -2   5   8   80.42    5.25
  -2   5   8   84.42    5.47
   2   5  -8   74.85    7.16
  -2   5   9   64.77    5.23
  -2   5  10   14.68    3.79
  -2   5  11   59.17    5.85
  -2   5  12    6.16    3.63
  -2   5  13   -5.53    3.95
  -2   5  14   14.22    4.74
  -2   5  15   -1.11    5.06
   2   6  -1  217.34   11.13
  -2   6   1  207.55    7.50
  -2   6   2   75.87    4.23
   2   6  -2   86.39    4.70
   2   6  -3  122.62    5.79
  -2   6   3  119.18    4.79
  -2   6   3  112.35    6.61
   2   6  -4   77.41    5.16
  -2   6   4   76.29    4.82
  -2   6   4   88.15    4.97
   2   6  -5   63.02    5.83
  -2   6   5   71.37    4.17
  -2   6   5   84.76    5.76
  -2   6   6    7.02    3.19
  -2   6   6   12.82    2.69
   2   6  -6   11.87    2.53
   2   6  -7  184.21   12.27
  -2   6   7  178.67    9.76
  -2   6   7  156.97    8.31
  -2   6   8    9.82    3.17
   2   6  -8    4.12    3.96
  -2   6   8   12.26    2.95
  -2   6   9   -3.64    2.21
  -2   6  10   17.06    3.48
  -2   6  11    0.47    3.00
  -2   6  12    4.58    3.48
  -2   6  13    0.95    3.80
  -2   6  14    3.48    4.75
   2   7  -1   33.88    2.68
  -2   7   1   38.29    1.58
  -2   7   2  317.20   12.96
   2   7  -2  324.82   13.07
  -2   7   3  163.49    6.52
  -2   7   3  166.17    8.55
   2   7  -3  178.89    8.14
   2   7  -4   74.83    5.00
  -2   7   4   74.71    4.00
  -2   7   4   78.07    4.81
  -2   7   5   61.94    4.16
   2   7  -5   57.59    4.57
  -2   7   5   51.58    4.46
  -2   7   6  213.58   10.48
   2   7  -6  210.02   12.08
  -2   7   6  200.55   10.25
  -2   7   7    5.80    2.04
   2   7  -7   10.45    3.17
  -2   7   7    3.33    2.06
  -2   7   8   15.68    2.85
  -2   7   8   24.41    2.80
  -2   7   9  131.40    9.06
  -2   7  10   34.28    4.59
  -2   7  11    4.90    3.16
  -2   7  12   10.43    5.37
  -2   7  13   15.50    4.43
  -2   7  14   22.31    8.86
   2   8  -1  319.16   13.17
   2   8  -1  289.80   12.51
  -2   8   2  136.96    8.11
  -2   8   2  151.02    5.64
   2   8  -2  150.49    7.67
   2   8  -3  197.46    9.71
  -2   8   3  192.16    8.38
  -2   8   3  205.48   10.32
  -2   8   4   53.36    3.49
  -2   8   4   51.07    4.00
   2   8  -4   71.48    6.56
  -2   8   5  122.59    7.33
   2   8  -5  134.03    8.68
  -2   8   5  127.47    7.64
   2   8  -6  155.87   10.31
  -2   8   6  153.03    8.62
  -2   8   6  165.69   10.13
  -2   8   7   26.18    4.39
   2   8  -7   15.80    4.27
  -2   8   7   16.49    2.70
  -2   8   8    3.01    3.01
  -2   8   8    2.49    2.18
  -2   8   9   50.72    5.54
  -2   8  10   -4.26    3.79
  -2   8  11    1.42    4.58
  -2   8  12   39.44    7.11
  -2   8  13   -1.58    4.58
   2   9  -1   22.44    2.97
   2   9  -1   32.23    3.05
  -2   9   1   22.89    3.41
   2   9  -2  103.83    6.10
  -2   9   2   92.14    5.83
  -2   9   3   33.01    4.65
  -2   9   3   38.65    2.20
   2   9  -3   48.27    5.45
  -2   9   4  124.48    8.30
   2   9  -4  114.65    8.95
  -2   9   4  133.13    6.18
   2   9  -5   61.31    5.36
  -2   9   5   58.18    3.96
  -2   9   5   63.78    4.91
  -2   9   6   40.15    4.73
   2   9  -6   50.01    5.06
  -2   9   6   50.35    4.60
  -2   9   7   44.93    3.81
  -2   9   7   53.29    4.40
   2   9  -7   38.50    4.11
  -2   9   8   56.97    5.48
  -2   9   8   49.92    4.91
  -2   9   9    8.05    2.84
  -2   9  10    4.25    2.84
  -2   9  11   25.35    4.41
  -2   9  12    4.88    4.41
  -2   9  13    0.16    6.92
   2  10  -1   38.43    4.37
   2  10  -1   38.99    3.61
  -2  10   1   44.12    5.20
   2  10  -2   77.86    5.64
   2  10  -2   86.10    5.30
  -2  10   2   64.28    5.33
   2  10  -3  110.11    6.77
  -2  10   3  103.47    4.66
  -2  10   3  100.10    7.70
  -2  10   4   15.00    1.72
   2  10  -4   14.59    2.98
  -2  10   4   19.05    5.56
   2  10  -5   10.09    3.15
  -2  10   5    9.94    3.00
  -2  10   5    8.95    1.89
   2  10  -6    7.10    3.63
  -2  10   6   -0.63    2.21
  -2  10   6    5.18    3.14
   2  10  -7   36.55    4.89
  -2  10   7   33.20    5.48
  -2  10   7   30.43    3.47
  -2  10   8    9.93    2.84
  -2  10   8   14.38    4.38
  -2  10   9   -1.57    2.52
  -2  10  10    3.93    4.25
  -2  10  11    6.28    4.87
  -2  10  12    9.26    4.39
   2  11  -1   81.15    4.96
  -2  11   1   72.37    6.01
   2  11  -1   69.83    4.88
   2  11  -2   56.96    4.72
  -2  11   2   47.59    5.96
   2  11  -2   62.30    4.60
  -2  11   3    1.91    3.19
   2  11  -3   -1.57    1.88
   2  11  -4  121.02    7.95
  -2  11   4  129.99    6.21
  -2  11   4  138.40    9.06
  -2  11   5   26.13    3.94
   2  11  -5   28.43    4.11
  -2  11   5   25.76    2.66
  -2  11   6   32.43    3.14
  -2  11   6   28.85    4.39
  -2  11   7    3.60    3.76
  -2  11   7    5.50    3.14
  -2  11   8   12.58    4.25
  -2  11   8   12.51    4.07
  -2  11   9   14.31    4.09
  -2  11  10   21.05    5.34
  -2  11  11    1.26    4.86
   2  12  -1  181.10    9.83
  -2  12   1  171.84   10.88
   2  12  -2   62.27    5.45
  -2  12   2   67.21    6.59
  -2  12   3    0.80    3.18
   2  12  -3    4.47    2.32
  -2  12   4   20.22    5.37
  -2  12   5   51.99    5.50
  -2  12   6    0.00    3.60
  -2  12   7   34.70    6.41
   2  13  -1    0.59    2.35
  -2  13   1    4.19    3.70
   2  13  -2   22.49    3.28
  -2  13   2   15.68    4.64
  -2  13   3   45.75    5.57
  -2  13   4   27.60    7.26
  -2  13   5   -0.31    4.23
  -2  13   6   30.17    7.19
  -2  13   7    8.28    4.53
  -2  14   1    7.87    4.66
  -2  14   2   12.77    4.31
  -2  14   3   10.15    6.34
  -2  14   4    8.82    6.46
  -2  14   5    2.51    4.23
  -2  14   6    8.12    7.03
  -2  14   7    5.62    4.84
  -2  15   1    7.05    6.73
  -2  15   2   18.01    7.65
  -2  15   3    1.11    8.08
  -2  15   4   11.18    7.56
  -2  15   5   15.99    5.80
   1 -10   9   11.87    2.67
   1 -10   8   -1.86    1.39
   1 -10   7   23.92    2.66
  -1 -10  -6   64.96    6.97
   1 -10   6   57.77    3.87
  -1 -10  -5   35.40    4.20
   1 -10   5   28.06    2.14
   1  -9  12   10.07    3.52
   1  -9  11    3.67    2.88
   1  -9  10   35.88    4.34
   1  -9   9   63.15    5.16
   1  -9   8    5.07    2.38
   1  -9   7   38.66    3.50
  -1  -9  -6   21.79    3.22
   1  -9   6   19.68    2.37
  -1  -9  -5  226.14   11.38
   1  -9   5  203.21    8.82
  -1  -9  -4   49.49    3.47
   1  -9   4   43.13    2.31
  -1  -9  -2   54.20    6.07
  -1  -9  -1  173.88   10.07
  -1  -9   0    8.25    3.02
   1  -8  13    3.94    5.36
   1  -8  12   32.25    5.39
   1  -8  11   44.89    6.21
   1  -8  10    4.14    3.18
   1  -8   9   33.69    4.48
   1  -8   8  117.98    6.97
  -1  -8  -7    2.04    4.38
   1  -8   7    4.97    2.08
  -1  -8  -6   28.41    3.80
   1  -8   6   21.14    2.09
  -1  -8  -5   73.52    5.01
  -1  -8  -5   68.87    6.13
   1  -8   5   69.78    3.87
  -1  -8  -4  164.53    7.94
  -1  -8  -4  152.20    9.70
   1  -8   4  140.96    6.34
  -1  -8  -3    0.32    2.24
   1  -8   3    3.55    0.65
  -1  -8  -2  237.88   11.89
  -1  -8  -1   42.89    3.98
  -1  -8   0  410.31   19.03
   1  -7  14    0.16    3.88
   1  -7  13   11.22    5.14
   1  -7  12   17.99    3.60
   1  -7  11   33.80    4.73
   1  -7  10    5.69    2.37
   1  -7   9   17.16    2.70
   1  -7   8   54.47    4.18
  -1  -7  -7   66.09    5.95
  -1  -7  -7   85.91    6.49
   1  -7   7   67.95    4.37
  -1  -7  -6   66.14    4.55
  -1  -7  -6   52.15    5.31
   1  -7   6   58.91    3.90
  -1  -7  -5  291.24   14.34
  -1  -7  -5  300.18   12.58
   1  -7   5  268.97   12.13
   1  -7   4   43.06    2.60
  -1  -7  -4   46.34    3.53
  -1  -7  -4   43.46    4.49
  -1  -7  -3  164.40    6.94
  -1  -7  -3  151.70    7.89
   1  -7   3  144.80    5.71
  -1  -7  -2  106.61    6.23
  -1  -7  -1   95.94    5.42
  -1  -7   0  226.94   11.32
   1  -6  14   15.73    6.48
   1  -6  13    9.90    4.18
   1  -6  12   29.36    4.67
   1  -6  11   97.47    7.68
   1  -6  10   33.68    4.71
  -1  -6  -9   29.59   10.71
   1  -6   9   15.90    3.31
  -1  -6  -8  192.43   11.63
   1  -6   8  180.82    9.12
  -1  -6  -7   67.52    6.24
  -1  -6  -7   64.05    5.61
   1  -6   7   56.88    4.00
  -1  -6  -6  587.34   22.25
  -1  -6  -6  524.92   21.55
   1  -6   6  489.28   21.28
   1  -6   5   15.02    1.94
  -1  -6  -5   20.00    3.07
  -1  -6  -5   14.04    2.40
  -1  -6  -4  599.62   20.96
  -1  -6  -4  553.87   22.19
   1  -6   4  524.22   20.44
  -1  -6  -3  378.45   12.73
  -1  -6  -3  325.96   13.90
   1  -6   3  315.51   12.36
  -1  -6  -2  769.48   25.48
  -1  -6  -2  690.70   26.08
   1  -6   2  651.30   23.74
  -1  -6  -1  445.02   16.47
  -1  -6   0  452.29   16.62
   1  -5  14   26.31    6.01
   1  -5  13   -2.31    3.24
   1  -5  12    8.97    4.64
   1  -5  11   29.31    4.50
  -1  -5 -10   23.02    3.59
   1  -5  10   23.96    3.43
   1  -5   9  189.95   11.01
  -1  -5  -9  199.93   11.61
  -1  -5  -8  131.36    8.06
   1  -5   8  130.03    7.10
  -1  -5  -7  363.91   16.14
  -1  -5  -7  330.03   16.46
   1  -5   7  310.73   13.99
  -1  -5  -6    1.63    2.08
  -1  -5  -6    1.75    2.07
   1  -5   6   -0.47    1.90
  -1  -5  -5   91.72    5.32
  -1  -5  -5   98.20    5.81
   1  -5   5   87.62    4.65
  -1  -5  -4   17.93    2.04
  -1  -5  -4   20.37    2.87
   1  -5   4   16.18    1.76
  -1  -5  -3  422.63   14.10
  -1  -5  -3  391.43   15.16
   1  -5   3  379.53   14.91
  -1  -5  -2  318.09   10.80
  -1  -5  -2  283.31   11.60
   1  -5   2  268.70   10.24
  -1  -5  -1  566.51   19.88
  -1  -5   0  716.72   25.05
   1  -4  15   11.97    7.52
   1  -4  14    3.23    3.84
   1  -4  13   23.57    4.16
   1  -4  12    3.55    3.24
   1  -4  11   16.69    3.71
  -1  -4 -11   20.29    4.31
  -1  -4 -10   98.33    7.13
   1  -4  10   91.62    6.22
   1  -4   9   54.09    4.97
  -1  -4  -9   51.78    5.05
  -1  -4  -8  175.99   10.79
  -1  -4  -8  170.34    9.90
   1  -4   8  165.00    8.14
  -1  -4  -7   92.35    5.98
   1  -4   7   89.85    5.47
  -1  -4  -7   91.39    6.04
  -1  -4  -6  404.01   15.56
  -1  -4  -6  355.06   16.21
   1  -4   6  338.14   14.18
  -1  -4  -5  824.61   26.69
  -1  -4  -5  778.07   28.79
   1  -4   5  713.33   28.13
  -1  -4  -4  828.68   25.20
  -1  -4  -4  770.06   28.06
   1  -4   4  717.41   27.28
  -1  -4  -3  672.14   20.80
  -1  -4  -3  644.06   23.58
   1  -4   3  595.37   22.58
  -1  -4  -2  425.67   14.63
  -1  -4  -2  386.53   15.13
   1  -4   2  372.60   14.34
   1  -4   1   51.30    2.08
   1  -4   1   50.08    2.07
  -1  -4  -1   54.95    3.34
  -1  -4   0  852.26   19.19
   1  -4   0   -0.77   12.37
  -1  -4   0  875.28   19.32
   1  -3  15   -3.53    5.99
   1  -3  14   14.45    6.00
   1  -3  13   -1.85    4.77
   1  -3  12   73.01    7.10
  -1  -3 -11   17.32    3.38
   1  -3  11   15.87    4.32
  -1  -3 -10   28.75    3.44
   1  -3  10   29.75    4.32
   1  -3   9   93.58    6.50
  -1  -3  -8  151.08   10.67
   1  -3   8  121.61    8.05
  -1  -3  -7  109.81    6.08
   1  -3   7   97.65    5.43
  -1  -3  -6  131.67    6.81
   1  -3   6  111.85    5.89
  -1  -3  -5  285.26    9.70
   1  -3   5  241.12   10.11
  -1  -3  -4   47.74    3.13
   1  -3   4   43.35    2.62
  -1  -3  -3  542.93   17.87
   1  -3   3  483.73   18.17
  -1  -3  -2 1030.54   32.19
   1  -3   2  927.80   33.57
  -1  -3  -1 1129.85   36.54
   1  -3   1 1046.82   36.10
  -1  -3   0  225.39    8.45
  -1  -3   0  218.70    9.42
   1  -3   0  226.17    7.56
   1  -2  15   25.30    7.52
   1  -2  14   20.27    6.14
   1  -2  13   34.74    6.15
   1  -2  12   20.14    5.84
   1  -2  11   96.41    7.41
   1  -2  10   11.37    2.92
   1  -2   9   44.99    3.85
   1  -2   8  510.33   21.22
  -1  -2  -8  608.30   26.55
  -1  -2  -7  151.05    8.09
   1  -2   7  144.49    8.92
  -1  -2  -6  455.23   16.82
   1  -2   6  409.22   16.98
  -1  -2  -5   40.42    5.13
   1  -2   5   35.32    2.90
  -1  -2  -4  388.99   13.22
   1  -2   4  340.33   13.39
  -1  -2  -3  673.37   22.71
   1  -2   3  618.49   22.77
  -1  -2  -2  316.33   11.34
   1  -2   2  308.79   11.34
  -1  -2  -1 1889.99   62.76
   1  -2   1 1784.00   59.78
  -1  -2   0 2602.68   84.34
   1  -2   0 2514.37   82.20
   1  -1  15    6.28    4.59
   1  -1  14   10.28    4.60
   1  -1  13    8.60    5.07
   1  -1  12    2.76    4.15
   1  -1  11   38.06    4.46
   1  -1  10   81.27    6.15
   1  -1   9   73.35    5.37
  -1  -1  -8    4.44    2.29
   1  -1   8    2.45    2.75
  -1  -1  -7  421.41   17.21
   1  -1   7  363.34   14.92
  -1  -1  -6   91.92    4.74
   1  -1   6   78.16    4.28
   1  -1   5  727.94   26.88
  -1  -1  -5  837.10   27.68
  -1  -1  -4  101.40    5.77
   1  -1   4   89.04    4.12
  -1  -1  -3 1374.09   43.54
   1  -1   3 1282.35   44.34
  -1  -1  -2  419.83   14.61
   1  -1   2  403.15   14.39
  -1  -1  -1 1445.46   46.11
   1  -1   1 1352.48   46.18
   1  -1   0   64.09    2.64
  -1  -1   0   64.05    2.78
  -1   0  -8   11.95    2.91
  -1   0  -7   -0.61    1.68
  -1   0  -6  595.73   20.85
  -1   0  -5   64.79    4.13
  -1   0  -4  940.58   30.21
  -1   0  -3   67.80    3.36
  -1   0  -2   62.54    3.14
  -1   0  -1  122.94    4.62
  -1   0   0  857.53   29.30
  -1   0   1  686.05   23.72
  -1   0   2 3962.19  129.72
  -1   0   3   43.81    2.58
  -1   0   4    2.57    1.12
  -1   0   5  921.62   35.06
  -1   0   6   59.57    3.50
  -1   0   7   50.30    3.49
  -1   0   8  143.30    7.59
  -1   0   9   43.70    3.93
  -1   0  10   59.28    4.87
  -1   0  11   71.52    6.58
  -1   0  12   10.31    3.44
  -1   0  13    2.96    3.74
  -1   0  14   -2.64    3.26
  -1   0  15   11.47    5.27
  -1   0  16   -2.32    5.56
   1   1  -1   46.79    2.23
  -1   1   1   42.20    1.91
   1   1  -2 1629.43   55.08
  -1   1   2 1541.55   52.56
   1   1  -3  106.92    4.68
  -1   1   3  109.06    5.33
  -1   1   3  103.89    4.11
   1   1  -4  331.93   12.16
  -1   1   4  293.26   12.24
  -1   1   4  316.29   10.93
  -1   1   5  170.03    7.67
   1   1  -5  168.27    6.93
   1   1  -6  376.68   13.81
  -1   1   6  327.79   14.48
   1   1  -7   44.41    3.81
  -1   1   7   38.95    3.79
   1   1  -8  194.32    9.99
  -1   1   8  179.35    9.32
   1   1  -9   65.68    6.78
  -1   1   9   68.01    5.04
  -1   1  10   82.35    8.79
  -1   1  11   17.24    3.45
  -1   1  12   95.15    7.68
  -1   1  13    4.53    3.44
  -1   1  14   33.38    5.62
  -1   1  15   -8.72    6.38
   1   2  -1  979.46   32.44
  -1   2   1  916.23   30.85
   1   2  -2  123.57    6.02
  -1   2   2  128.20    5.20
  -1   2   3  896.44   31.80
   1   2  -3  971.54   32.89
  -1   2   3  936.35   32.10
   1   2  -4  820.63   30.67
   1   2  -4  772.61   26.40
  -1   2   4  735.30   28.30
  -1   2   4  782.44   27.04
   1   2  -5  694.10   22.56
   1   2  -5  659.20   21.81
  -1   2   5  614.85   25.08
   1   2  -6    7.67    1.76
   1   2  -6    8.76    0.63
  -1   2   6    7.42    2.21
   1   2  -7  340.22   13.52
  -1   2   7  460.96   18.57
   1   2  -7  516.25   18.92
  -1   2   8   15.57    2.68
   1   2  -8   18.22    3.33
  -1   2   9   50.93    6.29
   1   2  -9   57.47    5.06
  -1   2  10  196.75   11.35
  -1   2  11   19.64    3.61
  -1   2  12    2.83    2.98
  -1   2  13    0.47    5.02
  -1   2  14    2.35    3.45
  -1   2  15    3.44    4.69
   1   3  -1  165.94    7.03
  -1   3   1  159.44    5.79
   1   3  -2  423.20   15.73
   1   3  -2  432.33   15.18
  -1   3   2  425.21   15.01
   1   3  -3  417.52   15.00
   1   3  -3  432.49   14.85
  -1   3   3  400.28   14.88
  -1   3   3  426.72   16.35
   1   3  -4  829.27   27.72
  -1   3   4  771.25   29.86
  -1   3   4  814.77   28.73
   1   3  -4  862.15   27.69
   1   3  -5  111.90    5.33
   1   3  -5  113.15    5.09
  -1   3   5  104.51    5.88
  -1   3   5  106.49    4.90
   1   3  -6   87.97    4.82
   1   3  -6   82.54    3.82
  -1   3   6   83.27    4.28
   1   3  -7   23.30    1.43
   1   3  -7   26.16    3.35
  -1   3   7   20.64    2.84
  -1   3   8   82.69    4.90
   1   3  -8   90.99    6.84
   1   3  -8   89.46    3.51
  -1   3   9  103.35    6.95
   1   3  -9  112.94    4.30
  -1   3  10   26.32    4.41
  -1   3  11   29.17    4.10
  -1   3  12   68.11    6.48
  -1   3  13   28.53    5.36
  -1   3  14   22.68    5.83
  -1   3  15   11.48    7.08
   1   4  -1  365.48   13.52
  -1   4   1  334.14   11.63
   1   4  -1  346.03   13.72
   1   4  -2  119.20    4.90
   1   4  -2  125.70    5.08
  -1   4   2  117.36    4.71
  -1   4   2  120.75    6.17
   1   4  -3  414.52   16.20
   1   4  -3  413.33   14.52
  -1   4   3  390.97   14.69
  -1   4   3  406.28   16.43
   1   4  -4    2.41    1.12
  -1   4   4    3.49    1.43
  -1   4   4    0.96    1.75
   1   4  -4    1.57    1.10
   1   4  -5  148.43    7.75
   1   4  -5  139.38    5.58
  -1   4   5  135.78    6.69
  -1   4   5  143.46    6.81
   1   4  -6   48.44    3.86
   1   4  -6   43.44    2.53
  -1   4   6   43.24    3.48
   1   4  -7  259.20   12.68
   1   4  -7  250.77    9.11
  -1   4   7  237.91   12.22
   1   4  -8   53.58    5.09
   1   4  -8   51.21    2.69
  -1   4   8   48.61    4.11
   1   4  -9  117.56    5.24
  -1   4   9  107.90    7.13
   1   4 -10   23.96    1.73
  -1   4  10   18.50    3.32
  -1   4  11    8.70    4.12
  -1   4  12   10.93    3.64
  -1   4  13    3.48    4.12
  -1   4  14   -2.69    3.96
  -1   4  15   21.03    8.07
   1   5  -1  298.59   10.69
   1   5  -1  289.63   11.91
  -1   5   1  276.14   10.30
  -1   5   1  279.18   11.37
   1   5  -2  422.28   15.64
   1   5  -2  436.71   15.61
  -1   5   2  417.42   17.53
  -1   5   2  415.19   15.43
   1   5  -3   68.54    3.66
   1   5  -3   60.35    3.64
  -1   5   3   60.99    3.37
  -1   5   3   64.02    4.35
   1   5  -4    6.72    3.20
   1   5  -4    1.26    1.10
  -1   5   4    1.27    1.59
  -1   5   4    0.96    1.28
   1   5  -5   11.57    1.77
   1   5  -5   11.95    1.73
  -1   5   5    9.96    2.22
  -1   5   5   14.20    1.89
   1   5  -6  464.83   16.88
  -1   5   6  425.50   17.73
  -1   5   6  478.25   19.05
   1   5  -6  482.65   19.54
   1   5  -7   45.51    4.48
   1   5  -7   53.01    3.47
  -1   5   7   53.73    4.12
   1   5  -8   78.36    6.37
  -1   5   8   86.68    5.56
   1   5  -8   75.05    3.94
   1   5  -9  121.09    6.31
  -1   5   9  124.49    7.16
   1   5 -10   91.26    4.90
  -1   5  10   88.18    6.37
  -1   5  11    8.26    4.45
  -1   5  12    2.86    3.18
  -1   5  13    2.86    5.25
  -1   5  14   27.67    7.16
  -1   5  15   -3.81    5.40
   1   6  -1  106.44    5.08
   1   6  -1   99.54    4.26
  -1   6   1   96.52    3.83
  -1   6   1  102.51    5.83
   1   6  -2  698.09   23.75
   1   6  -2  728.55   25.65
  -1   6   2  685.75   24.33
  -1   6   2  710.61   26.11
   1   6  -3  136.14    6.20
   1   6  -3  129.61    5.71
  -1   6   3  128.21    5.63
  -1   6   3  125.61    6.60
   1   6  -4    8.94    2.08
  -1   6   4    6.67    1.75
  -1   6   4    2.71    1.75
  -1   6   5  419.52   19.33
   1   6  -5  461.94   18.27
   1   6  -5  465.70   17.61
  -1   6   5  463.67   18.50
   1   6  -6   10.56    2.24
   1   6  -6    9.40    1.88
  -1   6   6   11.71    2.22
  -1   6   6   10.51    2.67
   1   6  -7  201.40    8.52
   1   6  -7  210.07   12.32
  -1   6   7  204.93    8.48
  -1   6   8   18.06    3.65
   1   6  -8   14.12    6.03
   1   6  -8   10.78    2.03
   1   6  -9   36.86    2.98
  -1   6   9   42.20    3.97
   1   6 -10   72.13    4.56
  -1   6  10   58.31    5.26
  -1   6  11   18.14    5.57
  -1   6  12   31.38    4.78
  -1   6  13   16.26    5.26
  -1   6  14   -3.67    6.86
   1   7  -1  446.58   15.68
   1   7  -1  440.84   16.88
  -1   7   1  433.15   14.46
  -1   7   1  447.56   15.01
  -1   7   1  425.84   17.19
  -1   7   2   46.09    4.02
   1   7  -2   52.53    3.12
   1   7  -2   56.43    3.95
  -1   7   2   51.26    2.42
   1   7  -3  226.14    9.09
   1   7  -3  239.02    9.51
  -1   7   3  215.28    9.01
  -1   7   3  219.77   10.92
   1   7  -4  433.37   15.97
   1   7  -4  425.93   16.47
  -1   7   4  405.40   16.85
  -1   7   4  424.17   18.57
  -1   7   5   92.84    8.26
   1   7  -5   89.56    5.46
   1   7  -5   87.50    4.41
  -1   7   5   88.59    5.08
   1   7  -6   13.88    4.31
   1   7  -6   15.46    2.19
  -1   7   6   18.20    2.69
  -1   7   6   14.47    2.83
   1   7  -7  101.20    7.48
   1   7  -7  106.95    5.80
  -1   7   7  106.72    6.68
   1   7  -8   19.76    3.48
   1   7  -8   26.16    2.50
  -1   7   8   30.27    3.02
   1   7  -9    9.34    2.18
  -1   7   9   14.12    3.97
   1   7 -10    5.46    2.18
  -1   7  10    8.74    7.63
  -1   7  11   24.19    5.25
  -1   7  12   42.22    6.38
  -1   7  13   11.32    5.10
  -1   7  14    9.57    5.58
   1   8  -1   90.85    4.92
   1   8  -1   81.04    3.92
   1   8  -1   81.96    5.23
  -1   8   1   86.90    5.81
   1   8  -2  114.64    5.19
   1   8  -2  118.39    6.01
  -1   8   2  116.31    4.67
  -1   8   2  119.79    6.91
   1   8  -3  172.78    7.96
   1   8  -3  195.43    8.38
  -1   8   3  171.00    7.55
  -1   8   3  180.98    8.81
   1   8  -4   88.65    5.12
   1   8  -4   85.16    5.18
  -1   8   4   85.51    4.48
  -1   8   4   83.53    5.57
   1   8  -5   85.29    5.76
   1   8  -5   86.97    4.86
  -1   8   5   91.45    5.11
  -1   8   5   88.88    5.87
   1   8  -6   15.73    2.39
   1   8  -6   16.36    2.96
  -1   8   6   15.36    2.22
  -1   8   6   14.96    2.84
  -1   8   7  248.99   10.73
   1   8  -7  242.59   13.82
   1   8  -7  236.62   12.19
   1   8  -8   11.95    2.64
   1   8  -8   15.11    3.78
  -1   8   8   11.09    2.38
   1   8  -9   20.80    2.80
  -1   8   9   16.49    4.44
   1   8 -10   32.49    3.12
  -1   8  10   22.37    4.13
  -1   8  11    6.67    3.49
  -1   8  12    5.09    6.36
  -1   8  13    4.77    4.29
   1   9  -1   43.23    2.71
   1   9  -1   39.51    4.97
   1   9  -1   42.12    4.58
  -1   9   1   44.95    4.34
  -1   9   2  260.61    9.14
   1   9  -2  289.81   11.44
   1   9  -2  239.88   11.08
  -1   9   2  243.78    9.44
  -1   9   2  253.75   12.03
   1   9  -3  263.17   11.82
   1   9  -3  289.74   13.87
  -1   9   3  264.70   11.54
  -1   9   3  270.90   12.14
   1   9  -4  177.83    8.18
   1   9  -4  154.52    7.85
  -1   9   4  142.86    7.20
  -1   9   4  154.14    8.59
   1   9  -5   -0.79    1.43
   1   9  -5   -0.31    2.96
  -1   9   5   -0.16    1.27
  -1   9   5    1.74    2.37
   1   9  -6   16.28    2.85
   1   9  -6   27.66    3.73
  -1   9   6   24.06    3.17
  -1   9   6   27.74    3.47
   1   9  -7    5.66    3.30
   1   9  -7   -1.40    2.64
  -1   9   7    2.37    2.85
   1   9  -8   33.01    4.23
   1   9  -8   36.38    4.34
  -1   9   8   22.46    3.64
   1   9  -9   53.85    4.34
  -1   9   9   53.94    6.97
   1   9 -10   32.07    3.72
  -1   9  10   26.59    3.80
  -1   9  11    0.95    3.01
  -1   9  12   27.87    4.75
  -1   9  13   15.04    6.33
   1  10  -1   93.13    4.62
   1  10  -1   86.22    5.19
   1  10  -1   81.14    5.85
  -1  10   1   83.27    6.42
   1  10  -2  300.89   11.06
   1  10  -2  273.53   12.12
   1  10  -2  252.43   12.17
  -1  10   2  258.16    9.59
  -1  10   2  273.28   14.08
   1  10  -3   18.83    2.38
   1  10  -3   15.80    2.82
  -1  10   3   21.41    1.75
  -1  10   3   22.35    3.49
   1  10  -4   33.45    3.02
   1  10  -4   42.74    4.69
  -1  10   4   37.61    3.02
  -1  10   4   40.77    5.54
   1  10  -5  305.15   15.74
   1  10  -5  304.26   13.94
  -1  10   5  297.88   14.08
  -1  10   5  308.39   16.02
   1  10  -6    6.91    2.36
   1  10  -6    6.36    2.17
  -1  10   6   10.28    3.01
   1  10  -7   15.93    3.75
   1  10  -7   12.53    2.79
  -1  10   7   15.49    3.00
   1  10  -8    7.72    3.40
  -1  10   8    8.37    3.47
   1  10  -9   23.15    3.09
  -1  10   9   18.31    3.47
  -1  10  10    8.83    4.89
  -1  10  11   10.09    4.10
  -1  10  12   33.40    6.31
   1  11  -1   61.83    3.56
   1  11  -1   56.20    3.79
   1  11  -1   54.46    4.89
  -1  11   1   59.43    4.80
   1  11  -2   46.56    2.99
   1  11  -2   40.68    3.33
   1  11  -2   47.37    5.50
  -1  11   2   43.69    5.41
   1  11  -3    4.43    1.74
   1  11  -3    5.94    2.97
   1  11  -3    4.46    1.69
  -1  11   3    4.87    1.10
  -1  11   3    4.57    1.37
  -1  11   3    0.47    2.69
   1  11  -4    7.89    2.53
   1  11  -4    7.64    3.74
  -1  11   4    7.43    1.58
  -1  11   4    7.41    2.84
   1  11  -5    7.53    1.88
   1  11  -5   14.14    3.11
  -1  11   5   14.24    1.90
  -1  11   5   17.80    4.25
  -1  11   6   38.28    3.49
   1  11  -6   27.88    3.88
  -1  11   6   37.80    5.67
   1  11  -7   56.70    5.11
  -1  11   7   58.14    5.23
   1  11  -8   38.85    5.25
  -1  11   8   46.24    5.38
   1  11  -9    5.39    4.31
  -1  11   9    1.26    2.84
  -1  11  10   -1.26    3.30
  -1  11  11   24.51    7.54
   1  12  -1    2.21    1.32
   1  12  -1    4.25    3.30
  -1  12   1    1.28    3.03
   1  12  -1    2.36    1.89
   1  12  -2   27.09    4.68
   1  12  -2   33.71    3.92
  -1  12   2   28.54    6.19
   1  12  -3   46.39    9.70
   1  12  -3   26.10    4.53
  -1  12   3   30.31    5.37
   1  12  -4   12.31    3.12
  -1  12   4    7.85    1.57
  -1  12   4    8.19    3.15
   1  12  -5    7.14    3.57
  -1  12   5   16.09    2.37
  -1  12   5   22.33    5.66
   1  12  -6    2.17    2.94
  -1  12   6    1.11    1.42
  -1  12   6    2.99    4.72
   1  12  -7   15.43    4.94
  -1  12   7   12.01    3.64
   1  12  -8   21.55   11.39
  -1  12   8    2.21    2.53
   1  12  -9    2.00    5.69
  -1  12   9   -2.84    2.84
   1  13  -1    3.46    2.99
  -1  13   1    7.32    3.82
   1  13  -2   15.84    4.24
  -1  13   2   25.49    7.13
   1  13  -3   31.11    5.48
  -1  13   3   29.01    5.68
   1  13  -4   54.85    6.24
  -1  13   4   53.46    6.77
   1  13  -5   11.80    4.81
  -1  13   5    9.27    4.40
   1  13  -6   12.07    4.64
   1  13  -7    4.78    5.24
   1  13  -8   19.38    4.46
  -1  14   1   29.41    6.52
  -1  14   2   20.25    6.01
   1  14  -3   11.11    4.38
  -1  14   3   19.54    6.46
   1  14  -4   14.51    6.24
  -1  14   4   14.15    6.60
   1  14  -5   42.11    7.46
  -1  14   5   31.88    5.81
   1  14  -6   15.17    6.35
   1  14  -7   24.21    7.71
   1  14  -8    5.69    6.00
  -1  15   1   -0.64    6.67
  -1  15   2    7.44    4.91
  -1  15   3   16.24    5.52
  -1  15   4   -1.10    6.60
  -1  16   1   -5.40    7.47
  -1  16   2   -1.27    7.92
  -1  16   3    5.05    5.52
   0 -11   8    7.05    2.31
   0 -11   7   -1.57    1.41
   0 -11   6   43.67    3.66
   0 -11  -5   71.73    5.58
   0 -11   5   69.41    3.78
   0 -11   4   97.18    4.78
   0 -10  11   14.15    4.88
   0 -10  10    7.03    3.44
   0 -10   9   25.04    3.91
   0 -10   8   15.70    4.05
   0 -10  -7   41.61    4.28
   0 -10   7   34.63    3.32
   0 -10  -6   70.27    5.04
   0 -10   6   57.62    4.06
   0 -10  -5   15.60    2.36
   0 -10   5   17.80    2.30
   0 -10   4  194.46    9.05
   0 -10  -4  217.71    9.49
   0  -9  13    6.50    5.07
   0  -9  12   24.10    5.24
   0  -9  11   12.37    3.49
   0  -9  10   26.30    3.66
   0  -9   9   23.57    3.17
   0  -9   8   39.33    3.81
   0  -9  -7   89.77    6.38
   0  -9   7   76.61    4.79
   0  -9  -6   67.45    5.74
   0  -9   6   53.53    3.84
   0  -9   5   69.35    3.92
   0  -9  -5   70.41    4.58
   0  -9  -4    2.21    1.62
   0  -9   4    0.81    0.81
   0  -9  -3  135.98    5.69
   0  -9   3  123.26    5.54
   0  -8  13   24.23    6.61
   0  -8  12   14.54    5.38
   0  -8  11   12.06    4.60
   0  -8  10   21.51    4.15
   0  -8   9    6.39    2.40
   0  -8   8    3.04    2.08
   0  -8  -7  104.65    6.73
   0  -8   7   95.37    5.80
   0  -8  -6  144.21    7.74
   0  -8  -6  129.19    8.50
   0  -8   6  133.72    6.94
   0  -8  -5  482.26   18.44
   0  -8  -5  436.25   22.02
   0  -8   5  439.48   16.82
   0  -8  -4  120.16    5.35
   0  -8  -4   95.85    7.03
   0  -8   4   97.80    4.89
   0  -8  -3   75.62    3.89
   0  -8   3   62.91    3.74
   0  -8   2  474.31   16.96
   0  -7  14   21.45    5.91
   0  -7  13    0.78    5.94
   0  -7  12   19.97    4.72
   0  -7  11   17.89    3.64
   0  -7  10   67.69    5.76
   0  -7  -9   37.56    4.13
   0  -7   9   46.29    4.50
   0  -7  -8  147.58    9.01
   0  -7  -8  122.85    8.64
   0  -7   8  122.56    7.45
   0  -7  -7  169.09    9.55
   0  -7  -7  148.39    8.35
   0  -7   7  143.42    7.64
   0  -7  -6  115.05    6.60
   0  -7  -6   96.08    6.25
   0  -7   6   97.86    5.51
   0  -7  -5  113.51    5.38
   0  -7  -5   93.35    6.24
   0  -7   5   88.49    5.17
   0  -7  -4   51.34    3.68
   0  -7  -4   46.01    6.85
   0  -7   4   38.66    2.73
   0  -7  -3  418.84   13.99
   0  -7  -3  359.10   16.49
   0  -7   3  365.48   14.17
   0  -7  -2   60.20    2.88
   0  -7  -2   54.64    4.15
   0  -7   2   52.83    2.59
   0  -6  14   -0.15    4.95
   0  -6  13    3.27    3.73
   0  -6  12   11.90    4.70
   0  -6  11   13.87    3.31
   0  -6 -10   38.80    5.21
   0  -6  10   43.00    4.77
   0  -6  -9   35.42    4.28
   0  -6   9   36.11    4.16
   0  -6  -8  456.07   21.67
   0  -6  -8  405.27   17.10
   0  -6   8  400.11   18.53
   0  -6  -7  102.11    6.58
   0  -6  -7   90.40    5.92
   0  -6   7   85.33    5.36
   0  -6  -6  176.90    9.12
   0  -6   6  151.27    7.84
   0  -6  -6  164.75    7.87
   0  -6  -5   77.46    5.11
   0  -6  -5  102.27    4.98
   0  -6   5   80.61    5.03
   0  -6  -4   85.41    5.27
   0  -6  -4  103.56    4.49
   0  -6   4   92.32    4.85
   0  -6  -3  444.88   15.58
   0  -6  -3  416.47   16.67
   0  -6   3  391.35   15.18
   0  -6  -2  170.30    6.28
   0  -6  -2  147.01    7.20
   0  -6   2  158.10    6.31
   0  -5  14    9.57    5.25
   0  -5  13   43.90    7.61
   0  -5  12   69.56    6.73
   0  -5 -11    2.99    3.77
   0  -5  11    6.28    3.92
   0  -5 -10   19.19    3.78
   0  -5  10   10.10    3.47
   0  -5  -9   33.25    4.11
   0  -5   9   37.83    3.98
   0  -5  -8   95.83    6.98
   0  -5  -8   83.43    6.20
   0  -5   8   78.43    5.78
   0  -5  -7  139.07    7.73
   0  -5  -7  133.00    7.19
   0  -5   7  125.03    6.81
   0  -5  -6   44.23    4.13
   0  -5   6   46.00    2.93
   0  -5  -6   50.96    3.83
   0  -5  -5  516.07   19.63
   0  -5  -5  470.74   18.00
   0  -5   5  448.50   18.38
   0  -5  -4  438.85   14.09
   0  -5  -4  396.03   15.70
   0  -5   4  376.76   15.37
   0  -5  -3  360.17   12.25
   0  -5  -3  327.77   13.44
   0  -5   3  322.02   12.46
   0  -5  -2  362.68   13.25
   0  -5  -2  308.62   12.83
   0  -5   2  304.28   12.18
   0  -5  -1  674.73   20.86
   0  -5  -1  578.72   22.43
   0  -5   1  592.21   21.30
   0  -4  15    2.00    6.46
   0  -4  14    1.85    3.70
   0  -4  13   21.38    4.81
   0  -4  12    9.80    4.51
   0  -4 -11  127.83    8.36
   0  -4  11  124.42    8.17
   0  -4 -10   83.15    5.99
   0  -4  10   86.56    6.62
   0  -4  -9   45.81    3.78
   0  -4   9   44.87    3.80
   0  -4  -8  126.07    7.64
   0  -4  -8  114.66    6.36
   0  -4   8  115.06    6.24
   0  -4  -7  454.32   19.03
   0  -4  -7  436.58   16.57
   0  -4   7  388.98   15.52
   0  -4  -6  454.56   16.51
   0  -4  -6  435.18   16.71
   0  -4   6  394.56   15.62
   0  -4  -5  716.73   22.86
   0  -4  -5  661.18   24.87
   0  -4   5  651.97   24.58
   0  -4  -4  512.26   15.95
   0  -4  -4  471.91   17.92
   0  -4   4  462.41   17.90
   0  -4  -3   99.17    4.70
   0  -4  -3  104.48    4.62
   0  -4   3   89.36    4.23
   0  -4  -2  742.24   22.76
   0  -4  -2  662.00   25.19
   0  -4   2  657.20   23.97
   0  -4  -1   41.29    2.48
   0  -4  -1   30.77    1.93
   0  -4   1   32.67    1.61
   0  -3  15   -4.62    7.23
   0  -3  14   36.42    7.26
   0  -3  13    4.34    3.25
   0  -3  12   22.06    4.35
   0  -3 -11   21.20    3.12
   0  -3  11   14.81    4.05
   0  -3 -10  174.56   10.07
   0  -3  10  160.19    9.44
   0  -3   9   25.91    4.09
   0  -3  -9   21.84    2.50
   0  -3   8  254.59   11.45
   0  -3  -8  310.14   14.39
   0  -3  -8  277.70   11.66
   0  -3  -7   78.65    5.13
   0  -3  -7   66.91    4.12
   0  -3   7   66.57    4.77
   0  -3  -6   63.68    4.03
   0  -3  -6   48.63    3.17
   0  -3   6   43.99    3.04
   0  -3  -5  151.09    5.76
   0  -3  -5  134.47    5.91
   0  -3   5  129.09    6.14
   0  -3  -4  351.25   12.57
   0  -3  -4  311.72   11.84
   0  -3   4  309.52   12.55
   0  -3  -3 2487.20   74.52
   0  -3  -3 2318.17   76.72
   0  -3   3 2239.42   79.04
   0  -3  -2 1529.37   46.61
   0  -3  -2 1411.60   49.22
   0  -3   2 1390.88   48.80
   0  -3  -1  389.09   12.11
   0  -3  -1  357.27   13.74
   0  -3   1  347.65   12.95
   0  -3   0    0.00    0.65
   0  -2  15   12.63    9.55
   0  -2  14    6.02    5.56
   0  -2  13   37.16    4.96
   0  -2  12    1.24    2.95
   0  -2 -11   13.17    2.79
   0  -2  11   10.58    3.27
   0  -2 -10  205.36   10.83
   0  -2  10  200.38   10.82
   0  -2  -9  152.34    7.43
   0  -2   9  138.49    8.47
   0  -2  -8   71.88    5.61
   0  -2  -8   77.00    4.28
   0  -2   8   67.86    5.65
   0  -2  -7  144.90    8.41
   0  -2  -7  125.04    6.56
   0  -2   7  128.56    6.64
   0  -2  -6   69.57    4.35
   0  -2  -6   68.77    5.88
   0  -2   6   64.02    4.11
   0  -2  -5  498.49   16.45
   0  -2  -5  477.59   17.88
   0  -2   5  439.28   17.75
   0  -2  -4  115.41    4.97
   0  -2  -4  114.26    4.85
   0  -2   4  105.88    5.29
   0  -2   3 1319.05   49.69
   0  -2  -3 1461.60   46.99
   0  -2  -3 1352.25   47.05
   0  -2  -2 3444.05  102.84
   0  -2  -2 3152.58  103.74
   0  -2   2 3050.13  106.73
   0  -2  -1  378.57   11.96
   0  -2  -1  348.89   13.20
   0  -2   1  339.36   12.42
   0  -2   0  112.42    4.75
   0  -1  15   16.18    7.40
   0  -1  14   21.64    4.48
   0  -1  13    9.76    4.18
   0  -1  12   84.89    7.15
   0  -1 -11    2.31    2.00
   0  -1  11    2.02    2.80
   0  -1 -10   90.31    5.62
   0  -1  10   83.89    6.86
   0  -1  -9   82.00    4.91
   0  -1   9   73.55    5.47
   0  -1  -8   66.28    4.68
   0  -1   8   59.90    4.38
   0  -1  -7  137.37    6.56
   0  -1   7  124.92    5.81
   0  -1  -6  233.67   10.15
   0  -1   6  195.58    9.44
   0  -1  -5  310.53   10.67
   0  -1   5  272.75   11.06
   0  -1  -4  124.24    5.92
   0  -1   4  106.24    5.22
   0  -1  -3 1496.86   47.21
   0  -1   3 1391.99   50.97
   0  -1  -2   30.22    1.70
   0  -1   2   30.30    1.91
   0  -1  -1   -0.94    0.31
   0  -1   1   99.48    4.23
   0  -1   0   -0.32    0.16
   0   0 -11  112.44    6.24
   0   0  -9   94.11    7.49
   0   0  -8  144.94    7.35
   0   0  -7  249.50   10.03
   0   0  -6  272.44   10.51
   0   0  -5   43.64    2.81
   0   0  -4   73.25    4.37
   0   0  -3   14.58    1.55
   0   0  -2   93.03    3.93
   0   0  -1   -0.16    0.16
   0   0   1   -0.47    0.16
   0   0   2   92.46    4.08
   0   0   4   65.69    3.59
   0   0   5   43.36    2.81
   0   0   6  247.23    9.88
   0   0   7  211.11    9.39
   0   0   8  117.80    6.71
   0   0   9   97.11    6.40
   0   0  10  137.39    9.20
   0   0  11  104.34    7.33
   0   0  12    8.23    3.73
   0   0  13    0.31    3.41
   0   0  14    4.33    4.33
   0   0  15    8.34    4.48
   0   1   0   -0.31    0.15
   0   1   0    0.00    0.16
   0   1   0   -0.32    0.16
   0   1  -1  129.79   12.33
   0   1   1  560.83   17.89
   0   1   1  525.63   17.19
   0   1   2   40.90    1.87
   0   1  -2   40.09    1.90
   0   1   3 1275.33   43.39
   0   1  -3 1316.93   44.76
   0   1   4  128.77    5.62
   0   1  -4  118.06    6.28
   0   1   5  296.03   12.66
   0   1  -5  325.18   11.53
   0   1   6  212.92    9.22
   0   1  -6  244.58    9.29
   0   1   7  151.07    7.49
   0   1  -7  163.46    7.84
   0   1   8   56.80    4.36
   0   1  -8   68.29    7.18
   0   1   9   69.15    4.84
   0   1  -9   62.40    5.47
   0   1  10  107.04    7.81
   0   1  11    7.32    4.52
   0   1  12   82.22    7.49
   0   1  13   32.82    7.16
   0   1  14   18.32    6.68
   0   1  15    0.93    6.66
   0   2   0   59.50    2.01
   0   2   0   55.23    2.11
   0   2   0   49.22    2.61
   0   2   1  336.06   11.33
   0   2   1  313.26   11.74
   0   2  -1  308.81   11.12
   0   2   2 3412.43  111.37
   0   2   2 3408.48  112.01
   0   2  -2 3441.96  115.71
   0   2   3 1213.49   41.33
   0   2  -3 1253.31   42.34
   0   2   4   50.25    2.80
   0   2  -4   52.38    2.69
   0   2   5  498.76   18.97
   0   2  -5  550.33   23.07
   0   2   6   55.30    3.74
   0   2  -6   65.62    3.30
   0   2   7   89.51    4.85
   0   2  -7  106.06    5.34
   0   2   8   49.28    4.06
   0   2  -8   62.33    4.39
   0   2   9  128.83    7.68
   0   2  -9  141.90    9.40
   0   2  10  203.02   10.98
   0   2  11   21.26    3.75
   0   2  12    5.31    3.44
   0   2  13   43.88    5.47
   0   2  14    2.96    4.52
   0   2  15    4.51    5.13
   0   3   0    0.15    0.30
   0   3   0    0.16    0.32
   0   3   1  379.31   12.22
   0   3   1  346.73   13.88
   0   3  -1  342.57   12.68
   0   3  -1  353.00   13.26
   0   3   2 1332.64   44.48
   0   3  -2 1358.27   45.60
   0   3   2 1378.85   45.17
   0   3   3 2141.24   70.83
   0   3  -3 2216.20   71.19
   0   3   4  362.91   14.29
   0   3  -4  370.98   14.51
   0   3   5  160.58    7.83
   0   3  -5  171.80    7.29
   0   3   6   30.39    2.81
   0   3  -6   35.10    2.83
   0   3   7   49.35    3.45
   0   3  -7   62.16    4.86
   0   3   8  250.57   11.18
   0   3  -8  258.90   12.28
   0   3   9   28.38    3.92
   0   3  -9   19.72    3.29
   0   3  10  157.76    9.77
   0   3  11    9.11    4.71
   0   3  12   35.66    5.66
   0   3  13   -0.94    4.87
   0   3  14   35.74    8.47
   0   3  15    6.41    6.73
   0   4   0 1496.25   44.20
   0   4   0 1362.64   48.04
   0   4   0 1320.51   48.41
   0   4   1   29.35    1.57
   0   4   1   23.24    1.93
   0   4  -1   27.97    1.44
   0   4  -1   30.19    2.59
   0   4   2  694.80   23.15
   0   4   2  685.03   24.67
   0   4  -2  692.63   24.30
   0   4  -2  656.77   24.75
   0   4   3  116.34    4.72
   0   4   3  117.76    5.23
   0   4  -3  115.56    4.83
   0   4   4  497.68   19.08
   0   4  -4  529.43   18.75
   0   4   5  559.91   21.16
   0   4  -5  586.51   21.20
   0   4   6  336.80   14.36
   0   4  -6  366.42   13.65
   0   4   7  454.79   18.51
   0   4  -7  498.72   18.99
   0   4   8  133.29    6.95
   0   4  -8  149.05    8.34
   0   4   9   62.68    5.05
   0   4  -9   56.73    5.96
   0   4  10   62.47    5.06
   0   4  11  125.69    8.08
   0   4  12   10.58    3.48
   0   4  13   16.26    4.42
   0   4  14    3.63    4.42
   0   4  15   -0.31    5.20
   0   5   0    0.75    0.45
   0   5   0    0.00    0.47
   0   5   0   -0.80    1.13
   0   5   1  659.36   21.42
   0   5   1  591.25   21.01
   0   5  -1  568.03   20.26
   0   5  -1  595.43   22.74
   0   5   2  342.46   11.91
   0   5   2  335.73   13.46
   0   5  -2  332.28   12.53
   0   5  -2  311.77   12.18
   0   5   3  459.65   16.47
   0   5   3  437.98   17.37
   0   5  -3  438.42   16.29
   0   5  -3  428.11   16.24
   0   5   4  354.71   13.45
   0   5  -4  379.07   13.77
   0   5   5  443.32   17.11
   0   5  -5  480.27   18.00
   0   5  -6   25.46    3.30
   0   5   6   23.71    2.36
   0   5   7   93.50    6.48
   0   5  -7  106.05    5.98
   0   5   8   87.74    5.55
   0   5  -8   97.96    6.91
   0   5   9   37.17    3.96
   0   5  -9   34.78    5.02
   0   5  10   19.49    4.44
   0   5  11   21.58    4.29
   0   5  12   81.76    6.53
   0   5  13   28.58    6.04
   0   5  14    5.39    4.44
   0   5  15    3.96    6.34
   0   6   0  604.43   19.57
   0   6   0  536.66   20.00
   0   6   0  549.18   20.52
   0   6   1   90.07    4.50
   0   6   1   97.49    4.12
   0   6   1   93.69    3.63
   0   6  -1   89.65    3.68
   0   6  -1   87.40    4.68
   0   6   2  216.01    7.62
   0   6   2  215.46    8.82
   0   6  -2  222.77    8.76
   0   6  -2  212.68   10.66
   0   6   3  346.84   13.30
   0   6   3  357.84   13.90
   0   6  -3  373.77   13.84
   0   6  -3  332.27   13.12
   0   6   4   84.53    4.26
   0   6   4   79.15    5.08
   0   6  -4   97.73    4.30
   0   6  -4   88.62    4.37
   0   6   5   90.69    4.58
   0   6  -5   96.55    5.06
   0   6  -5   90.78    4.53
   0   6   6  159.54    8.70
   0   6  -6  185.09    8.06
   0   6   7   66.43    5.22
   0   6  -7   59.69    4.40
   0   6   8  381.78   15.98
   0   6  -8  401.27   20.28
   0   6   9   49.48    4.13
   0   6  -9   41.76    5.01
   0   6  11    9.87    3.50
   0   6 -11   19.42    4.07
   0   6  12   13.70    5.26
   0   6  13    0.32    3.67
   0   6  14   -5.89    4.94
   0   7   0   -0.61    0.61
   0   7   0   -0.31    0.62
   0   7   0    1.60    1.92
   0   7   1  498.21   17.16
   0   7   1  478.92   16.55
   0   7   1  452.05   17.83
   0   7  -1  517.58   17.58
   0   7  -1  452.75   17.02
   0   7  -1  460.22   17.57
   0   7   2   51.02    2.83
   0   7   2   50.33    4.15
   0   7  -2   49.20    2.26
   0   7  -2   46.70    3.54
   0   7   3  275.79   11.37
   0   7   3  287.41   12.94
   0   7  -3  295.09   10.90
   0   7  -3  289.56   11.47
   0   7   4   32.08    2.82
   0   7   4   33.75    3.02
   0   7  -4   34.09    2.53
   0   7  -4   27.49    3.22
   0   7   5   65.28    4.57
   0   7  -5   70.65    3.63
   0   7  -5   58.31    4.51
   0   7   6   98.05    6.64
   0   7  -6  113.15    5.82
   0   7  -6   97.74    5.47
   0   7   7  180.43    8.75
   0   7  -7  189.95   10.20
   0   7  -7  164.55    8.66
   0   7   8  126.48    8.11
   0   7  -8  122.95    8.13
   0   7  -8  114.02    6.86
   0   7   9   39.68    4.45
   0   7  -9   26.50    3.59
   0   7  -9   37.74    3.80
   0   7  10   68.56    6.22
   0   7 -10   77.28    5.67
   0   7  11    2.55    4.30
   0   7 -11   17.04    2.50
   0   7  12    6.54    3.99
   0   7  13    1.12    4.31
   0   7  14   17.56    5.91
   0   8   0  191.32    7.09
   0   8   0  185.43    6.66
   0   8   0  173.31    8.80
   0   8   1  235.11    8.83
   0   8   1  224.29    9.24
   0   8   1  215.75   10.08
   0   8  -1  248.27    8.41
   0   8  -1  224.93    8.22
   0   8  -1  225.20   10.11
   0   8   2  460.32   18.12
   0   8   2  453.84   16.66
   0   8   2  449.34   18.41
   0   8  -2  442.60   15.93
   0   8  -2  449.47   17.54
   0   8   3   79.76    4.24
   0   8   3   89.30    5.90
   0   8  -3   82.98    3.66
   0   8  -3   74.04    4.50
   0   8   4   95.74    4.88
   0   8   4   99.05    6.53
   0   8  -4  101.34    4.58
   0   8  -4   99.57    5.31
   0   8   5  383.95   16.62
   0   8  -5  438.76   15.02
   0   8  -5  417.78   17.25
   0   8  -6  134.06    7.70
   0   8   6  154.14    7.76
   0   8  -6  155.17    7.99
   0   8   7  103.38    6.65
   0   8  -7  113.71    5.94
   0   8  -7   94.06    6.07
   0   8   8    0.63    3.16
   0   8  -8    2.49    3.11
   0   8  -8    1.90    1.90
   0   8   9    3.33    3.49
   0   8  -9   -7.76    4.19
   0   8  -9    0.63    2.68
   0   8  10   34.46    5.88
   0   8 -10   26.93    3.14
   0   8  11   13.36    5.09
   0   8 -11    6.08    2.18
   0   8  12   20.23    5.74
   0   8  13   26.14    7.01
   0   9   0    0.15    0.62
   0   9   0    0.16    0.62
   0   9   0    0.95    3.82
   0   9   1  207.48    8.77
   0   9   1  212.40    8.10
   0   9   1  202.82    9.26
   0   9  -1  227.91    7.91
   0   9  -1  210.13    7.58
   0   9  -1  202.59    9.91
   0   9   2   66.33    3.44
   0   9   2   69.92    3.64
   0   9   2   69.22    5.41
   0   9  -2   76.30    3.18
   0   9  -2   68.19    3.02
   0   9  -2   73.56    4.80
   0   9   3  147.15    7.06
   0   9   3  153.06    9.41
   0   9  -3  155.15    6.17
   0   9  -3  134.70    8.01
   0   9   4    1.40    1.71
   0   9   4    0.64    2.22
   0   9  -4    2.18    1.40
   0   9  -4    1.12    3.20
   0   9   5   47.35    4.54
   0   9  -5   54.19    3.43
   0   9  -5   49.02    4.48
   0   9   6   65.97    4.41
   0   9  -6   71.46    4.67
   0   9  -6   68.95    4.95
   0   9   7   60.49    4.73
   0   9  -7   56.20    4.66
   0   9  -7   59.63    5.09
   0   9   8   52.61    5.05
   0   9  -8   55.23    5.58
   0   9  -8   45.91    4.42
   0   9   9   34.57    4.90
   0   9  -9   37.65    3.93
   0   9  10   12.34    3.80
   0   9 -10   15.44    4.21
   0   9  11   11.09    5.07
   0   9  12   25.37    5.39
   0   9  13    0.32    3.97
   0  10   0  276.49   10.23
   0  10   0  279.06   10.26
   0  10   0  263.95   14.17
   0  10   1   55.67    2.81
   0  10   1   57.49    2.87
   0  10   1   61.65    5.40
   0  10  -1   61.19    2.35
   0  10  -1   55.40    2.39
   0  10  -1   63.87    5.57
   0  10   2   13.79    1.71
   0  10   2   13.01    1.89
   0  10  -2   13.94    1.04
   0  10  -2   12.93    1.09
   0  10  -2   15.44    3.82
   0  10   2   12.83    4.75
   0  10   3  174.44    8.94
   0  10   3  165.55   10.35
   0  10  -3  180.58    6.63
   0  10  -3  183.07    9.28
   0  10   3  180.46    8.57
   0  10   4  175.75    8.65
   0  10  -4  178.82    7.68
   0  10  -4  174.31    9.28
   0  10   4  165.76    9.90
   0  10   5   15.44    2.97
   0  10  -5   11.90    2.01
   0  10   6   48.61    4.08
   0  10  -6   58.35    4.80
   0  10  -6   54.25    4.45
   0  10   7   34.46    3.61
   0  10  -7   28.08    3.40
   0  10  -7   34.75    3.64
   0  10   8   16.16    3.77
   0  10  -8   18.06    3.61
   0  10   9   26.87    5.35
   0  10  -9   30.14    4.84
   0  10  10    4.41    4.41
   0  10 -10    0.78    2.64
   0  10  11   -0.63    5.35
   0  10  12   17.80    6.62
   0  11   0    2.69    2.85
   0  11   1   12.48    1.25
   0  11   1   11.71    1.26
   0  11   1   16.45    4.90
   0  11  -1    4.60    3.81
   0  11   2    9.20    1.40
   0  11   2    5.92    1.40
   0  11   2    5.06    3.64
   0  11  -2   14.13    4.29
   0  11   3  144.99    7.72
   0  11   3  156.48    8.18
   0  11  -3  167.73    6.44
   0  11  -3  164.25    6.15
   0  11  -3  151.61    9.57
   0  11   3  140.30    9.06
   0  11   4   76.75    4.56
   0  11   4   74.15    5.49
   0  11   4   89.31    6.85
   0  11  -4   74.73    3.59
   0  11  -4   64.18    5.89
   0  11   5   60.26    5.64
   0  11  -5   55.02    5.08
   0  11   6   48.74    4.08
   0  11  -6   55.94    6.33
   0  11   7    5.32    3.13
   0  11  -7    5.03    4.09
   0  11   8    8.45    3.60
   0  11  -8   10.48    4.22
   0  11   9   25.51    5.33
   0  11  -9   26.73    4.04
   0  11  10   15.03    5.01
   0  11 -10    8.50    4.33
   0  11  11   18.32    5.95
   0  12   0   74.16    6.34
   0  12   1    9.64    0.79
   0  12   1    8.79    0.79
   0  12   1    9.32    3.32
   0  12  -1    6.18    3.01
   0  12   2  103.89    4.93
   0  12   2   91.63    7.44
   0  12  -2   96.06    7.63
   0  12   3   14.77    6.13
   0  12   3   11.39    5.06
   0  12  -3   16.17    3.65
   0  12   4   18.67    2.67
   0  12  -4   22.34    5.55
   0  12   5  125.72    7.43
   0  12  -5  124.22    9.04
   0  12   6   69.08    5.04
   0  12  -6   65.81    5.84
   0  12   7    2.19    3.91
   0  12  -7   -1.10    2.82
   0  12   8    7.35    2.82
   0  12  -8    5.61    3.27
   0  12   9   17.19    5.32
   0  12  -9   26.92    7.27
   0  12  10    5.46    5.46
   0  13   0    0.63    3.32
   0  13   1   39.95    5.22
   0  13  -1   36.39    5.38
   0  13   2   24.00    4.74
   0  13  -2   17.42    5.23
   0  13   3   11.38    5.85
   0  13  -3   11.71    3.64
   0  13  -4   13.12    5.22
   0  13  -5    6.15    3.62
   0  13  -6    9.41    3.92
   0  13  -7   64.91    7.19
   0  13  -8   26.67    6.82
   0  13  -9    2.16    6.01
   0  14   0   17.23    4.74
   0  14   1   12.16    5.21
   0  14  -1    2.37    4.11
   0  14  -2   21.52    6.33
   0  14   2   15.00    5.21
   0  14  -3   27.51    5.06
   0  14  -4   39.28    5.53
   0  14  -5    5.03    5.34
   0  14  -6   -1.72    6.73
   0  14  -7   25.04    7.15
   0  14  -8    9.42    6.95
   0  15   0   -2.37    3.96
   0  15   1   12.65    6.33
   0  15  -1   16.78    5.38
   0  15  -2    3.01    7.12
   0  15  -3   21.33    5.06
   0  15  -4   15.28    6.78
   0  15  -5   31.22    7.85
   0  15  -6    4.21    7.02
   0  16   0   20.28    5.71
   0  16  -1   14.58    6.18
   0  16  -2    9.66    7.76
   0  16  -3    7.74    6.48
  -1 -12   5   30.22    3.30
  -1 -11   9    3.71    3.09
  -1 -11   8   36.78    4.74
  -1 -11   7   67.11    5.07
  -1 -11   6   49.62    4.47
  -1 -11   5   10.20    2.31
  -1 -11   4    6.46    1.94
   1 -11  -4   10.03    1.92
  -1 -10  12   21.07    4.41
  -1 -10  11   10.97    5.02
  -1 -10  10    2.82    3.60
  -1 -10   9   20.66    4.55
  -1 -10   8    9.60    3.15
  -1 -10   7   12.10    2.71
   1 -10  -7   11.85    3.60
  -1 -10   6   11.00    2.59
   1 -10  -6    9.07    2.53
  -1 -10   5  290.81   13.44
   1 -10  -5  337.62   14.70
  -1 -10   4   59.64    3.96
   1 -10  -4   55.42    3.87
  -1 -10   3   10.93    2.06
  -1  -9  13   23.85    6.80
  -1  -9  12   18.67    4.75
  -1  -9  11    4.43    3.17
  -1  -9  10   25.81    4.44
  -1  -9   9   49.41    4.77
  -1  -9   8   40.59    4.45
   1  -9  -8   97.65   21.92
  -1  -9   7    2.07    2.39
   1  -9  -7   10.72    3.62
  -1  -9   6   38.19    3.23
   1  -9  -6   47.56    4.36
  -1  -9   5    1.13    1.95
   1  -9  -5    2.67    2.22
  -1  -9   4  211.76    9.61
   1  -9  -4  223.61    9.94
  -1  -9   3  286.69   12.42
   1  -9  -3  310.19   12.41
  -1  -9   2  241.90    9.97
  -1  -8  12    8.40    3.33
  -1  -8  11    2.70    2.86
  -1  -8  10   33.83    4.79
  -1  -8   9   20.77    4.00
  -1  -8   8    9.74    3.04
   1  -8  -8    3.85    4.00
  -1  -8   7  295.22   13.12
   1  -8  -7  319.07   16.09
  -1  -8   6   11.51    2.08
   1  -8  -6   11.50    2.88
  -1  -8   5   54.89    3.72
   1  -8  -5   56.62    3.92
  -1  -8   4   85.32    5.04
   1  -8  -4   92.14    5.10
  -1  -8   3  226.26   10.44
   1  -8  -3  250.33    8.95
  -1  -8   2  118.67    5.76
   1  -8  -2  130.96    5.17
  -1  -8   1   52.89    4.93
  -1  -7  14   14.67    5.15
  -1  -7  13   -2.20    3.62
  -1  -7  12   32.28    5.07
  -1  -7  11   31.21    4.15
  -1  -7  10    5.12    3.84
  -1  -7   9   11.24    2.73
  -1  -7   8   16.07    2.73
   1  -7  -8   26.46    5.76
  -1  -7   7  111.01    6.46
   1  -7  -7  125.64    7.48
  -1  -7   6   28.31    2.89
   1  -7  -6   30.86    3.54
  -1  -7   5   94.79    5.31
   1  -7  -5  102.37    5.23
  -1  -7   4  394.92   16.05
   1  -7  -4  433.55   14.83
  -1  -7   3  202.59    9.23
   1  -7  -3  213.82    8.21
  -1  -7   2   41.63    2.89
   1  -7  -2   41.94    2.23
  -1  -7   1  469.14   17.00
  -1  -7   1  463.39   18.30
  -1  -6  14   11.51    6.22
  -1  -6  13    8.93    5.01
  -1  -6  12   20.99    4.26
  -1  -6  11   15.58    3.18
  -1  -6  10   68.31    5.94
  -1  -6   9   60.45    5.00
  -1  -6   8   12.09    2.10
   1  -6  -8   17.42    3.30
  -1  -6   7  162.85    8.60
   1  -6  -7  172.92    9.60
  -1  -6   6    7.06    2.09
   1  -6  -6    5.13    2.80
  -1  -6   5  486.56   20.17
   1  -6  -5  536.15   20.38
  -1  -6   4    5.71    1.75
   1  -6  -4    9.64    1.68
  -1  -6   3  117.92    5.61
   1  -6  -3  133.75    5.68
  -1  -6   2  748.00   28.42
  -1  -6   2  757.95   29.98
   1  -6  -2  832.00   25.61
  -1  -6   1  110.27    5.13
  -1  -6   1  105.75    5.27
   1  -6  -1  117.43    4.07
  -1  -5  15    1.08    6.94
  -1  -5  14   28.56    5.44
  -1  -5  13    0.16    2.97
  -1  -5  12   11.96    3.93
  -1  -5  11   10.62    4.12
  -1  -5  10   89.98    6.73
  -1  -5   9  149.90    8.72
  -1  -5   8   70.91    5.01
   1  -5  -8   85.43    6.17
  -1  -5   7   44.06    3.56
   1  -5  -7   47.20    4.57
  -1  -5   6  455.58   19.66
   1  -5  -6  531.42   19.10
  -1  -5   5   10.87    1.92
   1  -5  -5   12.50    2.50
  -1  -5   4    8.72    1.90
   1  -5  -4    6.53    1.71
  -1  -5   3   88.82    4.46
   1  -5  -3   97.66    6.67
  -1  -5   2  436.19   16.46
  -1  -5   2  454.24   16.64
   1  -5  -2  475.61   15.76
  -1  -5   1  301.90   11.57
  -1  -5   1  291.78   11.04
   1  -5  -1  318.39   10.33
  -1  -4  15    4.32    7.10
  -1  -4  14   -0.47    4.03
  -1  -4  13   -4.05    4.37
  -1  -4  12    9.41    3.29
  -1  -4  11    7.26    3.16
  -1  -4  10   30.66    3.98
  -1  -4   9   88.24    5.94
  -1  -4   8   54.15    4.83
   1  -4  -8   59.15    6.32
  -1  -4   7  317.14   13.98
   1  -4  -7  351.74   15.58
  -1  -4   6   42.73    3.72
   1  -4  -6   42.73    3.48
  -1  -4   5   98.06    5.32
   1  -4  -5  106.35    5.24
  -1  -4   4    8.11    1.59
   1  -4  -4    7.40    1.26
  -1  -4   3  405.89   15.65
   1  -4  -3  431.61   14.90
  -1  -4   2   93.33    4.46
  -1  -4   2   94.44    4.49
   1  -4  -2   97.02    4.14
  -1  -4   1  318.03   11.79
  -1  -4   1  302.20   11.64
   1  -4  -1  309.49   10.87
  -1  -3  15    8.79    6.63
  -1  -3  14   12.71    5.11
  -1  -3  13   23.35    5.92
  -1  -3  12   79.64    7.06
  -1  -3  11   37.12    4.57
  -1  -3  10   23.41    4.11
  -1  -3   9  107.84    7.18
  -1  -3   8   91.96    5.30
   1  -3  -8  102.59    6.17
  -1  -3   7   29.72    3.38
   1  -3  -7   29.03    3.79
  -1  -3   6   43.97    3.55
   1  -3  -6   52.46    3.65
  -1  -3   5   96.19    5.01
   1  -3  -5  108.13    4.79
  -1  -3   4  799.26   30.36
   1  -3  -4  832.38   27.44
  -1  -3   3  410.02   15.05
  -1  -3   3  400.67   16.14
   1  -3  -3  428.16   15.22
  -1  -3   2  356.11   13.40
  -1  -3   2  357.32   12.88
   1  -3  -2  367.49   13.05
  -1  -3   1  193.23    7.49
  -1  -3   1  180.06    7.47
   1  -3  -1  178.87    6.89
  -1  -2  15   -1.24    7.26
  -1  -2  14    9.14    4.34
  -1  -2  13    2.64    5.29
  -1  -2  12    0.94    2.81
  -1  -2  11   18.19    4.24
  -1  -2  10  192.97   10.45
  -1  -2   9   70.27    5.08
  -1  -2   8   17.18    2.86
   1  -2  -8   19.21    3.15
   1  -2  -8   13.53    1.91
  -1  -2   7  413.62   17.21
   1  -2  -7  466.16   17.18
   1  -2  -7  364.23   15.66
  -1  -2   6    5.14    1.60
   1  -2  -6    7.12    3.16
  -1  -2   5  758.64   28.23
   1  -2  -5  847.55   26.73
  -1  -2   4  770.76   27.42
   1  -2  -4  789.18   26.05
  -1  -2   3  902.27   32.66
  -1  -2   3  921.38   31.07
   1  -2  -3  949.18   31.61
  -1  -2   2  186.88    7.79
  -1  -2   2  174.98    6.86
   1  -2  -2  179.37    7.01
  -1  -2   1  892.31   30.66
   1  -2  -1  889.48   29.05
  -1  -1  15    3.40    4.18
  -1  -1  14   39.25    6.21
  -1  -1  13   16.18    5.45
  -1  -1  12   82.09    6.73
  -1  -1  11   16.12    4.07
  -1  -1  10  100.36    6.93
  -1  -1   9   83.54    5.84
   1  -1  -9   86.54    7.55
  -1  -1   8  169.79    9.21
   1  -1  -8  201.63   10.11
   1  -1  -8  153.80    7.24
  -1  -1   7   34.81    3.18
   1  -1  -7   32.52    3.63
   1  -1  -7   30.25    1.76
  -1  -1   6  344.57   15.57
   1  -1  -6  377.55   14.05
  -1  -1   5  200.72    9.51
   1  -1  -5  213.62    8.03
  -1  -1   4  257.41   10.68
   1  -1  -4  277.81    9.87
  -1  -1   3  146.56    7.08
  -1  -1   3  150.46    5.56
   1  -1  -3  161.64    6.33
  -1  -1   2 1700.69   57.41
   1  -1  -2 1736.56   56.20
  -1  -1   1   75.58    3.51
   1  -1  -1   78.56    3.03
   1   0  -9   34.74    5.03
   1   0  -8  176.67    9.80
   1   0  -7   54.40    4.28
   1   0  -6   63.85    3.98
   1   0  -5 1027.84   31.81
   1   0  -4    3.53    1.28
   1   0  -3   50.38    2.74
   1   0  -2 4045.49  126.76
   1   0  -1  682.39   24.64
   1   0   1  119.76    4.85
   1   0   2   64.35    2.97
   1   0   3   66.76    3.18
   1   0   4  843.83   31.36
   1   0   5   63.00    3.80
   1   0   6  516.09   19.47
   1   0   7   -3.65    2.28
   1   0   8   12.82    2.59
   1   0   9    8.26    2.60
   1   0  10  253.47   13.08
   1   0  11   17.02    4.45
   1   0  12    4.91    4.91
   1   0  13   19.79    4.60
   1   0  14   -0.61    5.36
   1   0  15    6.58    5.51
   1   1   0   90.22    4.07
  -1   1   0   83.92    3.27
   1   1   1 1158.45   39.39
  -1   1  -1 1200.33   39.43
   1   1   2  343.04   12.68
  -1   1  -2  354.62   13.04
   1   1   3 1224.48   44.30
  -1   1  -3 1291.91   41.69
   1   1   4   85.69    4.26
  -1   1  -4   89.79    4.17
   1   1   5  912.68   32.81
  -1   1  -5 1004.60   33.87
   1   1   6   69.15    4.88
  -1   1  -6   78.37    4.46
   1   1   7  318.83   12.43
  -1   1  -7  341.18   14.68
   1   1   8    2.60    2.60
  -1   1  -8    0.46    1.84
   1   1   9   83.53    6.28
   1   1  10   77.54    5.99
   1   1  11   41.27    5.37
   1   1  12    1.07    3.84
   1   1  13   16.12    4.76
   1   1  14   -2.30    6.90
   1   1  15   14.39    6.89
   1   2   0 2694.13   87.63
  -1   2   0 2621.00   85.15
   1   2   1 1825.64   61.25
  -1   2  -1 1922.06   61.51
   1   2   2  188.18    7.19
  -1   2  -2  196.81    7.90
   1   2   3  615.01   22.44
  -1   2  -3  629.41   22.09
   1   2   4  358.23   14.86
  -1   2  -4  368.85   13.41
   1   2   5   34.09    3.20
  -1   2  -5   33.90    2.46
   1   2   6  424.91   15.70
  -1   2  -6  479.95   19.40
   1   2   7  111.55    6.13
  -1   2  -7  125.64    7.10
   1   2   8  549.66   22.20
  -1   2  -8  648.68   27.63
   1   2   9   51.54    4.61
   1   2  10    2.46    2.61
   1   2  11  103.52    6.79
   1   2  12   18.93    5.23
   1   2  13   27.24    6.47
   1   2  14   10.15    5.38
   1   2  15    7.22    5.22
   1   3   0  263.71   10.23
  -1   3   0  258.07    8.87
   1   3   1 1125.33   38.46
  -1   3  -1 1166.44   38.31
   1   3   2  954.99   33.93
  -1   3  -2 1000.00   34.56
   1   3   3  596.40   20.63
  -1   3  -3  596.06   20.93
   1   3   4   55.38    3.22
  -1   3  -4   56.68    2.80
   1   3   5  238.36   10.19
  -1   3  -5  255.43    9.82
   1   3   6   97.23    5.09
  -1   3  -6  111.17    5.58
   1   3   7  118.58    6.17
  -1   3  -7  125.73    7.27
   1   3   8  147.41    7.88
  -1   3  -8  162.58   10.06
   1   3   9   86.32    6.03
  -1   3  -9   80.11    7.27
   1   3  10   33.34    4.17
   1   3  11   14.22    4.33
   1   3  12   65.26    6.50
   1   3  13    0.00    4.02
   1   3  14    8.81    6.80
   1   3  15    4.01    5.71
   1   4   0  694.92   23.51
   1   4   1   36.37    2.11
   1   4   1   31.71    1.98
   1   4   2  458.02   17.11
  -1   4  -2  485.95   17.76
   1   4   3  692.71   24.52
  -1   4  -3  711.28   24.02
   1   4   4  618.99   23.82
  -1   4  -4  624.46   21.68
   1   4   5  785.03   30.84
  -1   4  -5  810.16   31.55
   1   4   6  404.45   16.97
  -1   4  -6  417.73   15.78
   1   4   7  100.63    6.51
  -1   4  -7  106.04    6.35
   1   4   8  146.77    7.63
  -1   4  -8  175.45    9.63
   1   4   9   27.29    4.19
  -1   4  -9   21.17    4.48
   1   4  10  130.46    8.73
   1   4  11    0.16    4.35
   1   4  12   -0.31    3.27
   1   4  13   23.50    5.29
   1   4  14    2.80    6.22
   1   4  15   11.03    7.30
   1   5   0  802.06   25.05
   1   5   0  696.37   25.25
   1   5   0  708.88   26.27
   1   5   1  499.50   17.73
   1   5   1  458.66   18.47
   1   5   2  272.59   11.22
  -1   5  -2  281.43    9.88
   1   5   3  396.81   15.44
  -1   5  -3  398.10   14.06
   1   5   4   19.96    2.63
  -1   5  -4   17.93    1.86
  -1   5  -5   88.86    4.36
   1   5   5   85.31    5.14
   1   5   6    1.55    1.86
  -1   5  -6   -0.77    1.39
   1   5   7  330.97   14.43
  -1   5  -7  371.10   16.36
   1   5   8  103.28    6.88
  -1   5  -8  125.97    8.37
   1   5   9  218.61   10.84
  -1   5  -9  184.04   12.56
   1   5  10   24.69    4.22
   1   5  11   16.75    3.76
   1   5  12    7.83    5.33
   1   5  13    1.57    3.76
   1   5  14   23.65    6.89
   1   6   0  556.97   19.87
   1   6   0  530.44   19.02
   1   6   0  520.04   20.54
   1   6   1  532.74   19.16
   1   6   1  488.78   18.04
   1   6   2  645.99   24.21
  -1   6  -2  663.20   22.14
   1   6   3  320.98   12.85
  -1   6  -3  330.87   11.67
  -1   6  -4  601.71   22.45
   1   6   4  579.35   22.22
   1   6   5   14.64    2.81
  -1   6  -5   21.45    2.32
   1   6   6  517.15   21.59
  -1   6  -6  512.50   19.71
   1   6   7   69.83    4.86
  -1   6  -7   68.00    5.57
   1   6   8  243.05   12.45
  -1   6  -8  274.60   14.45
   1   6   9    5.17    3.92
  -1   6  -9    6.64    2.78
   1   6  10   28.28    4.56
   1   6  11   86.07    6.95
   1   6  12   34.66    7.57
   1   6  13   10.09    4.26
   1   6  14    8.67    5.36
   1   7   0  236.09    9.88
   1   7   0  256.52    9.21
   1   7   0  237.19    9.03
  -1   7   0  213.92   10.08
   1   7   1   69.09    3.35
   1   7   1   59.44    3.20
   1   7   2  129.61    5.43
   1   7   2  120.52    6.19
   1   7   3  158.51    7.97
  -1   7  -3  174.07    6.10
   1   7   4   45.43    4.06
  -1   7  -4   47.80    2.95
  -1   7  -5  358.40   14.22
   1   7   5  339.68   15.59
   1   7   6   63.89    5.17
  -1   7  -6   71.76    4.49
   1   7   7   53.37    4.39
  -1   7  -7   48.04    4.32
   1   7   8   61.01    4.56
  -1   7  -8   81.16    6.95
   1   7   9   24.68    4.40
  -1   7  -9   19.25    4.16
   1   7  10   -2.36    2.84
   1   7  11   36.61    6.32
   1   7  12   21.34    5.06
   1   7  13    5.22    4.27
   1   7  14    6.33    5.54
   1   8   0  431.06   15.13
   1   8   0  396.92   14.60
   1   8   0  389.67   15.81
  -1   8   0  359.89   15.13
   1   8   1   44.27    3.03
   1   8   1   38.66    2.56
  -1   8  -1   31.85    4.39
   1   8   2  258.52   10.88
   1   8   2  249.27   10.00
  -1   8  -2  236.80   11.15
   1   8   3    9.43    3.71
  -1   8  -3    5.07    0.75
   1   8   4  130.85    7.04
  -1   8  -4  140.33    6.05
   1   8   5   79.82    4.85
  -1   8  -5   80.72    4.64
   1   8   6   28.06    3.12
  -1   8  -6   27.79    2.92
   1   8   7    5.94    3.28
  -1   8  -7    4.76    2.61
   1   8   8  107.15    6.93
  -1   8  -8  120.57    8.80
   1   8   9   36.44    3.93
  -1   8  -9   19.50    3.38
   1   8  10   -2.05    4.09
   1   8  11   41.98    4.90
   1   8  12   18.65    4.74
   1   8  13    5.22    4.91
   1   9   0   22.22    2.08
   1   9   0   26.89    4.54
   1   9   0   21.06    3.17
  -1   9   0   22.76    3.88
   1   9   1  213.42    8.30
   1   9   1  203.43    9.01
  -1   9  -1  166.63    9.45
   1   9   2   73.88    4.31
   1   9   2   68.89    4.28
  -1   9  -2   53.72    5.06
   1   9   3  230.67   10.74
   1   9   3  222.53   10.90
  -1   9  -3  190.20    9.03
   1   9   4   40.91    3.41
  -1   9  -4   49.96    2.43
  -1   9  -4   42.00    4.73
   1   9   5  183.85    9.52
  -1   9  -5  193.21    9.39
  -1   9  -5  182.85   11.10
   1   9   6    9.00    2.79
  -1   9  -6   19.40    2.60
   1   9   7   54.14    4.99
  -1   9  -7   62.89    5.53
   1   9   8    3.12    2.34
  -1   9  -8    1.99    2.14
   1   9   9   54.45    5.80
   1   9  10   40.95    5.19
  -1   9 -10   38.16    4.72
   1   9  11    5.03    4.25
  -1   9 -11    2.34    4.53
   1   9  12    1.58    5.67
   1   9  13   82.05   23.99
   1  10   0   22.34    2.23
   1  10   0   21.18    2.81
   1  10   0   23.25    4.59
  -1  10   0   14.66    3.71
   1  10   1    4.06    1.65
   1  10   1    2.04    1.88
  -1  10  -1    6.96    3.72
   1  10   2  312.06   12.56
   1  10   2  309.18   13.15
  -1  10  -2  278.47   13.58
   1  10   3  118.70    6.18
   1  10   3  118.31    7.20
  -1  10  -3  109.65    7.19
   1  10   4  150.81    8.81
   1  10   4  154.02    8.77
  -1  10  -4  167.33    5.70
  -1  10  -4  134.09    8.33
   1  10   5   29.97    3.54
  -1  10  -5   26.96    2.25
  -1  10  -5   20.09    5.19
   1  10   6   71.36    5.73
  -1  10  -6   73.47    4.88
  -1  10  -6   57.08    5.50
   1  10   7   28.60    3.41
  -1  10  -7   29.17    4.17
   1  10   8   -3.41    3.72
  -1  10  -8    2.86    2.71
   1  10   9    9.80    3.11
  -1  10  -9   -0.95    4.11
   1  10  10   28.38    6.40
  -1  10 -10   28.22    4.40
   1  10  11   15.47    6.10
   1  10  12    0.16    4.23
   1  11   0   65.09    4.05
   1  11   0   54.52    3.94
   1  11   0   65.26    5.07
  -1  11   0   49.65    4.83
   1  11   1   93.57    5.03
   1  11   1   93.34    6.16
  -1  11  -1   84.62    6.48
   1  11   2    2.57    1.97
   1  11   2    2.80    1.87
  -1  11  -2    2.11    2.75
   1  11   3   73.05    4.75
   1  11   3   64.12    4.83
  -1  11  -3   70.09    6.34
   1  11   4    5.48    1.83
   1  11   4   -0.76    2.29
  -1  11  -4    3.40    3.08
   1  11   5    7.33    2.14
   1  11   5    4.08    2.87
  -1  11  -5   10.02    4.20
   1  11   6   29.26    4.30
  -1  11  -6   31.84    5.31
   1  11   7   53.31    4.93
  -1  11  -7   50.02    5.29
   1  11   8   11.25    4.47
  -1  11  -8   14.60    3.49
   1  11   9   11.28    3.40
  -1  11  -9    8.98    3.62
   1  11  10   20.13    4.80
  -1  11 -10   15.94    5.63
   1  11  11    8.38   11.64
   1  12   0  256.17   10.54
   1  12   0  236.79   11.39
  -1  12   0  225.53   13.05
   1  12   1  123.06    6.30
   1  12   1  111.05    6.20
  -1  12  -1  115.95    8.08
   1  12   2   14.81    2.42
   1  12   2    7.83    2.46
  -1  12  -2   23.10    5.17
   1  12   3    1.52    1.97
  -1  12  -3    1.29    3.07
   1  12   4   70.36    4.90
  -1  12  -4   68.00    6.32
   1  12   5   49.51    4.59
  -1  12  -5   40.25    5.16
   1  12   6   -1.53    2.29
  -1  12  -6   -1.44    5.13
   1  12   7    9.80    3.98
  -1  12  -7    6.84    5.57
   1  12   8   25.62    4.91
  -1  12  -8   21.49    6.80
   1  12   9    6.61    3.38
  -1  12  -9    6.27    4.08
   1  12  10    9.54    4.16
  -1  13   0   -3.36    4.80
  -1  13  -1   13.81    5.46
  -1  13  -2    8.53    3.70
   1  13   3   96.00    6.02
  -1  13  -3   79.42    7.27
   1  13   4    5.34    2.44
  -1  13  -4    8.36    4.18
   1  13   5   59.47    5.38
  -1  13  -5   69.72    9.31
   1  13   6    2.91    3.98
  -1  13  -6   10.20    4.78
   1  13   7    0.15    3.07
  -1  13  -7    3.48    4.91
  -1  13  -8    5.82    4.56
  -1  13  -9    3.12    6.39
  -1  14   0   37.52    7.19
  -1  14  -1    3.52    4.16
  -1  14  -2   39.80    5.46
  -1  14  -3   33.38    7.55
  -1  14  -4    4.80    4.48
  -1  14  -5   34.45    7.98
  -1  14  -6   32.36    7.30
  -1  14  -7   -3.47    6.77
  -1  15   0    4.30    8.61
  -1  15  -1   20.46    6.07
  -1  15  -2   13.28    6.08
  -1  15  -3   39.80    8.64
  -1  15  -4   -3.67    8.29
  -1  15  -5    4.76    5.87
  -1  15  -6   11.05    5.52
  -1  16   0    2.23    5.57
  -1  16  -1    2.87    5.90
  -1  16  -2   -7.66    7.34
  -2 -12   7   29.10    4.24
  -2 -12   6    3.76    3.11
  -2 -12   5   45.65    4.62
  -2 -12   4   27.76    3.21
  -2 -11  11    6.06    3.27
  -2 -11  10   16.83    3.59
  -2 -11   9   15.08    5.19
  -2 -11   8   36.76    4.48
  -2 -11   7   11.48    3.56
  -2 -11   6   30.31    3.62
  -2 -11   5   35.48    3.80
  -2 -11   4  145.78    7.91
  -2 -11   3    1.57    1.42
  -2 -10  12    3.15    3.62
  -2 -10  11    9.45    3.78
  -2 -10  10   15.60    3.31
  -2 -10   9    2.85    3.16
  -2 -10   8   11.16    2.71
  -2 -10   7   38.01    4.04
  -2 -10   6    4.56    2.93
   2 -10  -6    3.07    2.61
  -2 -10   5   16.38    2.95
   2 -10  -5   19.33    2.60
  -2 -10   4   15.31    2.61
   2 -10  -4   17.77    2.11
  -2 -10   3  104.19    6.12
   2 -10  -3  126.25    5.40
  -2  -9  13   11.23    5.54
  -2  -9  12    3.01    3.80
  -2  -9  11   24.45    5.72
  -2  -9  10   12.24    3.82
  -2  -9   9   10.50    2.71
  -2  -9   8   48.67    4.49
  -2  -9   7   44.28    3.71
   2  -9  -7   41.98    4.36
  -2  -9   6   68.67    5.04
   2  -9  -6   59.36    5.28
  -2  -9   5   58.03    4.58
   2  -9  -5   62.03    4.94
  -2  -9   4  111.75    6.39
   2  -9  -4  125.08    5.77
  -2  -9   3   50.20    3.71
   2  -9  -3   55.26    3.33
  -2  -9   2   93.53    5.21
  -2  -9   1   22.11    3.51
  -2  -8  13    1.58    3.48
  -2  -8  12   43.57    5.89
  -2  -8  11   -0.80    2.71
  -2  -8  10   -0.96    3.68
  -2  -8   9   46.53    5.77
  -2  -8   8    0.48    2.08
   2  -8  -8    4.07    2.98
  -2  -8   7   12.32    3.20
   2  -8  -7   15.47    3.60
  -2  -8   6  164.89    8.43
   2  -8  -6  168.05    9.13
  -2  -8   5  146.52    7.48
   2  -8  -5  161.86    7.25
  -2  -8   4   65.66    4.38
   2  -8  -4   67.27    3.88
  -2  -8   3  253.16   11.22
  -2  -8   3  238.70   12.55
   2  -8  -3  248.64    9.84
  -2  -8   2  143.82    7.35
  -2  -8   2  156.65    9.46
   2  -8  -2  161.84    6.18
  -2  -8   1  285.44   13.56
  -2  -7  14   19.00    5.97
  -2  -7  13    7.75    4.27
  -2  -7  12   11.30    4.77
  -2  -7  11   15.83    3.52
  -2  -7  10   32.38    4.66
  -2  -7   9  129.78    8.71
  -2  -7   8   20.83    2.89
   2  -7  -8   25.58    4.27
  -2  -7   7    5.59    2.88
   2  -7  -7   21.13    4.10
  -2  -7   6  211.15    9.68
   2  -7  -6  210.38   10.81
  -2  -7   5   75.68    5.13
   2  -7  -5   85.04    6.00
  -2  -7   4  126.87    6.14
  -2  -7   4  126.69    6.58
   2  -7  -4  127.82    6.32
  -2  -7   3  172.23    8.24
  -2  -7   3  177.50    8.22
   2  -7  -3  183.15    7.13
  -2  -7   2  382.14   14.87
  -2  -7   2  350.68   17.33
   2  -7  -2  391.71   14.80
  -2  -7   1   40.19    3.66
   2  -7  -1   51.78    2.01
  -2  -6  14    4.39    4.39
  -2  -6  13    3.31    3.63
  -2  -6  12   10.01    4.77
  -2  -6  11    1.92    2.88
  -2  -6  10   12.83    3.53
  -2  -6   9    0.00    3.53
  -2  -6   8   14.76    3.53
   2  -6  -8   16.98    3.49
  -2  -6   7  216.35   10.01
   2  -6  -7  229.38   11.53
  -2  -6   6   12.10    2.39
   2  -6  -6   18.42    2.70
  -2  -6   5   63.50    4.15
   2  -6  -5   63.25    4.00
  -2  -6   4   82.10    4.79
  -2  -6   4   79.34    4.96
   2  -6  -4   89.40    4.34
  -2  -6   3   91.26    4.97
  -2  -6   3   81.00    4.64
   2  -6  -3   97.05    4.20
  -2  -6   2   83.93    4.50
  -2  -6   2   82.37    4.78
   2  -6  -2   79.49    3.72
  -2  -6   1  251.80   12.31
  -2  -6   1  253.42   11.27
   2  -6  -1  241.45    9.02
  -2  -5  15   -3.10    4.19
  -2  -5  14   25.31    7.19
  -2  -5  13   -7.24    5.35
  -2  -5  12    8.55    4.28
  -2  -5  11   58.81    5.12
  -2  -5  10    8.65    3.20
  -2  -5   9   65.82    5.79
  -2  -5   8  100.16    6.61
   2  -5  -8   97.86    6.70
  -2  -5   7   81.13    5.46
   2  -5  -7   81.20    6.23
  -2  -5   6    9.39    2.23
   2  -5  -6    5.75    2.55
  -2  -5   5   67.13    7.45
   2  -5  -5   68.24    3.71
  -2  -5   4  749.00   28.94
  -2  -5   4  767.54   28.17
   2  -5  -4  782.61   27.79
  -2  -5   3   22.81    2.54
  -2  -5   3   27.61    3.95
   2  -5  -3   27.49    2.11
  -2  -5   2  265.65   10.67
  -2  -5   2  274.02   11.57
   2  -5  -2  279.75    9.90
  -2  -5   1   43.15    3.05
  -2  -5   1   40.52    2.87
   2  -5  -1   40.92    1.96
  -2  -4  15   -2.32    6.04
  -2  -4  14   -0.78    3.90
  -2  -4  13    2.82    3.14
  -2  -4  12   15.47    4.42
  -2  -4  11    3.81    2.70
  -2  -4  10   57.94    6.39
  -2  -4   9   48.69    4.65
  -2  -4   8    6.41    2.57
   2  -4  -8    6.51    2.86
  -2  -4   7  154.29    9.80
   2  -4  -7  200.01    9.31
  -2  -4   6   27.40    4.14
   2  -4  -6   26.54    2.88
  -2  -4   5  501.74   19.18
   2  -4  -5  532.32   18.25
  -2  -4   4  125.87    6.34
  -2  -4   4  124.64    5.77
   2  -4  -4  128.52    5.85
  -2  -4   3  829.42   29.90
  -2  -4   3  882.71   29.74
   2  -4  -3  858.73   30.81
  -2  -4   2  351.96   13.54
  -2  -4   2  353.26   13.34
   2  -4  -2  356.08   13.38
  -2  -4   1  195.61    8.13
   2  -4  -1  188.00    6.94
  -2  -3  15   16.40    9.13
  -2  -3  14   17.73    4.98
  -2  -3  13    9.38    3.91
  -2  -3  12    7.23    3.62
  -2  -3  11   26.88    4.90
  -2  -3  10   19.55    3.18
  -2  -3   9  183.07   10.89
  -2  -3   8    6.56    3.04
   2  -3  -8   12.99    4.12
  -2  -3   7   83.98    5.93
   2  -3  -7   92.10    6.06
  -2  -3   6  238.38   10.59
   2  -3  -6  245.38   10.47
  -2  -3   5  114.92    5.58
  -2  -3   5  112.11    5.15
   2  -3  -5  113.39    5.49
  -2  -3   4   52.46    3.32
  -2  -3   4   52.10    3.02
   2  -3  -4   53.19    3.23
  -2  -3   3   95.31    5.06
  -2  -3   3   94.11    4.54
   2  -3  -3   90.40    4.36
  -2  -3   2 1306.11   47.28
   2  -3  -2 1332.60   44.03
  -2  -3   1   20.62    1.94
   2  -3  -1   18.67    1.26
  -2  -2  15   -1.86    4.64
  -2  -2  14    7.30    4.04
  -2  -2  13   -0.78    3.43
  -2  -2  12   26.96    4.71
  -2  -2  11   23.31    4.41
  -2  -2  10   27.22    3.48
  -2  -2   9   23.69    3.82
  -2  -2   8   32.22    3.19
   2  -2  -8   35.61    3.80
  -2  -2   7  185.63    8.03
   2  -2  -7  179.60    9.42
  -2  -2   6    0.64    2.23
   2  -2  -6    5.43    2.71
  -2  -2   5  522.02   22.06
  -2  -2   5  560.57   20.07
   2  -2  -5  564.63   19.42
  -2  -2   4  165.26    7.78
   2  -2  -4  169.33    7.73
  -2  -2   3   44.95    3.00
   2  -2  -3   40.70    2.40
  -2  -2   2  377.95   15.34
   2  -2  -2  392.13   13.77
  -2  -2   1  165.60    7.47
   2  -2  -1  165.94    6.39
  -2  -1  15    3.71    6.97
  -2  -1  14    4.04    5.90
  -2  -1  13   15.43    4.83
  -2  -1  12   47.39    5.01
  -2  -1  11   31.72    4.24
  -2  -1  10   20.81    3.94
  -2  -1   9  103.88    6.67
  -2  -1   8  106.20    6.06
   2  -1  -8  109.40    7.14
  -2  -1   7  105.71    6.39
   2  -1  -7  118.75    6.70
  -2  -1   6  137.57    6.73
   2  -1  -6  146.90    7.21
  -2  -1   5   98.25    5.43
   2  -1  -5   99.64    5.13
  -2  -1   4  155.66    6.85
   2  -1  -4  156.84    6.42
  -2  -1   3   31.00    2.37
   2  -1  -3   26.72    2.85
  -2  -1   2 1077.36   37.76
   2  -1  -2 1109.79   35.73
  -2  -1   1   95.60    4.37
   2  -1  -1  100.67    4.49
   2   0  -8   19.82    4.60
   2   0  -7  695.04   27.84
   2   0  -6    1.28    2.39
   2   0  -5  126.94    8.00
   2   0  -4   27.15    2.70
   2   0  -3  453.73   16.12
   2   0  -2    8.65    1.42
   2   0   0   74.11    3.60
   2   0   1 4016.95  129.10
   2   0   1 3550.51  120.98
   2   0   2  546.40   19.48
   2   0   3   27.83    2.33
   2   0   4  540.64   19.64
   2   0   5  156.59    7.30
   2   0   6  177.92    7.49
   2   0   7  118.26    6.59
   2   0   8  398.87   17.02
   2   0   9   -0.45    3.14
   2   0  10    1.20    4.80
   2   0  11  102.04    8.00
   2   0  12   31.82    5.73
   2   0  13    3.63    3.93
   2   0  14    6.35    4.69
   2   0  15   31.93    8.48
   2   1   0  579.98   19.48
  -2   1   0  567.06   19.71
   2   1   1  197.49    7.47
   2   1   1  163.95    6.69
   2   1   2  333.64   12.33
  -2   1  -2  347.92   13.51
   2   1   3  263.80   11.02
  -2   1  -3  275.23   10.45
   2   1   4  579.44   21.66
  -2   1  -4  647.00   21.17
   2   1   5  521.10   18.83
  -2   1  -5  538.99   19.18
   2   1   6  203.66    8.23
  -2   1  -6  208.24    9.91
   2   1   7  153.46    7.33
  -2   1  -7  155.52    8.37
   2   1   8    6.41    2.39
  -2   1  -8    3.48    2.27
   2   1   9   76.70    5.70
   2   1  10   32.37    5.25
   2   1  11   69.85    6.02
   2   1  12   10.23    3.91
   2   1  13   12.96    4.52
   2   1  14    7.09    6.19
   2   1  15   10.11    5.13
   2   2   0    7.37    1.76
  -2   2   0    7.33    1.59
   2   2   1    1.08    1.69
   2   2   1    6.73    3.52
   2   2   2  288.61   11.07
  -2   2  -2  309.65   10.94
   2   2   3 1363.23   46.96
  -2   2  -3 1489.69   50.82
   2   2   4  265.16   10.56
  -2   2  -4  283.86   11.37
   2   2   5   57.12    3.87
  -2   2  -5   66.89    3.82
   2   2   6  477.78   18.17
  -2   2  -6  510.72   20.91
   2   2   7   27.32    2.84
  -2   2  -7   34.93    3.95
   2   2   8   95.10    6.60
  -2   2  -8  122.43    7.93
   2   2   9   39.40    4.50
   2   2  10   55.23    5.11
   2   2  11   20.75    4.06
   2   2  12    2.86    3.31
   2   2  13   67.58    7.85
   2   2  14   25.21    5.74
   2   2  15    4.38    6.95
   2   3   0  519.01   19.84
  -2   3   0  479.30   17.14
   2   3   1  737.04   25.69
   2   3   1  629.64   23.02
   2   3   2  273.25   10.56
  -2   3  -2  275.19   10.71
   2   3   3  909.16   32.52
  -2   3  -3  958.88   31.73
   2   3   4  510.84   19.82
  -2   3  -4  541.09   19.24
   2   3   5   32.14    3.29
  -2   3  -5   41.97    3.22
   2   3   6  242.47   10.26
  -2   3  -6  247.90   10.34
   2   3   7  156.20    7.40
  -2   3  -7  160.82    9.19
   2   3   8   20.15    3.16
  -2   3  -8   27.83    3.96
   2   3   9  164.27    9.52
   2   3  10    4.22    2.87
   2   3  11   -0.91    4.53
   2   3  12   16.03    4.54
   2   3  13    3.33    6.06
   2   3  14    7.28    5.15
   2   4   0  266.78   10.31
  -2   4   0  255.01    9.54
   2   4   1  938.84   33.67
   2   4   1  839.30   30.96
   2   4   2  128.39    6.19
   2   4   2  107.90    5.23
  -2   4  -2  126.30    5.78
   2   4   3  333.08   13.73
  -2   4  -3  363.41   13.43
   2   4   4  522.78   20.19
  -2   4  -4  582.42   20.07
   2   4   5  162.36    7.59
  -2   4  -5  170.87    7.73
   2   4   6  236.00   10.51
  -2   4  -6  247.04   11.11
   2   4   7   49.53    4.85
  -2   4  -7   66.50    5.81
   2   4   8  181.73    9.45
  -2   4  -8  175.28   10.87
   2   4   9   -0.30    4.10
   2   4  10   46.93    6.54
   2   4  11   66.01    6.10
   2   4  12   37.01    5.94
   2   4  13    5.64    4.42
   2   4  14    2.44    6.56
   2   5   0  191.18    7.88
   2   5   1  358.98   13.61
   2   5   1  326.17   13.22
   2   5   2  408.06   16.14
   2   5   2  383.53   15.22
   2   5   3  192.33    9.11
  -2   5  -3  190.30    7.39
   2   5   4  243.18   10.26
  -2   5  -4  258.19    9.58
   2   5   5  245.51   10.90
  -2   5  -5  268.41   10.83
   2   5   6   48.39    3.67
  -2   5  -6   44.11    3.83
   2   5   7  150.34    8.90
  -2   5  -7  163.73    9.36
   2   5   8   38.07    4.59
  -2   5  -8   48.72    8.69
   2   5   9   18.51    4.29
   2   5  10   -1.07    4.90
   2   5  11   64.41    6.61
   2   5  12    9.21    5.22
   2   5  13   22.75    5.38
   2   5  14   14.46    7.85
   2   6   0  319.19   12.10
   2   6   0  291.16   11.44
   2   6   1  426.11   15.09
   2   6   1  391.25   15.58
   2   6   2  120.59    5.63
   2   6   2  106.09    5.23
   2   6   3  237.79    9.82
  -2   6  -3  231.78    8.65
   2   6   4   52.99    4.14
  -2   6  -4   51.91    2.74
   2   6   5   58.14    4.46
  -2   6  -5   69.09    3.97
   2   6   6  183.12    9.14
  -2   6  -6  198.49   10.12
   2   6   7  189.61   12.06
  -2   6  -7  197.49   12.24
   2   6   8  104.11    7.57
  -2   6  -8  102.72    7.33
   2   6   9   12.49    4.62
   2   6  10   53.70    6.49
   2   6  11    4.33    5.25
   2   6  12   -1.39    5.57
   2   6  13   17.98    4.96
   2   6  14   17.22    7.91
   2   7   0  403.71   15.52
   2   7   0  378.70   14.81
   2   7   1   84.78    4.56
   2   7   1   75.81    4.92
   2   7   2   85.27    4.71
   2   7   2   72.74    5.29
   2   7   3  109.08    5.68
   2   7   3   82.84    5.93
   2   7   4  117.12    6.48
  -2   7  -4  125.82    5.60
   2   7   5  172.35    8.70
  -2   7  -5  179.47    8.79
   2   7   6   70.86    5.73
  -2   7  -6   74.78    4.70
   2   7   7   74.81    5.59
  -2   7  -7   75.75    6.07
   2   7   8    2.63    2.63
  -2   7  -8    4.09    2.88
   2   7   9  131.36    9.03
   2   7  10    7.29    5.43
   2   7  11    8.55    4.20
   2   7  12   -2.18    4.05
   2   7  13   -4.99    4.37
   2   8   0   27.02    5.59
   2   8   0   18.67    2.69
   2   8   1   76.88    4.68
   2   8   1   69.76    4.31
   2   8   2   31.49    4.23
   2   8   2   32.10    3.45
   2   8   3  220.45   10.02
   2   8   3  210.17   11.17
   2   8   4  276.59   12.42
  -2   8  -4  292.90   10.41
   2   8   5   79.17    5.27
  -2   8  -5   77.23    4.62
   2   8   6  194.71    9.97
  -2   8  -6  200.32   10.99
   2   8   7    0.93    3.56
  -2   8  -7    1.80    2.25
   2   8   8   15.18    4.65
  -2   8  -8   19.40    3.46
   2   8   9    6.05    3.10
   2   8  10  106.78    8.12
   2   8  11   50.31    7.17
   2   8  12   21.07    5.93
   2   8  13    2.97    8.45
   2   9   0  217.07    9.85
   2   9   0  213.46    9.57
  -2   9   0  197.22   10.02
   2   9   1    5.51    1.49
   2   9   1   10.92    3.17
   2   9   2   53.34    3.93
   2   9   2   53.56    5.37
   2   9   3  112.74    6.43
   2   9   3  112.76    7.20
   2   9   4   72.12    6.44
   2   9   4   68.07    6.13
   2   9   5   60.15    5.54
  -2   9  -5   55.79    3.85
   2   9   6   50.61    4.94
  -2   9  -6   52.27    4.14
   2   9   7   55.94    5.10
  -2   9  -7   66.84    5.07
   2   9   8    9.73    3.40
   2   9   9   38.69    5.42
   2   9  10   -7.76    6.67
   2   9  11    7.62    4.36
   2   9  12   -3.27    6.24
   2  10   0   88.24    5.09
   2  10   0   80.08    6.14
  -2  10   0   69.73    5.88
   2  10   1  236.71   11.15
   2  10   1  206.62   13.16
  -2  10  -1  216.60   12.65
   2  10   2   41.93    3.76
   2  10   2   38.05    4.57
   2  10   3    6.49    2.87
   2  10   3    4.84    5.93
   2  10   4    1.97    3.34
   2  10   4    1.54    3.08
   2  10   5   35.66    4.28
   2  10   6    1.68    2.29
   2  10   7    1.22    2.60
   2  10   8  149.63   11.42
   2  10   9   15.23    5.54
   2  10  10    7.87    3.86
   2  10  11   20.43    7.43
   2  11   0    8.84    2.80
   2  11   0   10.72    2.95
  -2  11   0    8.95    5.86
   2  11   1   74.76    4.78
   2  11   1   64.40    5.02
  -2  11  -1   62.30    5.89
   2  11   2  111.30    6.34
   2  11   2   92.20    7.06
  -2  11  -2   87.39    7.04
   2  11   3    5.86    2.10
   2  11   3    3.42    2.80
  -2  11  -3    9.92    4.23
   2  11   4   74.78    6.06
   2  11   4   61.36    6.05
  -2  11  -4   62.27    6.34
   2  11   5  118.06    8.07
   2  11   6   -2.12    2.42
   2  11   7   27.49    4.11
   2  11   8    3.20    4.42
   2  11   9   12.52    4.58
   2  11  10    7.35    5.51
  -2  11 -10    8.98    4.73
   2  12   0    5.00    3.24
  -2  12   0    2.92    5.36
   2  12   1   23.07    4.00
   2  12   1   15.68    4.92
  -2  12  -1   15.62    4.40
   2  12   2   31.24    3.14
  -2  12  -2   26.70    4.72
   2  12   3   66.02    5.27
  -2  12  -3   44.37    6.35
   2  12   4   35.94    3.76
  -2  12  -4   35.81    5.03
   2  12   5    2.10    3.90
  -2  12  -5    3.39    4.84
   2  12   6   77.59    6.51
  -2  12  -6   68.81    8.70
   2  12   7   24.42    4.68
  -2  12  -7   25.13    5.29
   2  12   8   -0.45    4.84
  -2  12  -8    4.78    3.98
   2  12   9    3.79    3.49
  -2  12  -9    5.38    6.01
   2  13   0   60.90    4.95
  -2  13   0   58.26    7.13
   2  13   1    8.29    2.52
  -2  13  -1   14.93    4.54
   2  13   2   26.01    3.73
  -2  13  -2   22.24    6.98
   2  13   3   26.52    4.33
  -2  13  -3   33.39    5.52
   2  13   4   -0.30    2.39
  -2  13  -4   -2.59    5.50
   2  13   5   -0.75    2.39
  -2  13  -5    4.51    4.99
   2  13   6   22.16    5.70
  -2  13  -6   24.06    6.42
   2  13   7   17.86    4.06
  -2  13  -7   11.49    6.55
   2  13   8    2.56    3.31
  -2  13  -8   -5.71    5.08
  -2  14   0   -7.74    5.64
  -2  14  -1   75.96   12.13
  -2  14  -2    2.10    4.69
  -2  14  -3   19.86    7.91
  -2  14  -4   30.12    5.96
  -2  14  -5   14.44    5.78
  -2  14  -6   -4.95    7.19
  -2  14  -7    7.95    8.11
  -2  15   0    8.19    5.95
  -2  15  -1   20.12    5.47
  -2  15  -2   24.94    8.21
  -2  15  -3   10.93    5.14
  -2  15  -4   91.69   18.93
  -2  15  -5    2.88    6.39
  -3 -12   8   14.58    4.81
  -3 -12   7   19.63    5.36
  -3 -12   6   -0.49    2.61
  -3 -12   5   11.55    3.74
  -3 -12   4    3.52    3.20
  -3 -11  11    5.50    3.93
  -3 -11  10   17.85    4.59
  -3 -11   9    8.28    4.46
  -3 -11   8   11.59    3.22
  -3 -11   7   75.95    7.20
  -3 -11   6   67.46    6.10
  -3 -11   5   10.95    2.62
  -3 -11   4   12.27    2.91
  -3 -11   3   10.90    2.69
  -3 -10  12   15.84    5.39
  -3 -10  11    2.70    3.33
  -3 -10  10   13.68    3.82
  -3 -10   9   10.23    3.52
  -3 -10   8    3.54    2.74
  -3 -10   7   28.06    4.55
  -3 -10   6   27.25    3.60
  -3 -10   5   17.31    3.76
  -3 -10   4   95.83    6.84
   3 -10  -4   96.08    6.25
  -3 -10   3   59.13    4.63
   3 -10  -3   62.39    3.59
  -3  -9  12    1.91    3.98
  -3  -9  11   26.48    5.11
  -3  -9  10   19.34    4.32
  -3  -9   9   53.32    5.46
  -3  -9   8   15.90    4.18
  -3  -9   7    2.58    3.39
   3  -9  -7    9.53    4.06
  -3  -9   6    0.32    3.24
   3  -9  -6    0.47    2.03
  -3  -9   5  127.30    8.01
   3  -9  -5  134.53    7.84
  -3  -9   4   14.87    2.75
  -3  -9   4   14.83    3.19
   3  -9  -4   17.99    2.51
  -3  -9   3   15.00    3.35
  -3  -9   3   12.27    3.35
   3  -9  -3   14.36    1.57
  -3  -9   2  135.87    7.11
   3  -9  -2  136.58    5.87
  -3  -8  13   12.72    4.93
  -3  -8  12   12.13    9.42
  -3  -8  11    4.16    3.20
  -3  -8  10    4.81    3.85
  -3  -8   9   14.26    4.49
  -3  -8   8   70.85    5.95
  -3  -8   7    3.69    3.05
   3  -8  -7    2.20    3.46
  -3  -8   6   52.77    4.52
   3  -8  -6   61.06    4.91
  -3  -8   5   21.76    2.74
  -3  -8   5   17.68    2.71
   3  -8  -5   25.35    3.47
  -3  -8   4   59.72    4.36
  -3  -8   4   48.74    5.43
   3  -8  -4   57.37    3.97
  -3  -8   3   40.74    4.16
  -3  -8   3   34.15    3.83
   3  -8  -3   39.77    3.02
  -3  -8   2  137.47    7.47
  -3  -8   2  142.69    9.65
   3  -8  -2  142.45    6.93
  -3  -8   1   50.61    5.29
   3  -8  -1   53.97    2.42
   3  -8  -1   46.80    2.42
  -3  -7  13   -1.59    5.72
  -3  -7  12    1.12    3.51
  -3  -7  11   37.65    7.53
  -3  -7  10   -0.48    3.05
  -3  -7   9   14.58    4.01
  -3  -7   8   10.88    2.88
   3  -7  -8    9.19    3.17
  -3  -7   7   90.45    6.90
   3  -7  -7  100.14    6.55
  -3  -7   6   32.60    4.16
   3  -7  -6   30.22    3.35
  -3  -7   5   94.56    5.63
  -3  -7   5   93.78    6.58
   3  -7  -5   99.99    6.11
  -3  -7   4  107.94    5.96
  -3  -7   4   96.53    6.73
   3  -7  -4  105.30    5.81
  -3  -7   3  212.47    9.68
  -3  -7   3  207.65   11.28
   3  -7  -3  218.07    9.30
  -3  -7   2  109.16    5.75
  -3  -7   2  108.28    6.60
   3  -7  -2  106.01    4.90
  -3  -7   1   35.46    3.76
  -3  -7   1   30.87    3.52
   3  -7  -1   37.17    2.44
  -3  -6  14    3.31    4.10
  -3  -6  13    3.97    4.28
  -3  -6  12   16.74    5.42
  -3  -6  11    8.32    3.36
  -3  -6  10   16.83    4.17
  -3  -6   9    8.01    3.20
  -3  -6   8    2.40    2.24
   3  -6  -8    0.32    4.30
  -3  -6   7   16.09    3.67
   3  -6  -7   19.64    3.04
  -3  -6   6  152.77    8.63
  -3  -6   6  178.23    8.51
   3  -6  -6  148.41    8.40
  -3  -6   5   56.44    4.15
  -3  -6   5   48.45    3.84
   3  -6  -5   57.77    4.36
  -3  -6   4  112.62    5.93
  -3  -6   4  111.20    6.10
   3  -6  -4  116.00    5.87
  -3  -6   3  205.31    9.18
  -3  -6   3  204.38    9.86
   3  -6  -3  186.77    8.67
  -3  -6   2   14.64    2.39
  -3  -6   2    9.99    2.38
   3  -6  -2   15.86    1.62
  -3  -6   1  281.14   14.78
  -3  -6   1  281.46   12.74
   3  -6  -1  271.20   10.18
  -3  -5  14    7.38    5.18
  -3  -5  13    7.91    4.74
  -3  -5  12   14.63    3.66
  -3  -5  11   13.57    5.11
  -3  -5  10   12.48    3.52
  -3  -5   9  171.13   10.77
  -3  -5   8   32.23    4.31
   3  -5  -8   14.50    4.30
  -3  -5   7   11.61    2.54
   3  -5  -7   14.56    3.36
  -3  -5   6  186.65    9.41
  -3  -5   6  193.14   10.72
   3  -5  -6  192.94   10.51
  -3  -5   5   70.74    4.76
  -3  -5   5   87.12    4.65
   3  -5  -5   80.13    4.86
  -3  -5   4   69.45    4.93
  -3  -5   4   75.89    4.47
   3  -5  -4   68.32    4.38
  -3  -5   3   25.47    3.66
  -3  -5   3   23.53    3.17
   3  -5  -3   22.74    2.58
  -3  -5   2   83.34    4.81
   3  -5  -2   79.99    4.36
  -3  -5   1  155.44    7.06
   3  -5  -1  161.37    6.45
  -3  -4  15    5.13    4.36
  -3  -4  14   -0.16    5.01
  -3  -4  13    7.72    3.94
  -3  -4  12    2.53    2.69
  -3  -4  11    2.07    3.18
  -3  -4  10   12.28    2.87
  -3  -4   9   17.88    3.51
  -3  -4   8    7.49    2.39
   3  -4  -8    1.27    3.82
  -3  -4   7   43.68    4.45
   3  -4  -7   33.71    4.48
  -3  -4   6  109.16    6.67
  -3  -4   6  115.30    5.30
   3  -4  -6  114.16    6.61
  -3  -4   5   34.41    3.48
  -3  -4   5   33.61    2.54
   3  -4  -5   29.07    3.54
  -3  -4   4  135.41    7.14
  -3  -4   4  142.45    6.54
   3  -4  -4  142.63    6.95
  -3  -4   3   98.15    5.42
   3  -4  -3  101.98    5.31
  -3  -4   2   45.24    3.37
   3  -4  -2   46.20    3.18
  -3  -4   1  325.31   13.25
   3  -4  -1  325.13   12.61
  -3  -3  15   -2.95    4.35
  -3  -3  14    6.40    4.84
  -3  -3  13    4.71    4.08
  -3  -3  12   30.44    4.58
  -3  -3  11   36.28    4.92
  -3  -3  10    5.72    2.54
  -3  -3   9   21.34    5.26
  -3  -3   8   77.67    6.22
  -3  -3   7   83.35    5.57
   3  -3  -7   91.17    6.87
  -3  -3   6  143.15    7.15
  -3  -3   6  146.16    6.12
   3  -3  -6  149.85    8.19
  -3  -3   5   44.00    3.95
  -3  -3   5   47.26    2.89
   3  -3  -5   43.44    3.84
  -3  -3   4  354.17   13.98
   3  -3  -4  349.63   13.69
   3  -3  -3  264.31   11.66
  -3  -3   2  355.59   14.66
   3  -3  -2  352.09   12.62
  -3  -3   1  132.40    6.78
   3  -3  -1  129.07    5.41
  -3  -2  15    6.04    4.96
  -3  -2  14    8.56    4.67
  -3  -2  13   14.70    4.69
  -3  -2  12    5.97    3.77
  -3  -2  11    5.84    3.94
  -3  -2  10    5.70    3.80
  -3  -2   9   88.46    6.36
  -3  -2   8  168.81    8.93
   3  -2  -8  144.17   11.13
  -3  -2   7  177.36    9.24
   3  -2  -7  208.21   10.24
  -3  -2   6  116.53    6.83
  -3  -2   6  126.97    5.38
   3  -2  -6  122.92   10.37
  -3  -2   5   58.54    3.80
   3  -2  -5   53.56    3.67
  -3  -2   4  185.16    8.24
   3  -2  -4  183.98    9.08
  -3  -2   3  299.34   12.27
   3  -2  -3  298.39   11.01
  -3  -2   2  199.76    9.00
   3  -2  -2  220.39    8.13
  -3  -2   1  438.96   16.25
   3  -2  -1  433.85   14.81
  -3  -1  15    0.31    5.11
  -3  -1  14   14.45    4.97
  -3  -1  13   13.41    4.99
  -3  -1  12   -1.72    2.98
  -3  -1  11   31.76    4.56
  -3  -1  10    8.05    3.63
  -3  -1   9   57.67    4.92
  -3  -1   8   16.35    2.86
   3  -1  -8   10.62    3.01
  -3  -1   7   81.17    5.41
   3  -1  -7   71.83    5.57
  -3  -1   6  302.41   13.07
   3  -1  -6  327.30   18.18
  -3  -1   5   98.80    6.02
   3  -1  -5   98.40    5.73
  -3  -1   4  229.87   10.47
   3  -1  -4  244.68    9.40
  -3  -1   3  212.33    9.22
   3  -1  -3  209.78    8.27
  -3  -1   2  266.51   12.50
   3  -1  -2  275.48    9.92
  -3  -1   1  472.15   18.49
   3  -1  -1  508.54   17.23
   3   0  -7  102.63    7.00
   3   0  -6   17.93    3.49
   3   0  -5   93.98    5.71
   3   0  -4  616.14   21.82
   3   0  -3   60.20    3.33
   3   0  -2    2.70    1.90
   3   0  -1  248.84    9.92
   3   0   0   17.29    2.75
   3   0   1  434.57   16.58
   3   0   1  383.23   15.68
   3   0   2  422.46   14.97
   3   0   3  730.66   29.56
   3   0   4    2.63    2.48
   3   0   5  372.64   14.22
   3   0   6   59.64    4.27
   3   0   7  123.64    7.25
   3   0   8   31.10    3.54
   3   0   9    2.21    3.40
   3   0  10   87.90    7.57
   3   0  11   67.80    6.69
   3   0  12   20.09    4.76
   3   0  13    9.55    5.67
   3   0  14   26.94    5.69
   3   1   0   78.09    4.52
  -3   1   0   78.27    4.16
   3   1   1  211.70    8.55
   3   1   1  242.65   10.03
   3   1   2 1023.56   37.38
   3   1   2  920.96   33.40
   3   1   3   60.76    3.84
  -3   1  -3   65.79    4.12
  -3   1  -4  718.36   25.62
   3   1   4  676.50   24.28
   3   1   5    5.72    2.49
  -3   1  -5    2.57    1.81
   3   1   6  240.08   12.40
  -3   1  -6  254.76   11.87
   3   1   7   14.85    3.38
  -3   1  -7   18.37    4.07
   3   1   8    5.44    3.24
   3   1   9  193.81   10.52
   3   1  10   34.81    5.61
   3   1  11   81.29    7.85
   3   1  12   49.04    6.08
   3   1  13   12.92    5.20
   3   1  14    6.26    7.00
   3   2   0  164.21    7.07
  -3   2   0  168.66    7.83
   3   2   1  856.16   31.50
   3   2   1  729.50   27.04
   3   2   2  125.02    6.54
   3   2   2  114.65    5.47
   3   2   3  152.64    6.87
  -3   2  -3  156.37    6.67
   3   2   4  104.51    6.07
  -3   2  -4  119.00    5.98
   3   2   5  157.68    7.56
  -3   2  -5  164.47    7.96
   3   2   6   75.21    4.73
  -3   2  -6   78.34    5.93
   3   2   7  116.82    8.13
  -3   2  -7  126.21    8.80
   3   2   8  217.53   11.56
   3   2   9   90.27    7.10
   3   2  10   53.88    5.32
   3   2  11   28.23    4.59
   3   2  12   96.86    8.17
   3   2  13   21.08    7.72
   3   2  14    5.95    4.76
   3   3   0   96.76    5.41
  -3   3   0   91.65    4.76
   3   3   1  172.01    8.16
   3   3   2  314.52   11.97
   3   3   2  282.69   11.55
   3   3   3   17.50    2.25
   3   3   3   14.51    2.37
   3   3   4 1029.20   40.04
  -3   3  -4 1087.00   39.20
   3   3   5   27.20    3.27
  -3   3  -5   26.48    2.90
   3   3   6    4.31    2.23
  -3   3  -6    8.51    2.58
   3   3   7  175.00    9.25
  -3   3  -7  196.34   11.43
   3   3   8  114.59    7.74
   3   3   9   72.24    5.65
   3   3  10    8.31    3.12
   3   3  11   10.69    5.94
   3   3  12   29.88    6.69
   3   3  13   41.25    6.41
   3   3  14   -5.97    6.86
   3   4   0   22.12    2.37
  -3   4   0   20.24    2.18
   3   4   1  574.25   22.60
   3   4   1  521.06   21.39
   3   4   2   32.60    3.20
   3   4   2   27.79    3.18
   3   4   3  257.80   12.43
   3   4   3  223.07    9.72
   3   4   4  120.44    6.49
  -3   4  -4  130.15    6.49
   3   4   5  104.95    5.88
  -3   4  -5  119.02   10.53
   3   4   6  273.68   14.47
  -3   4  -6  335.79   14.30
   3   4   7  269.38   13.27
  -3   4  -7  316.75   16.20
   3   4   8   11.53    3.90
   3   4   9   13.62    4.64
   3   4  10   -1.65    5.68
   3   4  11   28.28    6.29
   3   4  12   25.91    4.79
   3   4  13   -1.50    4.95
   3   4  14   30.49    9.76
   3   5   0  370.96   14.04
   3   5   1   45.41    3.72
   3   5   1   35.23    3.58
   3   5   2  608.60   22.33
   3   5   2  548.93   22.28
   3   5   3   52.55    4.40
   3   5   3   42.28    3.74
   3   5   4   22.40    2.58
  -3   5  -4   22.31    2.60
   3   5   5   48.50    3.80
  -3   5  -5   57.49    4.57
   3   5   6  430.12   17.73
  -3   5  -6  464.59   21.73
   3   5   7   -3.64    2.73
  -3   5  -7    2.87    3.32
   3   5   8   20.43    4.54
   3   5   9  136.01    9.85
   3   5  10   20.84    5.29
   3   5  11   15.86    5.59
   3   5  12   19.35    5.59
   3   5  13    3.78    4.69
   3   6   0    4.20    2.64
   3   6   0    5.99    1.89
   3   6   1  326.02   14.52
   3   6   1  291.58   13.23
   3   6   2   37.09    3.65
   3   6   2   25.00    3.99
   3   6   3  227.74   10.10
   3   6   3  183.98    9.28
   3   6   4  156.48    7.66
   3   6   4  143.03    8.55
   3   6   5  466.92   20.47
  -3   6  -5  511.17   20.28
   3   6   6   70.91    5.52
  -3   6  -6   64.80    5.43
   3   6   7   23.22    4.28
  -3   6  -7   27.04    6.61
   3   6   8   32.36    5.19
  -3   6  -8   17.26    3.75
   3   6   9    1.37    3.05
   3   6  10   36.28    6.41
   3   6  11   59.00    9.31
   3   6  12   15.41    5.19
   3   6  13   -2.14    5.19
   3   7   0  114.69    6.50
   3   7   0  109.39    7.29
   3   7   1   53.50    4.27
   3   7   1   50.05    4.41
   3   7   2   79.35    5.17
   3   7   2   66.95    5.13
   3   7   3   39.18    4.41
   3   7   3   36.20    3.83
   3   7   4  492.53   19.92
   3   7   4  438.92   22.38
   3   7   5   73.10    5.08
  -3   7  -5   74.29    4.84
   3   7   6   14.44    3.84
  -3   7  -6   17.60    2.84
   3   7   7   80.66    6.01
  -3   7  -7   82.72    6.89
   3   7   8   50.99    6.15
  -3   7  -8   47.13    5.08
   3   7   9   15.51    3.53
   3   7  10   23.49    4.76
   3   7  11   17.36    6.30
   3   7  12   15.53    6.61
   3   8   0   15.05    2.89
   3   8   0   23.04    3.48
   3   8   1  202.42   10.04
   3   8   1  198.24   10.80
   3   8   2   33.01    4.08
   3   8   2   31.58    4.54
   3   8   3  212.23   10.26
   3   8   3  205.70   11.69
   3   8   4   10.22    3.36
   3   8   5   28.68    4.91
   3   8   6    6.61    3.08
  -3   8  -6    3.11    2.37
   3   8   7   77.88    6.49
  -3   8  -7   80.00    6.40
   3   8   8   43.26    5.70
   3   8   9   99.93    9.88
   3   8  10   44.37    6.02
   3   8  11    2.47    4.94
   3   8  12    6.03    6.64
   3   9   0   80.26    5.45
   3   9   0   72.28    6.00
   3   9   1   72.15    5.42
   3   9   1   59.14    9.95
   3   9   2  250.79   12.31
   3   9   2  232.61   15.50
   3   9   3    4.68    2.42
   3   9   3    0.94    2.65
   3   9   4  156.59    9.21
   3   9   5   17.13    4.44
   3   9   6  118.86   12.61
   3   9   7   14.90    4.76
   3   9   8   25.51    4.31
   3   9   9   55.84    8.01
   3   9  10   -1.39    5.70
   3   9  11   -3.70    6.48
   3  10   0   26.62    3.30
   3  10   0   19.90    4.08
   3  10   1   40.22    3.74
   3  10   1   36.76    4.25
   3  10   2   40.53    4.20
   3  10   2   21.21    4.09
   3  10   3   96.05    6.37
   3  10   4   22.87    3.34
   3  10   5   68.31    6.26
   3  10   6  106.60    7.37
   3  10   7  102.94    9.20
   3  10   8   17.12    5.35
   3  10   9   -1.22    4.90
   3  10  10   11.81    4.60
   3  11   0  183.62   10.55
   3  11   0  158.68    9.13
  -3  11   0  158.98   10.94
   3  11   1   28.83    3.28
   3  11   1   15.26    4.52
   3  11   2   26.11    4.48
   3  11   3   24.30    4.35
   3  11   4   10.55    3.32
   3  11   5   13.45    4.53
   3  11   6   41.78    6.67
   3  11   7   21.22    5.00
   3  11   8   18.97    6.22
   3  11   9   26.00    5.33
   3  11  10    8.68    4.72
   3  12   0   10.11    4.31
  -3  12   0    0.81    3.24
   3  12   1   90.94    7.34
  -3  12  -1   68.52    6.65
   3  12   2   23.84    3.88
  -3  12  -2   17.70    5.96
   3  12   3   17.34    3.44
   3  12   4    9.14    4.20
   3  12   5   41.57    5.42
   3  12   6   -3.91    4.96
   3  12   7   12.18    5.11
   3  12   8   24.09    6.33
   3  13   0   10.12    3.13
  -3  13   0    6.15    4.05
   3  13   1    1.93    4.32
  -3  13  -1    0.00    5.81
   3  13   2   37.10    4.64
  -3  13  -2   24.78    4.83
   3  13   3   12.08    5.07
  -3  13  -3   17.17    5.30
   3  13   4   63.42    6.60
  -3  13  -4   66.55    7.90
   3  13   5   19.55    3.89
  -3  13  -5   21.99    6.91
   3  13   6    2.99    3.28
  -3  13  -6    7.24    4.51
   3  13   7   15.54    4.04
  -3  13  -7    9.85    5.49
  -3  14   0   12.42    6.94
  -3  14  -1    4.99    4.19
  -3  14  -2   32.92    6.27
  -3  14  -3   43.76    6.91
  -3  14  -4    5.29    7.37
  -3  14  -5   -3.37    4.65
  -3  15   0    5.94    5.94
  -3  15  -1    1.44    7.37
  -3  15  -2   17.12    5.44
  -3  15  -3   17.90   10.39
  -4 -13   5    9.12    4.96
  -4 -12   9   14.52    4.79
  -4 -12   8    8.05    5.48
  -4 -12   7    4.87    5.35
  -4 -12   6   -0.16    2.93
  -4 -12   5   51.08   17.31
  -4 -12   4   28.25    4.64
  -4 -11  10    3.51    5.27
  -4 -11   9   -1.77    4.02
  -4 -11   8   13.43    5.18
  -4 -11   7    1.63    3.74
  -4 -11   6   12.88    4.08
  -4 -11   5   14.61    4.38
  -4 -11   4    0.48    2.41
  -4 -10  11    6.40    6.08
  -4 -10  10    9.79    5.46
  -4 -10   9   12.41    3.55
  -4 -10   8   -0.65    4.53
  -4 -10   7    5.36    3.41
  -4 -10   6   16.12    3.42
  -4 -10   5   20.77    4.71
  -4 -10   4   15.58    3.05
  -4 -10   3   61.62    5.55
  -4  -9  12   -2.56    4.16
  -4  -9  11   11.88    4.65
  -4  -9  10    3.38    3.38
  -4  -9   9    0.48    3.86
  -4  -9   8    7.91    5.00
  -4  -9   7   44.34    4.71
  -4  -9   6   50.07    5.52
  -4  -9   6   39.02    5.27
  -4  -9   5    7.76    4.04
  -4  -9   4   58.27    5.31
   4  -9  -4   59.66    4.77
  -4  -9   3   91.88    6.22
   4  -9  -3   93.33    5.21
  -4  -9   2    9.19    3.43
   4  -9  -2    4.77    1.94
   4  -9  -2    2.67    1.26
   4  -9  -1  195.35    8.99
   4  -9  -1  174.71    8.81
  -4  -8  12    6.89    6.09
  -4  -8  11    7.87    4.02
  -4  -8  10   18.32    4.02
  -4  -8   9   -0.96    4.02
  -4  -8   8    6.27    3.38
  -4  -8   7   -0.48    3.54
   4  -8  -7    0.31    2.20
  -4  -8   6    9.99    4.67
  -4  -8   6    8.44    3.35
   4  -8  -6    9.46    4.10
  -4  -8   5    7.89    3.06
  -4  -8   5   -0.32    3.49
   4  -8  -5    4.43    3.16
  -4  -8   4  126.93    7.74
  -4  -8   4  114.17    9.27
   4  -8  -4  143.21    7.42
  -4  -8   3   30.48    3.97
  -4  -8   3   23.78    3.82
   4  -8  -3   30.39    2.88
  -4  -8   2  181.94   10.41
   4  -8  -2  179.38    9.59
   4  -8  -1   73.82    4.09
   4  -8  -1   55.70    4.52
  -4  -7  13   11.34    6.23
  -4  -7  12    5.45    4.65
  -4  -7  11   17.17    4.82
  -4  -7  10    1.12    3.37
  -4  -7   9   19.40    4.01
  -4  -7   8   67.42    6.42
  -4  -7   7   25.13    4.81
  -4  -7   7   18.39    3.17
   4  -7  -7   26.77    3.67
  -4  -7   6   41.79    4.49
  -4  -7   6   26.86    3.67
   4  -7  -6   24.64    4.80
  -4  -7   5  101.22    6.44
  -4  -7   5  103.14    7.67
   4  -7  -5  104.57    6.47
  -4  -7   4   12.31    2.72
  -4  -7   4    8.34    2.83
   4  -7  -4   12.09    2.58
  -4  -7   3   90.18    5.91
  -4  -7   3   73.70   10.39
   4  -7  -3   76.95    5.53
  -4  -7   2  135.77    7.61
  -4  -7   2  125.03    8.73
   4  -7  -2  122.85    7.04
  -4  -7   1  214.28   10.82
  -4  -7   1  235.63   15.84
   4  -7  -1  228.62    9.12
  -4  -6  13    0.48    6.69
  -4  -6  12    0.00    3.52
  -4  -6  11   13.13    6.09
  -4  -6  10   20.01    5.77
  -4  -6   9   16.79    4.64
  -4  -6   8   13.25    3.51
  -4  -6   7   -2.23    3.66
  -4  -6   7    0.79    2.22
   4  -6  -7    1.60    3.85
  -4  -6   6   21.35    4.30
  -4  -6   6   21.03    2.54
   4  -6  -6   21.76    4.35
  -4  -6   5   62.01    5.75
  -4  -6   5   55.31    4.44
   4  -6  -5   57.72    5.03
  -4  -6   4   23.29    3.35
  -4  -6   4   22.98    2.85
   4  -6  -4   22.99    2.76
  -4  -6   3   10.83    2.71
  -4  -6   3    9.48    3.06
   4  -6  -3   14.88    2.27
  -4  -6   2    4.28    2.22
   4  -6  -2    4.67    1.29
  -4  -6   1    7.37    3.29
   4  -6  -1    8.32    1.60
  -4  -5  14   -2.21    4.10
  -4  -5  13   14.75    4.76
  -4  -5  12   10.51    3.98
  -4  -5  11   17.88    4.47
  -4  -5  10   13.41    3.51
  -4  -5   9    5.26    3.19
  -4  -5   8   21.48    4.30
  -4  -5   7   18.74    3.18
  -4  -5   7   14.25    2.22
   4  -5  -7   41.75    7.55
  -4  -5   6   87.91    5.42
  -4  -5   6   86.60    5.27
   4  -5  -6   88.09    6.47
  -4  -5   5   56.86    4.46
  -4  -5   5   69.70    4.63
   4  -5  -5   74.15    5.50
  -4  -5   4    3.18    2.23
   4  -5  -4    0.64    2.57
  -4  -5   3  287.24   13.32
   4  -5  -3  298.32   13.45
  -4  -5   2   54.89    4.15
   4  -5  -2   47.04    4.15
  -4  -5   1   29.56    3.17
   4  -5  -1   25.53    2.53
  -4  -4  14    6.13    4.40
  -4  -4  13   10.42    5.69
  -4  -4  12    8.72    6.03
  -4  -4  11    0.48    3.18
  -4  -4  10    8.92    3.34
  -4  -4   9   10.02    3.18
  -4  -4   8  105.45    7.33
  -4  -4   7   28.53    3.49
  -4  -4   7   31.04    2.85
   4  -4  -7   22.24    4.80
  -4  -4   6  121.26    8.41
  -4  -4   6  132.23    7.37
   4  -4  -6  130.23    8.05
  -4  -4   5   11.72    2.69
   4  -4  -5   14.23    2.88
  -4  -4   4   73.88    5.25
   4  -4  -4   71.50    4.80
  -4  -4   3   46.40    4.31
   4  -4  -3   45.88    3.49
  -4  -4   2  258.91   11.72
   4  -4  -2  273.75   11.47
  -4  -4   1  119.90    6.55
   4  -4  -1  120.67    5.70
  -4  -3  14    7.20    4.38
  -4  -3  13   26.26    5.35
  -4  -3  12   -1.58    5.53
  -4  -3  11   18.38    4.12
  -4  -3  10    6.19    3.33
  -4  -3   9   41.76    5.09
  -4  -3   8   51.71    5.87
  -4  -3   8   55.72    2.70
  -4  -3   7   42.44    5.07
  -4  -3   7   39.98    2.69
   4  -3  -7   29.63    4.46
  -4  -3   6   91.57    6.02
   4  -3  -6   94.73    6.55
  -4  -3   5   99.52    6.98
   4  -3  -5   99.36    6.38
  -4  -3   4   27.45    3.97
   4  -3  -4   33.32    3.01
  -4  -3   3   29.64    3.51
   4  -3  -3   34.88    2.99
  -4  -3   2    5.76    2.08
   4  -3  -2    3.92    2.98
  -4  -3   1  497.13   20.24
   4  -3  -1  483.84   18.65
  -4  -2  14    3.43    6.86
  -4  -2  13    0.94    5.95
  -4  -2  12    5.51    3.46
  -4  -2  11    2.84    4.26
  -4  -2  10   91.51    7.30
  -4  -2   9   32.98    4.44
  -4  -2   8   44.87    5.08
  -4  -2   8   37.57    2.06
  -4  -2   7   14.73    3.96
  -4  -2   6    7.43    3.01
   4  -2  -6    3.96    4.12
  -4  -2   5   83.35    5.07
   4  -2  -5   90.06    6.50
  -4  -2   4  200.50    8.76
   4  -2  -4  212.46   10.31
  -4  -2   3   10.35    2.87
   4  -2  -3    9.74    2.36
  -4  -2   2   74.81    4.33
   4  -2  -2   82.35    4.91
  -4  -2   1   54.49    3.68
  -4  -1  15    4.18    7.28
  -4  -1  14    2.64    6.06
  -4  -1  13    5.46    4.22
  -4  -1  12    5.80    4.08
  -4  -1  11   13.54    5.04
  -4  -1  10    3.95    2.84
  -4  -1   9   11.72    3.33
  -4  -1   8   27.12    6.03
  -4  -1   7  151.24    9.06
  -4  -1   6  148.70    8.74
   4  -1  -6  156.02    9.06
  -4  -1   5  215.82   10.33
   4  -1  -5  217.93   10.95
  -4  -1   4   65.09    4.76
   4  -1  -4   75.29    7.41
  -4  -1   3  246.44   10.56
   4  -1  -3  250.73   11.13
  -4  -1   2    1.76    1.91
   4  -1  -2    3.65    2.22
  -4  -1   1  104.87    5.77
   4  -1  -1  108.20    5.79
   4   0  -6  134.49    8.57
   4   0  -5   28.12    3.16
   4   0  -4   62.87    7.90
   4   0  -3    5.86    2.85
   4   0  -2   26.81    3.51
   4   0  -1  397.83   15.73
   4   0   0  637.57   23.72
   4   0   1  148.93    6.70
   4   0   1  116.50    6.24
   4   0   2    5.29    2.12
   4   0   2    3.45    2.19
   4   0   3  202.20    9.30
   4   0   3  189.96    9.18
   4   0   4    0.59    2.96
   4   0   5  283.18   13.11
   4   0   6   33.98    4.58
   4   0   7   81.84    5.93
   4   0   8   47.84    5.32
   4   0   9  294.17   16.21
   4   0  10   -0.15    2.95
   4   0  11   -1.77    3.70
   4   0  12   10.37    4.45
   4   0  13    2.38    7.73
   4   1   0  178.23   10.27
  -4   1   0  180.35    8.56
   4   1   1  141.88    7.02
   4   1   1  121.59    7.44
   4   1   2  387.59   13.67
   4   1   2  319.16   13.75
   4   1   3  102.07    5.41
   4   1   3   81.74    5.53
   4   1   4  292.39   13.16
   4   1   4  279.42   14.22
   4   1   5  195.46   10.27
  -4   1  -5  233.70   13.00
   4   1   6  109.73    6.98
   4   1   7   32.20    4.58
   4   1   8  131.68    8.59
   4   1   9   54.78    5.90
   4   1  10   71.09    7.37
   4   1  11    1.33    5.45
   4   1  12   90.56    9.31
   4   1  13   15.23    5.18
   4   2   0   27.77    2.86
  -4   2   0   31.09    2.82
   4   2   1   87.96    4.84
   4   2   1   80.17    5.79
   4   2   2  447.56   15.58
   4   2   2  383.72   17.01
   4   2   3   69.30    4.53
   4   2   3   56.02    4.71
   4   2   4  229.17   10.23
   4   2   4  218.65   11.37
   4   2   5  186.48    9.28
  -4   2  -5  199.05   11.97
   4   2   6   41.17    5.06
  -4   2  -6   35.67    4.62
   4   2   7  229.96   12.22
   4   2   8   -1.92    4.14
   4   2   9   10.48    4.13
   4   2  10    5.89    3.68
   4   2  11   74.96    8.11
   4   2  12    6.78    5.45
   4   2  13    9.60    7.68
   4   3   0   12.92    3.31
  -4   3   0   17.41    2.49
   4   3   1  101.09    5.32
   4   3   1   89.05    5.76
   4   3   2 1168.87   39.97
   4   3   2 1027.48   41.21
   4   3   3   98.68    6.08
   4   3   3   85.00    5.75
   4   3   4  154.99    7.87
   4   3   4  122.81    8.13
   4   3   5  154.04    8.29
  -4   3  -5  167.63   10.60
   4   3   6  224.51   12.33
  -4   3  -6  238.22   14.42
   4   3   7   94.39    7.04
   4   3   8   23.97    5.21
   4   3   9   30.28    5.79
   4   3  10  110.78    9.35
   4   3  11   12.13    6.36
   4   3  12    6.36    6.66
   4   3  13   10.37    7.11
   4   4   0  164.22   10.06
   4   4   1  292.29   12.37
   4   4   1  255.23   12.89
   4   4   2   53.11    4.15
   4   4   2   35.79    3.81
   4   4   3  286.72   11.97
   4   4   3  233.61   12.86
   4   4   4   44.59    4.25
   4   4   5  189.24   10.64
   4   4   6    8.31    3.93
  -4   4  -6   14.15    2.92
   4   4   7   59.54    5.74
   4   4   8   17.88    3.76
   4   4   9   81.32    7.80
   4   4  10   28.23    6.72
   4   4  11   43.39    7.61
   4   4  12   14.31    5.37
   4   4  13   18.19    5.52
   4   5   0  131.54    6.45
   4   5   0  111.42    7.52
   4   5   1  313.25   14.32
   4   5   1  287.52   15.21
   4   5   2  143.15    7.86
   4   5   2  133.30    8.72
   4   5   3    8.85    2.75
   4   5   4  855.32   32.04
   4   5   5   55.35    4.74
   4   5   6   20.27    4.88
  -4   5  -6   15.47    2.91
   4   5   7   56.44    5.94
   4   5   8  112.86    7.61
   4   5   9   16.64    7.56
   4   5  10   27.15    6.19
   4   5  11   -1.96    6.78
   4   5  12   43.78    7.53
   4   6   0  251.51   11.72
   4   6   0  211.70   13.34
   4   6   1  309.68   14.38
   4   6   1  277.13   15.57
   4   6   2  101.55    6.74
   4   6   3   87.59    6.28
   4   6   4   30.43    4.59
   4   6   5   34.17    3.99
   4   6   6   41.88    4.45
  -4   6  -6   65.95    5.20
   4   6   7   91.81    7.07
  -4   6  -7   87.06    6.70
   4   6   8   13.00    4.90
   4   6   9   80.41    7.80
   4   6  10   13.70    5.94
   4   6  11   26.15    8.51
   4   6  12    6.08    5.17
   4   7   0   80.48    4.79
   4   7   0   52.11    6.11
   4   7   1   61.83    4.89
   4   7   2  298.20   14.39
   4   7   3  114.35    7.04
   4   7   4   12.39    3.21
   4   7   5    1.84    3.38
   4   7   6  173.19   10.37
   4   7   7   15.55    4.93
  -4   7  -7   15.51    3.77
   4   7   8   47.84    5.55
   4   7   9   51.91    6.00
   4   7  10   33.58    6.44
   4   7  11    3.98    7.51
   4   8   0    1.37    2.43
   4   8   1   78.12    5.92
   4   8   2  113.30    7.44
   4   8   3   58.12    5.17
   4   8   4   17.10    4.28
   4   8   5   97.63    7.09
   4   8   6   15.71    3.85
   4   8   7   62.14    6.80
   4   8   8    8.63    3.55
   4   8   9    2.77    3.54
   4   8  10   -4.77    4.62
   4   8  11   38.78    8.01
   4   9   0   50.28    5.30
   4   9   1   34.98    4.96
   4   9   2   20.74    4.21
   4   9   3    6.50    2.87
   4   9   4   79.29    6.88
   4   9   5   29.39    4.60
   4   9   6   11.83    5.07
   4   9   7   68.94    7.56
   4   9   8   56.96    7.55
   4   9   9    7.39    4.62
   4   9  10   26.01    8.01
   4  10   0  105.33    7.41
   4  10   1   29.01    3.75
   4  10   2   19.78    4.35
   4  10   3   16.87    3.32
   4  10   4    3.49    4.55
   4  10   5   55.01    5.96
   4  10   6   35.47    6.43
   4  10   7   14.55    6.13
   4  10   8    4.29    5.67
   4  10   9   41.39    8.59
   4  11   0   30.30    5.11
   4  11   1   15.24    4.48
   4  11   2   20.66    3.75
   4  11   3   26.46    5.42
   4  11   4   58.47    6.07
   4  11   5   18.50    4.10
   4  11   6   23.40    4.26
   4  11   7   15.36    4.87
   4  11   8    5.02    5.63
   4  12   0   44.31    6.02
   4  12   1   16.02    3.45
   4  12   2    4.95    4.95
   4  12   3   18.19    4.36
   4  12   4    4.37    3.62
   4  12   5   26.57    4.99
   4  12   6   -3.78    6.50
   4  12   7   36.11    6.81
   4  13   0   15.98    3.62
  -4  13   0   10.19    5.41
   4  13   1   41.35    6.33
  -4  13  -1   30.33    6.02
   4  13   2   28.72    4.37
   4  13   3   22.57    5.87
   4  13   4    5.27    5.12
   4  13   5    1.96    6.17
   4  13   6   13.98    6.62
  -4  14   0    7.15    7.47
  -4  14  -1    8.84    6.48
  -4  14  -2   12.74    5.67
  -4  14  -3    3.31    5.67
  -5 -12   7    5.98    4.68
  -5 -12   6    7.90    5.48
  -5 -12   5   12.02    6.09
  -5 -11   8    7.29    5.67
  -5 -11   7    7.95    4.71
  -5 -11   6    7.77    5.02
  -5 -11   5   23.48    4.35
  -5 -11   4    1.27    3.50
  -5 -10  10    9.85    4.20
  -5 -10   9    0.97    5.66
  -5 -10   8    3.24    4.70
  -5 -10   7    8.27    5.19
  -5 -10   6   20.07    4.37
  -5 -10   5   36.19    4.83
  -5 -10   4   12.57    4.46
  -5 -10   3    1.25    3.92
  -5  -9  10   -0.48    4.04
  -5  -9   9    1.29    4.04
  -5  -9   8   14.23    4.37
  -5  -9   7    9.87    3.72
  -5  -9   5    8.51    4.34
  -5  -9   4    7.00    3.02
  -5  -9   3   70.53    6.78
   5  -9  -2   11.61    2.21
   5  -9  -1   29.40    2.62
  -5  -8  11   -4.35    4.35
  -5  -8  10   12.09    5.80
  -5  -8   9    7.90    5.00
  -5  -8   8   28.68    4.36
  -5  -8   7   26.89    5.00
  -5  -8   6   17.21    4.18
  -5  -8   5   23.40    4.01
  -5  -8   4   35.02    5.58
   5  -8  -4   50.15    5.15
  -5  -8   3   32.92    4.57
   5  -8  -3   35.92    3.72
  -5  -8   2   -0.62    2.80
   5  -8  -2    1.61    1.77
   5  -8  -1   12.06    1.92
   5  -8  -1   10.99    2.91
  -5  -7  12   -5.30    4.50
  -5  -7  11    9.33    4.82
  -5  -7  10   26.04    5.15
  -5  -7   9    2.89    3.53
  -5  -7   8   20.86    5.94
  -5  -7   7   11.38    3.85
  -5  -7   6   34.92    4.65
  -5  -7   6   38.25    5.01
  -5  -7   5   10.71    3.04
  -5  -7   5    7.93    3.58
   5  -7  -5   21.37    4.21
  -5  -7   4    3.34    3.02
  -5  -7   4   -9.07    3.83
   5  -7  -4   -2.76    3.08
  -5  -7   3  120.56    7.47
   5  -7  -3  107.08    6.90
  -5  -7   2   45.97    4.54
   5  -7  -2   47.73    3.92
   5  -7  -1   95.75    7.04
   5  -7  -1   85.58    6.04
  -5  -6  12    2.72    4.80
  -5  -6  11   10.10    4.49
  -5  -6  10   30.76    5.29
  -5  -6   9   -2.72    3.04
  -5  -6   8    7.35    4.00
  -5  -6   7   18.68    3.83
  -5  -6   7   18.46    2.98
  -5  -6   6   28.25    5.11
  -5  -6   6   20.53    3.72
  -5  -6   5   60.47    5.75
  -5  -6   5   47.07    4.81
   5  -6  -5   51.25    5.85
  -5  -6   4   60.67    5.58
   5  -6  -4   59.47    4.88
  -5  -6   3   37.88    3.81
   5  -6  -3   37.14    4.37
  -5  -6   2   55.52    5.04
   5  -6  -2   56.50    4.84
  -5  -6   1   40.64    4.37
   5  -6  -1   41.09    3.52
  -5  -5  13    0.64    6.68
  -5  -5  12    7.65    5.90
  -5  -5  11    8.30    4.47
  -5  -5  10    3.99    4.63
  -5  -5   9    0.64    3.19
  -5  -5   8  101.48    7.99
  -5  -5   7    7.16    4.14
  -5  -5   7    8.04    2.63
  -5  -5   6   15.28    4.94
  -5  -5   6   12.18    3.09
  -5  -5   5  122.82    8.15
   5  -5  -5  131.91    8.90
  -5  -5   4   32.65    3.99
   5  -5  -4   30.12    4.65
  -5  -5   3   43.07    5.09
   5  -5  -3   42.51    3.99
  -5  -5   2    1.58    2.53
   5  -5  -2    4.27    3.16
  -5  -5   1  340.53   16.10
   5  -5  -1  367.12   17.20
  -5  -4  13   -7.12    6.81
  -5  -4  12   13.97    4.76
  -5  -4  11    2.70    3.98
  -5  -4  10    9.55    5.09
  -5  -4   9   19.73    4.14
  -5  -4   8    7.47    3.18
  -5  -4   7    4.29    3.81
  -5  -4   7    3.37    2.15
  -5  -4   6   17.17    3.50
  -5  -4   5   41.06    4.78
   5  -4  -5   52.52    7.33
  -5  -4   4   16.89    3.19
   5  -4  -4   21.69    4.12
  -5  -4   3    7.17    2.55
   5  -4  -3   10.86    2.68
  -5  -4   2  132.99    7.33
   5  -4  -2  135.74    8.52
  -5  -4   1   13.08    2.84
   5  -4  -1   15.66    3.29
  -5  -3  13   19.85    5.36
  -5  -3  12   14.39    5.69
  -5  -3  11    0.95    3.96
  -5  -3  10    3.81    3.97
  -5  -3   9    8.10    3.02
  -5  -3   8    5.88    3.02
  -5  -3   8   10.32    2.01
  -5  -3   7   16.35    4.13
  -5  -3   6  147.09    9.71
  -5  -3   5   95.28    7.01
   5  -3  -5   83.55    6.50
  -5  -3   4    7.65    2.71
   5  -3  -4    1.10    3.30
  -5  -3   3  412.86   18.10
   5  -3  -3  403.27   19.01
  -5  -3   2   21.63    3.98
   5  -3  -2   23.83    3.45
  -5  -3   1  132.13    7.45
   5  -3  -1  129.16    7.91
  -5  -2  14    8.12    5.16
  -5  -2  13    1.57    4.55
  -5  -2  12    5.52    5.83
  -5  -2  11   12.49    5.22
  -5  -2  10   27.89    5.23
  -5  -2   9    2.86    3.17
  -5  -2   8   16.99    3.34
  -5  -2   7   59.39    5.09
  -5  -2   6   63.39    6.20
  -5  -2   5   64.72    5.57
   5  -2  -5   58.12    6.31
  -5  -2   4   68.96    4.79
   5  -2  -4   72.78    5.68
  -5  -2   3    3.67    2.39
   5  -2  -3    4.40    2.36
  -5  -2   2   71.74    5.26
   5  -2  -2   79.80    5.38
  -5  -2   1   23.25    3.16
   5  -2  -1   19.18    3.65
  -5  -1  14    2.18    5.61
  -5  -1  13   10.01    5.32
  -5  -1  12   -0.94    3.62
  -5  -1  11   11.68    5.84
  -5  -1  10    6.49    3.01
  -5  -1   9   20.15    3.97
  -5  -1   8   41.94    5.25
  -5  -1   7   -1.91    2.23
  -5  -1   6   29.09    3.66
  -5  -1   5  131.02    7.18
  -5  -1   4    5.57    4.61
   5  -1  -4    4.26    2.68
  -5  -1   3  110.76    6.39
   5  -1  -3  113.56    8.41
  -5  -1   2    6.51    2.70
   5  -1  -2    5.72    3.02
  -5  -1   1  195.30    9.68
   5  -1  -1  202.81   11.70
   5   0  -4   21.09    3.81
   5   0  -3   17.18    3.98
   5   0  -2  182.01   11.37
   5   0  -1   36.15    5.60
   5   0   0   80.83    7.84
   5   0   1   18.41    3.38
   5   0   1   11.92    3.34
   5   0   2  338.57   14.70
   5   0   2  311.53   16.83
   5   0   3   11.57    2.86
   5   0   4  279.61   13.15
   5   0   5   39.82    4.20
   5   0   6    4.19    2.84
   5   0   7  185.50   10.40
   5   0   8   44.66    4.64
   5   0   9    1.94    3.13
   5   0  10    8.64    4.62
   5   0  11   32.46    6.26
   5   0  12   -3.43    5.81
   5   1   0   47.83    4.14
  -5   1   0   45.71    4.04
   5   1   1  307.66   14.12
   5   1   1  289.45   15.05
   5   1   2  237.50   11.04
   5   1   2  193.94   13.18
   5   1   3  204.71   11.38
   5   1   4   18.04    3.01
   5   1   5  161.06    9.65
   5   1   6   43.93    5.55
   5   1   7  140.26    9.77
   5   1   8   36.73    6.13
   5   1   9    1.79    4.91
   5   1  10  126.47   10.14
   5   1  11    0.30    5.20
   5   1  12   77.34   10.70
   5   2   0  388.33   18.54
   5   2   1   28.92    4.49
   5   2   2  109.04    6.75
   5   2   3  117.63    7.16
   5   2   4   51.10    4.69
   5   2   5   52.05    5.59
   5   2   6   38.26    4.37
   5   2   7   47.04    5.12
   5   2   8   11.24    4.49
   5   2   9  166.31   10.35
   5   2  10   21.73    7.59
   5   2  11    8.02    4.90
   5   2  12    3.71    6.23
   5   3   1   94.29    6.21
   5   3   2  145.73    8.16
   5   3   3   89.21    6.27
   5   3   4  135.03    8.08
   5   3   5  436.28   20.77
   5   3   6   29.42    5.76
   5   3   7    8.92    4.99
   5   3   8   77.78    7.25
   5   3   9   24.62    5.11
   5   3  10   22.14    5.54
   5   3  11   -0.30    5.97
   5   3  12   31.13    8.94
   5   4   0  175.93    9.41
   5   4   1   34.79    3.72
   5   4   2  297.25   14.52
   5   4   3   42.99    4.59
   5   4   4   45.08    5.20
   5   4   5   22.31    4.89
   5   4   6   41.08    4.59
   5   4   7  119.97    9.32
   5   4   8   32.21    6.84
   5   4   9   40.71    6.51
   5   4  10   -5.28    3.92
   5   4  11   29.30    6.46
   5   5   0  113.21    7.32
   5   5   1   57.61    4.94
   5   5   2  154.98    9.24
   5   5   3  185.88   11.38
   5   5   4   -0.46    2.91
   5   5   5   -0.77    2.92
   5   5   6   80.54    6.78
   5   5   7   97.97    7.70
   5   5   8   26.04    5.98
   5   5   9   -2.29    4.27
   5   5  10   55.96    7.76
   5   5  11   -3.18    4.85
   5   6   0  116.27    7.74
   5   6   1   22.97    4.60
   5   6   2  129.05    8.44
   5   6   3    3.52    3.21
   5   6   4   69.36    7.22
   5   6   5   44.36    6.63
   5   6   6   36.12    6.02
   5   6   7   56.05    6.65
   5   6   8    3.70    3.85
   5   6   9   23.37    6.15
   5   6  10    7.05    4.91
   5   6  11   28.74    6.58
   5   7   0   58.44    6.28
   5   7   1   57.02    5.64
   5   7   2   39.04    4.26
   5   7   3    4.57    4.42
   5   7   4  134.71    9.69
   5   7   5  180.56   11.15
   5   7   6   19.02    4.02
   5   7   7   22.76    4.80
   5   7   8   55.26    7.44
   5   7   9   39.56    8.19
   5   7  10    4.63    6.48
   5   8   0   68.16    6.54
   5   8   1   18.88    4.08
   5   8   2   63.15    6.96
   5   8   3   14.72    4.71
   5   8   4   25.06    4.59
   5   8   5    9.69    3.84
   5   8   6   42.79    6.80
   5   8   7    8.21    7.74
   5   8   8   15.49    4.96
   5   8   9   65.79    8.99
   5   9   0   36.21    5.59
   5   9   1   16.22    4.21
   5   9   2   61.49    5.73
   5   9   3   95.53    7.89
   5   9   4    9.74    4.87
   5   9   5   22.98    4.29
   5   9   6   45.57    6.48
   5   9   7   54.35    7.27
   5   9   8    2.32    5.26
   5   9   9   14.37    5.56
   5  10   0   -0.15    3.61
   5  10   1   10.93    4.94
   5  10   2    4.65    4.35
   5  10   3    7.99    3.77
   5  10   4  102.55   11.71
   5  10   5   21.06    5.19
   5  10   6    7.20    4.60
   5  10   7   24.43    6.76
   5  10   8   19.23    8.46
   5  11   0   35.04    4.37
   5  11   1   25.47    6.00
   5  11   2   21.45    4.80
   5  11   3    6.63    4.22
   5  11   4   19.53    6.81
   5  11   5    7.15    5.93
   5  11   6    0.15    5.03
   5  11   7   20.48    5.81
   5  12   0    5.43    5.28
   5  12   1    4.51    4.66
   5  12   2    7.07    5.42
   5  12   3   15.54    6.04
   5  12   4   27.40    6.97
   5  12   5   -0.15    6.22
   5  13   0   21.56    6.53
   5  13   1   18.02    8.03
   5  13   2   -3.18    5.60
   5  13   3   17.73    6.07
  -6 -11   6    2.40    4.17
  -6 -11   5    3.98    6.68
  -6 -11   4   18.87    5.19
  -6 -10   8    8.73    4.85
  -6 -10   6    3.85    4.01
  -6 -10   5    1.43    4.93
  -6 -10   4    3.15    4.88
  -6  -9   9    0.81    7.60
  -6  -9   8    1.61    3.71
  -6  -9   7   15.14    5.48
  -6  -9   6    8.66    4.65
  -6  -9   5   16.23    4.30
  -6  -9   4   -4.88    4.25
  -6  -9   3   14.94    5.14
  -6  -8  10    7.59    6.30
  -6  -8   9   20.33    6.13
  -6  -8   8    1.61    6.93
  -6  -8   7    7.39    4.18
  -6  -8   6   -0.80    5.44
  -6  -8   5   17.18    5.57
  -6  -8   4    3.00    4.89
  -6  -8   3   15.76    5.78
   6  -8  -2   38.54    3.95
   6  -8  -1    0.44    1.75
  -6  -7  11    2.74    5.32
  -6  -7  10   17.23    6.28
  -6  -7   9   -2.41    4.34
  -6  -7   8    5.62    5.46
  -6  -7   7   -0.64    4.65
  -6  -7   6    6.71    5.11
  -6  -7   5   21.48    4.62
  -6  -7   4   10.91    3.79
  -6  -7   3   39.79    5.96
  -6  -7   2   -2.48    4.65
   6  -7  -1   79.88    5.92
  -6  -6  11   -1.93    3.85
  -6  -6  10   10.75    4.49
  -6  -6   9    9.30    4.81
  -6  -6   8   11.05    4.48
  -6  -6   7   35.65    5.44
  -6  -6   6   10.69    5.27
  -6  -6   5   28.49    4.62
  -6  -6   4    6.18    3.80
  -6  -6   3    9.28    4.25
   6  -6  -3   -3.86    2.90
  -6  -6   2    3.12    3.43
   6  -6  -2    1.44    2.40
   6  -6  -1    4.87    2.13
   6  -6  -1    8.41    3.81
  -6  -5  12   -1.60    4.31
  -6  -5  11    6.40    4.32
  -6  -5  10   19.20    5.12
  -6  -5   9    6.87    3.84
  -6  -5   8   14.22    4.31
  -6  -5   7    9.10    4.31
  -6  -5   6   18.82    5.58
  -6  -5   5   47.93    5.10
  -6  -5   4   26.67    4.13
  -6  -5   3   71.68    6.64
  -6  -5   2   49.20    5.49
   6  -5  -2   39.55    4.11
  -6  -5   1    5.75    2.95
   6  -5  -1    5.82    2.45
   6  -5  -1    7.37    3.76
  -6  -4  12    9.23    6.37
  -6  -4  11    6.38    4.62
  -6  -4  10   -0.32    4.15
  -6  -4   9    7.98    3.83
  -6  -4   8    1.75    4.79
  -6  -4   7   33.65    5.27
  -6  -4   6   14.51    4.78
  -6  -4   5   39.36    5.58
  -6  -4   4  131.52    8.93
  -6  -4   3   49.40    5.55
  -6  -4   2   56.14    4.88
  -6  -4   1   27.75    3.90
  -6  -3  12   -5.87    5.87
  -6  -3  11    1.59    3.97
  -6  -3  10    6.85    3.66
  -6  -3   9   -0.64    3.67
  -6  -3   8   45.12    6.70
  -6  -3   7   20.10    4.31
  -6  -3   6    2.23    3.67
  -6  -3   5  122.64    8.79
  -6  -3   4   17.19    3.50
  -6  -3   3    5.23    3.49
  -6  -3   2   76.26    6.63
  -6  -3   1   27.33    4.38
  -6  -2  12   12.18    5.38
  -6  -2  11    1.75    4.76
  -6  -2  10    9.54    5.57
  -6  -2   9   12.91    5.42
  -6  -2   8   -2.55    3.35
  -6  -2   7   54.10    6.39
  -6  -2   6   -0.96    2.55
  -6  -2   5   75.14    5.91
  -6  -2   4   10.83    3.19
  -6  -2   3   79.79    6.99
  -6  -2   2   75.63    6.32
  -6  -2   1  108.83    7.05
  -6  -1  13   11.31    5.03
  -6  -1  12  -12.16    6.47
  -6  -1  11   -4.28    3.80
  -6  -1  10    5.09    3.82
  -6  -1   9    0.80    3.19
  -6  -1   8   10.38    4.15
  -6  -1   7    3.03    3.19
  -6  -1   6   18.20    4.79
  -6  -1   5   41.31    5.43
  -6  -1   4   31.67    5.25
  -6  -1   3  146.54    8.91
  -6  -1   2  129.76    8.21
  -6  -1   1   44.71    5.93
   6   0   0  217.95   12.37
   6   0   1   20.82    4.41
   6   0   2   37.13    5.59
   6   0   3   43.51    4.53
   6   0   4    7.84    3.17
   6   0   5   22.81    4.53
   6   0   6  138.65   10.19
   6   0   7    9.09    4.85
   6   0   8  145.43   11.10
   6   0   9    1.21    4.38
   6   0  10   16.29    5.28
   6   1   0  124.51    8.66
   6   1   1   71.11    5.66
   6   1   2  116.70    7.92
   6   1   3    9.52    3.17
   6   1   4   -1.06    3.02
   6   1   5  191.54   11.42
   6   1   6   26.23    5.16
   6   1   7   62.77    6.53
   6   1   8   31.95    7.12
   6   1   9   31.12    7.10
   6   1  10   18.53    7.53
   6   2   0   14.37    4.64
   6   2   1   43.80    5.98
   6   2   2   38.66    4.57
   6   2   3   59.51    5.93
   6   2   4   69.55    6.84
   6   2   5   26.46    4.72
   6   2   6  117.66   10.37
   6   2   7   32.41    7.31
   6   2   8   71.23    7.00
   6   2   9    7.12    4.69
   6   2  10    7.25    5.28
   6   3   0  103.66    8.06
   6   3   1    6.75    4.45
   6   3   2   41.38    4.74
   6   3   3  351.08   18.24
   6   3   4    8.85    5.19
   6   3   5    2.14    3.52
   6   3   6   -6.12    5.05
   6   3   7   70.98    6.90
   6   3   8   22.75    5.50
   6   3   9   38.96    7.00
   6   3  10   39.43    6.68
   6   4   0   30.60    4.02
   6   4   1   16.57    3.99
   6   4   2   61.31    6.89
   6   4   3   20.79    3.98
   6   4   4   55.30    5.68
   6   4   5   12.44    5.38
   6   4   6   51.86    9.08
   6   4   7    2.15    4.62
   6   4   8   21.82    4.92
   6   4   9   32.94    6.90
   6   4  10   12.52    6.41
   6   5   0    2.62    3.54
   6   5   1   11.63    5.36
   6   5   2   37.27    4.74
   6   5   3   -0.31    4.90
   6   5   4   -1.54    4.15
   6   5   5  280.23   15.80
   6   5   6   21.03    6.65
   6   5   7    3.56    4.33
   6   5   8   18.09    5.41
   6   5   9   16.97    7.56
   6   6   0  120.37   10.74
   6   6   1   90.68    7.79
   6   6   2   92.29    8.24
   6   6   3   25.51    4.43
   6   6   4   15.35    4.45
   6   6   5   28.09    6.49
   6   6   6   71.15    8.07
   6   6   7   12.58    5.28
   6   6   8   43.49    7.00
   6   6   9   15.04    6.98
   6   7   0  137.25    9.63
   6   7   1    8.94    3.94
   6   7   2    0.76    3.49
   6   7   3   92.57    9.16
   6   7   4   22.98    4.29
   6   7   5    0.77    5.09
   6   7   6    3.57    4.65
   6   7   7   86.62    9.81
   6   7   8    2.65    7.32
   6   8   0   18.90    4.84
   6   8   1    6.78    5.72
   6   8   2   23.23    4.98
   6   8   3   35.17    6.52
   6   8   4   61.53    8.26
   6   8   5   -4.00    6.31
   6   8   6   -1.86    6.03
   6   8   7   52.18    8.24
   6   8   8   14.62    6.38
   6   9   0   23.62    4.82
   6   9   1   34.34    7.05
   6   9   2   26.58    5.11
   6   9   3   44.24    6.50
   6   9   4   15.06    5.02
   6   9   5   72.00    8.44
   6   9   6   24.35   10.02
   6   9   7    7.27    8.35
   6  10   0    9.76    4.65
   6  10   1    8.23    5.84
   6  10   2   49.46    8.25
   6  10   3    0.00    4.37
   6  10   4   19.25    5.46
   6  10   5    3.51    4.58
   6  10   6    4.14    5.98
   6  11   0   12.78    7.22
   6  11   1   -4.95    6.60
   6  11   2   26.11    5.71
   6  11   3    6.18    5.12
   6  11   4    2.27    4.54
   6  12   0   -6.20    5.14
   6  12   1    4.22    5.28
   6  12   2   12.97    5.58
  -7  -9   6    0.32    5.08
  -7  -9   5   14.80    7.87
  -7  -9   4    9.35    6.54
  -7  -8   7   15.81    7.67
  -7  -8   6    2.70    5.40
  -7  -8   5   11.19    8.67
  -7  -8   4   16.08    4.53
  -7  -8   3   12.20    4.79
  -7  -7   8    1.28    4.65
  -7  -7   7   32.25    9.90
  -7  -7   6    7.15    5.72
  -7  -7   5   31.73    7.26
  -7  -7   4    8.46    5.64
  -7  -7   3   10.55    4.34
   7  -7  -2   28.49    4.71
   7  -7  -1    7.28    4.01
  -7  -6   9   16.68    5.29
  -7  -6   8   -6.72    4.00
  -7  -6   7   12.13    7.18
  -7  -6   6    4.61    4.61
  -7  -6   5    1.11    3.95
  -7  -6   4   22.47    6.76
  -7  -6   3   25.24    6.23
   7  -6  -2   13.45    3.52
   7  -6  -1    6.77    2.86
  -7  -5  10   11.86    5.29
  -7  -5   9    1.60    4.65
  -7  -5   8   -4.00    4.16
  -7  -5   6   43.62    6.53
  -7  -5   5   18.23    4.44
  -7  -5   4    5.99    3.94
  -7  -5   3    3.28    3.75
  -7  -5   2    9.61    4.03
   7  -5  -1    6.21    3.33
  -7  -4  10    0.00    4.48
  -7  -4   9    5.12    5.12
  -7  -4   8   18.88    7.04
  -7  -4   7   29.24    5.59
  -7  -4   6    0.96    5.10
  -7  -4   5    3.65    4.13
  -7  -4   4   43.77    6.64
  -7  -4   3   13.65    3.77
  -7  -4   2   -0.47    3.89
   7  -4  -1   45.48    5.77
  -7  -3  11    2.08    8.46
  -7  -3  10   -0.80    7.36
  -7  -3   9    3.04    6.72
  -7  -3   8    5.12    5.44
  -7  -3   7   -1.92    3.84
  -7  -3   6    4.15    4.31
  -7  -3   5   45.35    8.60
  -7  -3   4   20.42    6.33
  -7  -3   3    5.03    5.34
  -7  -3   2   45.78    5.61
   7  -3  -1   -2.58    4.40
  -7  -2  11    4.94    4.63
  -7  -2  10    6.72    4.48
  -7  -2   9   14.41    4.65
  -7  -2   8    8.49    4.49
  -7  -2   7   24.98    4.65
  -7  -2   6    2.72    3.84
  -7  -2   5    6.85    3.50
  -7  -2   4   24.71    4.75
  -7  -2   3   26.40    4.09
  -7  -2   2   16.81    5.14
   7  -2  -1   -3.49    2.89
  -7  -1  11    8.93    7.50
  -7  -1  10    9.44    6.88
  -7  -1   9    8.82    6.73
  -7  -1   8   -0.64    3.85
  -7  -1   7    2.08    3.85
  -7  -1   6    3.68    3.68
  -7  -1   5   12.42    5.10
  -7  -1   4    7.28    3.32
  -7  -1   3    2.20    3.77
  -7  -1   2   46.27    6.99
   7   0   0   -1.06    3.03
   7   0   1    6.91    4.96
   7   0   2    5.25    3.45
   7   0   3   67.70    6.63
   7   0   4   26.08    4.68
   7   0   5   47.73    8.65
   7   0   6  118.55   10.84
   7   0   7    3.51    4.42
   7   0   8    4.12    8.25
   7   0   9   10.99   15.11
   7   1   0   79.04    6.86
   7   1   1    5.28    5.13
   7   1   2   24.37    4.82
   7   1   3   68.66    8.60
   7   1   4   14.20    4.84
   7   1   5   60.87    6.85
   7   1   6   12.50    7.16
   7   1   7   12.07    5.35
   7   1   8   15.74    6.72
   7   1   9   27.32    6.87
   7   2   0   -0.76    3.05
   7   2   1   43.64    6.37
   7   2   2   42.60    6.50
   7   2   3   21.17    5.60
   7   2   4   51.73    6.68
   7   2   5    6.25    3.96
   7   2   6   22.17    7.34
   7   2   7   19.76    8.27
   7   2   8   36.93    6.75
   7   3   0    1.83    3.67
   7   3   1   34.49    5.93
   7   3   2   18.95    4.40
   7   3   3    5.01    5.31
   7   3   4   32.90    5.79
   7   3   5   77.27    8.58
   7   3   6   -0.77    4.45
   7   3   7   65.40   10.01
   7   3   8    6.16    7.85
   7   4   0   15.59    7.34
   7   4   1   31.34    5.63
   7   4   2   10.33    4.56
   7   4   3   78.86    8.54
   7   4   4    5.05    4.89
   7   4   5    8.60    5.38
   7   4   6   46.28    7.56
   7   4   7   -3.56    7.42
   7   4   8   26.92   11.14
   7   5   0   88.80    8.10
   7   5   1   -3.19    5.62
   7   5   2   21.27    6.08
   7   5   3   50.30    6.71
   7   5   4    3.37    4.29
   7   5   5    2.31    4.78
   7   5   6   -1.24    7.74
   7   5   7   33.54    8.85
   7   6   0   17.78    5.02
   7   6   1   16.97    4.85
   7   6   2    5.00    3.79
   7   6   3    4.11    4.87
   7   6   4   42.59    7.82
   7   6   5   13.26    7.40
   7   6   6   16.13    6.20
   7   6   7   -0.78    6.07
   7   7   0    7.87    6.50
   7   7   1    2.56    5.73
   7   7   2    5.89    6.95
   7   7   3   -0.46    4.86
   7   7   4    8.26    4.74
   7   7   5   60.53    8.33
   7   7   6   15.97    6.82
   7   8   0    2.86    5.87
   7   8   1   38.60    6.61
   7   8   2   20.47    5.87
   7   8   3    3.48    6.35
   7   8   4   -1.98    6.86
   7   8   5  -15.51    8.14
   7   9   0    5.40    4.20
   7   9   1    4.04    4.79
   7   9   2   -1.80    4.35
   7   9   3   21.41    6.64
   7   9   4    4.71    5.77
   7  10   0   -0.30    4.94
   7  10   1    0.30    5.23
   7  10   2    6.59    5.84
  -8  -7   5    0.00    5.31
  -8  -7   4   -1.86    6.66
  -8  -6   6    3.95    7.42
  -8  -6   5    3.60    5.17
  -8  -6   4   15.70    6.53
  -8  -6   3   -7.86    4.31
   8  -6  -3    0.15    3.52
   8  -6  -2   -1.51    4.84
   8  -6  -1    5.23    4.03
  -8  -5   7   15.91    7.95
  -8  -5   6    4.59    4.59
  -8  -5   5    5.98    5.50
  -8  -5   4    3.28    4.68
  -8  -5   3    3.87    6.80
   8  -5  -2   18.48    6.06
   8  -5  -1    4.80    3.75
  -8  -4   8   -5.92    7.52
  -8  -4   7    3.35    5.58
  -8  -4   6   -1.59    3.65
  -8  -4   5   -3.94    4.26
  -8  -4   4   -4.07    5.48
  -8  -4   3    7.60    5.43
   8  -4  -2    5.15    5.00
   8  -4  -1    7.80    3.60
  -8  -3   8   -2.72    5.13
  -8  -3   7   12.62    5.59
  -8  -3   5    9.17    5.06
  -8  -3   4   11.29    5.49
  -8  -3   3    0.93    4.04
   8  -3  -2    2.12    4.09
   8  -3  -1   24.14    6.45
  -8  -2   8   13.16    7.70
  -8  -2   7    2.08    5.12
  -8  -2   6   -0.80    3.98
  -8  -2   5   14.24    4.75
  -8  -2   4   35.76    8.32
  -8  -2   3   14.28    6.52
   8  -2  -2    9.40    4.25
   8  -2  -1   28.20    5.11
  -8  -1   9   -1.77    4.67
  -8  -1   8    0.48    4.98
  -8  -1   7   20.19    9.45
  -8  -1   6    1.12    4.46
  -8  -1   5    0.95    6.01
  -8  -1   4    5.01    6.58
  -8  -1   3   13.79    4.49
  -8  -1   2   20.05    4.59
   8  -1  -1    0.15    6.01
   8   0  -1   13.42    6.33
   8   0   0    3.59    4.04
   8   0   1   85.87    7.77
   8   0   2    1.04    3.87
   8   0   3    2.84    6.57
   8   0   4   10.22    5.11
   8   0   5    9.53    5.30
   8   0   6   -3.50    5.78
   8   1   0    5.10    7.35
   8   1   1    8.36    4.33
   8   1   2   13.73    4.78
   8   1   3   27.40    5.84
   8   1   4   55.25    9.65
   8   1   5    3.48    4.85
   8   1   6   24.53    7.16
   8   2   0    5.12    5.42
   8   2   1    9.90    4.95
   8   2   2    6.89    4.94
   8   2   3   43.42    7.22
   8   2   4   13.74    7.85
   8   2   5   13.67    9.12
   8   2   6   29.48   10.08
   8   3   0   12.54    5.14
   8   3   1    4.97    4.36
   8   3   2   18.65    5.12
   8   3   3    4.83    4.98
   8   3   4   10.77    7.58
   8   3   5   10.37    8.54
   8   4   0   14.68    5.75
   8   4   1   22.62    6.33
   8   4   2   -6.64    4.83
   8   4   3   44.80    8.48
   8   4   4   -0.91    7.46
   8   4   5   27.26   11.64
   8   5   0   25.10    7.86
   8   5   1    7.24    7.09
   8   5   2   -1.06    8.00
   8   5   3    5.91    8.04
   8   5   4   15.26    8.54
   8   6   0    3.02    5.28
   8   6   1   25.01    7.08
   8   6   2   -8.90    5.89
   8   6   3    7.89    6.67
   8   7   0   20.30    9.32
   8   7   1    3.61    8.56
   8   7   2    5.42    8.73
   9  -3  -2   -2.69    7.49
   9  -3  -1    0.00    7.43
   9  -2  -3   12.57    5.61
   9  -2  -2    0.90    4.49
   9  -2  -1   13.36    5.79
  -9  -1   4   -1.39    4.33
   9  -1  -3    4.56    5.47
   9  -1  -2   10.20    7.65
   9  -1  -1    4.01    8.62
   9   0  -2    8.73   13.54
   9   0  -1    5.96   12.81
   9   0   0    1.33    6.95
   9   0   1    5.31    7.82
   9   1   0   -1.48    4.75
   9   1   1    5.18    5.33
   9   2   0   -1.94    6.56

;
_shelx_hkl_checksum              24436
#END Tags that were not found in dictionaries
loop_
_space_group_symop_operation_xyz
'x, y, z'
'-x, y+1/2, -z'
loop_
_atom_site_label
_atom_site_type_symbol
_atom_site_fract_x
_atom_site_fract_y
_atom_site_fract_z
_atom_site_U_iso_or_equiv
_atom_site_adp_type
_atom_site_occupancy
_atom_site_site_symmetry_order
_atom_site_calc_flag
_atom_site_refinement_flags_posn
_atom_site_refinement_flags_adp
C1 C 0.8279(9) 0.3078(4) 0.9421(5) 0.0312(14) Uani 1 1 d . .
C2 C 0.6388(10) 0.3268(5) 0.9545(5) 0.0378(16) Uani 1 1 d . .
H2 H 0.5689 0.2814 0.9970 0.045 Uiso 1 1 calc R U
C3 C 0.5552(9) 0.4145(7) 0.9026(5) 0.0419(16) Uani 1 1 d . .
H3 H 0.4250 0.4284 0.9098 0.050 Uiso 1 1 calc R U
C4 C 0.6531(10) 0.4834(5) 0.8404(5) 0.0405(17) Uani 1 1 d . .
C5 C 0.8433(11) 0.4616(5) 0.8316(5) 0.0385(16) Uani 1 1 d . .
H5 H 0.9145 0.5077 0.7905 0.046 Uiso 1 1 calc R U
C6 C 0.9307(10) 0.3742(5) 0.8815(6) 0.0392(16) Uani 1 1 d . .
H6 H 1.0607 0.3599 0.8742 0.047 Uiso 1 1 calc R U
C7 C 0.5585(12) 0.5792(6) 0.7875(6) 0.059(2) Uani 1 1 d . .
H7A H 0.6549 0.6256 0.7611 0.088 Uiso 1 1 calc R U
H7B H 0.4906 0.6174 0.8408 0.088 Uiso 1 1 calc R U
H7C H 0.4681 0.5572 0.7262 0.088 Uiso 1 1 calc R U
C8 C 0.7492(10) 0.0492(5) 0.8944(5) 0.0338(15) Uani 1 1 d . .
C9 C 0.7949(10) -0.0546(5) 0.8429(5) 0.0383(16) Uani 1 1 d . .
H9 H 0.8019 -0.1104 0.9006 0.046 Uiso 1 1 calc R U
C10 C 0.9921(10) -0.0415(5) 0.8056(5) 0.0351(15) Uani 1 1 d . .
H10A H 0.9829 -0.0248 0.7269 0.042 Uiso 1 1 calc R U
H10B H 1.0670 -0.1072 0.8187 0.042 Uiso 1 1 calc R U
C11 C 1.0861(9) 0.0505(5) 0.8731(5) 0.0312(14) Uani 1 1 d . .
H11 H 1.1779 0.0222 0.9331 0.037 Uiso 1 1 calc R U
C12 C 1.1872(9) 0.1249(5) 0.8020(5) 0.0348(15) Uani 1 1 d . .
H12A H 1.2445 0.1841 0.8464 0.042 Uiso 1 1 calc R U
H12B H 1.2903 0.0867 0.7700 0.042 Uiso 1 1 calc R U
C13 C 1.2409(11) 0.3457(5) 0.6351(7) 0.0494(19) Uani 1 1 d . .
H13A H 1.1532 0.3950 0.6654 0.074 Uiso 1 1 calc R U
H13B H 1.2823 0.3753 0.5681 0.074 Uiso 1 1 calc R U
H13C H 1.3518 0.3342 0.6882 0.074 Uiso 1 1 calc R U
C14 C 1.2820(11) 0.1263(6) 0.5408(6) 0.052(2) Uani 1 1 d . .
H14A H 1.3994 0.1181 0.5895 0.078 Uiso 1 1 calc R U
H14B H 1.3120 0.1559 0.4712 0.078 Uiso 1 1 calc R U
H14C H 1.2212 0.0571 0.5282 0.078 Uiso 1 1 calc R U
C15 C 0.8885(10) 0.2345(6) 0.5155(5) 0.0405(16) Uani 1 1 d . .
C16 C 0.7484(11) 0.2995(7) 0.5740(6) 0.057(2) Uani 1 1 d . .
H16A H 0.6325 0.3116 0.5250 0.085 Uiso 1 1 calc R U
H16B H 0.8061 0.3677 0.5961 0.085 Uiso 1 1 calc R U
H16C H 0.7165 0.2611 0.6387 0.085 Uiso 1 1 calc R U
C17 C 0.9266(12) 0.2943(8) 0.4108(6) 0.069(3) Uani 1 1 d . .
H17A H 0.8068 0.3037 0.3644 0.104 Uiso 1 1 calc R U
H17B H 1.0155 0.2535 0.3713 0.104 Uiso 1 1 calc R U
H17C H 0.9818 0.3637 0.4301 0.104 Uiso 1 1 calc R U
C18 C 0.8037(12) 0.1259(7) 0.4852(7) 0.061(2) Uani 1 1 d . .
H18A H 0.7800 0.0878 0.5516 0.091 Uiso 1 1 calc R U
H18B H 0.8930 0.0855 0.4457 0.091 Uiso 1 1 calc R U
H18C H 0.6837 0.1348 0.4389 0.091 Uiso 1 1 calc R U
N1 N 0.9211(7) 0.1005(4) 0.9194(4) 0.0299(11) Uani 1 1 d . .
O1 O 0.8446(7) 0.1709(4) 1.1007(4) 0.0476(12) Uani 1 1 d . .
O2 O 1.1426(6) 0.2206(3) 1.0252(4) 0.0434(11) Uani 1 1 d . .
O3 O 0.5965(7) 0.0805(4) 0.9162(4) 0.0427(11) Uani 1 1 d . .
O4 O 1.0539(6) 0.1650(3) 0.7173(3) 0.0353(10) Uani 1 1 d . .
Si1 Si 1.1177(2) 0.21689(13) 0.60400(14) 0.0324(4) Uani 1 1 d . .
S1 S 0.9438(2) 0.19955(12) 1.00950(12) 0.0357(4) Uani 1 1 d . .
Br1 Br 0.59979(11) -0.09472(6) 0.72930(7) 0.0658(3) Uani 1 1 d . .
loop_
_atom_site_aniso_label
_atom_site_aniso_U_11
_atom_site_aniso_U_22
_atom_site_aniso_U_33
_atom_site_aniso_U_23
_atom_site_aniso_U_13
_atom_site_aniso_U_12
C1 0.037(4) 0.024(3) 0.032(3) -0.007(3) -0.003(3) 0.001(3)
C2 0.037(4) 0.037(4) 0.039(4) -0.011(3) 0.001(3) 0.003(3)
C3 0.030(3) 0.049(4) 0.045(4) -0.009(4) -0.006(3) 0.013(4)
C4 0.051(4) 0.032(4) 0.035(4) -0.010(3) -0.012(3) 0.011(3)
C5 0.053(5) 0.029(3) 0.033(4) -0.001(3) -0.002(3) 0.005(3)
C6 0.039(4) 0.033(4) 0.045(4) -0.012(3) 0.001(3) 0.004(3)
C7 0.071(6) 0.047(5) 0.054(5) -0.001(4) -0.016(4) 0.025(4)
C8 0.039(4) 0.028(3) 0.032(4) 0.007(3) -0.004(3) 0.002(3)
C9 0.043(4) 0.033(4) 0.035(4) 0.001(2) -0.013(3) -0.002(3)
C10 0.044(4) 0.024(3) 0.036(4) -0.001(3) -0.002(3) 0.002(3)
C11 0.032(4) 0.027(3) 0.032(3) 0.001(2) -0.007(3) 0.011(2)
C12 0.031(3) 0.038(4) 0.034(4) 0.006(3) -0.002(3) 0.005(3)
C13 0.037(4) 0.043(4) 0.067(5) 0.002(4) 0.001(4) -0.008(3)
C14 0.046(5) 0.056(5) 0.056(5) 0.001(4) 0.012(4) 0.007(4)
C15 0.036(4) 0.053(4) 0.031(3) 0.011(3) -0.002(3) 0.000(3)
C16 0.040(4) 0.071(6) 0.056(5) 0.006(4) -0.006(4) 0.014(4)
C17 0.060(6) 0.099(7) 0.048(5) 0.031(5) -0.003(4) -0.003(5)
C18 0.048(5) 0.069(6) 0.062(5) -0.010(4) -0.012(4) -0.017(4)
N1 0.032(3) 0.024(3) 0.031(3) -0.002(2) -0.004(2) 0.002(2)
O1 0.064(3) 0.051(3) 0.028(3) 0.002(2) 0.005(2) 0.013(3)
O2 0.039(3) 0.037(3) 0.050(3) -0.014(2) -0.017(2) 0.007(2)
O3 0.038(3) 0.042(3) 0.048(3) 0.000(2) 0.002(2) 0.001(2)
O4 0.028(2) 0.041(2) 0.036(3) 0.0115(18) -0.0011(18) 0.0044(19)
Si1 0.0288(9) 0.0324(10) 0.0356(9) 0.0042(7) 0.0013(7) -0.0008(7)
S1 0.0414(10) 0.0323(8) 0.0314(8) -0.0058(6) -0.0060(7) 0.0067(7)
Br1 0.0605(5) 0.0502(5) 0.0791(6) -0.0206(4) -0.0289(4) 0.0029(4)
loop_
_atom_type_symbol
_atom_type_description
_atom_type_scat_dispersion_real
_atom_type_scat_dispersion_imag
_atom_type_scat_source
C C 0.0033 0.0016 'International Tables Vol C Tables 4.2.6.8 and 6.1.1.4'
H H 0.0000 0.0000 'International Tables Vol C Tables 4.2.6.8 and 6.1.1.4'
N N 0.0061 0.0033 'International Tables Vol C Tables 4.2.6.8 and 6.1.1.4'
O O 0.0106 0.0060 'International Tables Vol C Tables 4.2.6.8 and 6.1.1.4'
Si Si 0.0817 0.0704 'International Tables Vol C Tables 4.2.6.8 and 6.1.1.4'
S S 0.1246 0.1234 'International Tables Vol C Tables 4.2.6.8 and 6.1.1.4'
Br Br -0.2901 2.4595 'International Tables Vol C Tables 4.2.6.8 and 6.1.1.4'
loop_
_geom_angle_atom_site_label_1
_geom_angle_atom_site_label_2
_geom_angle_atom_site_label_3
_geom_angle
C6 C1 C2 121.6(6)
C6 C1 S1 118.9(5)
C2 C1 S1 119.5(5)
C1 C2 C3 117.5(6)
C1 C2 H2 121.3
C3 C2 H2 121.3
C2 C3 C4 123.0(6)
C2 C3 H3 118.5
C4 C3 H3 118.5
C5 C4 C3 117.4(6)
C5 C4 C7 121.2(7)
C3 C4 C7 121.4(7)
C6 C5 C4 121.1(7)
C6 C5 H5 119.4
C4 C5 H5 119.4
C1 C6 C5 119.5(6)
C1 C6 H6 120.3
C5 C6 H6 120.3
C4 C7 H7A 109.5
C4 C7 H7B 109.5
H7A C7 H7B 109.5
C4 C7 H7C 109.5
H7A C7 H7C 109.5
H7B C7 H7C 109.5
O3 C8 N1 125.6(6)
O3 C8 C9 128.0(6)
N1 C8 C9 106.3(6)
C8 C9 C10 105.9(5)
C8 C9 Br1 111.5(5)
C10 C9 Br1 114.6(4)
C8 C9 H9 108.2
C10 C9 H9 108.2
Br1 C9 H9 108.2
C9 C10 C11 106.0(5)
C9 C10 H10A 110.5
C11 C10 H10A 110.5
C9 C10 H10B 110.5
C11 C10 H10B 110.5
H10A C10 H10B 108.7
N1 C11 C12 113.1(5)
N1 C11 C10 102.5(5)
C12 C11 C10 111.0(5)
N1 C11 H11 110.0
C12 C11 H11 110.0
C10 C11 H11 110.0
O4 C12 C11 109.2(5)
O4 C12 H12A 109.8
C11 C12 H12A 109.8
O4 C12 H12B 109.8
C11 C12 H12B 109.8
H12A C12 H12B 108.3
Si1 C13 H13A 109.5
Si1 C13 H13B 109.5
H13A C13 H13B 109.5
Si1 C13 H13C 109.5
H13A C13 H13C 109.5
H13B C13 H13C 109.5
Si1 C14 H14A 109.5
Si1 C14 H14B 109.5
H14A C14 H14B 109.5
Si1 C14 H14C 109.5
H14A C14 H14C 109.5
H14B C14 H14C 109.5
C16 C15 C18 110.0(6)
C16 C15 C17 108.1(6)
C18 C15 C17 109.4(7)
C16 C15 Si1 110.6(5)
C18 C15 Si1 109.3(5)
C17 C15 Si1 109.4(5)
C15 C16 H16A 109.5
C15 C16 H16B 109.5
H16A C16 H16B 109.5
C15 C16 H16C 109.5
H16A C16 H16C 109.5
H16B C16 H16C 109.5
C15 C17 H17A 109.5
C15 C17 H17B 109.5
H17A C17 H17B 109.5
C15 C17 H17C 109.5
H17A C17 H17C 109.5
H17B C17 H17C 109.5
C15 C18 H18A 109.5
C15 C18 H18B 109.5
H18A C18 H18B 109.5
C15 C18 H18C 109.5
H18A C18 H18C 109.5
H18B C18 H18C 109.5
C8 N1 C11 114.8(5)
C8 N1 S1 121.5(4)
C11 N1 S1 123.1(4)
C12 O4 Si1 123.0(4)
O4 Si1 C14 110.4(3)
O4 Si1 C13 109.5(3)
C14 Si1 C13 109.0(3)
O4 Si1 C15 104.3(3)
C14 Si1 C15 111.6(3)
C13 Si1 C15 112.0(3)
O2 S1 O1 119.7(3)
O2 S1 N1 104.9(3)
O1 S1 N1 108.2(3)
O2 S1 C1 109.0(3)
O1 S1 C1 109.0(3)
N1 S1 C1 105.1(3)
loop_
_geom_bond_atom_site_label_1
_geom_bond_atom_site_label_2
_geom_bond_distance
C1 C6 1.380(9)
C1 C2 1.382(9)
C1 S1 1.760(6)
C2 C3 1.382(10)
C2 H2 0.9500
C3 C4 1.392(10)
C3 H3 0.9500
C4 C5 1.387(10)
C4 C7 1.501(10)
C5 C6 1.381(9)
C5 H5 0.9500
C6 H6 0.9500
C7 H7A 0.9800
C7 H7B 0.9800
C7 H7C 0.9800
C8 O3 1.206(8)
C8 N1 1.384(8)
C8 C9 1.508(9)
C9 C10 1.521(9)
C9 Br1 1.932(6)
C9 H9 1.0000
C10 C11 1.542(9)
C10 H10A 0.9900
C10 H10B 0.9900
C11 N1 1.490(8)
C11 C12 1.515(9)
C11 H11 1.0000
C12 O4 1.428(7)
C12 H12A 0.9900
C12 H12B 0.9900
C13 Si1 1.868(7)
C13 H13A 0.9800
C13 H13B 0.9800
C13 H13C 0.9800
C14 Si1 1.859(7)
C14 H14A 0.9800
C14 H14B 0.9800
C14 H14C 0.9800
C15 C16 1.525(10)
C15 C18 1.529(10)
C15 C17 1.545(10)
C15 Si1 1.874(7)
C16 H16A 0.9800
C16 H16B 0.9800
C16 H16C 0.9800
C17 H17A 0.9800
C17 H17B 0.9800
C17 H17C 0.9800
C18 H18A 0.9800
C18 H18B 0.9800
C18 H18C 0.9800
N1 S1 1.672(5)
O1 S1 1.433(5)
O2 S1 1.424(5)
O4 Si1 1.649(4)
loop_
_geom_torsion_atom_site_label_1
_geom_torsion_atom_site_label_2
_geom_torsion_atom_site_label_3
_geom_torsion_atom_site_label_4
_geom_torsion
C6 C1 C2 C3 0.8(9)
S1 C1 C2 C3 178.2(5)
C1 C2 C3 C4 -0.5(10)
C2 C3 C4 C5 -0.2(10)
C2 C3 C4 C7 -178.5(6)
C3 C4 C5 C6 0.8(9)
C7 C4 C5 C6 179.1(6)
C2 C1 C6 C5 -0.2(9)
S1 C1 C6 C5 -177.6(5)
C4 C5 C6 C1 -0.6(9)
O3 C8 C9 C10 164.8(6)
N1 C8 C9 C10 -19.2(6)
O3 C8 C9 Br1 39.5(8)
N1 C8 C9 Br1 -144.6(4)
C8 C9 C10 C11 21.2(6)
Br1 C9 C10 C11 144.6(4)
C9 C10 C11 N1 -15.0(6)
C9 C10 C11 C12 -136.0(5)
N1 C11 C12 O4 -56.2(7)
C10 C11 C12 O4 58.4(7)
O3 C8 N1 C11 -173.9(6)
C9 C8 N1 C11 10.0(7)
O3 C8 N1 S1 14.7(8)
C9 C8 N1 S1 -161.4(4)
C12 C11 N1 C8 122.8(6)
C10 C11 N1 C8 3.2(6)
C12 C11 N1 S1 -66.0(6)
C10 C11 N1 S1 174.5(4)
C11 C12 O4 Si1 -160.3(4)
C12 O4 Si1 C14 50.9(6)
C12 O4 Si1 C13 -69.1(5)
C12 O4 Si1 C15 171.0(5)
C16 C15 Si1 O4 54.9(5)
C18 C15 Si1 O4 -66.4(6)
C17 C15 Si1 O4 173.8(6)
C16 C15 Si1 C14 174.0(5)
C18 C15 Si1 C14 52.7(6)
C17 C15 Si1 C14 -67.0(6)
C16 C15 Si1 C13 -63.5(6)
C18 C15 Si1 C13 175.2(5)
C17 C15 Si1 C13 55.5(7)
C8 N1 S1 O2 171.6(5)
C11 N1 S1 O2 1.0(5)
C8 N1 S1 O1 42.8(5)
C11 N1 S1 O1 -127.9(5)
C8 N1 S1 C1 -73.6(5)
C11 N1 S1 C1 115.8(5)
C6 C1 S1 O2 22.7(6)
C2 C1 S1 O2 -154.8(5)
C6 C1 S1 O1 155.0(5)
C2 C1 S1 O1 -22.5(6)
C6 C1 S1 N1 -89.3(5)
C2 C1 S1 N1 93.2(5)
