#------------------------------------------------------------------------------
#$Date: 2016-02-18 17:37:37 +0200 (Thu, 18 Feb 2016) $
#$Revision: 176729 $
#$URL: svn://www.crystallography.net/cod/cif/1/51/87/1518717.cif $
#------------------------------------------------------------------------------
#
# This file is available in the Crystallography Open Database (COD),
# http://www.crystallography.net/
#
# All data on this site have been placed in the public domain by the
# contributors.
#
data_1518717
loop_
_publ_author_name
'Carrillo, Josu\'e Ayuso'
'Ingleson, Michael J.'
'Turner, Michael L.'
_publ_section_title
;
 Thienyl MIDA Boronate Esters as Highly Effective Monomers for
 Suzuki--Miyaura Polymerization Reactions
;
_journal_issue                   4
_journal_name_full               Macromolecules
_journal_page_first              979
_journal_paper_doi               10.1021/ma502542g
_journal_volume                  48
_journal_year                    2015
_chemical_formula_moiety         'C15 H21 B Br N O4 S, C3 H6 O'
_chemical_formula_sum            'C18 H27 B Br N O5 S'
_chemical_formula_weight         460.18
_chemical_name_systematic
;
 ?
;
_space_group_crystal_system      triclinic
_space_group_IT_number           2
_space_group_name_Hall           '-P 1'
_space_group_name_H-M_alt        'P -1'
_symmetry_space_group_name_Hall  '-P 1'
_symmetry_space_group_name_H-M   'P -1'
_atom_sites_solution_hydrogens   geom
_atom_sites_solution_primary     iterative
_audit_creation_date             2014-10-22
_audit_creation_method
;
Olex2 1.2
(compiled 2014.09.19 svn.r3010 for OlexSys, GUI svn.r4874)
;
_cell_angle_alpha                90.88(3)
_cell_angle_beta                 99.38(3)
_cell_angle_gamma                91.32(3)
_cell_formula_units_Z            4
_cell_length_a                   9.4830(19)
_cell_length_b                   13.115(3)
_cell_length_c                   17.336(4)
_cell_measurement_reflns_used    4108
_cell_measurement_temperature    150.02(10)
_cell_measurement_theta_max      28.0710
_cell_measurement_theta_min      3.4800
_cell_volume                     2126.3(8)
_computing_cell_refinement
;
CrysAlisPro, Agilent Technologies,
Version 1.171.36.24 (release 03-12-2012 CrysAlis171 .NET)
(compiled Dec  3 2012,18:21:49)
;
_computing_data_collection
;
CrysAlisPro, Agilent Technologies,
Version 1.171.36.24 (release 03-12-2012 CrysAlis171 .NET)
(compiled Dec  3 2012,18:21:49)
;
_computing_data_reduction
;
CrysAlisPro, Agilent Technologies,
Version 1.171.36.24 (release 03-12-2012 CrysAlis171 .NET)
(compiled Dec  3 2012,18:21:49)
;
_computing_molecular_graphics    'Olex2 (Dolomanov et al., 2009)'
_computing_publication_material  'Olex2 (Dolomanov et al., 2009)'
_computing_structure_refinement  'ShelXL (Sheldrick, 2008)'
_computing_structure_solution    'olex2.solve (Bourhis et al., 2013)'
_diffrn_ambient_temperature      150.02(10)
_diffrn_detector_area_resol_mean 8.0714
_diffrn_measured_fraction_theta_full 0.896
_diffrn_measured_fraction_theta_max 0.994
_diffrn_measurement_details
;
  1 omega  -12.00   93.00   1.0000   15.0000
omega____ theta____ kappa____ phi______ frames
    -       21.3360   77.0000  120.0000 105

  2 omega  -12.00   93.00   1.0000   15.0000
omega____ theta____ kappa____ phi______ frames
    -       21.3360   77.0000 -120.0000 105

  3 omega  -12.00   93.00   1.0000   15.0000
omega____ theta____ kappa____ phi______ frames
    -       21.3360   77.0000    0.0000 105
;
_diffrn_measurement_device_type  'SuperNova, Single source at offset), Eos'
_diffrn_measurement_method       '\w scans'
_diffrn_orient_matrix_UB_11      0.0725324000
_diffrn_orient_matrix_UB_12      0.0042368000
_diffrn_orient_matrix_UB_13      -0.0052272000
_diffrn_orient_matrix_UB_21      0.0211702000
_diffrn_orient_matrix_UB_22      0.0068878000
_diffrn_orient_matrix_UB_23      0.0409461000
_diffrn_orient_matrix_UB_31      0.0064797000
_diffrn_orient_matrix_UB_32      -0.0535012000
_diffrn_orient_matrix_UB_33      0.0040467000
_diffrn_radiation_monochromator  mirror
_diffrn_radiation_type           MoK\a
_diffrn_radiation_wavelength     0.71073
_diffrn_reflns_av_R_equivalents  0.0768
_diffrn_reflns_av_unetI/netI     0.1253
_diffrn_reflns_Laue_measured_fraction_full 0.896
_diffrn_reflns_Laue_measured_fraction_max 0.994
_diffrn_reflns_limit_h_max       10
_diffrn_reflns_limit_h_min       -11
_diffrn_reflns_limit_k_max       15
_diffrn_reflns_limit_k_min       -6
_diffrn_reflns_limit_l_max       20
_diffrn_reflns_limit_l_min       -20
_diffrn_reflns_number            10504
_diffrn_reflns_point_group_measured_fraction_full 0.896
_diffrn_reflns_point_group_measured_fraction_max 0.994
_diffrn_reflns_theta_full        26.000
_diffrn_reflns_theta_max         25.027
_diffrn_reflns_theta_min         3.110
_diffrn_source                   'SuperNova (Mo) X-ray Source'
_exptl_absorpt_coefficient_mu    2.059
_exptl_absorpt_correction_T_max  1.00000
_exptl_absorpt_correction_T_min  0.62874
_exptl_absorpt_correction_type   multi-scan
_exptl_absorpt_process_details
;
CrysAlisPro, Agilent Technologies,
Version 1.171.36.24 (release 03-12-2012 CrysAlis171 .NET)
(compiled Dec  3 2012,18:21:49)
Empirical absorption correction using spherical harmonics,
 implemented in SCALE3 ABSPACK scaling algorithm.
;
_exptl_crystal_colour            colourless
_exptl_crystal_colour_primary    colourless
_exptl_crystal_density_diffrn    1.438
_exptl_crystal_description       block
_exptl_crystal_F_000             952
_exptl_crystal_size_max          0.3
_exptl_crystal_size_mid          0.3
_exptl_crystal_size_min          0.2
_refine_diff_density_max         1.913
_refine_diff_density_min         -0.774
_refine_diff_density_rms         0.149
_refine_ls_extinction_method     none
_refine_ls_goodness_of_fit_ref   1.112
_refine_ls_hydrogen_treatment    constr
_refine_ls_matrix_type           full
_refine_ls_number_parameters     495
_refine_ls_number_reflns         7483
_refine_ls_number_restraints     0
_refine_ls_restrained_S_all      1.112
_refine_ls_R_factor_all          0.1290
_refine_ls_R_factor_gt           0.1028
_refine_ls_shift/su_max          0.000
_refine_ls_shift/su_mean         0.000
_refine_ls_structure_factor_coef Fsqd
_refine_ls_weighting_details
;
 w=1/[\s^2^(Fo^2^)+(0.0804P)^2^+19.9375P]
 where P=(Fo^2^+2Fc^2^)/3
;
_refine_ls_weighting_scheme      calc
_refine_ls_wR_factor_gt          0.2505
_refine_ls_wR_factor_ref         0.2668
_reflns_Friedel_coverage         0.000
_reflns_number_gt                5384
_reflns_number_total             7483
_reflns_threshold_expression     'I > 2\s(I)'
_cod_data_source_file            ma502542g_si_002.cif
_cod_data_source_block           amji170_refinalise
_cod_depositor_comments          'Adding full bibliography for 1518717.cif.'
_cod_database_code               1518717
#BEGIN Tags that were not found in dictionaries:
_shelxl_version_number           2013-2
_chemical_oxdiff_formula         'C16 H21 N1 O4 B1 Br1 S1'
_shelx_space_group_comment
;
The symmetry employed for this shelxl refinement is uniquely defined
by the following loop, which should always be used as a source of
symmetry information in preference to the above space-group names.
They are only intended as comments.
;
_reflns_odcompleteness_completeness 98.87
_reflns_odcompleteness_iscentric 1
_reflns_odcompleteness_theta     26.32
_olex2_refinement_description
;
1. Fixed Uiso
 At 1.2 times of:
  All C(H) groups, All C(H,H) groups
 At 1.5 times of:
  All C(H,H,H) groups
2.a Secondary CH2 refined with riding coordinates:
 C20(H20A,H20B), C21(H21A,H21B), C22(H22A,H22B), C23(H23A,H23B), C24(H24A,
 H24B), C29(H29A,H29B), C35(H35A,H35B), C36(H36A,H36B), C41(H41A,H41B),
 C42(H42A,H42B), C45(H45A,H45B), C46(H46A,H46B), C49(H49A,H49B), C54(H54A,H54B)
2.b Aromatic/amide H refined with riding coordinates:
 C19(H19), C44(H44)
2.c Idealised Me refined as rotating group:
 C28(H28A,H28B,H28C), C30(H30A,H30B,H30C), C32(H32A,H32B,H32C), C43(H43A,H43B,
 H43C), C47(H47A,H47B,H47C), C52(H52A,H52B,H52C), C1(H1A,H1B,H1C), C2(H2A,H2B,
 H2C)
;
_shelx_res_file
;
TITL
CELL 0.71073 9.483 13.1147 17.3363 90.877 99.379 91.324
ZERR 4 0.0019 0.0026 0.0035 0.03 0.03 0.03
LATT 1

SFAC C H B Br N O S
UNIT 72 108 4 4 4 20 4

L.S. 40 0 0
PLAN  40
TEMP -123.15
MORE -1
BOND $H
CONF
fmap 2 53
ACTA 52
SHEL 100 0.84
OMIT -2 1 5
OMIT -1 -4 3
OMIT -1 -3 3
OMIT -1 -5 2
OMIT 0 -4 2
REM <HKL>C:/Crystallography/Data/amji170/amji170_refinalise.hkl</HKL>

WGHT    0.080400   19.937500
FVAR       0.13342
BR1   4    0.054194    0.166403    0.932807    11.00000    0.03365    0.03608 =
         0.03918   -0.01169    0.01807   -0.00380
BR2   4    0.695161    0.682558    0.934876    11.00000    0.02618    0.04350 =
         0.03891   -0.00804   -0.00620   -0.00245
S3    7    0.471891    0.705451    0.785538    11.00000    0.02280    0.02838 =
         0.03471   -0.00656    0.00073   -0.00167
S4    7    0.220690    0.201047    0.794388    11.00000    0.02675    0.02536 =
         0.03584   -0.00620    0.01114   -0.00074
O5    6    0.470457    0.040782    0.668589    11.00000    0.02380    0.02661 =
         0.03589   -0.00051    0.01071    0.00559
O6    6    0.130894    0.543060    0.665045    11.00000    0.01885    0.03911 =
         0.03812   -0.00621    0.00432   -0.00469
O7    6    0.486387    0.354483    0.609522    11.00000    0.03444    0.02335 =
         0.03989    0.00086    0.01111   -0.00425
O8    6    0.091406    0.848991    0.597773    11.00000    0.02859    0.02349 =
         0.04956   -0.00222   -0.00249    0.00200
O9    6    0.438564    0.224125    0.683143    11.00000    0.02286    0.02852 =
         0.03060   -0.00643    0.00493   -0.00154
N10   5    0.278788    0.621183    0.581402    11.00000    0.02529    0.02283 =
         0.02387   -0.00239    0.00247   -0.00338
N11   5    0.282676    0.124579    0.584913    11.00000    0.01804    0.02241 =
         0.02770   -0.00112    0.00410    0.00213
O12   6    0.048298    0.408372    0.590768    11.00000    0.04192    0.03422 =
         0.05018   -0.00116   -0.00424   -0.01659
O13   6    0.183933    0.725395    0.675907    11.00000    0.02449    0.02956 =
         0.02778   -0.00211    0.00243    0.00203
O14   6   -0.279794    0.148792    0.589368    11.00000    0.05371    0.04819 =
         0.04075   -0.00128    0.01230   -0.00344
O15   6   -0.185307   -0.350776    0.587374    11.00000    0.07602    0.04592 =
         0.03531   -0.00064   -0.00135    0.01141
C16   1    0.125181    0.483125    0.602896    11.00000    0.03442    0.01775 =
         0.03687    0.00570   -0.00780   -0.00157
O17   6    0.501478   -0.091466    0.591337    11.00000    0.05019    0.02911 =
         0.05501   -0.00330    0.02199    0.01328
C18   1    0.146042    0.767601    0.607359    11.00000    0.01938    0.02879 =
         0.03384   -0.00191   -0.00297   -0.00227
C19   1    0.239597    0.012147    0.771257    11.00000    0.03169    0.02431 =
         0.03107   -0.00654    0.00653    0.00463
AFIX  43
H19   2    0.262456   -0.051647    0.750390    11.00000   -1.20000
AFIX   0

C20   1    0.233639    0.517441    0.552449    11.00000    0.03147    0.02505 =
         0.03227   -0.00292    0.00145    0.00025
AFIX  23
H20A  2    0.316086    0.471635    0.558441    11.00000   -1.20000
H20B  2    0.189581    0.518114    0.496618    11.00000   -1.20000
AFIX   0

C21   1    0.305100    0.021544    0.553082    11.00000    0.02955    0.01931 =
         0.03613   -0.00816    0.00759   -0.00552
AFIX  23
H21A  2    0.320914    0.025344    0.498133    11.00000   -1.20000
H21B  2    0.221474   -0.024240    0.555391    11.00000   -1.20000
AFIX   0
C22   1    0.138698   -0.361925    0.879398    11.00000    0.03935    0.04171 =
         0.04567   -0.00743    0.01456    0.00428
AFIX  23
H22A  2    0.112186   -0.369946    0.821951    11.00000   -1.20000
H22B  2    0.243803   -0.367458    0.892389    11.00000   -1.20000
AFIX   0
C23   1    0.098453   -0.255612    0.903264    11.00000    0.04203    0.03418 =
         0.03552   -0.00303    0.01861   -0.00709
AFIX  23
H23A  2   -0.006966   -0.251032    0.892534    11.00000   -1.20000
H23B  2    0.129126   -0.246306    0.960360    11.00000   -1.20000
AFIX   0
C24   1    0.360684    0.206491    0.549449    11.00000    0.02895    0.02443 =
         0.03266    0.00245    0.01210   -0.00344
AFIX  23
H24A  2    0.293071    0.247635    0.513863    11.00000   -1.20000
H24B  2    0.430526    0.176817    0.519379    11.00000   -1.20000
AFIX   0
C25   1    0.162761    0.019303    0.834869    11.00000    0.02108    0.02596 =
         0.03423    0.00287    0.00954   -0.00114
C26   1    0.147261    0.117985    0.853139    11.00000    0.01811    0.03563 =
         0.02859   -0.00651    0.00647   -0.00086
C27   1    0.278228    0.102034    0.742218    11.00000    0.01911    0.02653 =
         0.02854   -0.00625    0.00602    0.00156

C28   1    0.430394    0.645332    0.575638    11.00000    0.02826    0.04423 =
         0.03175   -0.00226    0.01339   -0.00791
AFIX 137
H28A  2    0.443252    0.641523    0.520722    11.00000   -1.50000
H28B  2    0.492077    0.596096    0.605784    11.00000   -1.50000
H28C  2    0.455931    0.714318    0.596602    11.00000   -1.50000
AFIX   0
C29   1    0.184245    0.701190    0.542379    11.00000    0.03464    0.02048 =
         0.03177   -0.00274    0.00155   -0.00047
AFIX  23
H29A  2    0.097052    0.669608    0.511124    11.00000   -1.20000
H29B  2    0.235039    0.741931    0.507331    11.00000   -1.20000
AFIX   0

C30   1    0.126563    0.146663    0.577455    11.00000    0.02326    0.04095 =
         0.03811   -0.00283    0.00184    0.00429
AFIX 137
H30A  2    0.082516    0.142128    0.522262    11.00000   -1.50000
H30B  2    0.115221    0.215487    0.598010    11.00000   -1.50000
H30C  2    0.079977    0.096798    0.607222    11.00000   -1.50000
AFIX   0

C31   1   -0.219402    0.149707    0.657696    11.00000    0.02177    0.04329 =
         0.04362   -0.00306    0.01592   -0.00271
C32   1    0.628514   -0.034034    0.892385    11.00000    0.07650    0.04602 =
         0.08507   -0.00150    0.01148    0.01199
AFIX 137
H32A  2    0.575097   -0.090244    0.911878    11.00000   -1.50000
H32B  2    0.731303   -0.044469    0.907177    11.00000   -1.50000
H32C  2    0.604046   -0.032037    0.835293    11.00000   -1.50000
AFIX   0
C33   1    0.558188    0.627796    0.854986    11.00000    0.01837    0.03211 =
         0.03935   -0.00859    0.00209   -0.00151

C34   1    0.435488    0.270824    0.616122    11.00000    0.02359    0.02154 =
         0.03797   -0.00502    0.00777    0.00304
C35   1    0.586285    0.254498    0.920631    11.00000    0.05155    0.05387 =
         0.04474   -0.00897    0.01070   -0.01046
AFIX  23
H35A  2    0.651708    0.266696    0.970720    11.00000   -1.20000
H35B  2    0.488126    0.246397    0.932619    11.00000   -1.20000
AFIX   0

C36   1    0.163126   -0.168827    0.862048    11.00000    0.03516    0.02445 =
         0.04434    0.00593    0.01554   -0.00043
AFIX  23
H36A  2    0.267828   -0.165999    0.879767    11.00000   -1.20000
H36B  2    0.146055   -0.183778    0.805093    11.00000   -1.20000
AFIX   0

C37   1    0.368710    0.605496    0.739955    11.00000    0.02207    0.02739 =
         0.03183   -0.00725    0.00029   -0.00380
C38   1   -0.190485   -0.346077    0.656854    11.00000    0.02113    0.03957 =
         0.04319    0.00731    0.00170    0.00366
C39   1    0.437192   -0.016267    0.605256    11.00000    0.03404    0.02517 =
         0.03918    0.00165    0.01115   -0.00254
C40   1    0.511102    0.529825    0.847593    11.00000    0.03551    0.02822 =
         0.03787    0.00042   -0.00771    0.00730
C41   1    0.104493   -0.066879    0.876285    11.00000    0.03767    0.03875 =
         0.05248   -0.00114    0.02082    0.00494
AFIX  23
H41A  2   -0.000588   -0.070745    0.860167    11.00000   -1.20000
H41B  2    0.123956   -0.051512    0.933170    11.00000   -1.20000
AFIX   0
C42   1    0.070252   -0.447873    0.917031    11.00000    0.04156    0.04866 =
         0.05797   -0.00200    0.02290    0.00338
AFIX  23
H42A  2    0.108434   -0.446687    0.973708    11.00000   -1.20000
H42B  2   -0.033946   -0.437148    0.910899    11.00000   -1.20000
AFIX   0
C43   1    0.094779   -0.550280    0.883529    11.00000    0.05720    0.03418 =
         0.06263    0.00561    0.00737    0.00624
AFIX 137
H43A  2    0.053071   -0.553304    0.827947    11.00000   -1.50000
H43B  2    0.049626   -0.603180    0.911314    11.00000   -1.50000
H43C  2    0.197738   -0.561564    0.889340    11.00000   -1.50000
AFIX   0

C44   1    0.401105    0.518398    0.779282    11.00000    0.02899    0.02763 =
         0.03345   -0.01010   -0.00625   -0.00467
AFIX  43
H44   2    0.355148    0.454656    0.763261    11.00000   -1.20000
AFIX   0
C45   1    0.592767    0.347598    0.869574    11.00000    0.04801    0.04140 =
         0.03836   -0.00225    0.00696    0.00640
AFIX  23
H45A  2    0.692018    0.357705    0.859705    11.00000   -1.20000
H45B  2    0.530908    0.334121    0.818514    11.00000   -1.20000
AFIX   0
C46   1    0.546343    0.444569    0.905117    11.00000    0.07560    0.03140 =
         0.04669    0.00515   -0.00913    0.00086
AFIX  23
H46A  2    0.623578    0.468994    0.947245    11.00000   -1.20000
H46B  2    0.461013    0.428757    0.929356    11.00000   -1.20000
AFIX   0

C47   1   -0.210403   -0.441382    0.702473    11.00000    0.05006    0.05550 =
         0.06888    0.01304    0.02875    0.00965
AFIX 137
H47A  2   -0.123100   -0.452916    0.739754    11.00000   -1.50000
H47B  2   -0.230252   -0.500033    0.666301    11.00000   -1.50000
H47C  2   -0.290752   -0.432897    0.730898    11.00000   -1.50000
AFIX   0

B48   3    0.242922    0.625216    0.670790    11.00000    0.01682    0.02864 =
         0.02910   -0.00339    0.00759   -0.00087
C49   1    0.589767    0.066544    0.927870    11.00000    0.07812    0.03391 =
         0.06136    0.00536    0.00995    0.00721
AFIX  23
H49A  2    0.485924    0.065120    0.929651    11.00000   -1.20000
H49B  2    0.640802    0.072830    0.982358    11.00000   -1.20000
AFIX   0

C52   1   -0.177916    0.055315    0.699145    11.00000    0.03325    0.05152 =
         0.08150    0.00091    0.00289    0.00664
AFIX 137
H52A  2   -0.199704   -0.003200    0.662982    11.00000   -1.50000
H52B  2   -0.231221    0.047695    0.742713    11.00000   -1.50000
H52C  2   -0.075169    0.058528    0.719373    11.00000   -1.50000
AFIX   0

B53   3    0.368611    0.123315    0.675420    11.00000    0.01683    0.02747 =
         0.03072   -0.00562    0.00379    0.00275
C54   1    0.625413    0.158067    0.884217    11.00000    0.03868    0.04327 =
         0.06244    0.01159    0.00837    0.00633
AFIX  23
H54A  2    0.729260    0.160070    0.882446    11.00000   -1.20000
H54B  2    0.574089    0.152454    0.829759    11.00000   -1.20000
AFIX   0

C1    1   -0.186254    0.249094    0.700466    11.00000    0.03376    0.05933 =
         0.06654   -0.01193    0.00554   -0.00338
AFIX 137
H1A   2   -0.235416    0.303712    0.669737    11.00000   -1.50000
H1B   2   -0.082847    0.262934    0.708523    11.00000   -1.50000
H1C   2   -0.218711    0.245961    0.751251    11.00000   -1.50000
AFIX   0

C2    1   -0.176527   -0.247979    0.698569    11.00000    0.04231    0.06305 =
         0.06039   -0.01520    0.01901   -0.01615
AFIX 137
H2A   2   -0.269407   -0.215122    0.691365    11.00000   -1.50000
H2B   2   -0.106756   -0.204223    0.677966    11.00000   -1.50000
H2C   2   -0.144042   -0.258693    0.754398    11.00000   -1.50000
AFIX   0
HKLF 4

REM
REM R1 =  0.1028 for    5384 Fo > 4sig(Fo)  and  0.1290 for all    7483 data
REM    495 parameters refined using      0 restraints

END

WGHT      0.0806     19.8905

REM Highest difference peak  1.913,  deepest hole -0.774,  1-sigma level  0.149
Q1    1   0.1023 -0.3637  0.9373  11.00000  0.05    1.91
Q2    1   0.4666  0.1218  0.9358  11.00000  0.05    1.88
Q3    1   0.7085  0.2643  1.0615  11.00000  0.05    1.68
Q4    1   0.6576  0.2145  0.9380  11.00000  0.05    1.55
Q5    1  -0.1306 -0.1769  0.7984  11.00000  0.05    0.88
Q6    1   0.1150 -0.0186  0.9336  11.00000  0.05    0.81
Q7    1   0.0713  0.0833  0.9423  11.00000  0.05    0.80
Q8    1   0.2266  0.3039  0.8013  11.00000  0.05    0.79
Q9    1   0.4720  0.4682  0.9374  11.00000  0.05    0.74
Q10   1   0.0487  0.2414  0.9122  11.00000  0.05    0.74
Q11   1   0.4501 -0.1234  0.8015  11.00000  0.05    0.70
Q12   1   0.7042  0.6037  0.9371  11.00000  0.05    0.69
Q13   1   0.7220  0.7674  0.9215  11.00000  0.05    0.68
Q14   1   0.1413 -0.4035  1.0733  11.00000  0.05    0.65
Q15   1   0.0119  0.0227  0.9377  11.00000  0.05    0.63
Q16   1  -0.3438  0.2583  0.8017  11.00000  0.05    0.60
Q17   1   0.4331  0.6409  0.7930  11.00000  0.05    0.59
Q18   1   0.8231  0.3604  0.8013  11.00000  0.05    0.59
Q19   1   0.7169  0.0359  0.9359  11.00000  0.05    0.58
Q20   1   0.0838 -0.4778  0.9363  11.00000  0.05    0.57
Q21   1   0.0071  0.1857  0.8793  11.00000  0.05    0.57
Q22   1   0.3739  0.2837  0.6565  11.00000  0.05    0.56
Q23   1   0.6354  0.1562  0.7991  11.00000  0.05    0.56
Q24   1  -0.0275 -0.6992  0.8671  11.00000  0.05    0.52
Q25   1   0.1719  0.1952  0.8464  11.00000  0.05    0.52
Q26   1  -0.1353 -0.3394  0.7933  11.00000  0.05    0.51
Q27   1   0.2728  0.5687  0.5792  11.00000  0.05    0.51
Q28   1   0.0609 -0.2586  0.7836  11.00000  0.05    0.50
Q29   1  -0.2815  0.2216  0.5790  11.00000  0.05    0.50
Q30   1  -0.3462  0.2323  0.5668  11.00000  0.05    0.49
Q31   1  -0.2966 -0.4798  0.5819  11.00000  0.05    0.48
Q32   1   0.2056  0.4871  0.7792  11.00000  0.05    0.48
Q33   1   0.0980  0.1651  1.0038  11.00000  0.05    0.48
Q34   1   0.3128  0.2065  0.7328  11.00000  0.05    0.47
Q35   1   0.6331  0.4384  0.8804  11.00000  0.05    0.46
Q36   1   0.5175  0.5775  0.8637  11.00000  0.05    0.46
Q37   1  -0.1899 -0.2827  0.8374  11.00000  0.05    0.45
Q38   1   0.1944 -0.1227  0.9265  11.00000  0.05    0.45
Q39   1   0.7222  0.6794  0.9981  11.00000  0.05    0.44
Q40   1   0.5393  0.6855  0.9047  11.00000  0.05    0.44
;
_shelx_res_checksum              57004
_shelx_hkl_file
;
   0   0  -3   18.16    1.35
   0   0   3   19.55    1.51
   0   0  -4  629.92    9.05
   0   0   4  613.78    9.03
   0   0   5   24.46    2.17
   0   0   5   24.53    2.02
   0   0   6  563.51   10.60
   0   0  -6  684.87   13.13
   0   0   7   51.42    3.54
   0   0  -7   63.48    4.24
   0   0   8  321.57    9.31
   0   0  -8  383.89   11.17
   0   0   9    2.22    0.83
   0   0  -9    3.60    1.18
   0   0 -10    8.16    1.76
   0   0  10    7.25    1.59
   0   0 -11  178.10    8.59
   0   0  11  158.64    7.68
   0   0 -12   34.26    3.98
   0   0  12   34.15    3.75
   0   0 -13   39.07    4.33
   0   0  13   36.49    4.09
   0   0 -14   50.92    5.10
   0   0  14   47.06    4.82
   0   0  15  153.62    9.07
   0   0 -15  167.93    9.47
   0   0  16    7.22    2.20
   0   0 -16    6.22    1.75
   0   0 -17    2.25    1.04
   0   0 -18   10.72    2.51
   0   0 -19    1.80    0.83
   0   0 -20    0.83    0.96
   0   1 -21   -0.41    0.45
   0   1 -20    0.27    0.50
   0   1 -19    0.60    0.84
   0   1 -18   -0.43    0.35
   0   1 -17    5.14    2.02
   0   1 -16    2.60    1.11
   0   1 -15    1.61    1.05
   0   1 -14    2.55    1.37
   0   1 -13    0.72    0.71
   0   1 -12    2.10    1.12
   0  -1  11    1.43    0.79
   0  -1  11    0.80    0.32
   0   1 -11    0.86    0.52
   0  -1  10    5.10    0.78
   0  -1  10    5.43    1.40
   0  -1   9    1.19    0.37
   0  -1   9    1.11    0.73
   0  -1   8    1.65    0.68
   0   1  -8    3.20    1.11
   0  -1   8    1.76    0.40
   0  -1   7    0.24    0.15
   0  -1   7   -0.03    0.22
   0   1  -7    0.53    0.44
   0   1  -6    0.58    0.47
   0  -1   6    0.34    0.15
   0  -1   6    0.23    0.27
   0   1  -5    0.50    0.35
   0  -1   5    0.60    0.30
   0  -1   5    0.61    0.16
   0   1  -4    1.17    0.47
   0   1  -4    0.28    0.24
   0  -1   4    0.37    0.11
   0  -1   4    1.05    0.49
   0   1  -3    0.25    0.21
   0   1  -3    0.04    0.12
   0  -1   3    0.18    0.21
   0   1   3    0.09    0.08
   0  -1  -3    0.13    0.16
   0  -1  -3    0.18    0.12
   0   1   3    0.34    0.22
   0   1   4    1.68    0.43
   0  -1  -4    1.51    0.41
   0   1   4    1.54    0.54
   0  -1  -4    2.16    0.57
   0   1   5    0.12    0.16
   0  -1  -5    0.07    0.13
   0   1   5    0.07    0.06
   0   1   6    0.64    0.38
   0  -1  -6    0.43    0.29
   0   1   6    0.78    0.50
   0   1   7    0.59    0.39
   0  -1  -7    0.80    0.45
   0   1   8    2.22    0.80
   0  -1  -8    2.56    0.87
   0   1   9    9.43    1.67
   0  -1  -9    6.00    1.36
   0   1  10    7.65    1.67
   0  -1 -10    8.49    1.69
   0  -1 -11    1.19    0.64
   0   1  11   -0.16    0.44
   0  -1 -12    2.20    0.95
   0   1  12    3.88    1.27
   0   1  13    0.25    0.49
   0  -1 -13    0.29    0.55
   0   1  14    0.45    0.48
   0  -1 -14    1.66    0.80
   0  -1 -15    0.55    0.80
   0   1  15    0.00    0.36
   0  -1 -16    2.24    1.03
   0   1  16    4.11    1.61
   0   1  17    6.47    2.01
   0  -1 -17    4.70    1.53
   0   1  18   -0.13    0.39
   0  -1 -18   -0.09    0.52
   0  -1 -19    0.24    0.42
   0   2 -21    5.35    2.12
   0   2 -20   22.94    4.28
   0   2 -19   14.97    3.44
   0   2 -18    2.06    1.15
   0   2 -17    6.21    2.22
   0   2 -16   18.15    3.54
   0   2 -15   43.41    5.36
   0   2 -14   47.30    5.66
   0   2 -13   39.57    4.96
   0  -2  12   42.59    2.24
   0   2 -12   53.34    5.42
   0  -2  11  124.26    3.65
   0   2 -11  187.87   10.00
   0   2 -10    6.57    2.12
   0  -2  10    2.31    0.49
   0   2  -9   98.53    6.55
   0  -2   9   81.68    2.59
   0   2  -8  162.41    7.75
   0  -2   8  147.22    3.21
   0   2  -7  230.87    8.57
   0  -2   7   66.70    1.99
   0   2  -6   41.74    3.38
   0  -2   6   14.20    0.86
   0   2  -5  259.78    7.84
   0   2  -4  193.48    6.20
   0  -2   3  155.12    5.27
   0   2  -3  164.35    5.12
   0   2  -2   37.03    1.35
   0  -2   2   34.19    2.11
   0   2  -2   34.48    2.17
   0  -2  -1  365.78    6.90
   0  -2  -2    0.61    0.55
   0   2   2    0.45    0.55
   0  -2  -3   35.80    2.43
   0   2   3   33.50    2.14
   0  -2  -4  124.01    3.33
   0  -2  -4   94.26    4.14
   0   2   4  127.93    3.54
   0   2   4   95.25    3.81
   0   2   5  237.79    5.98
   0  -2  -5  239.38    5.22
   0   2   5  247.01    6.44
   0  -2  -6   55.12    2.84
   0   2   6   56.02    3.37
   0   2   7  378.97    8.76
   0  -2  -7  296.60    7.41
   0  -2  -8   87.05    4.26
   0   2   8   35.84    3.14
   0  -2  -9   61.12    3.78
   0   2   9   31.03    3.04
   0   2  10   12.76    2.06
   0  -2 -10    9.16    1.60
   0   2  11  121.27    6.73
   0  -2 -11  149.98    6.71
   0  -2 -12   37.55    3.56
   0   2  12   15.41    2.56
   0   2  13   65.45    5.44
   0  -2 -13   43.71    4.05
   0   2  14   93.26    6.69
   0  -2 -14   61.86    5.06
   0  -2 -15   30.87    3.64
   0   2  15   12.70    2.62
   0   2  16    3.80    1.58
   0  -2 -16   14.26    2.56
   0   2  17    7.15    2.12
   0  -2 -17    7.62    1.85
   0   2  18    2.71    1.28
   0  -2 -18    1.40    0.81
   0   2  19    5.56    2.07
   0   2  20   29.27    4.69
   0   3 -21    0.83    1.03
   0   3 -20    2.10    1.40
   0   3 -19    1.31    1.20
   0   3 -18    3.97    2.05
   0   3 -17    0.91    0.90
   0   3 -16    1.45    0.66
   0   3 -15    1.13    0.72
   0   3 -14    0.02    0.42
   0   3 -13    0.71    0.67
   0   3 -12    5.14    1.94
   0  -3  11    0.75    0.30
   0   3 -11    2.21    1.15
   0   3 -10    2.98    1.38
   0  -3  10    1.66    0.41
   0   3  -9    0.52    0.49
   0  -3   9    0.29    0.17
   0   3  -8    5.92    1.51
   0  -3   8    3.50    0.50
   0   3  -7   -0.03    0.14
   0  -3   7    0.06    0.05
   0  -3   6    1.86    0.38
   0   3  -6    0.82    0.20
   0   3  -5    6.20    1.33
   0   3  -5    3.40    0.39
   0   3  -4    3.17    0.48
   0   3  -4    5.62    1.22
   0   3  -3    3.57    0.53
   0   3  -3    2.78    1.12
   0   3  -2    3.96    0.83
   0   3   1    0.32    0.26
   0  -3  -1    0.20    0.22
   0  -3  -2    0.89    0.43
   0   3   2    0.84    0.38
   0   3   3    6.95    0.77
   0   3   3    9.39    1.31
   0  -3  -3    8.76    1.40
   0   3   4   11.33    1.41
   0   3   4    8.77    0.93
   0   3   5    5.17    0.76
   0   3   5    5.28    1.03
   0  -3  -5    5.77    0.82
   0  -3  -6    7.44    1.03
   0   3   6    6.58    1.01
   0   3   6    8.22    1.31
   0  -3  -7   -0.12    0.15
   0   3   7    0.33    0.30
   0  -3  -8    2.06    0.69
   0   3   8    0.65    0.39
   0  -3  -9    0.02    0.08
   0   3   9    0.13    0.14
   0  -3 -10    4.53    1.05
   0   3  10    5.42    1.31
   0  -3 -11    2.61    0.87
   0   3  11    2.99    1.07
   0  -3 -12    5.47    1.32
   0   3  12    8.32    1.86
   0   3  13    0.29    0.23
   0  -3 -13   -0.09    0.44
   0  -3 -14    0.31    0.13
   0   3  14    1.01    0.64
   0   3  15    1.21    0.82
   0  -3 -15    1.03    0.65
   0   3  16    0.25    0.03
   0  -3 -16    0.34    0.69
   0  -3 -17    1.72    0.91
   0   3  17    0.24    0.32
   0   3  18    6.33    2.02
   0   3  19    2.72    1.38
   0   3  20    1.46    1.11
   0   4 -20   31.83    5.34
   0   4 -19    6.75    2.50
   0   4 -18   17.80    3.84
   0   4 -17   13.59    3.58
   0   4 -16    1.61    1.15
   0   4 -15   15.87    3.81
   0   4 -14   39.06    5.36
   0   4 -13   43.97    6.02
   0   4 -12   74.97    6.81
   0   4 -11   15.43    3.16
   0   4 -10   10.00    2.72
   0   4  -9   84.74    6.62
   0   4  -8   50.02    4.63
   0   4  -8   34.33    1.14
   0   4  -7   30.46    3.51
   0   4  -7   16.20    0.90
   0   4  -6  218.22    8.53
   0   4  -6  204.85    3.56
   0   4  -5  130.25    6.84
   0   4  -5   85.70    2.65
   0   4  -4  116.93    5.68
   0   4  -4  120.07    3.39
   0   4  -3  270.66    8.05
   0   4  -3  268.34    5.61
   0   4  -2   80.89    4.21
   0   4   1   92.66    4.67
   0   4   2  428.53    9.86
   0   4   3  284.57    7.96
   0   4   4   32.88    2.76
   0   4   4   26.57    1.70
   0   4   5  293.75    8.33
   0   4   5  243.42    5.23
   0   4   6   30.18    2.18
   0   4   6    4.03    1.68
   0   4   7   33.37    3.02
   0  -4  -7   31.05    2.32
   0  -4  -8   35.54    2.64
   0   4   8   29.37    2.86
   0  -4  -9  206.24    6.74
   0   4   9  219.95    7.62
   0  -4 -10   26.33    2.54
   0   4  10   28.76    3.04
   0  -4 -11   38.57    3.22
   0   4  11   50.10    4.11
   0   4  12    6.13    1.69
   0  -4 -12   26.70    2.89
   0  -4 -13   75.91    4.99
   0   4  13   99.56    6.48
   0   4  14    7.91    2.05
   0  -4 -14   18.84    2.58
   0   4  15   27.55    3.72
   0  -4 -15   20.96    2.84
   0   4  16   11.36    2.49
   0   4  17   33.85    4.51
   0   4  18    0.19    0.59
   0   4  19   15.23    3.20
   0   4  20   19.15    3.77
   0   5 -20    0.87    0.71
   0   5 -19    1.44    1.42
   0   5 -18    1.95    1.43
   0   5 -17    0.95    0.80
   0   5 -16    0.01    1.01
   0   5 -15    1.67    1.55
   0   5 -14    1.54    1.00
   0   5 -13    3.63    1.56
   0   5 -12    1.62    1.12
   0   5 -11    1.79    1.38
   0   5 -10    2.47    1.61
   0   5  -9    0.52    0.15
   0   5  -9    1.36    0.90
   0   5  -8   -0.01    0.07
   0   5  -8    0.42    0.68
   0   5  -7    3.78    1.70
   0   5  -7    2.79    0.46
   0   5  -6    7.53    0.85
   0   5  -6    7.96    1.68
   0   5  -5    0.86    0.64
   0   5  -5    0.41    0.24
   0   5  -4    0.84    0.85
   0   5  -4    0.39    0.27
   0   5  -3    1.91    0.96
   0   5  -2    2.30    1.26
   0   5   0    0.84    0.44
   0   5   1   15.73    2.16
   0   5   2   23.00    2.52
   0   5   3   17.60    2.21
   0   5   4    8.96    1.56
   0   5   5    0.20    0.26
   0   5   5    0.21    0.15
   0   5   6    0.19    0.40
   0   5   6    0.14    0.12
   0   5   7   16.03    2.15
   0   5   8    4.44    1.17
   0   5   9    2.86    1.00
   0  -5 -10    8.85    1.46
   0   5  10   10.39    1.85
   0  -5 -11    3.60    0.98
   0   5  11    3.73    1.21
   0   5  12    1.31    0.80
   0  -5 -12    1.32    0.51
   0   5  13    0.44    0.49
   0  -5 -13    0.52    0.46
   0  -5 -14    0.56    0.37
   0   5  14    0.71    0.85
   0   5  15    0.78    0.65
   0   5  16    0.91    0.72
   0   5  17    0.53    0.72
   0   5  18    4.37    1.76
   0   5  19    2.22    1.24
   0   5  20    0.80    0.68
   0   6 -20    3.49    2.08
   0   6 -19    2.64    1.39
   0   6 -18    4.09    2.10
   0   6 -17   13.43    3.54
   0   6 -16    6.95    2.64
   0   6 -15   17.62    4.04
   0   6 -14   12.38    3.59
   0   6 -13   31.18    4.68
   0   6 -12    8.58    2.60
   0   6 -11    6.06    1.96
   0   6 -10   12.69    3.15
   0   6  -9    0.84    0.25
   0   6  -9    4.30    2.36
   0   6  -8    2.68    0.54
   0   6  -8   22.86    4.63
   0   6  -7  214.17    4.94
   0   6  -7  206.17    9.54
   0   6  -6   96.06    6.21
   0   6  -6  100.00    3.59
   0   6  -5    2.62    0.63
   0   6  -5    3.19    1.93
   0   6  -4   31.02    3.32
   0   6  -4   32.17    2.36
   0   6  -3   19.17    2.81
   0   6  -2   54.40    4.16
   0   6  -1   10.12    2.57
   0   6   0  168.44    7.69
   0   6   1  140.53    7.15
   0   6   2  119.26    6.45
   0   6   3   73.47    5.07
   0   6   4    0.79    0.62
   0   6   5   47.58    4.05
   0   6   6    1.85    1.11
   0   6   7    2.42    1.49
   0   6   8  226.59    8.85
   0   6   9   62.05    4.81
   0   6  10   46.04    4.26
   0   6  11    3.07    1.03
   0   6  12    7.93    1.81
   0   6  13    3.31    1.37
   0   6  14   55.61    5.14
   0   6  15   33.84    4.13
   0   6  16   39.32    4.82
   0   6  17    4.04    1.57
   0   6  18    6.63    2.02
   0   6  19   -0.04    0.60
   0   7 -19    1.19    0.86
   0   7 -18    2.14    1.06
   0   7 -17    2.27    1.51
   0   7 -16    0.70    0.42
   0   7 -15    1.05    1.04
   0   7 -14    1.91    1.42
   0   7 -13    0.36    0.77
   0   7 -12    0.70    0.74
   0   7 -11    0.46    0.25
   0   7 -10    0.90    0.70
   0   7  -9    0.23    0.14
   0   7  -9    0.65    0.20
   0   7  -8    1.64    0.43
   0   7  -8    2.95    1.36
   0   7  -7   11.09    2.35
   0   7  -7   10.39    1.23
   0   7  -6    6.22    1.76
   0   7  -6    7.27    1.12
   0   7  -5    0.64    0.41
   0   7  -5    1.20    0.72
   0   7  -4    2.79    1.18
   0   7  -4    0.49    0.35
   0   7  -3    3.09    0.96
   0   7  -2    5.74    1.40
   0   7  -1   10.11    1.83
   0   7   0   16.83    2.75
   0   7   1   14.32    2.45
   0   7   2    4.38    1.33
   0   7   3    1.22    0.81
   0   7   4    0.27    0.46
   0   7   5    4.84    1.33
   0   7   6   17.37    2.62
   0   7   7   22.19    2.92
   0   7   8   12.62    2.15
   0   7   9    7.38    1.74
   0   7  10    0.78    0.28
   0   7  11    0.29    0.44
   0   7  12   12.40    2.31
   0   7  13    8.73    1.94
   0   7  14    1.49    0.86
   0   7  15    0.04    0.53
   0   7  16    0.27    0.08
   0   7  17    2.05    1.12
   0   7  18    0.70    0.45
   0   7  19    0.06    0.37
   0   8 -18    8.99    2.94
   0   8 -17    2.54    1.56
   0   8 -16    0.41    0.58
   0   8 -15   12.29    3.31
   0   8 -14    4.18    1.71
   0   8 -13    0.86    0.85
   0   8 -12   12.21    2.94
   0   8 -11   20.02    3.75
   0   8 -10   11.28    2.77
   0   8  -9    6.47    1.95
   0   8  -8   18.11    1.76
   0   8  -8   20.68    3.51
   0   8  -7   51.16    5.33
   0   8  -7   50.29    3.01
   0   8  -6    0.77    0.39
   0   8  -6    0.63    0.83
   0   8  -5    3.23    1.40
   0   8  -5    3.23    0.86
   0   8  -4   47.27    4.65
   0   8  -4   49.61    3.59
   0   8  -3   64.89    5.34
   0   8  -2    6.31    1.55
   0   8  -1  120.45    6.44
   0   8   0   10.76    2.37
   0   8   1  118.51    7.70
   0   8   2    5.73    1.68
   0   8   3   99.92    6.74
   0   8   4    5.48    1.69
   0   8   5   56.28    4.87
   0   8   6   24.26    3.27
   0   8   7  137.32    7.65
   0   8   8   49.31    4.50
   0   8   9    1.25    0.80
   0   8  10    0.61    0.44
   0   8  11   75.84    6.00
   0   8  12    0.88    0.61
   0   8  13    6.64    1.68
   0   8  14   30.20    3.83
   0   8  15    9.90    2.28
   0   8  16   17.21    3.16
   0   8  17    0.42    0.16
   0   8  18    4.19    1.73
   0   9 -18    2.84    1.61
   0   9 -17   -1.03    1.44
   0   9 -16   -0.36    1.25
   0   9 -15    0.19    0.58
   0   9 -14    0.36    0.20
   0   9 -13   -0.26    0.27
   0   9 -12    4.35    1.75
   0   9 -11    3.23    1.39
   0   9 -10    2.02    1.06
   0   9  -9    0.16    0.63
   0   9  -8    0.19    0.40
   0   9  -8    0.92    0.38
   0   9  -7    0.68    0.72
   0   9  -7    0.91    0.46
   0   9  -6    0.43    0.41
   0   9  -6    0.26    0.74
   0   9  -5    2.56    0.79
   0   9  -5    3.22    1.29
   0   9  -4    7.24    1.89
   0   9  -4    6.85    1.39
   0   9  -3    5.95    1.73
   0   9  -2    4.86    1.48
   0   9  -1    6.98    1.99
   0   9  -1    5.15    1.34
   0   9   0    7.53    2.06
   0   9   0    4.67    1.25
   0   9   1    0.30    0.38
   0   9   2    0.26    0.59
   0   9   3    5.54    1.65
   0   9   4   13.86    2.63
   0   9   5   12.60    2.45
   0   9   6   16.19    2.79
   0   9   7    6.30    1.70
   0   9   8    0.97    0.74
   0   9   9    0.17    0.40
   0   9  10    1.43    0.90
   0   9  11    3.33    1.23
   0   9  12   12.13    2.55
   0   9  13    4.83    1.51
   0   9  14    2.55    1.15
   0   9  15    4.39    1.60
   0   9  16    0.86    0.74
   0   9  17    0.52    0.43
   0  10 -17   -1.15    1.61
   0  10 -16    1.98    1.27
   0  10 -15    0.44    0.74
   0  10 -14    0.18    0.69
   0  10 -13    1.20    0.44
   0  10 -12   22.46    4.12
   0  10 -11    1.01    0.34
   0  10 -10   54.99    6.21
   0  10  -9    0.61    0.82
   0  10  -8    0.45    0.32
   0  10  -7   11.88    1.74
   0  10  -7   10.57    2.56
   0  10  -6   29.69    2.92
   0  10  -6   23.45    3.91
   0  10  -5  109.47    7.82
   0  10  -5  107.87    5.81
   0  10  -4  182.88    7.94
   0  10  -4  175.33    9.66
   0  10  -3    1.61    1.06
   0  10  -3    2.09    0.81
   0  10  -2    2.62    1.23
   0  10  -1    9.86    2.11
   0  10  -1   14.69    3.02
   0  10   0    7.69    1.81
   0  10   0   10.25    2.54
   0  10   1    4.53    1.65
   0  10   1    2.94    1.19
   0  10   2   70.20    6.46
   0  10   3  103.06    7.70
   0  10   4    2.58    1.44
   0  10   5    1.25    1.01
   0  10   6   37.58    4.47
   0  10   7    0.52    0.68
   0  10   8    0.25    0.56
   0  10   9   13.46    2.62
   0  10  10   63.86    5.95
   0  10  11    6.66    1.88
   0  10  12   -0.09    0.28
   0  10  13   10.14    2.33
   0  10  14    4.72    1.62
   0  10  15    2.99    1.20
   0  10  16    0.94    0.67
   0  11 -16   -1.55    1.33
   0  11 -15    0.48    0.78
   0  11 -14    0.85    1.71
   0  11 -13    0.84    0.79
   0  11 -12    4.87    1.83
   0  11 -11    0.83    0.84
   0  11 -10   -0.39    0.90
   0  11  -9   -0.75    0.74
   0  11  -8   -1.42    1.27
   0  11  -7   -0.01    0.66
   0  11  -6    4.51    1.26
   0  11  -6    4.65    1.74
   0  11  -5    6.90    1.52
   0  11  -5    7.88    2.09
   0  11  -4    2.29    1.12
   0  11  -4    2.16    0.81
   0  11  -3    1.92    0.88
   0  11  -3    1.95    0.96
   0  11  -2    1.74    1.04
   0  11  -2    2.18    1.25
   0  11  -1    2.37    1.21
   0  11  -1    2.60    1.26
   0  11   0    0.59    0.48
   0  11   0    1.63    1.07
   0  11   1    0.28    0.51
   0  11   1    1.21    0.91
   0  11   2   22.26    3.81
   0  11   2   17.83    2.71
   0  11   3   23.66    3.83
   0  11   4   29.45    4.19
   0  11   5    9.14    2.40
   0  11   6    1.71    1.28
   0  11   7    0.46    0.32
   0  11   8   15.04    2.89
   0  11   9    6.62    1.87
   0  11  10    7.91    2.15
   0  11  11    7.03    1.94
   0  11  12    5.34    1.80
   0  11  13    2.66    1.57
   0  11  14    0.36    0.66
   0  11  15    0.75    0.71
   0  12 -14   -0.64    0.67
   0  12 -13    8.80    2.81
   0  12 -12    5.03    2.21
   0  12 -11    0.34    0.57
   0  12 -10   -0.87    0.80
   0  12  -9   31.63    5.00
   0  12  -8    0.23    0.59
   0  12  -7    0.78    1.00
   0  12  -6   31.82    4.61
   0  12  -5   19.44    3.54
   0  12  -5   20.92    2.92
   0  12  -4    0.07    0.44
   0  12  -4   -1.27    1.19
   0  12  -3    3.22    1.22
   0  12  -3    2.34    1.41
   0  12  -3    5.12    2.51
   0  12  -2    0.33    0.52
   0  12  -2    0.82    0.38
   0  12  -1    1.37    1.04
   0  12  -1    2.08    1.31
   0  12   0    0.20    0.48
   0  12   0    0.76    1.08
   0  12   1   38.71    5.39
   0  12   1   28.10    3.79
   0  12   2   61.05    5.35
   0  12   2   81.22    7.66
   0  12   3   10.40    2.62
   0  12   3    8.56    1.92
   0  12   4    3.62    1.61
   0  12   5    0.39    0.87
   0  12   6    7.98    2.38
   0  12   7    3.46    1.52
   0  12   8    6.57    2.08
   0  12   9   23.97    3.81
   0  12  10   16.79    3.19
   0  12  11   -0.17    0.36
   0  12  12    0.78    0.81
   0  12  13    0.66    0.68
   0  12  14    2.63    1.32
   0  13 -13    1.17    1.16
   0  13 -12    1.54    1.20
   0  13 -11   -0.44    1.11
   0  13 -10    0.48    0.12
   0  13  -9    0.78    1.21
   0  13  -8    1.66    1.26
   0  13  -7    3.92    1.72
   0  13  -6    6.74    2.33
   0  13  -5    3.53    1.76
   0  13  -5    3.59    1.27
   0  13  -4    0.04    0.62
   0  13  -4    0.45    0.63
   0  13  -4    1.13    1.38
   0  13  -3    2.13    1.39
   0  13  -3    2.63    1.31
   0  13  -3    0.43    0.21
   0  13  -2    2.85    1.17
   0  13  -2    3.32    1.78
   0  13  -2    1.74    1.36
   0  13  -1    3.72    1.45
   0  13  -1    6.76    2.49
   0  13   0    7.55    1.96
   0  13   0    9.28    2.84
   0  13   1    7.87    2.49
   0  13   1    5.83    1.80
   0  13   2    9.52    2.62
   0  13   3    1.81    1.29
   0  13   4    0.57    1.00
   0  13   5   -0.01    0.24
   0  13   6    6.63    2.22
   0  13   7    4.50    1.94
   0  13   8    9.33    2.49
   0  13   9    4.54    1.79
   0  13  10    4.42    1.78
   0  13  11    4.34    1.67
   0  13  12   -0.59    0.86
   0  14 -11    1.91    1.27
   0  14 -10   10.15    3.12
   0  14  -9    0.82    0.70
   0  14  -8    4.49    1.89
   0  14  -7   -0.70    0.96
   0  14  -6    7.61    2.51
   0  14  -5    8.04    2.45
   0  14  -5    9.86    3.47
   0  14  -4    8.70    2.49
   0  14  -4    8.23    2.06
   0  14  -4   11.01    3.41
   0  14  -3    0.86    0.14
   0  14  -3    2.17    1.12
   0  14  -2   13.77    3.45
   0  14  -2   21.32    4.78
   0  14  -2   14.45    3.01
   0  14  -1    3.39    1.59
   0  14  -1    3.22    1.97
   0  14  -1    1.71    0.78
   0  14   0    0.36    0.38
   0  14   0    1.97    1.82
   0  14   1   32.73    5.43
   0  14   2   -0.04    0.76
   0  14   3    3.43    1.89
   0  14   4   10.76    2.93
   0  14   5   24.35    4.46
   0  14   6    0.08    0.58
   0  14   7    7.98    2.56
   0  14   8    0.74    0.68
   0  14   9   13.98    3.20
   0  14  10    1.84    1.03
   0  15  -8    0.77    0.76
   0  15  -7    1.98    1.37
   0  15  -6    1.17    0.97
   0  15  -6   -0.04    0.67
   0  15  -5    1.31    0.90
   0  15  -5   -0.18    0.28
   0  15  -4    1.54    1.15
   0  15  -4    1.17    1.09
   0  15  -3    3.70    1.51
   0  15  -3    7.21    2.72
   0  15  -3    2.21    1.43
   0  15  -2    5.23    1.95
   0  15  -2    6.43    2.67
   0  15  -2    4.03    1.57
   0  15  -1    4.03    1.90
   0  15  -1    2.68    1.35
   0  15   0    3.59    1.59
   0  15   0    5.25    2.32
   0  15   1    0.47    0.40
   0  15   1    1.91    1.63
   0  15   2    0.47    0.54
   0  15   3    2.17    1.45
   0  15   4    5.04    2.09
   0  15   5    8.10    2.55
   0  15   6    7.72    2.41
   0  15   7    3.56    1.74
   0  15   8    1.87    1.15
   0  16  -5    5.65    2.38
   0  16  -5    3.58    2.67
   0  16  -4   34.69    6.60
   0  16  -4   23.91    4.54
   0  16  -3    4.02    2.25
   0  16  -2   -0.42    1.03
   0  16  -2    0.30    0.08
   0  16  -1    1.82    1.59
   0  16  -1    0.87    1.12
   0  16   0   -0.28    0.68
   0  16   0    0.15    0.91
   0  16   1    7.32    2.83
   0  16   1    3.91    1.57
   0  16   2    0.63    0.63
   0  16   2    1.02    1.05
   0  16   3    7.06    2.74
   0  16   3    6.52    2.62
   0  16   4   24.97    4.74
  -1  16   4    1.56    0.98
  -1  16   3    8.96    2.90
  -1  16   2    4.56    1.93
  -1  16   1    0.89    0.83
  -1  16   1   -1.01    1.03
  -1  16   0    2.86    1.55
  -1  16   0    0.32    0.79
  -1  16  -1    0.49    0.79
  -1  16  -1    1.54    1.30
  -1  16  -2   -0.21    0.75
  -1  16  -2    1.46    0.83
  -1  16  -3    9.38    3.07
  -1  16  -3    8.57    2.99
  -1  16  -4    1.18    1.42
  -1  16  -4    1.44    1.17
  -1  15   7    3.42    1.56
  -1  15   7    1.81    1.13
  -1  15   6    6.82    2.53
  -1  15   6    8.32    2.50
  -1  15   5   10.63    2.86
  -1  15   5    8.59    2.61
  -1  15   4    1.15    1.16
  -1  15   4    1.66    0.97
  -1  15   3   -0.15    0.68
  -1  15   3    0.26    0.82
  -1  15   2   10.71    2.91
  -1  15   2   11.02    2.92
  -1  15   1   12.55    3.35
  -1  15   1   11.71    2.99
  -1  15   0    4.02    1.95
  -1  15   0    2.71    1.49
  -1  15  -1   11.77    3.12
  -1  15  -1    8.79    2.85
  -1  15  -1    8.57    2.43
  -1  15  -2   12.69    3.25
  -1  15  -2   13.14    3.64
  -1  15  -2    9.49    2.52
  -1  15  -3    2.10    1.19
  -1  15  -3    1.93    1.36
  -1  15  -3    4.76    2.27
  -1  15  -4    0.52    0.99
  -1  15  -4    1.56    1.29
  -1  15  -5    7.97    2.44
  -1  15  -5    1.33    1.15
  -1  15  -6    7.38    2.78
  -1  15  -7    1.39    0.80
  -1  15  -8    3.88    2.11
  -1  14  10   11.52    2.71
  -1  14   9    1.79    1.04
  -1  14   8    0.36    0.17
  -1  14   7    0.38    0.40
  -1  14   6    0.42    0.96
  -1  14   5    8.59    2.51
  -1  14   4    4.59    1.76
  -1  14   4    4.13    1.71
  -1  14   3    2.95    1.48
  -1  14   3    1.28    0.98
  -1  14   2    1.45    1.05
  -1  14   2    0.43    0.64
  -1  14   1    4.96    1.91
  -1  14   1    7.01    2.27
  -1  14   1    7.30    2.39
  -1  14   0    3.87    1.68
  -1  14   0    4.54    1.72
  -1  14   0    4.15    1.63
  -1  14  -1    1.72    0.99
  -1  14  -1    1.53    0.94
  -1  14  -2    0.02    0.03
  -1  14  -2    1.16    0.93
  -1  14  -2    0.79    0.64
  -1  14  -3    0.45    0.34
  -1  14  -3    0.38    0.99
  -1  14  -3    1.74    1.41
  -1  14  -4    2.19    1.11
  -1  14  -4    1.28    0.71
  -1  14  -4    1.57    1.32
  -1  14  -5   12.80    3.22
  -1  14  -6   -0.06    1.09
  -1  14  -7   -0.03    0.71
  -1  14  -8    0.66    0.88
  -1  14  -9    3.79    2.13
  -1  14 -10    9.92    2.85
  -1  14 -11    2.73    1.48
  -1  13  12    2.86    1.31
  -1  13  11    5.88    1.78
  -1  13  10   24.62    3.85
  -1  13   9   22.34    3.72
  -1  13   8    2.97    1.40
  -1  13   7    2.45    1.24
  -1  13   6    0.09    0.28
  -1  13   5    0.86    0.95
  -1  13   4    5.71    1.98
  -1  13   3   44.33    5.49
  -1  13   3   52.96    6.10
  -1  13   2   24.93    4.18
  -1  13   2   20.43    3.52
  -1  13   1   12.91    2.77
  -1  13   1   16.20    3.44
  -1  13   1   12.02    2.76
  -1  13   0   10.55    2.89
  -1  13   0   15.43    3.04
  -1  13   0    8.47    2.31
  -1  13  -1    4.86    1.86
  -1  13  -1    3.06    1.73
  -1  13  -2    5.38    2.23
  -1  13  -2   10.04    2.27
  -1  13  -3   18.67    3.26
  -1  13  -3    7.41    2.60
  -1  13  -4   21.79    3.92
  -1  13  -4   21.49    3.24
  -1  13  -5   11.03    2.28
  -1  13  -5   11.13    2.88
  -1  13  -6   14.58    3.26
  -1  13  -7    4.85    1.95
  -1  13  -8    3.17    1.42
  -1  13  -9   18.91    4.14
  -1  13 -10   16.88    4.07
  -1  13 -11    9.65    2.81
  -1  13 -12    8.02    2.86
  -1  12  14    0.54    0.62
  -1  12  13    2.59    1.14
  -1  12  12    0.71    0.36
  -1  12  11    1.23    0.83
  -1  12  10    5.82    1.90
  -1  12   9   -0.23    0.15
  -1  12   8    1.36    0.87
  -1  12   7    1.97    1.08
  -1  12   6    2.92    1.38
  -1  12   5    1.94    1.06
  -1  12   4    1.05    0.88
  -1  12   3    4.09    1.64
  -1  12   2   16.70    3.22
  -1  12   1    0.79    1.05
  -1  12   1    2.36    1.08
  -1  12   0   45.75    5.92
  -1  12   0   41.64    4.70
  -1  12   0   50.46    5.31
  -1  12  -1    4.47    1.51
  -1  12  -1    5.69    1.81
  -1  12  -1    8.45    2.51
  -1  12  -2    2.42    1.18
  -1  12  -2    4.89    1.59
  -1  12  -3    2.15    1.02
  -1  12  -3    2.58    1.17
  -1  12  -4    4.67    1.48
  -1  12  -4    3.91    1.83
  -1  12  -5    7.95    1.79
  -1  12  -5    7.18    2.16
  -1  12  -6    1.55    0.69
  -1  12  -6    3.98    1.69
  -1  12  -7    3.71    1.57
  -1  12  -8    2.18    1.36
  -1  12  -9    5.66    1.98
  -1  12 -10    7.68    2.71
  -1  12 -11    1.43    0.95
  -1  12 -12   -0.46    1.18
  -1  12 -13    2.32    1.92
  -1  12 -14    3.00    1.64
  -1  11  15   11.49    2.57
  -1  11  14    6.70    1.81
  -1  11  13    6.64    1.89
  -1  11  12    5.41    1.71
  -1  11  11   34.59    4.24
  -1  11  10   13.04    2.62
  -1  11   9   12.69    2.51
  -1  11   8    1.33    0.73
  -1  11   7   50.93    5.20
  -1  11   6    1.01    0.76
  -1  11   5   66.15    6.05
  -1  11   4   78.18    6.66
  -1  11   3   19.99    3.35
  -1  11   2   17.82    3.30
  -1  11   1   30.67    3.97
  -1  11   1   34.26    4.69
  -1  11   0   25.28    4.08
  -1  11   0   24.51    3.48
  -1  11  -1   28.18    3.61
  -1  11  -1   32.36    4.25
  -1  11  -1   23.56    3.99
  -1  11  -2    4.57    1.34
  -1  11  -2    2.00    1.23
  -1  11  -3   12.30    2.21
  -1  11  -3   18.60    3.36
  -1  11  -4   89.85    7.49
  -1  11  -4   66.47    5.21
  -1  11  -5   50.42    5.68
  -1  11  -5   22.22    3.05
  -1  11  -6    3.13    1.06
  -1  11  -6    3.60    1.62
  -1  11  -7   17.64    2.33
  -1  11  -7   40.02    5.12
  -1  11  -8   13.59    3.05
  -1  11  -9    9.34    2.63
  -1  11 -10   17.03    3.80
  -1  11 -11   44.65    6.07
  -1  11 -12    4.35    2.05
  -1  11 -13    6.18    2.23
  -1  11 -14    6.16    2.08
  -1  11 -15   13.12    3.68
  -1  10  16    1.87    1.24
  -1  10  15    5.10    1.68
  -1  10  14    0.80    0.67
  -1  10  13    0.33    0.54
  -1  10  12    2.73    1.12
  -1  10  11    0.70    0.67
  -1  10  10    8.00    1.99
  -1  10   9   15.46    2.65
  -1  10   8    0.71    0.65
  -1  10   7    1.24    0.84
  -1  10   6    3.42    1.22
  -1  10   5   16.84    2.79
  -1  10   4    2.33    1.04
  -1  10   3    7.91    2.01
  -1  10   2    5.04    1.70
  -1  10   1   42.54    4.84
  -1  10   0   13.23    2.49
  -1  10   0   11.96    2.60
  -1  10  -1   32.75    3.74
  -1  10  -1   29.94    4.21
  -1  10  -2    2.82    1.08
  -1  10  -2    2.60    1.12
  -1  10  -3   13.67    2.69
  -1  10  -3   11.35    2.06
  -1  10  -4   19.66    3.37
  -1  10  -4   19.37    2.63
  -1  10  -5    5.75    1.49
  -1  10  -5   12.19    2.75
  -1  10  -6    3.82    1.11
  -1  10  -6    5.41    1.85
  -1  10  -7    9.88    1.65
  -1  10  -7   10.83    2.68
  -1  10  -8    8.26    2.31
  -1  10  -9   12.04    2.85
  -1  10 -10    6.60    2.27
  -1  10 -11    0.12    0.44
  -1  10 -12    3.23    1.54
  -1  10 -13    1.20    1.08
  -1  10 -14    1.47    0.96
  -1  10 -15    5.09    2.39
  -1  10 -16    3.09    1.91
  -1   9  17    0.46    0.72
  -1   9  16   22.99    3.70
  -1   9  15   31.51    4.03
  -1   9  14    7.65    1.95
  -1   9  13   10.86    2.17
  -1   9  12    5.74    1.60
  -1   9  11    7.24    1.82
  -1   9  10    3.90    1.38
  -1   9   9   33.44    3.80
  -1   9   8   88.04    6.10
  -1   9   7   60.50    4.97
  -1   9   6   23.07    3.18
  -1   9   5   25.23    3.37
  -1   9   4   19.86    2.90
  -1   9   3    2.85    1.29
  -1   9   2    7.40    2.15
  -1   9   1   65.58    5.93
  -1   9   0   86.88    6.75
  -1   9   0   88.66    6.03
  -1   9  -1    7.56    2.08
  -1   9  -1   15.66    2.71
  -1   9  -2   56.41    4.42
  -1   9  -3   25.39    2.90
  -1   9  -3   24.27    3.38
  -1   9  -4    3.56    1.44
  -1   9  -4   12.85    2.54
  -1   9  -5    5.98    1.61
  -1   9  -5   15.94    2.93
  -1   9  -6   49.34    3.61
  -1   9  -6   59.68    5.87
  -1   9  -7   14.54    2.08
  -1   9  -7   46.56    5.23
  -1   9  -8   37.91    3.01
  -1   9  -8   70.47    6.58
  -1   9  -9   24.35    3.93
  -1   9 -10    8.17    2.31
  -1   9 -11   17.80    3.47
  -1   9 -12    2.35    1.72
  -1   9 -13    6.53    2.54
  -1   9 -14    9.99    3.03
  -1   9 -15   26.88    5.43
  -1   9 -16   15.72    4.25
  -1   9 -17    3.47    2.03
  -1   8  18    3.56    1.51
  -1   8  17    2.56    1.23
  -1   8  16    1.21    0.73
  -1   8  15    4.58    1.49
  -1   8  14   -0.15    0.33
  -1   8  13    3.75    1.28
  -1   8  12    0.81    0.54
  -1   8  11   12.49    2.34
  -1   8  10    2.06    0.94
  -1   8   9    0.38    0.39
  -1   8   8   13.69    2.30
  -1   8   7    0.18    0.24
  -1   8   6    4.20    1.27
  -1   8   5    0.06    0.16
  -1   8   4    3.46    1.17
  -1   8   3   22.64    2.99
  -1   8   2   24.57    3.20
  -1   8   1    7.95    1.88
  -1   8   0   32.76    3.81
  -1   8  -1    1.39    0.75
  -1   8  -2    3.57    1.36
  -1   8  -3    2.58    1.14
  -1   8  -3    7.84    2.25
  -1   8  -4    2.20    0.87
  -1   8  -4    2.95    1.19
  -1   8  -5    0.46    0.73
  -1   8  -5    0.39    0.36
  -1   8  -6    0.94    0.54
  -1   8  -6    2.59    1.08
  -1   8  -7    1.56    0.65
  -1   8  -7    2.25    1.18
  -1   8  -8   11.43    1.52
  -1   8  -8   16.25    2.98
  -1   8  -9   -0.22    0.58
  -1   8  -9    0.46    0.31
  -1   8 -10    1.35    0.68
  -1   8 -11    7.32    2.32
  -1   8 -12    1.41    0.94
  -1   8 -13    4.96    1.95
  -1   8 -14   -0.15    0.55
  -1   8 -15    9.31    3.11
  -1   8 -16    2.11    1.73
  -1   8 -17    0.69    0.99
  -1   8 -18    4.28    2.29
  -1   7  19    7.09    2.19
  -1   7  18    1.95    1.19
  -1   7  17   14.86    2.99
  -1   7  16   29.62    4.02
  -1   7  15   10.91    2.45
  -1   7  14    6.35    1.79
  -1   7  13    2.74    1.22
  -1   7  12    1.50    0.91
  -1   7  11    0.70    0.48
  -1   7  10   60.80    4.75
  -1   7   9  116.98    6.49
  -1   7   8  163.08    7.40
  -1   7   7   23.04    2.79
  -1   7   6    1.57    1.24
  -1   7   5    3.61    1.33
  -1   7   4    4.57    1.34
  -1   7   3   33.99    3.37
  -1   7   2  240.33    9.25
  -1   7   1   75.00    5.26
  -1   7   0  148.85    7.45
  -1   7  -1   10.88    2.02
  -1   7  -2    9.43    2.53
  -1   7  -3    3.20    1.00
  -1   7  -4   34.29    3.72
  -1   7  -4   38.35    2.99
  -1   7  -5   59.11    3.52
  -1   7  -5   58.81    5.11
  -1   7  -6   96.60    4.39
  -1   7  -6   91.77    6.56
  -1   7  -7   25.16    3.62
  -1   7  -7   18.67    1.86
  -1   7  -8   30.40    2.30
  -1   7  -8   72.98    6.28
  -1   7  -9   43.31    4.85
  -1   7  -9    4.06    0.85
  -1   7 -10   23.59    3.82
  -1   7 -11    1.19    1.00
  -1   7 -12   21.35    3.97
  -1   7 -13   26.85    4.37
  -1   7 -14    5.67    2.18
  -1   7 -15   11.52    3.30
  -1   7 -16    6.43    2.40
  -1   7 -17    3.94    1.79
  -1   7 -18    1.02    1.43
  -1   7 -19    2.79    1.75
  -1   6  19    1.07    0.55
  -1   6  18    0.22    0.45
  -1   6  17    0.16    0.47
  -1   6  16    1.12    0.71
  -1   6  15    0.99    0.88
  -1   6  14    1.95    0.92
  -1   6  13   27.72    3.38
  -1   6  12    5.50    1.42
  -1   6  11    1.54    0.82
  -1   6  10    6.06    1.37
  -1   6   9    7.98    1.60
  -1   6   8   13.72    2.08
  -1   6   7   91.87    5.12
  -1   6   6    1.32    0.63
  -1   6   5    0.25    0.24
  -1   6   4   62.85    4.17
  -1   6   3   21.13    2.44
  -1   6   2    0.50    0.41
  -1   6   1   12.97    1.97
  -1   6  -1    0.94    0.49
  -1   6  -2    4.95    1.05
  -1   6  -3   24.15    2.25
  -1   6  -4   17.28    1.86
  -1   6  -4   18.48    2.61
  -1   6  -5    6.55    1.57
  -1   6  -5    6.10    1.06
  -1   6  -6    2.12    0.65
  -1   6  -6    1.99    0.91
  -1   6  -7   11.28    1.32
  -1   6  -7   22.05    3.26
  -1   6  -8   30.12    3.80
  -1   6  -8   26.41    1.84
  -1   6  -9    4.78    0.72
  -1   6  -9    6.72    1.95
  -1   6 -10    2.71    0.51
  -1   6 -10    3.17    1.26
  -1   6 -11   19.70    3.34
  -1   6 -12    0.48    0.97
  -1   6 -13    7.23    2.55
  -1   6 -14    7.56    2.71
  -1   6 -15    2.47    1.42
  -1   6 -16    0.18    0.81
  -1   6 -17    5.93    2.55
  -1   6 -18    0.01    0.49
  -1   6 -19   -0.39    0.76
  -1   5  20   11.46    2.79
  -1   5  19    7.59    2.09
  -1   5  18    3.17    1.36
  -1   5  17   12.44    2.68
  -1   5  16   18.66    3.19
   1  -5 -16   13.98    2.57
  -1   5  15    1.45    0.92
   1  -5 -15    0.08    0.43
  -1   5  14   17.24    2.87
   1  -5 -14   16.12    2.61
  -1   5  13   25.12    3.25
   1  -5 -13   22.29    2.90
  -1   5  12   10.77    2.07
   1  -5 -12    8.61    1.73
  -1   5  11   62.65    4.51
   1  -5 -11   58.99    4.43
   1  -5 -10   97.48    5.56
  -1   5  10  101.23    5.42
  -1   5   9   74.76    4.48
  -1   5   8   70.25    4.40
  -1   5   7   55.79    3.91
  -1   5   6  110.92    5.22
  -1   5   5   33.17    2.82
  -1   5   4  283.73    8.10
  -1   5   3  290.59    8.06
  -1   5   2  201.22    6.84
  -1   5   1   28.78    2.63
  -1   5   0    9.11    1.44
  -1   5  -1   76.93    3.94
  -1   5  -2   53.22    3.18
  -1   5  -3   22.18    2.01
  -1   5  -4  185.96    7.74
  -1   5  -4  195.30    5.56
  -1   5  -5  296.85    6.78
  -1   5  -5  280.81    9.84
   1  -5   6   19.98    1.80
  -1   5  -6   19.18    1.64
  -1   5  -6   23.36    3.05
  -1   5  -7   25.68    1.74
  -1   5  -7   27.27    3.43
   1  -5   7   28.58    2.08
  -1   5  -8   19.39    2.99
  -1   5  -8   19.14    1.45
   1  -5   8   20.93    1.75
  -1   5  -9   42.43    2.09
   1  -5   9   43.66    2.49
  -1   5  -9   39.57    4.51
   1  -5  10   10.98    1.25
  -1   5 -10   10.33    0.99
  -1   5 -11   89.36    7.04
  -1   5 -12   28.32    4.04
  -1   5 -13   20.04    3.96
  -1   5 -14    1.73    1.34
  -1   5 -15    0.60    0.49
  -1   5 -16    1.19    1.52
  -1   5 -17    9.51    2.77
  -1   5 -18    2.65    1.49
  -1   5 -19    7.06    2.62
  -1   5 -20   -0.25    0.18
  -1   4  20   -0.23    0.74
  -1   4  19    6.70    2.12
  -1   4  18    3.58    1.47
  -1   4  17    4.33    1.60
   1  -4 -17    3.19    1.16
  -1   4  16    3.67    1.43
   1  -4 -16    2.47    0.95
  -1   4  15    1.55    0.92
   1  -4 -15    1.84    1.01
   1  -4 -14    2.16    0.87
  -1   4  14    2.77    1.06
   1  -4 -13   -0.53    0.69
  -1   4  13    0.10    0.23
  -1   4  12   29.10    3.33
   1  -4 -12   23.70    2.88
   1  -4 -11    6.52    1.47
  -1   4  11    7.89    1.61
   1  -4 -10    1.44    0.58
  -1   4  10    1.48    0.60
  -1   4   9   30.45    2.78
   1  -4  -9   27.19    2.74
  -1   4   8   43.41    3.18
   1  -4  -8   42.63    3.25
  -1   4   7   -0.11    0.27
   1  -4  -7   -0.04    0.09
  -1   4   6   40.14    2.96
  -1   4   5    0.37    0.30
  -1   4   4   13.31    1.58
  -1   4   3    8.56    1.27
   1  -4  -3    9.78    1.47
  -1   4   2    6.99    1.13
   1  -4  -2    7.77    1.23
  -1   4   1    0.66    0.41
  -1   4   0    1.69    0.56
  -1   4  -1    2.35    0.59
  -1   4  -2   17.20    1.63
   1  -4   3   82.70    3.56
  -1   4  -3   84.38    3.40
  -1   4  -4   28.40    1.97
  -1   4  -4   25.74    2.59
   1  -4   4   27.00    1.97
  -1   4  -5    5.77    1.29
  -1   4  -5    6.25    0.88
   1  -4   5    5.43    0.88
   1  -4   6    3.38    0.66
  -1   4  -6    2.64    0.52
  -1   4  -6    3.15    1.10
  -1   4  -7   12.01    2.05
   1  -4   7   12.50    1.30
  -1   4  -7   12.30    1.14
   1  -4   8    0.32    0.21
  -1   4  -8   -0.03    0.77
  -1   4  -8    0.12    0.13
  -1   4  -9    4.15    1.47
  -1   4  -9    5.08    0.69
   1  -4   9    4.34    0.76
  -1   4 -10   21.61    3.20
   1  -4  10   22.89    1.78
  -1   4 -11    0.90    0.28
  -1   4 -12    5.56    1.67
  -1   4 -13    1.94    1.17
  -1   4 -14    1.86    0.97
  -1   4 -15    1.65    1.33
  -1   4 -16    4.66    1.68
  -1   4 -17    0.86    0.27
  -1   4 -18    4.81    1.98
  -1   4 -19   -2.01    1.50
  -1   4 -20   -0.27    0.55
  -1   3  20    8.84    2.41
  -1   3  19    0.36    0.50
  -1   3  18   -0.44    0.60
   1  -3 -18   -0.64    0.56
  -1   3  17    2.77    1.31
   1  -3 -17    1.80    0.78
   1  -3 -16    1.92    0.91
  -1   3  16    2.12    1.06
   1  -3 -15   39.56    4.25
  -1   3  15   58.51    5.47
   1  -3 -14   65.83    5.27
  -1   3  14   89.44    6.37
   1  -3 -13   25.77    3.18
  -1   3  13   32.68    3.73
   1  -3 -12   25.07    3.00
  -1   3  12   30.11    3.45
  -1   3  11    3.23    1.07
   1  -3 -11    2.43    0.90
  -1   3  10   12.29    1.96
   1  -3 -10    9.81    1.68
   1  -3  -9    0.02    0.33
  -1   3   9    0.42    0.33
  -1   3   8  164.31    6.09
   1  -3  -8  141.83    5.79
   1  -3  -7  138.26    5.50
  -1   3   7  141.13    5.26
  -1   3   6  176.00    5.50
   1  -3  -6  166.41    5.66
   1  -3  -5   21.53    1.95
  -1   3   5   24.36    2.03
   1  -3  -4   42.36    2.86
  -1   3   4   43.93    2.55
  -1   3   3  104.58    3.71
   1  -3  -3  111.94    4.28
  -1   3   2   20.43    1.61
   1  -3  -2   22.34    1.81
  -1   3   1    0.70    0.33
  -1   3   1    0.90    0.39
  -1   3   0  385.36    7.33
  -1   3  -1  286.36    6.04
   1  -3   1  277.54    6.11
   1  -3   2   81.18    3.17
  -1   3  -2   83.34    3.10
   1  -3   3  284.54    5.87
  -1   3  -3  299.99    5.84
   1  -3   4    3.16    0.61
  -1   3  -4    3.24    0.60
  -1   3  -4    2.86    0.79
   1  -3   5   47.03    2.34
  -1   3  -5   47.95    2.15
  -1   3  -5   42.99    3.43
  -1   3  -6   40.34    1.98
  -1   3  -6   37.20    3.40
   1  -3   6   40.61    2.29
   1  -3   7  123.42    3.97
  -1   3  -7  129.01    3.47
  -1   3  -8    5.12    0.70
  -1   3  -8    3.87    1.31
   1  -3   8    4.31    0.78
   1  -3   9   80.15    3.34
  -1   3  -9   76.30    5.55
  -1   3 -10   20.74    3.04
   1  -3  10   20.75    1.74
   1  -3  11   27.00    2.05
  -1   3 -11   26.01    3.49
  -1   3 -12   23.35    3.56
  -1   3 -13   -0.17    0.63
  -1   3 -14    9.06    2.57
  -1   3 -15   27.18    4.32
  -1   3 -16   18.77    3.83
  -1   3 -17    6.92    2.33
  -1   3 -18    4.27    1.69
  -1   3 -19    0.45    0.29
  -1   3 -20   -0.61    0.70
   1  -2 -20    0.68    0.84
   1  -2 -19    1.38    0.86
   1  -2 -18   -0.14    0.59
  -1   2  18    0.79    0.44
  -1   2  17    5.58    1.79
   1  -2 -17    3.85    1.42
  -1   2  16    2.15    1.09
   1  -2 -16    0.61    0.45
  -1   2  15    2.82    1.22
   1  -2 -15    1.68    0.93
   1  -2 -14   -0.15    0.24
  -1   2  14    0.89    0.56
  -1   2  13    3.59    1.23
   1  -2 -13    3.57    1.08
  -1   2  12    3.65    1.14
   1  -2 -12    2.78    0.90
   1  -2 -11    9.82    1.77
  -1   2  11   14.19    2.26
  -1   2  10    7.28    1.48
   1  -2 -10    6.08    1.30
   1  -2  -9   16.68    2.08
  -1   2   9   19.14    2.34
  -1   2   8    4.57    1.09
   1  -2  -8    3.72    0.95
   1  -2  -7    6.95    1.26
  -1   2   7    8.23    1.30
   1  -2  -6   41.75    2.80
  -1   2   6   47.85    2.85
   1  -2  -5    1.79    0.55
  -1   2   5    1.95    0.49
  -1   2   5    1.54    0.54
   1  -2  -4   92.63    3.59
   1  -2  -4   85.96    3.49
  -1   2   4   83.77    3.27
  -1   2   4   84.46    2.95
  -1   2   3   23.10    1.47
   1  -2  -3   22.34    1.58
   1  -2  -3   20.30    1.59
  -1   2   3   19.76    1.51
  -1   2   2   21.37    1.64
   1  -2  -2   23.22    1.45
  -1   2   2   22.67    1.28
   1  -2  -1   84.31    2.50
  -1   2   1   83.08    2.35
  -1   2   0    0.81    0.28
   1  -2   0    0.66    0.25
  -1   2  -1    2.99    0.53
   1  -2   1    3.33    0.58
  -1   2  -2   70.21    2.53
   1  -2   2   65.50    2.46
  -1   2  -3   57.62    2.16
   1  -2   3   58.20    2.48
   1  -2   4    5.32    0.75
  -1   2  -4    5.21    1.03
  -1   2  -4    5.86    0.71
  -1   2  -5   28.53    2.60
  -1   2  -5   30.74    1.65
   1  -2   5   29.03    1.76
  -1   2  -6    5.15    0.68
   1  -2   6    4.16    0.67
  -1   2  -6    4.53    1.03
   1  -2   7    1.16    0.37
  -1   2  -7    1.61    0.40
  -1   2  -7    1.73    0.66
   1  -2   8    8.13    1.03
  -1   2  -8    7.84    1.61
  -1   2  -9   58.59    4.73
   1  -2   9   60.89    2.92
  -1   2 -10   11.88    2.16
  -1   2 -11    7.03    1.70
  -1   2 -12    3.68    1.40
  -1   2 -13    1.58    1.03
  -1   2 -14    1.31    0.61
  -1   2 -15    1.26    0.93
  -1   2 -16    2.45    1.23
  -1   2 -17   11.64    2.93
  -1   2 -18    0.46    0.55
  -1   2 -19    4.35    1.77
  -1   2 -20    1.10    1.24
   1  -1 -21   -0.12    0.26
   1  -1 -20    3.83    1.67
   1  -1 -19    8.02    2.33
   1  -1 -18    0.57    0.67
   1  -1 -17    3.37    1.32
  -1   1  16   19.00    3.23
   1  -1 -16   13.80    2.64
   1  -1 -15   42.28    4.56
  -1   1  15   61.05    5.61
   1  -1 -14   42.31    4.50
  -1   1  14   57.76    5.29
   1  -1 -13    1.53    0.70
  -1   1  13    3.99    1.36
   1  -1 -12    3.80    1.17
  -1   1  12    6.49    1.69
   1  -1 -11    8.66    1.74
  -1   1  11   10.71    2.06
  -1   1  10   40.79    3.67
   1  -1 -10   31.47    3.17
   1  -1  -9  149.70    6.58
  -1   1   9  205.41    7.60
   1  -1  -8  112.51    5.42
  -1   1   8  150.42    6.20
   1  -1  -7   83.72    4.40
  -1   1   7  101.47    4.68
  -1   1   6    5.60    1.03
   1  -1  -6    4.14    0.94
   1  -1  -5   92.03    3.56
  -1   1   5   94.92    4.12
   1  -1  -5   99.00    3.94
   1  -1  -4   45.86    2.44
  -1   1   4   41.81    2.32
  -1   1   4   43.64    2.26
   1  -1  -4   39.54    2.04
  -1   1   3   51.42    2.05
  -1   1   3   50.83    2.28
   1  -1  -3   56.98    2.48
   1  -1  -3   50.71    1.97
  -1   1   3   53.04    2.32
   1  -1  -2   25.90    1.09
  -1   1   2   26.43    1.55
   1  -1  -2   26.05    1.51
  -1   1  -2    6.71    0.76
  -1   1  -2    6.75    0.68
   1  -1   2    6.57    0.69
   1  -1   2    6.46    0.75
  -1   1  -3   12.85    1.29
   1  -1   3   12.87    1.04
  -1   1  -3   12.71    1.22
   1  -1   3   13.10    1.27
  -1   1  -3   14.40    1.05
  -1   1  -4   40.36    2.43
  -1   1  -4   45.24    1.91
  -1   1  -4   39.64    2.57
   1  -1   4   42.73    1.96
   1  -1   4   43.12    2.57
   1  -1   5   23.81    1.58
   1  -1   5   23.33    2.19
  -1   1  -5   27.03    1.57
  -1   1  -5   22.40    2.08
   1  -1   6  142.88    4.01
  -1   1  -6  133.14    5.55
  -1   1  -7   83.15    4.66
   1  -1   7   89.05    3.35
   1  -1   8   40.13    3.40
  -1   1  -8   30.42    3.07
  -1   1  -9   38.17    3.73
   1  -1   9   55.26    4.21
  -1   1 -10   17.19    2.64
   1  -1  10   23.58    2.90
   1  -1  11    3.21    1.18
  -1   1 -11    2.30    1.10
   1  -1  12    1.66    0.98
  -1   1 -12    1.38    0.87
   1  -1  13   72.43    6.01
  -1   1 -13   47.78    5.08
   1  -1  14  117.44    7.80
  -1   1 -14   77.13    6.72
  -1   1 -15   -0.06    0.41
  -1   1 -16   14.15    2.92
  -1   1 -17    1.86    1.10
  -1   1 -18    0.53    0.09
  -1   1 -19    0.30    0.63
  -1   1 -20    2.97    1.54
   1   0 -21    0.51    0.78
   1   0 -20    0.08    0.70
   1   0 -19    0.00    0.40
   1   0 -18    3.54    1.35
   1   0 -17   21.27    3.54
   1   0 -16    2.09    1.27
   1   0 -15    3.40    1.20
   1   0 -14    0.19    0.20
   1   0 -13    4.55    1.32
   1   0 -12   -0.40    0.53
  -1   0  12   -0.18    0.29
   1   0 -11    0.20    0.09
  -1   0  11    0.12    0.32
   1   0 -10   50.24    4.37
  -1   0  10   58.50    4.48
   1   0  -9   21.21    2.78
  -1   0   9   26.26    2.83
  -1   0   8    0.17    0.20
   1   0  -8    0.30    0.32
  -1   0   7    0.21    0.19
   1   0  -7    0.25    0.16
  -1   0   6    0.99    0.43
   1   0  -6    0.53    0.46
  -1   0   5   50.16    2.81
   1   0  -5   45.76    2.99
   1   0  -4  289.49    6.59
  -1   0   4  301.11    7.32
  -1   0   3    4.24    0.51
  -1   0   3    3.89    0.70
   1   0  -3    4.56    0.65
   1   0  -3    4.11    0.66
   1   0  -3    4.23    0.50
   1   0   2    1.80    0.36
  -1   0  -2    1.82    0.42
  -1   0  -3   12.09    1.10
   1   0   3   13.61    1.16
  -1   0  -3   14.36    1.09
  -1   0  -3   14.31    1.34
   1   0   3   13.31    1.05
  -1   0  -4  393.04    7.24
   1   0   4  446.34    6.55
  -1   0  -4  448.99    7.99
   1   0   4  409.51    7.38
  -1   0  -5   23.62    1.99
   1   0   5   22.69    1.94
   1   0   5   25.64    1.69
  -1   0  -6    2.87    0.77
   1   0   6    3.66    0.88
   1   0   6    3.06    0.62
  -1   0  -7    0.30    0.13
   1   0   7    0.45    0.25
   1   0   8   34.25    3.14
  -1   0  -8   24.62    2.76
   1   0   9    6.39    1.45
  -1   0  -9    3.63    1.10
  -1   0 -10   21.87    2.92
   1   0  10   31.37    3.40
   1   0  11   13.10    2.33
  -1   0 -11    9.01    1.88
  -1   0 -12    9.10    1.96
   1   0  12   13.91    2.41
   1   0  13    3.68    1.38
  -1   0 -13    2.73    1.12
  -1   0 -14    0.80    0.52
   1   0  14    0.93    0.57
   1   0  15    0.01    0.79
  -1   0 -15   -0.65    0.63
  -1   0 -16   13.51    2.71
   1   0  16   23.55    3.68
  -1   0 -17    0.22    0.28
   1   0  17   -0.30    0.62
  -1   0 -18   11.13    2.67
  -1   0 -19    2.92    1.34
   1   1 -21    1.25    1.10
   1   1 -20   15.96    3.21
   1   1 -19    4.04    1.91
   1   1 -18    4.04    1.57
   1   1 -17    9.88    2.60
   1   1 -16    3.50    1.51
   1   1 -15   31.08    4.32
   1   1 -14    2.59    1.45
   1   1 -13   71.22    6.18
   1   1 -12   27.05    3.67
  -1  -1  12   27.75    1.82
   1   1 -11   53.77    4.96
   1   1 -10   20.86    3.02
   1   1  -9   21.56    3.08
   1   1  -8   29.42    3.34
   1   1  -7    9.54    2.07
   1   1  -6   42.87    3.65
  -1  -1   6   49.41    1.69
   1   1  -5  147.81    6.05
  -1  -1   4    0.84    0.41
   1   1  -4    0.82    0.53
   1   1  -3   34.12    2.39
  -1  -1   3   36.47    2.49
   1   1  -2  350.96    3.65
  -1  -1   2  326.89    6.58
  -1  -1  -1   32.44    1.96
   1   1   2  108.87    3.61
   1   1   2  100.90    3.00
  -1  -1  -2  111.71    3.88
  -1  -1  -3   51.15    2.81
   1   1   3   51.76    2.59
   1   1   4    4.64    0.85
   1   1   4    3.98    0.65
  -1  -1  -4    3.53    0.68
  -1  -1  -5  129.34    4.45
   1   1   5  134.46    4.32
   1   1   6  134.41    4.88
  -1  -1  -6  147.32    5.37
   1   1   7   77.97    4.22
  -1  -1  -7   54.83    3.55
   1   1   8   76.87    4.57
  -1  -1  -8   56.37    3.90
   1   1   9    6.12    1.42
  -1  -1  -9    4.34    1.12
   1   1  10   38.21    3.74
  -1  -1 -10   26.77    3.04
  -1  -1 -11   42.23    3.96
   1   1  11   66.48    5.09
   1   1  12   78.68    5.80
  -1  -1 -12   50.84    4.46
  -1  -1 -13   45.91    4.29
   1   1  13   65.35    5.52
  -1  -1 -14    8.67    2.01
   1   1  14   10.85    2.44
  -1  -1 -15    0.92    0.64
   1   1  15    1.19    1.03
  -1  -1 -16    1.23    0.83
   1   1  16    0.65    0.18
  -1  -1 -17    1.33    0.79
   1   1  17    3.02    1.29
   1   1  18    1.45    1.07
  -1  -1 -18    2.19    1.16
   1   1  19    3.63    1.63
   1   1  20   12.18    3.08
   1   2 -21    3.06    1.48
   1   2 -20    0.75    1.06
   1   2 -19    9.52    2.66
   1   2 -18    8.42    2.45
   1   2 -17    1.87    1.10
   1   2 -16   -0.43    0.67
   1   2 -15    0.38    0.67
   1   2 -14   -0.53    0.83
  -1  -2  13    4.33    0.62
   1   2 -13    5.98    1.93
  -1  -2  12    0.06    0.12
  -1  -2  12    0.64    0.28
  -1  -2  11   17.83    1.04
   1   2 -11   25.03    3.63
  -1  -2  11   21.83    1.25
  -1  -2  10   39.86    1.54
  -1  -2  10   32.29    1.26
   1   2  -9    5.87    1.61
   1   2  -8    0.88    0.84
   1   2  -7    0.36    0.48
   1   2  -6   13.30    2.32
   1   2  -5   17.88    2.28
   1   2  -4  150.66    6.03
   1   2  -3   34.49    2.64
   1   2  -3   38.85    1.16
   1   2  -2    1.88    0.59
  -1  -2   2    1.12    0.51
   1   2  -2    1.24    0.26
  -1  -2   1    1.33    0.45
   1   2  -1    1.51    0.50
   1   2   0   10.25    0.90
  -1  -2   0   12.14    0.90
  -1  -2  -1   18.15    1.86
   1   2   1   17.65    1.71
  -1  -2  -2   29.16    2.30
   1   2   2   27.84    2.17
   1   2   3  209.19    5.96
   1   2   4   23.27    1.24
  -1  -2  -4   22.60    1.19
  -1  -2  -5   30.05    1.77
   1   2   5   27.83    1.68
  -1  -2  -6    3.11    0.68
   1   2   6    2.90    0.63
   1   2   7    8.22    1.37
   1   2   7    5.25    0.95
  -1  -2  -7    5.20    0.96
   1   2   8    2.02    0.76
  -1  -2  -8    1.34    0.53
  -1  -2  -9   16.87    2.05
   1   2   9   21.77    2.54
   1   2  10   26.16    2.98
  -1  -2 -10   17.11    2.17
  -1  -2 -11   49.49    3.82
   1   2  11   70.43    5.16
   1   2  12   24.59    3.25
  -1  -2 -12   15.90    2.23
  -1  -2 -13    0.43    0.51
   1   2  13   -0.04    0.28
   1   2  14    1.44    0.88
  -1  -2 -14    1.78    0.92
   1   2  15    0.40    0.49
  -1  -2 -15   -0.20    0.59
  -1  -2 -16   -0.33    0.49
   1   2  16    0.03    0.28
  -1  -2 -17   10.61    2.19
   1   2  17   18.03    3.27
   1   2  18   31.14    4.49
   1   2  19    1.21    0.85
   1   2  20    1.76    1.51
   1   3 -21    4.22    1.87
   1   3 -20    3.63    1.47
   1   3 -19    7.12    2.62
   1   3 -18    0.56    0.38
   1   3 -17    3.77    1.76
   1   3 -16    5.60    2.38
   1   3 -15    4.31    1.90
   1   3 -14   37.05    5.09
   1   3 -13   89.45    7.46
   1   3 -12   39.76    4.98
   1   3 -11    4.29    1.72
   1   3 -10   29.46    4.24
   1   3  -9   19.26    3.52
   1   3  -8   11.48    2.25
   1   3  -7   57.75    4.80
   1   3  -6  273.35    9.80
   1   3  -5   29.18    2.88
   1   3  -4  237.63    7.67
   1   3  -3   81.99    4.13
   1   3  -2   64.47    3.30
  -1  -3   2   47.84    3.00
  -1  -3   1   12.28    1.79
   1   3  -1   70.79    3.01
  -1  -3   0  259.40    4.95
   1   3   0  265.29    5.16
   1   3   1   70.56    4.00
  -1  -3  -1   67.13    3.95
   1   3   1   62.46    2.04
   1   3   2  343.23    8.69
   1   3   3   73.89    4.04
   1   3   4   12.46    1.75
   1   3   5   62.09    2.46
  -1  -3  -5   56.36    2.01
  -1  -3  -6    1.81    0.61
   1   3   6    1.85    0.90
   1   3   7    2.98    0.98
   1   3   7    2.39    0.64
  -1  -3  -7    2.44    0.57
   1   3   8   58.39    3.36
  -1  -3  -8   56.34    2.93
   1   3   9  102.54    5.46
  -1  -3  -9   72.85    3.72
   1   3  10   16.03    2.25
  -1  -3 -10   11.88    1.63
  -1  -3 -11   33.82    2.95
   1   3  11   45.80    4.11
  -1  -3 -12   14.85    2.13
   1   3  12    9.62    2.29
   1   3  13   11.33    2.38
  -1  -3 -13   11.42    1.84
  -1  -3 -14    1.44    0.69
   1   3  14    1.74    1.08
   1   3  15   28.03    3.93
  -1  -3 -15   18.35    2.57
   1   3  16   18.12    3.24
   1   3  17    6.05    1.92
   1   3  18   10.33    2.54
   1   3  19    3.91    1.76
   1   3  20    2.78    1.38
   1   4 -21   -0.01    0.25
   1   4 -20    2.28    1.16
   1   4 -19    5.43    2.11
   1   4 -18    9.07    3.12
   1   4 -17    3.71    1.87
   1   4 -16    3.14    1.63
   1   4 -15    4.97    1.95
   1   4 -14   18.17    4.05
   1   4 -13    6.56    2.28
   1   4 -12   33.40    4.73
   1   4 -11   38.77    5.21
   1   4 -10   12.09    2.78
   1   4  -9   13.73    2.71
   1   4  -8   95.43    6.67
   1   4  -7   44.42    4.75
   1   4  -6    3.47    1.10
   1   4  -5    8.51    1.83
   1   4  -4  142.53    6.25
   1   4  -3   65.45    3.87
   1   4  -2   22.17    2.05
   1   4  -1   68.45    3.32
  -1  -4   1   53.70    3.03
   1   4   0   37.76    3.26
   1   4   0   53.94    2.68
   1   4   1   25.26    2.74
   1   4   1   23.76    1.62
   1   4   2  128.71    5.87
   1   4   3   40.29    3.32
   1   4   4   12.73    1.89
   1   4   4    7.90    0.61
   1   4   5    0.35    0.36
   1   4   5    0.42    0.21
   1   4   6   76.35    4.64
   1   4   6   60.14    2.73
   1   4   7   73.66    3.31
  -1  -4  -7   73.14    2.88
   1   4   8    3.84    0.86
  -1  -4  -8    2.52    0.71
   1   4   8    2.75    0.99
  -1  -4  -9   17.40    1.70
   1   4   9   21.60    2.70
   1   4  10   76.49    5.01
  -1  -4 -10   57.06    3.31
  -1  -4 -11   26.55    2.46
   1   4  11   32.19    3.48
   1   4  12    7.82    1.79
  -1  -4 -12    5.93    1.21
  -1  -4 -13    9.30    1.67
   1   4  13    7.81    1.97
   1   4  14    1.85    0.93
  -1  -4 -14    2.21    0.87
   1   4  15    4.06    1.55
   1   4  16    1.45    0.94
   1   4  17   45.68    5.35
   1   4  18    9.97    2.68
   1   4  19   -0.46    0.78
   1   4  20    0.01    0.57
   1   5 -20    4.34    2.26
   1   5 -19    1.07    0.95
   1   5 -18    0.75    0.58
   1   5 -17    3.76    1.83
   1   5 -16    8.32    2.85
   1   5 -15   21.57    4.27
   1   5 -14   53.20    6.45
   1   5 -13   24.33    4.13
   1   5 -12    7.72    2.35
   1   5 -11   33.15    4.62
   1   5 -10   26.49    3.86
   1   5  -9   42.84    4.67
   1   5  -8  304.92   11.98
   1   5  -7   86.64    5.99
   1   5  -7   54.45    1.62
   1   5  -6  150.80    7.49
   1   5  -6  149.30    3.48
   1   5  -5   44.74    4.02
   1   5  -4  127.01    6.18
   1   5  -3   54.63    3.81
   1   5  -2  103.29    4.81
   1   5  -1  139.73    5.33
   1   5   0  155.02    5.29
   1   5   0  150.43    7.25
   1   5   1  133.50    4.49
   1   5   1  166.56    7.82
   1   5   2   38.56    3.53
   1   5   2   50.16    2.45
   1   5   3    6.34    1.86
   1   5   4   45.29    1.79
   1   5   4   67.66    4.62
   1   5   5   21.87    1.37
   1   5   5    8.06    2.13
   1   5   6   23.64    2.83
   1   5   6   41.98    2.05
   1   5   7  260.55    6.03
   1   5   7  248.46    9.04
   1   5   8   39.37    3.75
   1   5   8   36.60    2.49
   1   5   9   33.10    3.57
   1   5   9   26.50    2.22
   1   5  10    3.28    1.33
  -1  -5 -10   10.94    1.45
   1   5  11    2.90    1.05
  -1  -5 -11    4.36    0.94
  -1  -5 -12    7.67    1.42
   1   5  12    3.01    1.23
   1   5  13   10.95    2.35
   1   5  14   21.71    3.27
   1   5  15   19.04    3.28
   1   5  16    1.23    0.98
   1   5  17    1.11    0.86
   1   5  18    4.90    1.89
   1   5  19    0.92    1.13
   1   6 -20    1.88    1.37
   1   6 -19    2.86    1.51
   1   6 -18    3.77    2.05
   1   6 -17    9.61    3.19
   1   6 -16   19.51    4.15
   1   6 -15   24.80    4.79
   1   6 -14    8.64    2.81
   1   6 -13   37.40    5.70
   1   6 -12    3.93    1.52
   1   6 -11   17.50    3.46
   1   6 -10   56.30    5.97
   1   6  -9   53.53    5.39
   1   6  -8   20.00    3.02
   1   6  -8   11.75    0.83
   1   6  -7   24.50    1.62
   1   6  -7  101.62    6.71
   1   6  -6   21.24    2.92
   1   6  -5   41.06    3.89
   1   6  -4    6.67    1.53
   1   6  -3   76.61    4.85
   1   6  -2   56.84    3.93
   1   6  -1   72.60    4.27
   1   6   0    7.69    2.09
   1   6   0   62.02    3.67
   1   6   1   48.84    3.02
   1   6   1   14.15    2.52
   1   6   2   24.21    3.13
   1   6   2   62.59    3.14
   1   6   3    5.08    1.40
   1   6   4   25.43    3.10
   1   6   5   12.17    1.06
   1   6   5   13.58    2.29
   1   6   6  136.91    7.24
   1   6   6   93.16    2.99
   1   6   7   10.95    1.18
   1   6   7    5.96    1.52
   1   6   8   39.08    2.53
   1   6   8    6.01    1.73
   1   6   9   81.26    5.80
   1   6  10   16.78    2.72
   1   6  11    2.08    1.09
   1   6  12   52.34    4.59
   1   6  13   10.23    2.18
   1   6  14   32.59    3.93
   1   6  15   11.99    2.56
   1   6  16   10.35    2.49
   1   6  17    7.09    2.22
   1   6  18    2.05    1.24
   1   6  19    2.09    1.52
   1   7 -19    6.50    2.79
   1   7 -18    8.03    2.76
   1   7 -17    2.41    1.68
   1   7 -16    1.71    1.59
   1   7 -15    1.83    1.44
   1   7 -14   10.60    2.99
   1   7 -13    9.89    2.85
   1   7 -12   55.39    6.50
   1   7 -11   28.15    4.62
   1   7 -10    6.90    2.07
   1   7  -9    5.40    0.55
   1   7  -9   13.40    2.82
   1   7  -8   62.81    5.76
   1   7  -8   27.73    1.65
   1   7  -7   49.01    2.58
   1   7  -7   77.47    6.04
   1   7  -6   11.18    2.17
   1   7  -5   22.41    3.05
   1   7  -4   84.02    5.66
   1   7  -3   34.60    3.42
   1   7  -2   36.88    3.40
   1   7  -1   65.60    4.40
   1   7   0   57.55    3.89
   1   7   0    7.65    2.13
   1   7   1   34.33    2.88
   1   7   1   20.71    3.16
   1   7   2   37.26    2.75
   1   7   2   40.09    4.23
   1   7   3   33.11    3.83
   1   7   4   16.04    2.61
   1   7   5    9.14    1.01
   1   7   5   13.59    2.36
   1   7   6   60.78    5.09
   1   7   6   52.15    2.40
   1   7   7   50.66    2.43
   1   7   7   75.89    5.58
   1   7   8    4.81    1.52
   1   7   9    2.92    1.17
   1   7  10   28.75    3.74
   1   7  11   30.00    3.75
   1   7  12   10.15    2.25
   1   7  13    5.08    1.58
   1   7  14    2.25    1.11
   1   7  15    0.93    0.75
   1   7  16    0.93    0.87
   1   7  17    1.23    0.90
   1   7  18    1.75    1.21
   1   8 -19   -1.12    1.24
   1   8 -18    1.37    0.68
   1   8 -17    2.67    1.57
   1   8 -16    2.20    1.30
   1   8 -15    5.58    2.20
   1   8 -14    7.90    2.62
   1   8 -13   24.24    4.62
   1   8 -12   44.36    6.08
   1   8 -11   11.29    2.84
   1   8 -10   18.64    3.55
   1   8  -9   19.39    3.49
   1   8  -8    0.81    0.26
   1   8  -8    0.98    0.43
   1   8  -7    5.44    0.96
   1   8  -7   13.81    2.64
   1   8  -6   67.57    5.74
   1   8  -5   66.39    5.45
   1   8  -4   72.41    5.51
   1   8  -3   31.96    3.50
   1   8  -2   28.48    3.18
   1   8  -1   66.23    6.00
   1   8  -1   50.55    4.10
   1   8   0   10.82    2.49
   1   8   0   47.16    3.83
   1   8   1   19.04    3.24
   1   8   1   29.09    2.90
   1   8   2   28.95    2.70
   1   8   2    4.19    1.54
   1   8   3   68.79    5.84
   1   8   3   70.05    3.93
   1   8   4   71.51    5.89
   1   8   5   56.69    2.86
   1   8   5   84.10    6.39
   1   8   6   17.12    2.90
   1   8   7    0.99    0.57
   1   8   8    2.57    1.20
   1   8   9    5.96    1.73
   1   8  10    2.96    1.22
   1   8  11   44.59    4.76
   1   8  12   30.09    3.98
   1   8  13    7.73    2.00
   1   8  14    3.76    1.40
   1   8  15    0.59    0.56
   1   8  16    1.38    1.19
   1   8  17    0.63    0.65
   1   8  18    1.75    1.11
   1   9 -18    5.77    2.70
   1   9 -17    7.10    2.62
   1   9 -16    0.01    0.34
   1   9 -15    6.61    2.28
   1   9 -14    2.88    1.66
   1   9 -13    7.50    2.48
   1   9 -12   19.13    4.08
   1   9 -11    7.64    2.16
   1   9 -10   32.03    4.88
   1   9  -9    7.34    2.28
   1   9  -8    3.43    1.73
   1   9  -7   10.25    1.50
   1   9  -7   13.50    2.95
   1   9  -6   21.94    3.47
   1   9  -6   26.10    2.52
   1   9  -5   34.79    4.24
   1   9  -4   62.49    5.41
   1   9  -3   21.35    2.99
   1   9  -2   22.61    2.99
   1   9  -1   17.31    2.58
   1   9  -1   25.60    3.98
   1   9   0   16.17    2.42
   1   9   0    2.17    1.18
   1   9   1   21.78    2.69
   1   9   1   16.74    3.18
   1   9   2   15.14    2.99
   1   9   2   19.47    2.41
   1   9   3   52.96    5.48
   1   9   3   60.33    4.06
   1   9   4   30.89    2.75
   1   9   4   14.18    2.81
   1   9   5    3.84    1.38
   1   9   6   10.65    2.38
   1   9   7    3.07    1.28
   1   9   8    9.22    2.22
   1   9   9   41.70    4.74
   1   9  10    7.73    2.01
   1   9  11    5.02    1.65
   1   9  12    2.88    1.28
   1   9  13    0.18    0.47
   1   9  14    8.81    2.17
   1   9  15    0.37    0.46
   1   9  16    7.22    2.03
   1   9  17    6.27    1.99
   1  10 -17    1.11    0.88
   1  10 -16    7.96    3.18
   1  10 -15    5.15    2.50
   1  10 -14    5.08    2.30
   1  10 -13    7.81    2.62
   1  10 -12   33.81    6.11
   1  10 -11   12.76    3.53
   1  10 -10   -0.06    0.36
   1  10  -9   29.51    4.72
   1  10  -8   16.14    3.32
   1  10  -7   11.97    2.80
   1  10  -7   11.33    1.69
   1  10  -6   19.15    2.31
   1  10  -6   17.03    3.16
   1  10  -5   36.54    4.62
   1  10  -4   33.31    4.24
   1  10  -3   12.83    2.52
   1  10  -2    4.70    1.47
   1  10  -2    5.60    2.13
   1  10  -1  113.85    6.96
   1  10  -1   37.91    5.25
   1  10   0  122.99    7.06
   1  10   0  159.26   10.54
   1  10   1    6.15    1.59
   1  10   1    2.30    1.36
   1  10   2   13.70    2.20
   1  10   2   10.84    2.57
   1  10   3   35.05    3.38
   1  10   3   25.10    3.88
   1  10   4   40.66    3.46
   1  10   4   43.10    5.18
   1  10   5    1.22    0.96
   1  10   6    3.63    1.48
   1  10   7    4.53    1.67
   1  10   8   36.26    4.65
   1  10   9    0.87    0.67
   1  10  10   15.09    2.90
   1  10  11   45.39    5.18
   1  10  12    7.19    2.05
   1  10  13    0.77    0.85
   1  10  14    5.11    1.74
   1  10  15    5.67    1.91
   1  10  16    1.69    1.11
   1  11 -16    5.66    2.39
   1  11 -15   -1.67    1.31
   1  11 -14    2.29    1.29
   1  11 -13    1.68    1.17
   1  11 -12    9.32    2.95
   1  11 -11    3.10    2.01
   1  11 -10   11.93    3.29
   1  11  -9   18.69    4.07
   1  11  -8   22.01    4.13
   1  11  -7    6.82    2.12
   1  11  -6   20.68    4.14
   1  11  -6   10.57    2.07
   1  11  -5   20.55    3.55
   1  11  -4   17.60    3.08
   1  11  -3   22.25    3.62
   1  11  -3    9.14    2.76
   1  11  -2   16.01    3.72
   1  11  -2   59.21    5.48
   1  11  -1    8.86    2.47
   1  11  -1    7.55    1.88
   1  11   0    5.94    1.81
   1  11   0    2.56    1.51
   1  11   1   90.62    8.27
   1  11   1   67.24    5.34
   1  11   2   34.05    4.80
   1  11   2   27.77    3.31
   1  11   3   21.79    3.88
   1  11   3   20.17    2.71
   1  11   4    4.59    1.77
   1  11   5   36.52    4.80
   1  11   6    9.01    2.41
   1  11   7   32.16    4.51
   1  11   8   28.15    4.13
   1  11   9    2.51    1.35
   1  11  10    4.48    1.78
   1  11  11    1.38    0.90
   1  11  12    0.46    0.60
   1  11  13    0.38    0.54
   1  11  14    0.57    0.39
   1  11  15    4.80    1.72
   1  12 -15   14.52    4.10
   1  12 -14    2.93    2.49
   1  12 -13    2.90    1.77
   1  12 -12    2.29    1.31
   1  12 -11    6.45    2.29
   1  12 -10   -0.31    0.92
   1  12  -9   10.84    3.07
   1  12  -8   39.30    5.72
   1  12  -7   10.72    3.23
   1  12  -6    9.48    2.68
   1  12  -5    2.49    1.35
   1  12  -5    2.10    0.83
   1  12  -4    1.28    0.80
   1  12  -3    8.75    2.81
   1  12  -3   11.35    2.72
   1  12  -2    5.84    2.29
   1  12  -2    4.12    1.63
   1  12  -1   62.56    5.63
   1  12  -1   90.13    8.82
   1  12   0   50.71    5.29
   1  12   0   16.69    3.99
   1  12   1    1.79    1.41
   1  12   1    2.01    1.16
   1  12   2   12.37    3.09
   1  12   3    2.59    1.38
   1  12   4    1.05    0.78
   1  12   5   16.03    3.37
   1  12   6   16.09    3.36
   1  12   7   30.59    4.59
   1  12   8    7.44    2.29
   1  12   9    1.53    0.79
   1  12  10    3.46    1.53
   1  12  11    2.68    1.33
   1  12  12    1.92    1.24
   1  12  13   13.52    3.15
   1  13 -13    7.47    2.96
   1  13 -12    1.45    0.73
   1  13 -11    3.50    1.76
   1  13 -10    6.22    2.56
   1  13  -9    4.22    1.91
   1  13  -8    0.18    0.49
   1  13  -7    5.44    2.18
   1  13  -6    3.24    1.57
   1  13  -5    0.38    0.79
   1  13  -4   15.03    3.42
   1  13  -4   11.76    3.51
   1  13  -3   23.40    4.86
   1  13  -3   14.84    3.09
   1  13  -2    2.16    1.69
   1  13  -2    1.30    0.80
   1  13  -1   10.66    3.26
   1  13  -1    6.02    1.83
   1  13   0    0.73    0.79
   1  13   0    3.64    1.59
   1  13   1    2.26    1.39
   1  13   2    3.00    1.90
   1  13   3   16.05    3.65
   1  13   4    2.78    1.39
   1  13   5    3.87    1.88
   1  13   6    1.03    0.80
   1  13   7   -0.17    0.44
   1  13   8    7.31    2.33
   1  13   9    0.91    1.01
   1  13  10    0.18    0.76
   1  13  11    1.60    1.35
   1  13  12    7.03    2.32
   1  14 -11   -1.56    1.28
   1  14 -10    3.99    1.67
   1  14  -9    2.98    1.51
   1  14  -8    6.88    2.61
   1  14  -7    4.91    2.07
   1  14  -6   10.63    3.44
   1  14  -5    1.03    0.66
   1  14  -5    1.77    1.57
   1  14  -4   13.31    3.79
   1  14  -4    9.96    2.72
   1  14  -3    6.96    2.35
   1  14  -3    9.61    3.15
   1  14  -2    9.00    2.56
   1  14  -2   15.60    4.17
   1  14  -1   21.85    4.70
   1  14   0    0.15    0.43
   1  14   1    1.09    0.96
   1  14   2    4.75    2.07
   1  14   3    7.24    2.47
   1  14   4    1.56    1.31
   1  14   5   29.09    4.92
   1  14   6   17.01    3.77
   1  14   7    8.49    2.70
   1  14   8    0.04    0.71
   1  14   9    2.98    1.48
   1  14  10   -0.23    0.41
   1  15  -9    8.97    3.01
   1  15  -8    2.12    1.53
   1  15  -7    0.84    0.76
   1  15  -6   -0.57    0.69
   1  15  -6   -0.08    0.99
   1  15  -5    0.51    0.68
   1  15  -5    0.80    0.49
   1  15  -4    1.76    1.12
   1  15  -4    2.75    1.73
   1  15  -3    2.38    1.82
   1  15  -2    1.09    1.54
   1  15  -1    2.46    1.83
   1  15   0    0.11    0.31
   1  15   1    0.44    0.23
   1  15   2    3.61    1.88
   1  15   3    6.31    2.40
   1  15   4    3.64    1.88
   1  15   5   -0.61    0.60
   1  15   6    1.74    0.94
   1  15   7    0.20    0.46
   1  16  -4   -0.10    1.28
   1  16  -3    7.73    3.45
   1  16  -2    2.02    1.56
   1  16  -1   -0.20    0.64
   1  16  -1    0.71    0.99
   1  16   0    3.05    2.00
   1  16   1    5.75    2.36
   1  16   2   12.33    3.64
   1  16   3    1.89    1.60
  -2  16   3    7.74    2.58
  -2  16   2    2.72    1.27
  -2  16   1    2.59    1.23
  -2  16   0   11.18    2.90
  -2  16  -1   -0.85    1.14
  -2  16  -1    0.46    0.64
  -2  16  -2    0.39    0.71
  -2  16  -2   -1.12    1.18
  -2  16  -3   -0.25    1.29
  -2  15   8    5.12    2.17
  -2  15   7    1.85    1.19
  -2  15   6    1.04    0.71
  -2  15   5    1.71    1.39
  -2  15   4    1.06    1.08
  -2  15   3    3.28    1.53
  -2  15   2   -0.66    1.00
  -2  15   1    2.11    0.86
  -2  15   1    3.18    1.57
  -2  15   0    0.16    0.37
  -2  15   0    0.99    0.88
  -2  15  -1    0.80    0.55
  -2  15  -1    1.09    0.99
  -2  15  -2    1.69    0.98
  -2  15  -2    0.27    0.84
  -2  15  -3   -0.23    0.52
  -2  15  -3    1.09    1.15
  -2  15  -4    1.55    1.16
  -2  15  -5    0.23    0.60
  -2  15  -6    1.89    1.18
  -2  15  -7    3.85    2.00
  -2  14  10    4.54    2.04
  -2  14   9   11.17    3.19
  -2  14   8    3.02    0.97
  -2  14   7    0.83    0.51
  -2  14   6   -0.93    0.91
  -2  14   5    0.75    0.81
  -2  14   4   14.67    3.14
  -2  14   3   11.78    2.95
  -2  14   3   14.05    3.04
  -2  14   2   15.06    3.18
  -2  14   2   20.05    3.81
  -2  14   1    3.70    1.67
  -2  14   1    4.56    1.90
  -2  14   0    0.19    0.21
  -2  14   0    1.04    1.24
  -2  14   0   -0.04    0.45
  -2  14  -1   -0.22    0.77
  -2  14  -1    0.28    0.98
  -2  14  -1   -0.38    0.53
  -2  14  -2    9.77    2.85
  -2  14  -2    8.59    2.34
  -2  14  -2    4.73    1.86
  -2  14  -3    3.37    1.54
  -2  14  -3    3.79    1.48
  -2  14  -3    4.44    2.04
  -2  14  -4    5.99    2.09
  -2  14  -4    8.61    2.12
  -2  14  -4   10.48    3.20
  -2  14  -5    6.73    2.35
  -2  14  -6    5.29    2.21
  -2  14  -7    3.21    1.65
  -2  14  -8   -0.15    0.62
  -2  14  -9    0.94    1.17
  -2  14 -10    3.32    1.69
  -2  13  12    0.55    0.27
  -2  13  11   -0.75    0.77
  -2  13  10   -0.06    0.50
  -2  13   9    2.00    0.94
  -2  13   9    1.03    0.65
  -2  13   8    7.26    1.99
  -2  13   8    7.28    2.29
  -2  13   7    0.44    0.60
  -2  13   7   -0.16    0.71
  -2  13   6    3.22    1.40
  -2  13   6    2.98    1.41
  -2  13   5    3.07    1.14
  -2  13   5    2.41    1.27
  -2  13   4    0.07    0.38
  -2  13   4   -0.50    0.53
  -2  13   3    5.57    1.88
  -2  13   3    6.24    2.11
  -2  13   2    6.41    2.07
  -2  13   2    5.98    1.92
  -2  13   1    1.20    1.22
  -2  13   1    0.90    0.70
  -2  13   0    5.26    2.04
  -2  13   0    2.77    1.38
  -2  13  -1   -0.48    0.19
  -2  13  -1    0.07    0.78
  -2  13  -1    0.40    0.66
  -2  13  -2   21.80    3.50
  -2  13  -2   29.03    4.81
  -2  13  -2   20.52    3.66
  -2  13  -3    2.01    1.05
  -2  13  -3    2.18    1.36
  -2  13  -3    1.70    1.24
  -2  13  -4    0.51    0.64
  -2  13  -4    0.47    0.59
  -2  13  -5   -1.02    1.10
  -2  13  -5    0.27    0.41
  -2  13  -6    0.16    0.24
  -2  13  -7    1.92    1.14
  -2  13  -8    1.51    0.95
  -2  13  -9    1.14    1.24
  -2  13 -10    0.33    0.40
  -2  13 -11    1.84    1.48
  -2  13 -12    0.14    0.70
  -2  12  14    5.03    2.18
  -2  12  13    6.79    1.75
  -2  12  13    6.52    2.32
  -2  12  12   13.53    2.67
  -2  12  12   14.00    3.42
  -2  12  11   10.87    2.28
  -2  12  11    9.00    2.49
  -2  12  10    5.97    1.82
  -2  12  10    4.26    1.63
  -2  12   9   -0.19    0.52
  -2  12   9   -0.68    0.86
  -2  12   8    6.95    1.84
  -2  12   8    7.26    2.30
  -2  12   7    5.85    1.77
  -2  12   7    4.74    1.76
  -2  12   6   24.82    3.58
  -2  12   6   20.37    3.81
  -2  12   5   37.56    4.56
  -2  12   5   30.78    4.49
  -2  12   4   15.06    3.02
  -2  12   4   17.49    3.10
  -2  12   3   11.88    2.67
  -2  12   3   10.04    2.36
  -2  12   2    0.57    0.86
  -2  12   2   -0.05    0.38
  -2  12   1    0.53    0.60
  -2  12   1    0.69    0.51
  -2  12   0   11.98    2.83
  -2  12   0    8.41    2.16
  -2  12  -1    9.38    2.49
  -2  12  -1    7.16    1.92
  -2  12  -2   35.78    5.03
  -2  12  -2   28.32    3.82
  -2  12  -2   26.88    4.29
  -2  12  -3   18.98    3.56
  -2  12  -3   17.21    2.90
  -2  12  -4    1.69    1.46
  -2  12  -4    0.66    0.29
  -2  12  -5   27.30    3.40
  -2  12  -5   26.71    4.44
  -2  12  -6    0.04    0.33
  -2  12  -6   -0.11    0.55
  -2  12  -7   -0.19    0.35
  -2  12  -8    9.32    2.71
  -2  12  -9   19.39    3.98
  -2  12 -10    1.93    1.68
  -2  12 -11    6.13    2.33
  -2  12 -12    2.19    1.51
  -2  12 -13    0.11    0.59
  -2  11  15    0.05    0.41
  -2  11  15   -0.35    1.16
  -2  11  14    3.79    1.30
  -2  11  13   12.64    2.35
  -2  11  12    1.58    1.04
  -2  11  11    0.51    0.35
  -2  11  10    1.39    0.97
  -2  11   9    5.47    1.66
  -2  11   8   21.75    3.14
  -2  11   7    8.94    2.01
  -2  11   7    6.48    1.94
  -2  11   6   25.91    3.52
  -2  11   6   18.88    3.41
  -2  11   5    9.66    2.13
  -2  11   5    6.31    1.88
  -2  11   4    5.65    1.70
  -2  11   4    5.58    1.81
  -2  11   3    1.70    0.99
  -2  11   3    1.62    1.07
  -2  11   2   17.75    3.00
  -2  11   2   22.81    3.55
  -2  11   1   12.51    2.62
  -2  11   1   11.04    2.40
  -2  11   0    4.71    1.66
  -2  11   0    3.91    1.29
  -2  11  -1   62.62    6.21
  -2  11  -1   49.15    4.86
  -2  11  -2   38.94    4.91
  -2  11  -2   32.16    3.84
  -2  11  -3   10.53    2.23
  -2  11  -3   10.21    2.55
  -2  11  -4    0.88    1.06
  -2  11  -4   -0.40    0.68
  -2  11  -5    7.01    2.46
  -2  11  -5    4.04    1.30
  -2  11  -6    1.10    0.95
  -2  11  -6    2.45    0.96
  -2  11  -7    3.45    2.15
  -2  11  -7   -0.08    0.24
  -2  11  -8    5.23    1.95
  -2  11  -9   15.64    3.41
  -2  11 -10    5.50    2.17
  -2  11 -11    1.15    0.65
  -2  11 -12    3.22    1.70
  -2  11 -13    1.29    0.49
  -2  11 -14    1.13    1.46
  -2  11 -15    1.38    1.24
  -2  10  16   13.67    2.67
  -2  10  15   18.13    3.11
  -2  10  14    7.08    1.88
  -2  10  13    7.30    1.79
  -2  10  12    1.26    0.80
  -2  10  11    0.44    0.52
  -2  10  10   12.84    2.35
  -2  10   9   19.64    2.83
  -2  10   8   36.09    3.80
  -2  10   7   34.69    3.77
  -2  10   6   33.47    3.79
  -2  10   6   28.24    3.99
  -2  10   5    4.51    1.37
  -2  10   5    6.33    1.71
  -2  10   4    0.32    0.50
  -2  10   4    0.42    0.69
  -2  10   3    1.42    1.42
  -2  10   3    4.32    1.83
  -2  10   2    2.27    1.48
  -2  10   2    2.36    1.33
  -2  10   1   24.95    3.75
  -2  10   1   21.24    3.22
  -2  10   0   60.07    5.61
  -2  10   0   50.11    4.80
  -2  10  -1   51.43    4.70
  -2  10  -1   61.97    5.81
  -2  10  -2   70.30    5.40
  -2  10  -3    4.92    1.42
  -2  10  -4    5.20    1.49
  -2  10  -4    3.83    1.68
  -2  10  -5   11.32    3.09
  -2  10  -5    9.80    1.91
  -2  10  -6   42.59    5.37
  -2  10  -6   38.62    3.64
  -2  10  -7   64.41    6.77
  -2  10  -7   62.59    4.52
  -2  10  -8   36.80    5.23
  -2  10  -9    6.28    2.20
  -2  10 -10    0.41    0.67
  -2  10 -11    1.72    1.40
  -2  10 -12    1.06    1.02
  -2  10 -13    3.13    1.70
  -2  10 -14    4.55    2.21
  -2  10 -15    8.91    2.95
  -2  10 -16    6.38    2.39
  -2   9  17    1.53    0.96
  -2   9  16    0.45    0.41
  -2   9  15    8.74    2.06
  -2   9  14   14.08    2.59
  -2   9  13    1.79    0.94
  -2   9  12    0.92    0.73
  -2   9  11    8.23    1.69
  -2   9  10    7.00    1.62
  -2   9   9    2.55    0.95
  -2   9   8    0.82    0.61
  -2   9   7   42.35    3.90
  -2   9   6    9.67    1.83
  -2   9   5    0.77    0.45
  -2   9   5    0.70    0.51
  -2   9   4    6.91    1.64
  -2   9   4    5.73    1.63
  -2   9   3    1.37    0.93
  -2   9   3    1.70    1.07
  -2   9   2    2.02    1.13
  -2   9   2    4.14    1.41
  -2   9   1    2.97    1.27
  -2   9   1    1.88    1.09
  -2   9   0   25.08    3.36
  -2   9   0   20.48    2.86
  -2   9  -1   32.25    3.57
  -2   9  -2   15.60    2.43
  -2   9  -3    0.97    0.58
  -2   9  -4    0.29    0.36
  -2   9  -5    0.50    0.57
  -2   9  -5    0.87    1.05
  -2   9  -6    5.36    1.59
  -2   9  -6   12.00    3.33
  -2   9  -7   20.23    3.44
  -2   9  -7   21.66    2.49
  -2   9  -8   11.41    1.74
  -2   9  -8   10.77    2.63
  -2   9  -9    6.05    2.00
  -2   9 -10   11.44    2.81
  -2   9 -11    2.06    0.68
  -2   9 -12    1.34    1.09
  -2   9 -13    3.04    2.04
  -2   9 -14    4.18    2.06
  -2   9 -15    1.53    0.74
  -2   9 -16    2.82    1.65
  -2   9 -17    0.86    1.25
  -2   8  18    6.22    2.00
  -2   8  18    6.04    2.02
  -2   8  17   21.05    3.49
  -2   8  16   25.81    3.74
  -2   8  15    4.67    1.53
  -2   8  14    4.97    1.50
  -2   8  13    0.34    0.48
  -2   8  12   18.46    2.65
  -2   8  11   14.96    2.27
  -2   8  10   38.23    3.67
  -2   8   9   80.81    5.29
  -2   8   8   19.55    2.58
  -2   8   7    4.58    1.28
  -2   8   6    1.57    0.94
  -2   8   5   16.82    2.33
  -2   8   4   76.37    5.02
  -2   8   4   69.75    5.49
  -2   8   3   38.18    3.54
  -2   8   3   32.53    3.66
  -2   8   2   51.44    4.29
  -2   8   2   42.50    4.08
  -2   8   1   94.44    6.05
  -2   8   1   79.91    5.50
  -2   8   0   12.14    2.63
  -2   8   0    2.60    1.59
  -2   8  -1   11.74    2.21
  -2   8  -2   10.51    1.97
  -2   8  -3   33.05    3.24
  -2   8  -4   26.76    2.80
  -2   8  -5   39.47    4.37
  -2   8  -5   38.29    3.31
  -2   8  -6   14.73    2.04
  -2   8  -6   15.14    2.91
  -2   8  -7   26.68    2.64
  -2   8  -7   26.75    4.12
  -2   8  -8   10.49    1.77
  -2   8  -8   30.97    4.71
  -2   8  -9   21.58    3.75
  -2   8  -9    8.16    1.33
  -2   8 -10    7.49    2.49
  -2   8 -11   27.34    4.33
  -2   8 -12    2.77    1.58
  -2   8 -13    9.35    2.74
  -2   8 -14   12.61    3.25
  -2   8 -15   15.93    3.94
  -2   8 -16   15.04    3.95
  -2   8 -17    4.73    2.40
  -2   7  19    6.79    2.03
  -2   7  19    8.24    2.36
  -2   7  18   13.07    2.84
  -2   7  18   12.82    2.87
  -2   7  17    0.69    0.74
  -2   7  16    1.49    0.94
  -2   7  15    0.38    0.12
  -2   7  14    0.75    0.65
  -2   7  13    7.04    1.75
  -2   7  12   20.48    2.71
  -2   7  11   10.15    1.94
  -2   7  10   -0.14    0.40
  -2   7   9    3.73    1.10
  -2   7   8    3.81    1.08
  -2   7   7   51.55    3.79
  -2   7   6    1.66    0.69
  -2   7   5   41.59    3.35
  -2   7   4   59.87    4.08
  -2   7   4   61.80    4.89
  -2   7   3    4.50    1.44
  -2   7   3   17.81    2.74
  -2   7   2   20.10    2.70
  -2   7   2   16.57    2.27
  -2   7   1    6.06    1.39
  -2   7   1    5.90    1.37
  -2   7   0    4.73    1.23
  -2   7   0    3.26    0.99
  -2   7  -1   23.53    2.68
  -2   7  -2   67.89    4.44
  -2   7  -3   42.72    3.41
  -2   7  -4   35.24    3.05
  -2   7  -5    2.13    0.97
  -2   7  -5    2.63    0.82
  -2   7  -6   27.46    2.62
  -2   7  -6   39.76    4.53
  -2   7  -7   13.66    2.75
  -2   7  -7   13.88    1.77
  -2   7  -8    1.41    1.25
  -2   7  -8    0.36    0.34
  -2   7  -9    0.18    0.46
  -2   7  -9    0.11    0.19
  -2   7 -10   61.06    5.99
  -2   7 -10   64.64    3.39
  -2   7 -11   10.42    2.98
  -2   7 -12    4.81    1.91
  -2   7 -13    3.65    1.58
  -2   7 -14    4.23    1.88
  -2   7 -15    2.28    1.36
  -2   7 -16    3.75    1.78
  -2   7 -17   13.16    3.87
  -2   7 -18    5.72    2.87
  -2   6  20   12.46    2.94
  -2   6  19    4.55    1.73
  -2   6  18   12.53    2.86
  -2   6  18   10.09    2.41
  -2   6  17   12.18    2.58
  -2   6  16    0.65    0.57
  -2   6  15   30.55    3.85
  -2   6  14    5.73    1.72
  -2   6  13   65.72    5.12
  -2   6  12   45.09    4.04
  -2   6  11   16.76    2.36
  -2   6  10   42.48    3.47
  -2   6   9   10.60    1.65
  -2   6   8    8.03    1.44
  -2   6   7   63.72    4.01
  -2   6   6    2.33    0.81
  -2   6   5   68.11    3.91
  -2   6   4   17.59    2.06
  -2   6   4   29.45    3.23
  -2   6   3   30.34    3.25
  -2   6   3   13.03    1.79
  -2   6   2  120.46    6.07
  -2   6   2  132.27    5.51
  -2   6   1    3.37    0.96
  -2   6   1    3.43    1.02
  -2   6   0    4.88    1.19
  -2   6  -1   45.35    3.61
  -2   6  -2   75.61    4.37
  -2   6  -3   60.37    3.76
  -2   6  -4   97.61    4.80
  -2   6  -5   25.05    2.37
  -2   6  -6   17.89    1.99
  -2   6  -6   32.26    3.96
  -2   6  -7    4.56    1.48
  -2   6  -7    3.04    0.78
  -2   6  -8    8.81    2.21
  -2   6  -8    3.40    0.80
  -2   6  -9   25.78    2.13
  -2   6  -9   41.10    4.85
  -2   6 -10   57.28    5.66
  -2   6 -10   58.40    3.09
  -2   6 -11   26.31    4.27
  -2   6 -12   42.44    5.29
  -2   6 -13   18.07    3.58
  -2   6 -14   18.33    3.82
  -2   6 -15    0.38    0.58
  -2   6 -16    9.98    2.88
  -2   6 -17   10.46    3.31
  -2   6 -18    3.28    1.93
  -2   6 -19    6.69    3.07
  -2   5  20    3.12    1.57
  -2   5  19   14.96    3.16
  -2   5  18    3.69    1.50
  -2   5  18    3.36    1.28
  -2   5  17    2.13    1.00
   2  -5 -17    3.00    1.17
  -2   5  16    7.41    1.96
   2  -5 -16   10.41    2.34
  -2   5  15    0.62    0.47
   2  -5 -15   -0.18    0.34
   2  -5 -14    0.67    0.43
  -2   5  14   -0.36    0.30
  -2   5  13   55.28    4.78
   2  -5 -13   46.36    4.61
  -2   5  12   36.80    3.71
   2  -5 -12   32.22    3.68
  -2   5  11    7.92    1.65
   2  -5 -11   18.61    2.72
  -2   5  10    9.48    1.72
  -2   5   9   29.25    2.67
  -2   5   8    1.26    0.55
  -2   5   7    4.22    0.97
  -2   5   6  122.91    5.00
  -2   5   5   70.02    4.70
  -2   5   5   77.45    3.79
  -2   5   4    8.45    1.62
  -2   5   4    1.92    0.61
  -2   5   3   28.53    2.32
   2  -5  -3   30.99    2.76
  -2   5   2   15.13    1.68
  -2   5   2   30.04    2.83
  -2   5   1    8.74    1.31
  -2   5   1   12.76    1.82
  -2   5   0   21.05    2.30
  -2   5  -1   55.38    3.61
  -2   5  -2  312.81    8.18
  -2   5  -3   26.01    2.35
  -2   5  -4   31.95    2.54
  -2   5  -5   45.28    2.97
  -2   5  -6    7.53    1.13
  -2   5  -6    8.82    1.80
  -2   5  -7   10.94    1.40
  -2   5  -7   10.27    2.14
  -2   5  -8   10.73    1.33
  -2   5  -8   25.20    3.46
  -2   5  -9   65.54    5.62
  -2   5  -9   76.69    3.54
  -2   5 -10   30.67    3.94
  -2   5 -10   32.18    2.24
  -2   5 -11   22.98    3.85
  -2   5 -11    4.40    0.85
  -2   5 -12   35.66    4.76
  -2   5 -13    0.55    0.40
  -2   5 -14    1.13    1.09
  -2   5 -15   12.73    3.06
  -2   5 -16    4.90    2.02
  -2   5 -17    5.47    2.17
  -2   5 -18    8.49    3.22
  -2   5 -19    4.33    1.99
  -2   4  20    0.29    0.50
  -2   4  19    2.71    1.43
   2  -4 -19    5.30    1.90
  -2   4  18    1.02    0.82
   2  -4 -18    4.72    1.73
  -2   4  17    7.04    1.95
  -2   4  17   11.91    2.40
   2  -4 -16   15.39    2.92
  -2   4  16   20.10    3.23
   2  -4 -15   15.82    2.77
  -2   4  15   19.15    3.03
   2  -4 -14   20.18    3.13
  -2   4  14   23.67    3.26
   2  -4 -13   65.75    5.42
  -2   4  13   72.67    5.49
  -2   4  12    0.16    0.35
   2  -4 -12    0.73    0.61
  -2   4  11    0.82    0.65
   2  -4 -11    2.92    1.04
   2  -4 -10    7.73    1.56
  -2   4  10    3.73    1.09
  -2   4   9   45.31    3.44
   2  -4  -9   48.03    3.95
  -2   4   8   45.54    3.15
   2  -4  -8   46.07    3.76
  -2   4   7   74.03    3.68
  -2   4   6  101.08    5.39
  -2   4   6   94.07    3.88
  -2   4   5   29.94    2.86
  -2   4   5   32.19    2.21
   2  -4  -4    2.90    0.77
  -2   4   4    3.09    0.66
  -2   4   4    4.54    1.10
  -2   4   3   28.56    1.90
   2  -4  -3   34.59    2.50
  -2   4   2   19.12    1.55
  -2   4   2   44.69    3.25
  -2   4   1   50.81    2.62
  -2   4   1   82.03    4.24
  -2   4   0  131.59    5.23
  -2   4  -1   94.62    4.33
  -2   4  -2   96.94    4.30
  -2   4  -3    6.70    1.08
  -2   4  -4   16.11    1.69
  -2   4  -5   71.34    3.31
  -2   4  -6   65.02    4.73
  -2   4  -6   38.45    2.50
  -2   4  -7   36.74    3.74
  -2   4  -7   13.06    1.45
  -2   4  -8   30.68    2.20
  -2   4  -8   49.67    4.60
  -2   4  -9   15.99    2.60
  -2   4  -9   19.26    1.73
  -2   4 -10    4.76    0.88
  -2   4 -10    5.43    1.71
  -2   4 -11    0.27    0.51
  -2   4 -12   68.12    6.20
  -2   4 -13   18.63    3.26
  -2   4 -14   15.19    3.06
  -2   4 -15   14.10    3.28
  -2   4 -16   26.80    4.63
  -2   4 -17    9.23    2.83
  -2   4 -18    7.16    2.57
  -2   4 -19   -0.58    0.76
   2  -3 -20    3.48    1.39
   2  -3 -19   -0.68    0.60
   2  -3 -18    4.54    1.72
  -2   3  18    3.85    1.51
   2  -3 -17   26.30    3.86
  -2   3  17   31.44    4.21
  -2   3  16    8.31    2.12
   2  -3 -16   14.53    2.76
  -2   3  16   11.54    2.18
  -2   3  15    0.95    0.61
   2  -3 -15    0.34    0.35
   2  -3 -14   32.11    3.79
  -2   3  14   40.44    4.20
   2  -3 -13   21.97    3.13
  -2   3  13   19.68    2.84
   2  -3 -12   11.45    2.12
  -2   3  12    5.84    1.53
   2  -3 -11    6.04    1.51
  -2   3  11    6.10    1.41
   2  -3 -10   94.23    5.73
  -2   3  10   87.38    5.12
  -2   3   9    9.33    1.66
   2  -3  -9   21.86    2.70
  -2   3   8   56.72    3.64
   2  -3  -8   77.92    4.82
  -2   3   7   21.27    2.02
   2  -3  -7   23.36    2.49
  -2   3   7   21.23    2.33
  -2   3   6  102.55    4.01
  -2   3   6  108.99    5.18
  -2   3   5  150.50    4.25
  -2   3   5  140.19    5.63
   2  -3  -5  156.96    5.14
  -2   3   4   63.33    2.46
   2  -3  -4   68.68    3.20
  -2   3   4   63.16    3.70
  -2   3   3    4.58    0.96
   2  -3  -3    4.84    0.74
  -2   3   3    5.20    0.66
  -2   3   2  165.20    3.43
   2  -3  -2  165.20    4.05
  -2   3   1   94.79    2.68
  -2   3   1   88.39    4.07
  -2   3   0   36.48    2.52
  -2   3  -1  386.44    8.18
  -2   3  -2    1.48    0.42
  -2   3  -2    2.18    0.61
  -2   3  -3   42.68    2.70
  -2   3  -3   35.28    2.28
  -2   3  -4   51.86    2.76
  -2   3  -5  106.06    3.99
  -2   3  -6   12.19    1.37
  -2   3  -6   19.65    2.48
  -2   3  -7  121.55    6.51
  -2   3  -7  117.75    4.26
  -2   3  -8   49.39    4.32
  -2   3  -8   55.69    2.91
  -2   3  -9   95.73    6.24
  -2   3  -9   57.97    3.03
  -2   3 -10    4.65    0.87
  -2   3 -10    7.25    1.90
  -2   3 -11   16.51    2.83
  -2   3 -12   30.91    3.98
  -2   3 -13   30.66    4.25
  -2   3 -14    0.96    0.88
  -2   3 -15   18.42    3.58
  -2   3 -16   31.06    4.94
  -2   3 -17    4.66    1.98
  -2   3 -18    0.69    0.99
  -2   3 -19    2.35    1.36
  -2   3 -20    7.92    2.75
   2  -2 -21   -0.40    0.57
   2  -2 -20    2.35    1.45
   2  -2 -19    4.89    1.68
   2  -2 -18    2.57    1.34
   2  -2 -17   16.19    3.05
   2  -2 -16   24.06    3.73
  -2   2  16   24.49    2.93
  -2   2  16   24.82    3.60
  -2   2  15   27.83    3.69
  -2   2  15   24.09    2.82
   2  -2 -15   20.14    3.15
   2  -2 -14   30.19    3.78
  -2   2  14   29.35    3.06
  -2   2  14   28.22    3.59
   2  -2 -13   16.24    2.71
  -2   2  13   13.44    2.40
   2  -2 -12    5.05    1.54
  -2   2  12    4.38    1.27
   2  -2 -11   14.40    2.32
  -2   2  11   16.21    2.37
   2  -2 -10   87.54    5.44
  -2   2  10   81.65    5.00
  -2   2   9   24.20    2.56
  -2   2   9   23.28    2.39
   2  -2  -9   21.38    2.64
   2  -2  -8  209.53    7.69
  -2   2   8  205.48    6.90
  -2   2   8  197.67    6.82
   2  -2  -7   19.77    2.26
  -2   2   7   17.96    1.99
  -2   2   7   20.05    2.03
   2  -2  -6   49.04    3.39
  -2   2   6   41.31    2.90
  -2   2   5   19.93    1.75
   2  -2  -5   54.82    3.48
  -2   2   5   49.23    3.05
  -2   2   4   18.75    1.38
   2  -2  -4   17.69    1.40
  -2   2   4   24.86    2.12
   2  -2  -4   24.47    2.25
   2  -2  -3   10.59    0.91
  -2   2   3   14.26    1.04
  -2   2   2  711.34   10.78
   2  -2  -2  666.70   10.48
  -2   2   1   29.66    2.17
   2  -2  -1   27.30    2.10
   2  -2   0   25.88    2.00
  -2   2   0   25.95    2.14
  -2   2  -1  706.67   10.29
   2  -2   1  697.32   10.39
  -2   2  -2   60.79    2.88
  -2   2  -2   55.11    2.31
   2  -2   2   62.28    3.10
   2  -2   3   33.96    2.37
  -2   2  -3   29.63    1.98
  -2   2  -3   32.08    2.11
   2  -2   3   33.33    2.13
   2  -2   4  138.81    4.82
  -2   2  -4  145.26    4.47
   2  -2   5   90.31    4.31
  -2   2  -5   89.02    4.62
  -2   2  -5   97.44    3.75
  -2   2  -6    6.54    1.02
   2  -2   6    6.19    1.22
  -2   2  -7  149.84    4.78
   2  -2   7  150.90    6.39
  -2   2  -8    4.44    0.87
   2  -2   8    5.90    1.42
   2  -2   9   61.65    4.71
  -2   2  -9   93.53    5.83
   2  -2  10    3.28    1.17
  -2   2 -10   12.42    2.28
   2  -2  11    6.55    1.71
  -2   2 -11    7.93    1.88
   2  -2  12   18.06    2.94
  -2   2 -12   18.47    2.98
  -2   2 -13   42.13    4.75
  -2   2 -14   22.01    3.81
  -2   2 -15   29.66    4.48
  -2   2 -16   14.03    3.22
  -2   2 -17    1.82    1.16
  -2   2 -18    6.56    2.28
  -2   2 -19    3.21    1.24
  -2   2 -20   -0.36    0.28
   2  -1 -21    0.69    1.24
   2  -1 -20    6.76    2.08
   2  -1 -19   18.18    3.44
   2  -1 -18   13.88    2.77
   2  -1 -17   18.10    3.22
   2  -1 -16   28.02    4.00
   2  -1 -15   13.07    2.66
  -2   1  15   10.92    1.82
   2  -1 -14   10.60    2.31
  -2   1  14   13.74    1.87
   2  -1 -13   18.99    2.88
  -2   1  13   12.30    1.93
   2  -1 -12   25.30    3.18
  -2   1  12   22.68    2.43
   2  -1 -11   59.26    4.74
  -2   1  11   63.73    3.83
  -2   1  11   64.27    4.76
  -2   1  10   52.10    3.29
   2  -1 -10   45.87    3.95
  -2   1  10   52.34    4.02
  -2   1   9   24.43    2.65
   2  -1  -9   25.62    2.82
  -2   1   9   28.59    2.35
   2  -1  -8   87.38    5.00
  -2   1   8   76.66    4.35
  -2   1   8   89.27    4.11
  -2   1   7    4.55    1.04
  -2   1   7    6.94    1.09
   2  -1  -7    5.92    1.25
   2  -1  -6   57.24    3.61
  -2   1   6   53.00    2.91
  -2   1   6   48.77    2.88
   2  -1  -5  126.25    5.19
  -2   1   5  120.25    4.61
   2  -1  -4  649.49    8.32
   2  -1  -4  600.82    9.22
   2  -1  -4  722.38   11.40
  -2   1   4  673.48    9.75
  -2   1   3  437.43    8.02
   2  -1  -3  489.19    8.89
  -2   1   3  466.58    7.77
   2  -1  -3  438.92    7.71
   2  -1  -3  489.18    5.98
   2  -1  -2    5.26    0.86
  -2   1   2    5.18    1.00
  -2   1   2    7.49    1.01
  -2   1   1   21.23    1.65
   2  -1  -1   20.67    1.69
   2  -1   0   12.10    1.27
  -2   1   0   12.49    1.24
   2  -1   1    8.46    0.69
  -2   1  -1    8.65    0.78
   2  -1   1    8.17    1.05
  -2   1  -1    8.09    1.00
  -2   1  -2  140.16    4.42
   2  -1   2  148.51    4.54
  -2   1  -3  208.56    5.28
   2  -1   3  225.48    5.33
  -2   1  -3  209.30    5.57
   2  -1   4  442.13    8.48
  -2   1  -4  444.43    7.73
   2  -1   5   10.35    1.53
  -2   1  -5    9.11    1.23
   2  -1   6   10.61    1.63
  -2   1  -6    9.44    1.20
  -2   1  -6   11.34    1.64
   2  -1   7   90.54    4.97
  -2   1  -7   83.39    3.71
   2  -1   8   12.54    2.02
  -2   1  -8   26.87    2.75
  -2   1  -9   35.65    3.55
   2  -1   9    3.52    1.47
   2  -1  10   37.82    3.84
  -2   1 -10   67.33    5.08
  -2   1 -11   44.96    4.27
   2  -1  11   56.17    4.78
   2  -1  12   54.93    5.04
  -2   1 -12   34.59    4.07
   2  -1  13    5.54    1.71
  -2   1 -13   12.31    2.65
   2  -1  14   22.18    3.44
  -2   1 -14   20.27    3.42
  -2   1 -15   42.22    5.12
   2  -1  15   44.40    5.12
  -2   1 -16   13.71    3.23
   2  -1  16    3.64    1.64
  -2   1 -17   11.77    3.04
  -2   1 -18   18.16    3.56
  -2   1 -19    7.84    2.40
   2   0 -21    0.43    0.40
   2   0 -20    7.08    2.25
   2   0 -19    7.51    2.24
   2   0 -18    6.60    2.15
   2   0 -17    6.89    2.19
   2   0 -16    7.06    1.95
   2   0 -15    3.01    1.44
   2   0 -14   10.76    2.54
  -2   0  14   13.29    1.66
   2   0 -13   37.79    4.21
  -2   0  13   38.93    2.77
   2   0 -12   32.01    3.85
  -2   0  12   35.73    2.59
   2   0 -11   14.97    2.52
  -2   0  11   18.09    1.76
   2   0 -10   53.65    4.49
  -2   0  10   61.42    3.18
  -2   0   9    3.14    0.79
   2   0  -9    2.49    1.16
   2   0  -8   30.05    3.13
  -2   0   8   33.14    2.21
  -2   0   7    1.16    0.42
   2   0  -7    1.03    0.73
   2   0  -6   37.68    2.96
  -2   0   6   38.01    2.15
  -2   0   5    2.35    0.51
   2   0  -5    2.42    0.72
   2   0  -5    2.13    0.48
   2   0  -5    2.65    0.66
   2   0  -4  385.75    8.16
  -2   0   4  352.49    6.41
  -2   0   3 1000.00   12.24
   2   0  -3  978.60   12.05
  -2   0   3  992.23   10.60
  -2   0   2  516.34    8.05
   2   0  -2  539.86    7.56
  -2   0   2  536.54    7.44
   2   0  -1    1.23    0.38
   2   0  -1    1.05    0.33
  -2   0   1    1.07    0.35
  -2   0   1    1.16    0.36
  -2   0   0   16.76    1.30
  -2   0   0   16.94    1.31
   2   0   0   16.89    1.21
   2   0   0   15.50    1.24
  -2   0  -1  289.46    5.67
   2   0   1  304.22    5.41
   2   0   1  327.45    6.09
  -2   0  -1  342.73    6.40
  -2   0  -2  938.74   10.68
   2   0   2  935.33   10.32
  -2   0  -3  589.45    9.74
  -2   0  -3  585.28    8.69
   2   0   4    1.37    0.47
  -2   0  -4    1.04    0.40
   2   0   5    6.72    1.18
  -2   0  -5    5.88    1.09
   2   0   6    1.52    0.62
  -2   0  -6    1.68    0.60
   2   0   7   35.12    3.07
  -2   0  -7   39.05    3.03
   2   0   8   11.51    1.83
  -2   0  -8    8.97    1.55
   2   0   9   28.26    3.17
  -2   0  -9   51.92    4.10
   2   0  10    3.87    1.20
  -2   0 -10   11.75    2.19
   2   0  11   27.76    3.43
  -2   0 -11   37.25    3.99
   2   0  12   27.68    3.53
  -2   0 -12   39.26    4.37
   2   0  13    0.21    0.14
  -2   0 -13   11.64    2.41
  -2   0 -14   10.37    2.44
   2   0  14   13.58    2.75
   2   0  15    0.83    0.70
  -2   0 -15    5.03    1.81
  -2   0 -16    3.85    1.59
   2   0  16    1.07    0.83
   2   0  17    0.52    0.66
  -2   0 -17    3.24    1.62
   2   0  18   13.22    2.97
   2   0  19    2.63    1.52
   2   1 -21    1.22    1.09
   2   1 -20    4.73    1.87
   2   1 -19   28.24    4.57
   2   1 -18    4.84    1.98
   2   1 -17    7.12    2.00
   2   1 -16   10.82    2.61
   2   1 -15   21.97    3.59
   2   1 -14    5.92    1.77
   2   1 -13   21.91    3.36
  -2  -1  13   21.17    1.76
   2   1 -12   60.65    5.37
  -2  -1  12   62.82    2.92
   2   1 -11   68.56    5.50
  -2  -1  11   71.35    3.04
   2   1 -10   27.63    3.37
  -2  -1  10   29.60    1.85
  -2  -1   9    3.14    0.65
   2   1  -9    4.06    1.23
   2   1  -8   52.60    4.29
  -2  -1   8   62.32    2.51
   2   1  -7   13.80    2.07
  -2  -1   7   13.71    1.25
  -2  -1   6    2.92    0.54
   2   1  -6    2.55    0.95
   2   1  -6    2.49    0.47
   2   1  -5  304.62    8.28
   2   1  -5  303.37    5.11
  -2  -1   5  310.43    5.25
   2   1  -4  311.06    5.29
  -2  -1   4  294.85    5.12
  -2  -1   3   31.04    2.77
   2   1  -3   23.61    2.46
  -2  -1   2    0.20    0.15
   2   1  -2    0.33    0.20
   2   1  -2    0.31    0.18
  -2  -1   2    0.22    0.28
  -2  -1   1   44.08    2.09
   2   1  -1   41.71    2.03
   2   1  -1   41.38    1.99
  -2  -1   1   41.33    2.00
  -2  -1   0    3.19    0.68
  -2  -1   0    3.59    0.55
  -2  -1   0    4.04    0.75
   2   1   0    3.26    0.52
   2   1   0    3.86    0.75
   2   1   0    3.76    0.64
  -2  -1  -1    2.37    0.53
   2   1   1    2.10    0.50
   2   1   1    2.27    0.59
  -2  -1  -1    2.11    0.60
  -2  -1  -1    1.85    0.37
   2   1   2  231.07    6.06
  -2  -1  -2  235.81    5.50
  -2  -1  -2  227.32    6.41
   2   1   3  739.29   11.17
  -2  -1  -3  773.32   10.58
   2   1   4  114.02    4.72
  -2  -1  -4  105.67    3.43
   2   1   5   10.10    1.48
  -2  -1  -5    7.52    1.03
   2   1   6   28.95    2.44
  -2  -1  -6   24.78    2.11
   2   1   7   11.56    1.68
  -2  -1  -7   29.09    2.75
   2   1   8   19.94    2.31
  -2  -1  -8   14.56    1.93
   2   1   9   29.08    3.02
  -2  -1  -9   31.52    3.23
   2   1  10  118.71    6.54
  -2  -1 -10  116.62    6.41
   2   1  11   69.45    5.28
  -2  -1 -11   74.04    5.30
   2   1  12   24.91    3.36
  -2  -1 -12   23.74    3.12
   2   1  13    0.72    0.86
  -2  -1 -13    2.95    1.21
  -2  -1 -14   16.25    2.78
   2   1  14   11.54    2.58
  -2  -1 -15    5.14    1.60
   2   1  15    2.70    1.42
  -2  -1 -16   11.37    2.38
   2   1  16   15.50    3.05
   2   1  17   24.51    3.95
   2   1  18   31.53    4.87
   2   1  19    3.00    1.36
   2   1  20    1.38    0.99
   2   2 -21    4.03    1.99
   2   2 -20    6.92    2.33
   2   2 -19    0.66    0.70
   2   2 -18    0.22    0.89
   2   2 -17    1.21    0.82
   2   2 -16    2.57    1.33
   2   2 -15   -0.06    0.21
   2   2 -14   59.92    6.02
   2   2 -13   17.29    3.02
   2   2 -12    1.73    0.92
  -2  -2  12    1.16    0.24
  -2  -2  12    0.81    0.24
  -2  -2  11    7.55    0.70
   2   2 -11   13.84    2.58
   2   2 -10   20.89    3.18
  -2  -2  10   11.62    0.83
   2   2  -9    3.36    1.08
  -2  -2   9    1.83    0.31
  -2  -2   8   45.25    1.52
   2   2  -8   64.54    4.99
   2   2  -7   12.64    2.06
  -2  -2   7   10.86    0.75
  -2  -2   6   66.15    1.95
   2   2  -6   69.35    2.10
   2   2  -6   61.90    4.32
   2   2  -5  119.42    2.90
  -2  -2   5  122.11    2.82
  -2  -2   4   50.84    1.94
   2   2  -4   44.04    1.74
   2   2  -4   47.25    3.44
   2   2  -3  171.65    5.69
   2   2  -3  169.78    3.73
  -2  -2   3  178.63    3.87
  -2  -2   2  244.74    6.83
   2   2  -2  259.82    6.08
  -2  -2   2  249.57    4.89
   2   2  -2  240.85    4.74
  -2  -2   1    2.45    0.51
  -2  -2   1    2.15    0.57
   2   2  -1    2.08    0.45
   2   2  -1    2.70    0.53
  -2  -2   0    5.43    0.75
   2   2   0    6.02    0.84
   2   2   0    6.34    1.15
  -2  -2   0    6.57    0.88
   2   2   0    5.55    0.66
   2   2   1  335.06    4.44
  -2  -2  -1  336.67    4.74
   2   2   1  402.32    9.04
  -2  -2  -1  408.02    9.74
  -2  -2  -2    5.79    0.51
   2   2   2    7.23    1.24
   2   2   3   80.04    4.13
  -2  -2  -4    6.60    0.73
   2   2   4    4.73    1.13
   2   2   5   24.04    2.43
  -2  -2  -5   24.41    1.63
   2   2   6    6.22    1.30
  -2  -2  -6    4.92    0.99
  -2  -2  -7  102.80    4.54
   2   2   7  126.34    5.73
   2   2   8    0.72    0.43
  -2  -2  -8    1.47    0.67
   2   2   9   63.22    4.36
  -2  -2  -9   46.00    3.46
  -2  -2 -10   16.81    2.26
   2   2  10   22.75    2.79
  -2  -2 -11    0.52    0.23
   2   2  11    0.01    0.33
   2   2  12   10.55    2.25
  -2  -2 -12   12.23    2.08
   2   2  13   20.56    3.15
  -2  -2 -13   28.09    3.38
  -2  -2 -14   -0.24    0.53
   2   2  14    0.82    0.74
  -2  -2 -15    1.27    0.71
   2   2  15    0.14    0.30
   2   2  16   14.53    3.06
   2   2  17    2.08    1.16
   2   2  18   12.28    2.95
   2   2  19    0.69    0.69
   2   2  20   -0.13    0.54
   2   3 -21    2.87    1.47
   2   3 -20   -0.19    0.76
   2   3 -19   -0.21    0.39
   2   3 -18    0.04    0.49
   2   3 -17    5.59    1.89
   2   3 -16    8.23    2.63
   2   3 -15    1.77    0.85
   2   3 -14    6.32    1.84
   2   3 -13    9.87    2.22
   2   3 -12   46.11    5.11
   2   3 -11    9.74    2.33
   2   3 -10   18.48    3.14
   2   3  -9   38.83    4.30
   2   3  -8  190.93    9.13
   2   3  -7    1.77    1.20
   2   3  -6   85.68    2.20
   2   3  -6   97.19    5.90
   2   3  -5   87.29    2.36
   2   3  -5   78.19    5.09
   2   3  -4    2.02    1.77
   2   3  -4    0.28    0.15
   2   3  -3   18.49    2.28
   2   3  -3   23.48    1.45
   2   3  -2  354.32    8.61
  -2  -3   2  305.77    7.91
   2   3  -1   29.99    2.16
   2   3  -1   30.26    1.92
  -2  -3   1   23.76    2.05
   2   3   0  131.73    5.99
   2   3   0  117.05    3.40
   2   3   1  148.53    2.98
  -2  -3  -1  141.92    3.43
   2   3   2   28.09    2.74
   2   3   3  206.94    7.46
   2   3   4    7.65    1.43
   2   3   5   74.69    4.55
   2   3   6   70.40    4.54
  -2  -3  -6   36.27    1.60
   2   3   7   80.80    5.02
  -2  -3  -7   47.24    2.27
  -2  -3  -8    5.34    0.98
   2   3   8    7.67    1.65
   2   3   9  100.90    5.67
  -2  -3  -9   65.53    3.36
   2   3  10   44.62    4.04
  -2  -3 -10   30.02    2.48
  -2  -3 -11    5.56    1.37
   2   3  11    6.18    1.63
   2   3  12    7.72    1.83
  -2  -3 -12    5.94    1.23
   2   3  13   48.95    4.73
  -2  -3 -13   33.68    3.11
   2   3  14    1.07    0.90
   2   3  15    6.32    1.91
   2   3  16   29.08    4.24
   2   3  17   28.16    4.35
   2   3  18    3.08    1.46
   2   3  19    0.76    0.52
   2   3  20    2.18    1.31
   2   4 -21    1.32    0.98
   2   4 -20    0.41    0.65
   2   4 -19    6.36    2.36
   2   4 -18    1.03    1.00
   2   4 -17    8.10    2.26
   2   4 -16   -0.41    0.51
   2   4 -15    6.09    1.99
   2   4 -14    5.84    1.89
   2   4 -13   25.51    4.07
   2   4 -12    2.65    1.32
   2   4 -11    0.06    0.53
   2   4 -10    0.25    0.49
   2   4  -9    1.15    0.73
   2   4  -8    0.37    0.36
   2   4  -7   15.01    0.78
   2   4  -7   23.86    3.27
   2   4  -6   92.56    6.00
   2   4  -6   83.89    2.27
   2   4  -5    4.07    1.12
   2   4  -5    4.93    0.62
   2   4  -4   19.70    1.36
   2   4  -4   15.97    2.23
   2   4  -3    7.07    0.91
   2   4  -3    3.66    1.03
   2   4  -2   17.18    2.13
  -2  -4   1   86.84    3.84
   2   4  -1   76.54    4.03
  -2  -4   0   57.29    2.78
   2   4   0   55.37    2.94
  -2  -4  -1   25.16    1.54
   2   4   1   23.48    1.57
   2   4   2    6.08    1.41
   2   4   2    3.73    0.43
   2   4   3   11.15    1.86
   2   4   4    1.92    0.89
   2   4   5   52.77    4.11
   2   4   6    4.80    1.29
   2   4   7    8.74    1.73
  -2  -4  -7    4.46    0.49
  -2  -4  -8   16.80    1.22
   2   4   8   25.91    3.03
  -2  -4  -9    1.95    0.46
   2   4   9    2.81    1.07
   2   4  10    2.43    0.93
  -2  -4 -10    1.73    0.50
   2   4  11    6.10    1.61
  -2  -4 -11    4.44    0.86
   2   4  12   18.79    2.80
  -2  -4 -12   13.60    1.67
   2   4  13    7.40    1.90
   2   4  14   -0.44    0.57
   2   4  15    4.56    1.59
   2   4  16    8.22    2.27
   2   4  17    0.80    0.70
   2   4  18    0.49    0.37
   2   4  19    1.73    1.19
   2   5 -20   -0.51    0.79
   2   5 -19    0.11    0.34
   2   5 -18    6.00    2.12
   2   5 -17   11.11    2.94
   2   5 -16   25.37    4.52
   2   5 -15   -0.33    1.07
   2   5 -14    0.43    0.50
   2   5 -13    2.56    1.55
   2   5 -12    1.67    0.88
   2   5 -11   15.44    3.34
   2   5 -10  104.59    7.90
   2   5  -9   14.90    2.76
   2   5  -8   32.11    3.96
   2   5  -7    1.16    0.83
   2   5  -7    0.78    0.21
   2   5  -6    4.68    0.60
   2   5  -6    5.40    1.80
   2   5  -5   10.24    2.05
   2   5  -5   10.58    1.04
   2   5  -4    3.02    1.08
   2   5  -3  263.86    9.01
   2   5  -2  162.12    6.71
   2   5  -1    4.39    1.26
   2   5  -1    2.29    0.88
  -2  -5   0   62.48    3.18
   2   5   0   49.54    3.09
   2   5   1    1.08    0.64
   2   5   1    1.26    0.58
   2   5   2   20.51    2.79
   2   5   2   14.22    1.23
   2   5   3    0.13    0.40
   2   5   4  135.08    7.14
   2   5   5  343.07   11.55
   2   5   6   32.90    3.41
   2   5   7    6.43    1.57
   2   5   8   33.29    3.69
   2   5   9   11.46    2.21
   2   5  10    0.52    0.44
   2   5  11   30.14    3.51
   2   5  12   81.55    5.83
   2   5  13   23.93    3.28
   2   5  14    1.55    1.07
   2   5  15   16.47    3.08
   2   5  16    9.42    2.38
   2   5  17    0.12    0.02
   2   5  18    8.09    2.42
   2   5  19    9.32    2.76
   2   6 -20    1.57    1.17
   2   6 -19    1.31    0.86
   2   6 -18    1.01    1.11
   2   6 -17    1.70    1.25
   2   6 -16    1.65    1.01
   2   6 -15    2.92    1.24
   2   6 -14    4.37    1.76
   2   6 -13    3.18    1.51
   2   6 -12   -0.47    0.86
   2   6 -11    6.89    2.19
   2   6 -10    1.79    0.97
   2   6  -9    2.99    1.32
   2   6  -8    0.35    0.48
   2   6  -8    0.09    0.08
   2   6  -7   16.52    2.87
   2   6  -7   14.69    1.11
   2   6  -6    0.55    0.25
   2   6  -6   -0.03    0.13
   2   6  -5   17.34    2.68
   2   6  -4    1.33    0.72
   2   6  -3   22.85    2.73
   2   6  -2    2.79    0.98
   2   6  -1   15.99    2.70
   2   6  -1   10.78    1.68
   2   6   0   23.76    3.29
   2   6   0   13.64    1.74
   2   6   1  100.07    6.77
   2   6   1   54.69    3.14
   2   6   2   20.86    2.98
   2   6   2   12.32    1.29
   2   6   3    0.06    0.10
   2   6   3    0.15    0.27
   2   6   4   24.23    3.26
   2   6   5    2.47    1.06
   2   6   6   16.38    2.60
   2   6   7    2.73    1.16
   2   6   8   42.24    4.22
   2   6   9    4.66    1.35
   2   6  10    2.81    1.18
   2   6  11    8.34    1.96
   2   6  12   51.11    4.91
   2   6  13    1.49    0.90
   2   6  14    5.78    1.79
   2   6  15    1.35    0.85
   2   6  16    0.07    0.44
   2   6  17    0.32    0.39
   2   6  18    0.91    0.78
   2   7 -19   -0.04    0.40
   2   7 -18    6.40    2.42
   2   7 -17    5.85    2.34
   2   7 -16   -0.63    1.32
   2   7 -15    2.35    1.28
   2   7 -14   11.66    3.05
   2   7 -13   -1.42    1.16
   2   7 -12    3.46    1.38
   2   7 -11   81.32    7.67
   2   7 -10    9.58    2.47
   2   7  -9   13.41    2.99
   2   7  -8    3.84    1.59
   2   7  -7   26.98    3.86
   2   7  -6    1.81    0.97
   2   7  -5   32.55    3.72
   2   7  -4   40.40    4.10
   2   7  -3  123.47    6.62
   2   7  -2    4.44    1.23
   2   7  -1    1.52    1.13
   2   7  -1    0.46    0.26
   2   7   0    2.24    0.69
   2   7   0    3.65    1.34
   2   7   1   19.73    2.03
   2   7   1   33.51    4.16
   2   7   2   21.78    3.33
   2   7   2   12.03    1.43
   2   7   3   60.81    2.81
   2   7   3  108.35    7.26
   2   7   4  187.91    9.52
   2   7   4  111.90    3.25
   2   7   5   70.69    5.74
   2   7   6    5.86    1.78
   2   7   7    1.43    0.77
   2   7   8    5.98    1.77
   2   7   9    7.76    1.99
   2   7  10   36.51    4.26
   2   7  11   62.32    5.73
   2   7  12   27.22    3.76
   2   7  13    4.43    1.46
   2   7  14   -0.20    0.09
   2   7  15    0.94    0.75
   2   7  16   -0.62    0.39
   2   7  17    4.45    1.90
   2   7  18   14.87    3.25
   2   8 -19    0.41    1.11
   2   8 -18   -1.01    0.50
   2   8 -17    0.08    0.45
   2   8 -16   -0.34    1.16
   2   8 -15    0.50    0.30
   2   8 -14    0.80    0.79
   2   8 -13    2.80    1.72
   2   8 -12   15.57    3.41
   2   8 -11   -1.18    1.04
   2   8 -10    1.27    0.84
   2   8  -9    2.00    1.08
   2   8  -8    0.45    0.40
   2   8  -7   -0.32    0.72
   2   8  -6   17.84    3.19
   2   8  -5    9.44    2.12
   2   8  -4    1.27    0.58
   2   8  -3    0.46    0.12
   2   8  -2    4.00    1.16
   2   8  -1    3.96    1.10
   2   8  -1    6.42    2.02
   2   8   0   14.37    2.02
   2   8   0   21.45    3.56
   2   8   1    4.48    1.09
   2   8   1    6.14    1.86
   2   8   2    0.01    0.19
   2   8   2    0.10    0.29
   2   8   3   12.56    2.65
   2   8   3    6.42    1.02
   2   8   4    9.42    2.32
   2   8   4    5.69    0.85
   2   8   5    0.71    0.23
   2   8   5    0.80    0.62
   2   8   6    1.22    0.93
   2   8   7    0.09    0.35
   2   8   8   13.24    2.73
   2   8   9    1.98    0.97
   2   8  10    0.73    0.70
   2   8  11    0.91    0.58
   2   8  12    3.01    1.38
   2   8  13    0.78    0.21
   2   8  14   -0.27    0.52
   2   8  15    1.14    0.95
   2   8  16   -0.22    0.51
   2   8  17    0.08    0.34
   2   9 -18    2.69    1.52
   2   9 -17    1.80    1.87
   2   9 -16    5.12    2.39
   2   9 -15    7.46    2.34
   2   9 -14   12.37    3.61
   2   9 -13    3.46    1.85
   2   9 -12    4.30    1.84
   2   9 -11    8.55    2.74
   2   9 -10    1.95    1.41
   2   9  -9   10.14    2.78
   2   9  -8   37.18    4.98
   2   9  -7   22.91    3.74
   2   9  -6    6.11    1.89
   2   9  -5    6.18    1.89
   2   9  -4    3.39    1.20
   2   9  -3   47.81    4.47
   2   9  -2    7.53    1.80
   2   9  -2   12.39    3.15
   2   9  -1   67.90    6.86
   2   9  -1   41.36    3.85
   2   9   0   30.81    3.16
   2   9   0   51.87    5.96
   2   9   1   34.69    4.77
   2   9   1   19.05    2.44
   2   9   2   24.62    3.90
   2   9   2   15.08    1.91
   2   9   3   50.98    5.62
   2   9   3   30.10    2.53
   2   9   4   27.24    4.01
   2   9   4   14.41    1.56
   2   9   5    5.90    1.90
   2   9   6   79.77    6.83
   2   9   7   26.96    3.92
   2   9   8    5.58    1.75
   2   9   9   35.94    4.47
   2   9  10   31.51    4.34
   2   9  11   32.70    4.37
   2   9  12    5.35    1.86
   2   9  13   13.01    2.91
   2   9  14   20.37    3.60
   2   9  15    4.31    1.64
   2   9  16    1.44    0.70
   2  10 -17    3.32    1.99
   2  10 -16    1.20    0.94
   2  10 -15    0.53    0.46
   2  10 -14   -0.11    0.34
   2  10 -13   -1.92    1.54
   2  10 -12    2.06    1.23
   2  10 -11    4.35    1.80
   2  10 -10    1.74    1.32
   2  10  -9   -0.06    0.38
   2  10  -8    7.88    2.29
   2  10  -7    9.35    2.54
   2  10  -6    8.20    2.24
   2  10  -5    2.65    1.33
   2  10  -4    2.34    0.92
   2  10  -3   39.58    4.38
   2  10  -2    4.31    1.44
   2  10  -2    4.85    1.92
   2  10  -1    0.22    0.25
   2  10  -1    1.00    1.11
   2  10   0    0.02    0.39
   2  10   0   -0.06    0.48
   2  10   1   13.12    3.32
   2  10   1    8.06    1.71
   2  10   2    0.21    0.24
   2  10   2    0.37    0.90
   2  10   3    2.10    1.37
   2  10   4    2.25    1.20
   2  10   5    0.30    0.45
   2  10   6    1.82    1.15
   2  10   7    1.15    0.63
   2  10   8    0.79    0.71
   2  10   9    0.59    0.80
   2  10  10    0.07    0.48
   2  10  11    1.12    0.93
   2  10  12    0.00    0.35
   2  10  13    0.82    0.73
   2  10  14    1.14    0.85
   2  10  15    0.67    0.60
   2  11 -16    5.01    2.58
   2  11 -15    8.98    3.00
   2  11 -14    1.35    1.33
   2  11 -13    0.46    0.27
   2  11 -12    1.59    1.10
   2  11 -11    1.94    1.62
   2  11 -10   22.71    4.44
   2  11  -9   23.38    4.24
   2  11  -8   26.07    4.86
   2  11  -7   19.54    4.04
   2  11  -6    1.79    1.17
   2  11  -5   -0.28    0.37
   2  11  -4   18.09    3.14
   2  11  -3   11.05    2.41
   2  11  -3   15.00    3.61
   2  11  -2  119.16   10.13
   2  11  -2   74.26    5.99
   2  11  -1   40.14    4.33
   2  11  -1   61.46    7.28
   2  11   0   27.40    5.08
   2  11   0   25.57    3.51
   2  11   1    1.63    1.04
   2  11   1    0.56    1.06
   2  11   2   29.50    4.71
   2  11   3    1.15    0.96
   2  11   4    1.15    1.22
   2  11   5   69.99    7.07
   2  11   6  125.52    9.35
   2  11   7    4.86    2.01
   2  11   8   26.09    4.30
   2  11   9    2.89    1.40
   2  11  10    1.96    1.35
   2  11  11    1.71    1.20
   2  11  12   15.17    3.23
   2  11  13   32.31    4.79
   2  11  14   11.90    2.95
   2  12 -14    1.44    1.20
   2  12 -13    1.48    1.01
   2  12 -12    4.32    1.84
   2  12 -11   -0.80    0.64
   2  12 -10    0.94    0.52
   2  12  -9    0.77    0.77
   2  12  -8    1.80    1.50
   2  12  -7    1.26    0.90
   2  12  -6    5.74    2.06
   2  12  -5    1.41    1.19
   2  12  -4    0.28    0.22
   2  12  -4    2.16    1.50
   2  12  -3    1.24    1.04
   2  12  -3    3.98    2.00
   2  12  -2    3.47    1.38
   2  12  -2    6.48    2.46
   2  12  -1    3.19    1.90
   2  12  -1    1.96    0.88
   2  12   0    0.74    1.19
   2  12   1    0.62    0.48
   2  12   2    0.01    0.42
   2  12   3    3.72    1.61
   2  12   4    1.02    1.13
   2  12   5    0.90    0.98
   2  12   6    2.80    1.55
   2  12   7    1.55    1.14
   2  12   8    0.35    0.69
   2  12   9    0.15    0.07
   2  12  10    0.57    0.84
   2  12  11   -0.04    0.76
   2  12  12   -0.03    0.84
   2  12  13    0.72    0.88
   2  13 -13    5.66    2.64
   2  13 -12    2.01    1.84
   2  13 -11    5.10    2.29
   2  13 -10    4.61    1.98
   2  13  -9    9.97    3.07
   2  13  -8    6.30    2.51
   2  13  -7   12.92    3.43
   2  13  -6   13.66    3.22
   2  13  -5    9.87    2.68
   2  13  -5   13.95    3.87
   2  13  -4    0.91    1.14
   2  13  -4    0.99    0.44
   2  13  -3   66.01    8.51
   2  13  -3   42.41    5.37
   2  13  -2   10.06    2.48
   2  13  -2   20.03    4.65
   2  13  -1    1.09    1.08
   2  13   0    1.66    1.61
   2  13   1   18.80    4.28
   2  13   2    2.38    1.67
   2  13   3    8.65    2.93
   2  13   4   18.55    3.99
   2  13   5   34.15    5.37
   2  13   6   17.53    3.78
   2  13   7    2.73    1.65
   2  13   8    1.79    1.14
   2  13   9    2.33    1.23
   2  13  10    1.53    1.16
   2  13  11    7.22    2.35
   2  14 -11    2.76    1.91
   2  14 -10    1.12    0.94
   2  14  -9    0.85    0.95
   2  14  -8    1.28    1.05
   2  14  -7    0.52    1.05
   2  14  -6    0.29    0.53
   2  14  -6    0.51    1.01
   2  14  -5    0.93    0.30
   2  14  -5    1.34    1.21
   2  14  -4    1.11    1.03
   2  14  -4   -0.33    0.42
   2  14  -3    0.00    1.00
   2  14  -2    1.77    1.47
   2  14  -1    0.19    0.28
   2  14   0    0.67    1.09
   2  14   1   -0.31    0.65
   2  14   2    1.12    1.50
   2  14   3    1.56    1.14
   2  14   4    0.73    0.63
   2  14   5    1.20    1.02
   2  14   6    1.11    1.01
   2  14   7    0.30    0.37
   2  14   8    1.18    1.08
   2  14   9    1.27    0.73
   2  15  -8    5.34    2.38
   2  15  -7   16.08    4.04
   2  15  -7   20.41    5.45
   2  15  -6    3.33    1.83
   2  15  -6    6.99    3.06
   2  15  -5    0.27    0.64
   2  15  -4    1.25    0.88
   2  15  -3    6.66    3.03
   2  15  -2    6.89    3.10
   2  15  -1    1.76    1.77
   2  15   0   28.88    5.58
   2  15   1   20.83    4.69
   2  15   2    2.13    1.35
   2  15   3    8.73    3.06
   2  15   4    4.23    1.97
   2  15   5   10.09    3.21
   2  15   6    0.14    0.90
   2  16  -3    2.15    1.82
   2  16  -2    1.01    1.28
   2  16  -1   -0.36    1.15
   2  16   0    3.02    1.84
   2  16   1    1.00    1.13
  -3  15   7    6.39    2.28
  -3  15   6    7.09    2.44
  -3  15   5    8.30    2.71
  -3  15   4    3.50    2.09
  -3  15   3    6.28    2.20
  -3  15   2   12.61    3.22
  -3  15   1    3.38    1.57
  -3  15   0    1.33    0.66
  -3  15  -1   13.33    2.92
  -3  15  -1   17.35    3.91
  -3  15  -2    3.71    1.41
  -3  15  -2    6.25    2.46
  -3  15  -3    1.36    0.69
  -3  15  -3    3.05    1.75
  -3  15  -4    6.34    2.17
  -3  15  -5    9.53    3.16
  -3  15  -6    8.90    3.22
  -3  14  10    1.11    1.08
  -3  14   9   -0.42    0.79
  -3  14   8    3.84    2.02
  -3  14   7    2.89    1.55
  -3  14   6   17.58    3.70
  -3  14   5    0.36    0.67
  -3  14   4    1.26    0.88
  -3  14   3    3.07    1.39
  -3  14   2    3.59    1.33
  -3  14   1    6.73    2.20
  -3  14   0    7.05    2.17
  -3  14  -1    3.27    1.61
  -3  14  -2    7.40    2.09
  -3  14  -2    6.18    2.20
  -3  14  -3    1.67    1.02
  -3  14  -3    1.93    1.20
  -3  14  -4    2.40    1.67
  -3  14  -4    2.52    1.24
  -3  14  -5   16.94    4.16
  -3  14  -6    4.06    2.30
  -3  14  -7    3.40    1.58
  -3  14  -8    1.26    1.37
  -3  14  -9    3.20    1.50
  -3  13  12    1.25    1.09
  -3  13  11   -0.19    0.40
  -3  13  10    1.52    1.20
  -3  13   9    3.94    2.14
  -3  13   8    3.20    1.60
  -3  13   7   16.27    3.47
  -3  13   6   16.42    3.54
  -3  13   5    3.52    1.64
  -3  13   4    3.00    1.38
  -3  13   3    3.09    1.54
  -3  13   2    7.19    2.21
  -3  13   1    2.12    1.47
  -3  13   0    7.31    2.16
  -3  13  -1   22.80    3.63
  -3  13  -2    9.94    2.32
  -3  13  -3    2.50    1.44
  -3  13  -3    0.67    0.64
  -3  13  -4    2.48    1.20
  -3  13  -4    2.71    1.57
  -3  13  -5    7.76    2.07
  -3  13  -5   11.07    3.18
  -3  13  -6   11.39    3.19
  -3  13  -7    8.91    2.79
  -3  13  -8   11.38    3.28
  -3  13  -9    4.01    1.90
  -3  13 -10    0.27    0.69
  -3  13 -11    1.58    1.01
  -3  12  14    8.94    2.74
  -3  12  13    7.19    2.58
  -3  12  12    0.07    0.22
  -3  12  11    3.02    1.76
  -3  12  10    1.26    1.31
  -3  12   9   -0.88    0.84
  -3  12   8    7.42    2.63
  -3  12   7   18.58    3.64
  -3  12   6    6.83    2.17
  -3  12   5    3.13    1.64
  -3  12   4    4.31    1.72
  -3  12   3    4.03    1.45
  -3  12   3    4.65    1.74
  -3  12   2    3.91    1.55
  -3  12   2    8.19    2.43
  -3  12   1   21.99    3.53
  -3  12   1   17.92    3.28
  -3  12   0    6.52    2.03
  -3  12   0    9.94    2.51
  -3  12  -1   23.46    3.62
  -3  12  -1   28.55    4.19
  -3  12  -2    4.34    1.56
  -3  12  -2    4.17    1.78
  -3  12  -3    3.44    1.37
  -3  12  -4    2.48    1.34
  -3  12  -4    2.40    1.03
  -3  12  -5    2.47    1.15
  -3  12  -5    4.53    2.13
  -3  12  -6   13.74    3.39
  -3  12  -6    4.17    1.63
  -3  12  -7   24.58    4.59
  -3  12  -8   -0.38    0.07
  -3  12  -9    3.09    1.70
  -3  12 -10    2.90    1.75
  -3  12 -11    0.40    1.21
  -3  12 -12    6.38    2.45
  -3  12 -13    4.91    2.41
  -3  11  15   11.56    2.96
  -3  11  14    4.45    1.92
  -3  11  13   -0.30    0.43
  -3  11  12    0.59    0.40
  -3  11  11    7.26    2.22
  -3  11  10    6.02    2.01
  -3  11   9    7.78    1.71
  -3  11   9    7.74    2.30
  -3  11   8    4.68    1.39
  -3  11   8    4.58    1.49
  -3  11   7   43.77    4.11
  -3  11   7   45.65    5.51
  -3  11   6    6.45    1.69
  -3  11   6    6.46    2.14
  -3  11   5    3.64    1.22
  -3  11   5    3.73    1.45
  -3  11   4    8.58    1.97
  -3  11   4    8.20    2.23
  -3  11   3    8.07    1.90
  -3  11   3    7.53    2.15
  -3  11   2    6.41    1.87
  -3  11   2    5.51    1.68
  -3  11   1    5.08    1.70
  -3  11   1    6.34    2.13
  -3  11   0   35.28    4.45
  -3  11   0   29.77    3.96
  -3  11  -1   15.52    2.95
  -3  11  -1   13.14    2.62
  -3  11  -2   10.97    2.60
  -3  11  -2    9.33    2.12
  -3  11  -3    4.60    1.57
  -3  11  -4   -0.14    0.09
  -3  11  -5    9.71    2.56
  -3  11  -5    6.82    1.74
  -3  11  -6   11.16    2.21
  -3  11  -6   20.41    4.18
  -3  11  -7    7.88    1.76
  -3  11  -7    7.11    2.34
  -3  11  -8   10.63    2.99
  -3  11  -9    3.12    1.72
  -3  11 -10    3.54    1.82
  -3  11 -11    3.87    1.81
  -3  11 -12    0.32    0.79
  -3  11 -13    1.00    1.16
  -3  11 -14    8.46    3.03
  -3  10  16    0.85    0.55
  -3  10  15   10.52    2.71
  -3  10  14   11.43    3.00
  -3  10  13    0.42    0.51
  -3  10  13   -0.22    0.83
  -3  10  12   13.82    2.32
  -3  10  12   14.60    3.17
  -3  10  11   10.87    1.96
  -3  10  11   12.67    2.92
  -3  10  10    4.08    1.19
  -3  10  10    3.61    1.52
  -3  10   9    4.59    1.29
  -3  10   9    3.98    1.33
  -3  10   8   15.17    2.36
  -3  10   8   15.36    3.05
  -3  10   7   10.22    1.87
  -3  10   7   10.40    2.53
  -3  10   6   12.68    2.12
  -3  10   6   14.05    2.85
  -3  10   5    8.71    1.82
  -3  10   5    8.49    2.33
  -3  10   4   23.45    3.61
  -3  10   4   25.32    3.10
  -3  10   3    0.54    0.59
  -3  10   3    2.45    1.30
  -3  10   2  102.18    6.36
  -3  10   2   89.25    6.77
  -3  10   1   16.15    2.68
  -3  10   1   12.52    2.47
  -3  10   0    7.06    1.85
  -3  10   0    6.72    1.75
  -3  10  -1   13.07    2.67
  -3  10  -1    5.98    1.85
  -3  10  -2   17.39    2.74
  -3  10  -3   16.90    2.68
  -3  10  -4   10.91    2.12
  -3  10  -5    5.81    1.60
  -3  10  -5    9.53    2.51
  -3  10  -6    9.68    1.90
  -3  10  -6   10.30    2.51
  -3  10  -7   22.34    2.80
  -3  10  -7   22.35    3.93
  -3  10  -8    1.49    1.36
  -3  10  -8    0.85    0.39
  -3  10  -9    5.69    2.12
  -3  10 -10    3.70    1.60
  -3  10 -11    5.61    2.36
  -3  10 -12    1.82    1.14
  -3  10 -13   10.34    3.32
  -3  10 -14    4.50    1.83
  -3  10 -15    1.17    1.05
  -3   9  17   -0.02    0.80
  -3   9  16    3.40    1.31
  -3   9  16    3.57    1.74
  -3   9  15    3.69    1.40
  -3   9  15    5.41    2.10
  -3   9  14    2.16    0.95
  -3   9  14    2.50    1.13
  -3   9  13   10.23    2.01
  -3   9  13    9.14    2.37
  -3   9  12   18.25    2.57
  -3   9  12   16.34    3.14
  -3   9  11   13.77    2.23
  -3   9  11   14.10    2.84
  -3   9  10   16.54    2.27
  -3   9  10   16.41    3.18
  -3   9   9    0.91    0.67
  -3   9   9    0.40    0.69
  -3   9   8   12.10    1.97
  -3   9   8    9.72    2.22
  -3   9   7   10.36    1.79
  -3   9   7    9.11    2.24
  -3   9   6   38.81    3.44
  -3   9   6   34.15    4.26
  -3   9   5   14.44    2.08
  -3   9   5   13.34    2.55
  -3   9   4   24.17    2.81
  -3   9   4   24.38    3.49
  -3   9   3    8.02    1.68
  -3   9   3    8.60    2.13
  -3   9   2    5.45    1.41
  -3   9   2    5.28    1.54
  -3   9   1   10.19    2.10
  -3   9   1   10.20    2.02
  -3   9   0   11.59    2.22
  -3   9   0    8.84    2.03
  -3   9  -1    0.74    0.65
  -3   9  -2   33.12    3.59
  -3   9  -3    6.28    1.63
  -3   9  -4    0.38    0.62
  -3   9  -5   14.61    2.38
  -3   9  -6    2.85    1.47
  -3   9  -6    3.43    1.08
  -3   9  -7    2.80    1.60
  -3   9  -7    2.90    0.90
  -3   9  -8    7.38    2.25
  -3   9  -8    5.11    1.20
  -3   9  -9    4.56    1.99
  -3   9 -10    1.89    1.64
  -3   9 -11    1.75    1.16
  -3   9 -12    1.04    1.29
  -3   9 -13    4.67    2.04
  -3   9 -14   11.46    3.15
  -3   9 -15   -0.06    0.63
  -3   9 -16    2.44    1.81
  -3   8  18    2.49    0.94
  -3   8  18    2.23    1.21
  -3   8  17    2.57    1.18
  -3   8  17    1.54    0.94
  -3   8  16    1.26    0.68
  -3   8  16    1.16    0.81
  -3   8  15    3.62    1.32
  -3   8  15    4.25    1.68
  -3   8  14    0.74    0.61
  -3   8  14    0.31    0.25
  -3   8  13   67.27    5.27
  -3   8  13   66.39    6.29
  -3   8  12   27.88    3.20
  -3   8  12   26.63    4.01
  -3   8  11   16.10    2.98
  -3   8  11   14.11    2.13
  -3   8  10    2.44    0.86
  -3   8  10    2.53    1.02
  -3   8   9    0.30    0.36
  -3   8   9    0.63    0.72
  -3   8   8   14.89    2.76
  -3   8   8   15.88    2.16
  -3   8   7   -0.05    0.17
  -3   8   7   -0.27    0.25
  -3   8   6   14.13    1.88
  -3   8   6   11.96    2.38
  -3   8   5   62.75    4.06
  -3   8   5   55.76    5.20
  -3   8   4   45.00    3.51
  -3   8   4   41.33    4.30
  -3   8   3   20.58    2.39
  -3   8   3   20.39    3.02
  -3   8   2   14.63    2.07
  -3   8   2   14.86    2.53
  -3   8   1    2.10    0.82
  -3   8   1    1.60    0.62
  -3   8   0    6.02    1.43
  -3   8   0    5.93    1.55
  -3   8  -1   12.48    2.11
  -3   8  -2   65.12    4.78
  -3   8  -3   22.98    2.86
  -3   8  -4   12.69    2.23
  -3   8  -5   21.33    2.66
  -3   8  -6    2.88    1.41
  -3   8  -6    3.87    1.10
  -3   8  -7    5.64    1.27
  -3   8  -7    4.64    1.77
  -3   8  -8    3.01    0.84
  -3   8  -8    3.41    1.34
  -3   8  -9   29.51    2.84
  -3   8  -9   28.63    4.33
  -3   8 -10    5.98    2.00
  -3   8 -11    1.97    1.38
  -3   8 -12   15.32    3.46
  -3   8 -13    0.05    0.77
  -3   8 -14    3.04    1.52
  -3   8 -15   -1.05    1.11
  -3   8 -16    3.13    1.83
  -3   8 -17    1.90    0.81
  -3   7  19    4.55    1.65
  -3   7  18    0.40    0.37
  -3   7  18    0.61    0.57
  -3   7  17    2.60    1.32
  -3   7  17    3.45    1.40
  -3   7  16    0.77    0.77
  -3   7  16    1.39    0.99
  -3   7  15    2.23    1.09
  -3   7  15    1.99    1.10
  -3   7  14   10.19    2.07
  -3   7  14   11.19    2.51
  -3   7  13    0.39    0.32
  -3   7  13    1.33    0.98
  -3   7  12   31.17    3.36
  -3   7  12   27.16    3.74
  -3   7  11    5.29    1.32
  -3   7  11    5.01    1.61
  -3   7  10    1.76    0.71
  -3   7  10    3.20    1.31
  -3   7   9    0.01    0.21
  -3   7   9   -0.01    0.40
  -3   7   8    0.73    0.42
  -3   7   8    0.76    0.65
  -3   7   7    0.42    0.27
  -3   7   7   -0.12    0.35
  -3   7   6  146.06    5.70
  -3   7   6  129.24    7.66
  -3   7   5   27.30    2.38
  -3   7   5   25.53    3.28
  -3   7   4   34.04    2.70
  -3   7   4   33.44    3.65
  -3   7   3    6.74    1.23
  -3   7   3    7.12    1.76
  -3   7   2   12.45    1.71
  -3   7   2   12.67    2.18
  -3   7   1   13.89    1.93
  -3   7   1   11.63    2.08
  -3   7   0    3.05    1.07
  -3   7   0    2.69    0.82
  -3   7  -1   37.60    3.52
  -3   7  -2   38.75    3.57
  -3   7  -3   44.34    3.75
  -3   7  -4    0.82    0.68
  -3   7  -5    0.73    0.56
  -3   7  -6    2.07    0.82
  -3   7  -7    0.49    0.24
  -3   7  -7    0.40    0.69
  -3   7  -8    0.01    0.17
  -3   7  -8   -0.01    0.50
  -3   7  -9   58.45    3.71
  -3   7  -9   57.18    5.89
  -3   7 -10    4.01    0.93
  -3   7 -10    3.71    1.52
  -3   7 -11    0.63    0.83
  -3   7 -12    0.69    1.18
  -3   7 -13    0.81    0.70
  -3   7 -14   10.06    2.69
  -3   7 -15    1.46    1.27
  -3   7 -16    4.95    1.62
  -3   7 -17    3.71    1.95
  -3   6  19    3.82    1.58
  -3   6  18    0.92    0.77
  -3   6  18   -0.05    0.42
  -3   6  17    4.05    1.52
  -3   6  17    3.45    1.57
  -3   6  16    0.29    0.20
  -3   6  16   -0.17    0.59
  -3   6  15    0.10    0.24
  -3   6  15    0.08    0.60
  -3   6  14   37.53    4.07
  -3   6  14   30.08    3.98
  -3   6  13   20.45    2.88
  -3   6  13   18.65    3.07
  -3   6  12   53.18    4.38
  -3   6  12   47.27    4.83
  -3   6  11    4.17    1.15
  -3   6  11    3.82    1.24
  -3   6  10   -0.13    0.09
  -3   6  10   -0.77    0.76
  -3   6   9    3.63    0.98
  -3   6   9    3.66    1.18
  -3   6   8   38.89    2.92
  -3   6   8   38.70    3.96
  -3   6   7   59.19    3.36
  -3   6   7   59.29    4.86
  -3   6   6  157.89    5.45
  -3   6   6  136.07    7.44
  -3   6   5  155.72    7.64
  -3   6   5  167.90    5.30
  -3   6   4   16.34    1.65
  -3   6   4   16.63    2.46
  -3   6   3   39.75    2.58
  -3   6   3   38.78    3.72
  -3   6   2   39.40    2.63
  -3   6   2   39.00    3.65
  -3   6   1    0.23    0.17
  -3   6   1    0.99    0.63
  -3   6   0   52.53    3.97
  -3   6  -1  184.44    7.41
  -3   6  -2    3.93    1.15
  -3   6  -3   56.96    4.09
  -3   6  -4    8.59    1.55
  -3   6  -5   16.72    2.16
  -3   6  -6    1.52    0.66
  -3   6  -7    7.06    1.81
  -3   6  -7    7.63    1.36
  -3   6  -8   66.63    5.82
  -3   6  -8   70.19    4.08
  -3   6  -9   39.00    4.65
  -3   6  -9   42.90    3.22
  -3   6 -10    2.11    0.72
  -3   6 -10    2.39    1.26
  -3   6 -11   12.21    2.85
  -3   6 -11   15.36    1.84
  -3   6 -12    0.92    1.07
  -3   6 -13    9.95    2.70
  -3   6 -14    0.62    0.57
  -3   6 -15    6.43    2.18
  -3   6 -16    8.04    2.40
  -3   6 -17    2.69    1.67
  -3   6 -18    0.20    0.67
   3  -5 -19   -0.16    0.15
  -3   5  19    0.44    0.46
  -3   5  18    5.18    1.80
   3  -5 -18    4.62    1.61
  -3   5  17   11.11    2.45
   3  -5 -17    7.32    2.16
  -3   5  17    9.53    2.18
  -3   5  16    1.76    1.00
   3  -5 -16    0.50    0.19
  -3   5  16    1.76    0.92
  -3   5  15    2.05    1.04
   3  -5 -15    2.03    1.15
  -3   5  15    1.39    0.81
   3  -5 -14    7.67    2.08
  -3   5  14    7.84    1.88
  -3   5  14   10.08    2.02
  -3   5  13   24.12    3.28
   3  -5 -13   24.49    3.64
  -3   5  13   27.02    3.23
  -3   5  12    8.08    1.71
  -3   5  12    6.03    1.58
   3  -5 -12    6.48    1.71
  -3   5  11    7.51    1.55
  -3   5  11    4.93    1.46
  -3   5  10   12.85    1.97
  -3   5  10   12.58    2.17
  -3   5   9   23.74    2.40
  -3   5   9   19.56    2.76
  -3   5   8    5.47    1.11
  -3   5   8    5.24    1.39
  -3   5   7   92.29    4.05
  -3   5   7   87.10    5.72
  -3   5   6   71.68    3.23
  -3   5   6   68.02    4.85
  -3   5   5   20.59    1.67
  -3   5   5   18.46    2.47
   3  -5  -5   22.60    2.27
  -3   5   4   22.69    1.65
   3  -5  -4   23.47    2.12
  -3   5   4   20.72    2.60
  -3   5   3   57.13    2.51
  -3   5   3   54.39    4.12
  -3   5   2    1.11    0.35
  -3   5   2    1.57    0.66
  -3   5   1   95.99    3.73
  -3   5   1   85.96    4.99
  -3   5   0    6.40    1.33
  -3   5  -1  145.25    6.37
  -3   5  -2   11.80    1.83
  -3   5  -3    0.24    0.27
  -3   5  -4   14.90    1.97
  -3   5  -5   13.19    1.75
  -3   5  -6    9.79    1.47
  -3   5  -7   25.62    3.37
  -3   5  -7   28.35    2.51
  -3   5  -8   32.76    3.90
  -3   5  -8   38.38    2.95
  -3   5  -9   13.49    1.72
  -3   5  -9   11.72    2.34
  -3   5 -10    0.75    0.83
  -3   5 -10   -0.07    0.20
  -3   5 -11    1.90    1.15
  -3   5 -11    3.10    0.80
  -3   5 -12   -0.04    0.29
  -3   5 -13    2.21    1.29
  -3   5 -14    4.04    1.82
  -3   5 -15    5.88    2.15
  -3   5 -16    1.66    1.10
  -3   5 -17    0.19    0.94
  -3   5 -18    0.04    0.32
   3  -4 -20    6.78    2.23
   3  -4 -19    4.81    1.81
   3  -4 -18    9.42    2.58
   3  -4 -17   15.99    3.20
  -3   4  17   18.67    2.90
  -3   4  17   21.92    3.44
   3  -4 -16   17.96    3.29
  -3   4  16   19.48    2.96
  -3   4  16   25.18    3.54
  -3   4  15    7.22    1.79
   3  -4 -15    4.98    1.53
  -3   4  15    5.57    1.46
   3  -4 -14   14.96    2.87
  -3   4  14   17.20    2.65
  -3   4  14   18.66    2.79
   3  -4 -13   14.95    2.78
  -3   4  13   15.42    2.44
  -3   4  13   17.82    2.64
  -3   4  12    1.86    0.88
   3  -4 -12    2.32    1.08
  -3   4  12    1.91    0.80
   3  -4 -11   39.72    4.17
  -3   4  11   40.51    3.84
  -3   4  11   44.77    3.82
  -3   4  10   48.87    3.74
  -3   4  10   44.55    4.11
   3  -4 -10   50.22    4.54
  -3   4   9   25.21    2.56
   3  -4  -9   29.35    3.42
  -3   4   9   25.56    2.95
  -3   4   8   42.72    3.08
  -3   4   8   40.17    3.65
  -3   4   7   23.92    2.12
  -3   4   7   23.00    2.68
  -3   4   6   73.15    3.28
  -3   4   6   66.45    4.63
   3  -4  -5   92.99    4.01
  -3   4   5   86.29    3.16
  -3   4   5   82.30    4.99
  -3   4   4  119.76    3.14
   3  -4  -4  126.75    4.24
  -3   4   4  116.24    5.86
  -3   4   3   93.42    2.53
  -3   4   3   84.90    4.92
  -3   4   2   54.77    1.80
  -3   4   2   53.56    3.77
  -3   4   1   74.70    2.42
  -3   4   1   73.16    4.31
  -3   4   0  259.30    8.18
  -3   4  -1   16.39    2.04
  -3   4  -1   17.29    1.28
  -3   4  -2    0.06    0.10
  -3   4  -2    0.15    0.21
  -3   4  -3    0.37    0.39
  -3   4  -4   80.32    4.17
  -3   4  -5    3.31    0.89
  -3   4  -6   33.19    2.76
  -3   4  -7   28.83    3.40
  -3   4  -7   35.88    2.86
  -3   4  -8   87.07    6.17
  -3   4  -8  102.28    4.74
  -3   4  -9   19.09    2.03
  -3   4  -9   16.87    2.78
  -3   4 -10    1.49    0.76
  -3   4 -10    0.95    0.48
  -3   4 -11    0.71    0.62
  -3   4 -11    0.19    0.17
  -3   4 -12   29.11    4.04
  -3   4 -13   10.32    2.43
  -3   4 -14    5.88    1.85
  -3   4 -15   19.09    3.63
  -3   4 -16    4.02    1.73
  -3   4 -17    1.74    1.31
  -3   4 -18   -1.26    1.56
  -3   4 -19    0.17    0.16
   3  -3 -21    0.92    0.18
   3  -3 -20    4.12    1.69
   3  -3 -19    4.05    1.72
   3  -3 -18    7.19    2.29
   3  -3 -17    1.77    0.91
  -3   3  16    0.60    0.54
   3  -3 -16   -0.44    0.40
   3  -3 -15    1.19    0.86
  -3   3  15    3.04    1.03
  -3   3  15    2.50    1.07
  -3   3  14    1.46    0.81
   3  -3 -14    0.69    0.49
  -3   3  14    1.77    0.78
  -3   3  13    1.16    0.66
   3  -3 -13    0.80    0.46
  -3   3  13    1.52    0.72
  -3   3  12   27.07    3.18
   3  -3 -12   23.97    3.45
  -3   3  12   25.04    2.91
   3  -3 -11   33.96    3.88
  -3   3  11   33.30    3.33
  -3   3  11   31.34    3.24
  -3   3  10    2.21    0.84
   3  -3 -10    2.30    1.05
  -3   3  10    2.61    0.94
   3  -3  -9   14.50    2.32
  -3   3   9   14.71    2.08
  -3   3   9   13.26    1.85
  -3   3   8    0.21    0.20
   3  -3  -8   -0.25    0.45
  -3   3   8    0.25    0.17
   3  -3  -7    5.96    1.40
  -3   3   7    5.35    1.25
  -3   3   7    4.80    0.94
  -3   3   6    0.23    0.23
   3  -3  -6    0.01    0.09
  -3   3   6    0.18    0.28
   3  -3  -5    9.93    1.15
  -3   3   5   10.57    1.70
  -3   3   5    8.96    1.03
   3  -3  -4   19.19    1.39
  -3   3   4   17.23    2.06
  -3   3   4   15.78    1.13
  -3   3   3   16.58    0.88
   3  -3  -3   20.74    1.19
  -3   3   3   18.92    2.15
  -3   3   2    5.28    1.12
  -3   3   1   80.57    4.38
  -3   3   0    1.38    0.24
  -3   3   0    2.25    0.78
  -3   3  -1   15.42    1.06
  -3   3  -1   18.26    2.02
  -3   3  -2   17.60    1.38
  -3   3  -2   20.17    2.12
  -3   3  -3   93.96    3.66
  -3   3  -3  104.99    4.65
  -3   3  -4   18.76    1.97
  -3   3  -5    0.25    0.29
  -3   3  -6    0.95    0.46
  -3   3  -7    4.07    0.94
  -3   3  -7    3.84    1.16
  -3   3  -8   28.22    2.44
  -3   3  -8   24.63    3.07
  -3   3  -9    2.02    0.91
  -3   3  -9    0.99    0.56
  -3   3 -10    0.00    0.52
  -3   3 -10    0.39    0.23
  -3   3 -11    8.00    1.94
  -3   3 -11   11.65    1.62
  -3   3 -12    7.07    1.90
  -3   3 -13    1.29    0.75
  -3   3 -14   14.11    2.97
  -3   3 -15    0.84    0.77
  -3   3 -16    0.71    0.77
  -3   3 -17    0.94    0.84
  -3   3 -18    3.85    1.69
  -3   3 -19    0.84    1.10
   3  -2 -21   -0.71    0.55
   3  -2 -20    3.32    1.64
   3  -2 -19   15.70    3.45
   3  -2 -18   13.84    2.99
   3  -2 -17    6.70    2.08
  -3   2  16    2.78    0.98
   3  -2 -16    0.98    0.59
   3  -2 -15    2.29    1.39
  -3   2  15    3.53    1.05
   3  -2 -14    5.76    1.93
  -3   2  14    7.25    1.51
   3  -2 -13    4.23    1.57
  -3   2  13    3.99    1.18
   3  -2 -12   63.62    5.46
  -3   2  12   68.32    4.54
   3  -2 -11   76.69    5.60
  -3   2  11   76.97    4.74
  -3   2  10   83.97    4.85
   3  -2 -10   83.66    5.73
   3  -2  -9    5.88    1.54
  -3   2   9    3.92    1.09
  -3   2   8    4.52    1.10
   3  -2  -8    4.83    1.40
   3  -2  -7  108.11    6.05
  -3   2   7   83.18    4.59
   3  -2  -6   20.62    2.44
   3  -2  -6   16.03    1.54
  -3   2   6   17.91    2.09
   3  -2  -5  167.54    4.23
  -3   2   5  176.05    6.39
   3  -2  -4  186.52    3.74
  -3   2   4  207.32    6.57
   3  -2  -3  355.01    3.98
  -3   2   3  378.09    9.01
  -3   2   2    8.29    1.37
  -3   2   1    3.77    0.86
  -3   2   0   49.49    1.62
  -3   2   0   53.18    3.25
   3  -2   0   51.69    1.47
  -3   2  -1    0.83    0.24
  -3   2  -1    2.15    1.23
   3  -2   1    1.99    0.49
  -3   2  -2   60.66    2.68
  -3   2  -2   58.18    3.29
   3  -2   2   57.12    2.58
  -3   2  -3  185.64    5.30
  -3   2  -3  186.50    5.92
   3  -2   3  174.22    5.12
  -3   2  -4   34.60    2.60
   3  -2   4   31.93    2.44
  -3   2  -5  289.17    7.65
   3  -2   5  278.48    7.84
  -3   2  -6   29.96    2.51
   3  -2   6   29.31    2.71
   3  -2   7    2.58    0.90
  -3   2  -7    2.21    0.80
  -3   2  -7    2.32    0.71
  -3   2  -8   18.11    1.99
  -3   2  -8   16.06    2.57
   3  -2   8   19.89    2.62
  -3   2  -9   42.65    4.08
  -3   2  -9   50.99    3.37
   3  -2   9   53.10    4.39
  -3   2 -10   64.22    5.13
   3  -2  10   86.17    5.86
  -3   2 -11   29.47    3.59
   3  -2  11   39.51    4.18
  -3   2 -12   10.93    2.34
   3  -2  12   14.56    2.77
  -3   2 -13   10.15    2.24
   3  -2  13   15.66    2.89
  -3   2 -14    2.64    1.23
   3  -2  14    4.38    1.52
  -3   2 -15    5.12    1.89
  -3   2 -16    0.82    0.80
  -3   2 -17    9.09    2.76
  -3   2 -18    2.84    1.52
   3  -1 -21    1.33    1.05
   3  -1 -20    0.69    0.60
   3  -1 -19    3.32    1.67
   3  -1 -18    0.20    0.57
   3  -1 -17    2.50    1.27
   3  -1 -16    1.92    1.06
   3  -1 -15    2.58    1.41
  -3   1  15    3.78    1.03
   3  -1 -14    1.94    1.27
  -3   1  14    1.44    0.61
   3  -1 -13   13.82    2.71
  -3   1  13   16.97    2.08
   3  -1 -12   14.24    2.66
  -3   1  12   13.28    1.86
  -3   1  11   10.43    1.57
   3  -1 -11    9.18    1.98
  -3   1  10    4.55    1.00
   3  -1 -10    3.79    1.28
   3  -1  -9    2.51    1.02
  -3   1   9    0.78    0.64
   3  -1  -8   21.85    2.64
  -3   1   8   17.85    2.02
   3  -1  -7    6.60    1.43
  -3   1   7    5.02    1.14
   3  -1  -6    3.72    1.05
  -3   1   6    3.17    0.90
   3  -1  -5    8.71    1.61
  -3   1   5    7.89    1.47
   3  -1  -5    7.04    1.00
   3  -1  -4  119.74    5.23
  -3   1   4  116.40    4.75
   3  -1  -4  123.85    3.51
  -3   1   3   16.46    2.07
   3  -1  -3   13.34    1.82
  -3   1   2   10.10    1.36
   3  -1  -1    0.33    0.14
  -3   1   1    0.30    0.25
   3  -1   0    0.02    0.08
  -3   1   0   -0.17    0.13
  -3   1   0   -0.01    0.10
  -3   1  -1  208.62    4.93
  -3   1  -1  209.53    6.06
   3  -1   2   55.79    2.43
  -3   1  -2   54.47    2.81
  -3   1  -2   54.17    3.15
   3  -1   3   63.41    2.93
  -3   1  -3   65.07    3.55
   3  -1   4    7.97    1.23
  -3   1  -4    8.09    1.29
   3  -1   5   32.61    2.62
  -3   1  -5   32.16    2.54
   3  -1   6   16.25    2.09
  -3   1  -6   14.42    1.76
   3  -1   7   31.11    2.99
  -3   1  -7   27.75    2.44
  -3   1  -7   23.10    2.57
   3  -1   8    3.93    1.13
  -3   1  -8    3.73    1.13
  -3   1  -8    3.75    0.93
   3  -1   9    0.29    0.50
  -3   1  -9    0.46    0.56
  -3   1 -10   38.03    3.73
   3  -1  10   50.27    4.46
  -3   1 -11    6.94    1.73
   3  -1  11    9.47    2.18
   3  -1  12   -0.08    0.47
  -3   1 -12    0.13    0.37
   3  -1  13   -0.15    0.40
  -3   1 -13    0.67    0.73
  -3   1 -14    3.82    1.41
   3  -1  14    6.70    1.95
   3  -1  15    4.00    1.38
  -3   1 -15    2.57    1.22
   3  -1  16    0.47    0.52
  -3   1 -16    0.36    0.56
  -3   1 -17    1.61    1.03
   3  -1  17    2.77    1.34
   3   0 -21    9.37    2.90
   3   0 -20   12.06    3.20
   3   0 -19   14.02    3.23
   3   0 -18   14.26    3.03
   3   0 -17    5.89    2.01
   3   0 -16   16.46    3.24
   3   0 -15    2.79    1.36
  -3   0  14   31.52    2.61
   3   0 -14   32.12    4.30
  -3   0  13    2.80    0.74
   3   0 -13    1.72    0.87
   3   0 -12  109.61    7.05
  -3   0  12  115.07    4.82
   3   0 -11   95.09    6.23
  -3   0  11   85.16    4.12
   3   0 -10    9.57    1.88
  -3   0  10    9.20    1.33
   3   0  -9    8.04    1.71
  -3   0   9    3.53    1.11
   3   0  -8   37.59    3.45
  -3   0   8   35.53    2.62
   3   0  -7   30.19    3.00
  -3   0   7   30.23    2.34
   3   0  -6  465.72   11.29
  -3   0   6  445.42    8.80
   3   0  -5  148.06    6.06
  -3   0   5  136.97    4.95
   3   0  -4   35.53    2.99
  -3   0   4   32.02    2.36
   3   0  -3  256.49    7.67
  -3   0   3  294.78    6.72
  -3   0   2  459.49    8.33
   3   0  -2  446.88    9.03
   3   0  -1    7.04    0.96
  -3   0   1    7.41    1.10
  -3   0   0  151.19    4.80
   3   0   0  158.56    4.50
  -3   0   0  150.96    4.90
   3   0   1  622.24    9.11
  -3   0  -1  598.84    9.91
   3   0   2  107.99    4.04
  -3   0  -2  110.83    4.43
  -3   0  -2  101.80    4.41
   3   0   3  197.75    5.87
  -3   0  -3  186.60    5.87
   3   0   4  276.33    7.04
  -3   0  -4  267.45    7.37
   3   0   5    5.76    1.17
  -3   0  -5    5.66    1.16
   3   0   6   30.97    2.72
  -3   0  -6   26.94    2.41
  -3   0  -6   28.30    2.52
   3   0   7   45.00    3.50
  -3   0  -7   41.17    3.12
  -3   0  -7   34.90    2.92
   3   0   8   13.38    2.07
  -3   0  -8   11.05    1.72
   3   0   9  153.40    7.32
  -3   0  -9  116.02    6.00
   3   0  10   97.76    6.21
  -3   0 -10   81.83    5.35
   3   0  11    0.09    0.43
  -3   0 -11    0.94    0.70
   3   0  12   27.18    3.61
  -3   0 -12   22.65    3.17
   3   0  13   -0.53    0.68
  -3   0 -13    1.22    0.84
   3   0  14    1.79    1.22
  -3   0 -14    7.48    2.12
   3   0  15    4.52    1.62
  -3   0 -15    4.70    1.68
  -3   0 -16   24.76    3.83
   3   0  16   37.31    4.95
   3   0  17   17.12    3.32
   3   0  18   10.36    2.85
   3   0  19    9.76    2.90
   3   1 -21   -0.26    0.23
   3   1 -20    1.69    1.20
   3   1 -19    0.13    0.13
   3   1 -18    1.44    1.03
   3   1 -17   -0.20    0.30
   3   1 -16   11.07    2.60
   3   1 -15    0.20    0.47
   3   1 -14    2.53    1.33
   3   1 -13   11.02    2.44
  -3  -1  13   10.53    1.29
   3   1 -12   18.14    3.08
  -3  -1  12    9.14    1.26
   3   1 -11   13.06    2.62
  -3  -1  11    9.66    1.26
   3   1 -10    3.69    1.40
  -3  -1  10    1.51    0.58
   3   1  -9   17.21    2.56
  -3  -1   9   15.98    1.53
   3   1  -8   25.73    2.97
  -3  -1   8   17.06    1.68
   3   1  -7   22.09    2.63
  -3  -1   7   19.36    1.66
   3   1  -7   18.59    1.59
   3   1  -6    5.54    1.30
   3   1  -6    4.28    0.77
  -3  -1   6    4.25    0.75
   3   1  -5   43.34    3.19
  -3  -1   5   40.65    2.32
   3   1  -5   39.48    2.34
   3   1  -4   29.79    2.69
  -3  -1   4   27.51    2.00
   3   1  -4   27.87    2.05
   3   1  -3  214.08    6.36
  -3  -1   3  212.68    5.51
   3   1  -2   19.14    1.83
  -3  -1   2   21.60    1.79
   3   1  -1    3.06    0.73
  -3  -1   1    3.22    0.70
   3   1  -1    3.43    0.83
  -3  -1   1    3.59    0.76
  -3  -1   0   16.31    1.48
  -3  -1   0   17.69    1.72
   3   1   0   15.09    1.68
  -3  -1   0   14.15    1.71
   3   1   1   18.74    1.89
  -3  -1  -1   35.20    2.54
  -3  -1  -1   18.84    2.18
  -3  -1  -1   43.07    2.40
   3   1   2   46.92    3.03
  -3  -1  -2   47.56    2.98
   3   1   3    0.57    0.71
  -3  -1  -3    1.82    0.81
   3   1   4    7.23    1.26
  -3  -1  -4    6.90    1.22
   3   1   5    5.28    1.24
  -3  -1  -5    5.40    1.17
   3   1   6   59.94    3.91
  -3  -1  -6   49.41    3.01
   3   1   7    1.51    0.80
  -3  -1  -7    6.70    1.18
   3   1   8   10.91    1.81
  -3  -1  -8    9.29    1.52
   3   1   9   18.75    2.53
  -3  -1  -9   17.21    2.16
   3   1  10   46.98    4.27
  -3  -1 -10   33.35    3.23
   3   1  11    4.10    1.37
  -3  -1 -11    7.04    1.66
   3   1  12    7.54    1.89
  -3  -1 -12    5.74    1.58
   3   1  13    0.28    0.56
  -3  -1 -13   -0.54    0.36
   3   1  14    1.24    0.90
  -3  -1 -14    7.28    1.82
   3   1  15    0.22    0.32
   3   1  16    0.47    0.80
   3   1  17    8.03    2.40
   3   1  18   -0.36    0.92
   3   1  19   -0.03    0.42
   3   2 -21    1.06    0.66
   3   2 -20    1.57    0.85
   3   2 -19    3.00    1.57
   3   2 -18   13.42    3.06
   3   2 -17   42.53    5.37
   3   2 -16   46.88    5.51
   3   2 -15    5.98    1.98
   3   2 -14   14.14    3.10
   3   2 -13   15.12    2.78
   3   2 -12   27.33    3.79
  -3  -2  12   18.42    1.26
   3   2 -11   23.60    3.15
  -3  -2  11    4.43    0.68
   3   2 -10  166.69    8.41
  -3  -2  10  129.93    3.55
   3   2  -9   75.77    5.52
  -3  -2   9   75.41    2.73
   3   2  -8   62.14    4.74
  -3  -2   8   53.35    2.36
   3   2  -8   57.28    2.52
   3   2  -7  211.71    4.91
   3   2  -7  214.24    8.42
  -3  -2   7  206.38    4.80
  -3  -2   6    5.95    0.90
   3   2  -6   10.29    1.90
   3   2  -6    9.84    1.18
   3   2  -5   98.62    3.54
   3   2  -5  100.85    5.15
  -3  -2   5   99.91    3.52
   3   2  -4   17.16    2.28
   3   2  -4   12.98    1.33
   3   2  -3  168.54    5.90
  -3  -2   3  139.39    4.42
   3   2  -2  220.58    6.12
  -3  -2   2  211.54    5.55
   3   2  -1  153.22    4.92
  -3  -2   1  152.46    5.01
   3   2  -1  141.99    6.15
  -3  -2   1  149.74    4.89
   3   2   0   78.46    3.33
   3   2   0   75.22    4.54
  -3  -2   0   82.04    3.78
  -3  -2  -1  265.89    5.40
  -3  -2  -1  275.78    7.19
   3   2   1  264.55    8.16
  -3  -2  -2   60.74    2.47
  -3  -2  -2   67.76    3.73
   3   2   2   67.49    4.14
   3   2   3   12.29    2.03
   3   2   4   33.03    2.95
   3   2   5  197.01    7.32
  -3  -2  -5  228.92    5.12
   3   2   6   61.22    4.22
  -3  -2  -6   68.34    3.04
   3   2   7   34.91    3.42
  -3  -2  -7   69.56    3.39
   3   2   8  124.66    6.14
  -3  -2  -8  170.43    5.86
   3   2   9   40.06    3.73
  -3  -2  -9   28.14    2.72
   3   2  10   21.56    2.86
  -3  -2 -10   30.67    2.99
   3   2  11    3.64    1.31
  -3  -2 -11   12.78    2.19
   3   2  12   30.98    3.73
  -3  -2 -12   24.32    2.94
  -3  -2 -13    7.81    1.65
   3   2  13    8.60    2.09
   3   2  14   49.07    5.22
   3   2  15   27.70    4.12
   3   2  16   12.41    2.84
   3   2  17    6.51    2.09
   3   2  18    0.57    0.18
   3   2  19    2.07    1.33
   3   3 -21    0.16    0.52
   3   3 -20    0.32    0.42
   3   3 -19    1.74    1.07
   3   3 -18    1.31    1.01
   3   3 -17    0.20    0.68
   3   3 -16   11.54    2.77
   3   3 -15    1.15    0.99
   3   3 -14    5.23    1.64
   3   3 -13    3.76    1.46
   3   3 -12   13.41    2.76
   3   3 -11   10.35    2.27
   3   3 -10   13.58    2.51
  -3  -3  10   10.40    0.74
   3   3  -9    3.87    1.36
  -3  -3   9    3.74    0.50
  -3  -3   8    1.94    0.40
   3   3  -8    2.69    0.51
   3   3  -7   18.01    2.59
  -3  -3   7   13.36    1.13
   3   3  -7   18.76    1.42
   3   3  -6    3.74    1.19
   3   3  -6    5.40    0.82
  -3  -3   6    4.10    0.72
   3   3  -5   27.59    2.83
   3   3  -5   27.86    1.76
  -3  -3   5   29.99    1.90
   3   3  -4   43.98    3.31
  -3  -3   4   46.16    2.48
   3   3  -3   16.86    1.84
  -3  -3   3   16.69    1.58
   3   3  -2    3.52    0.93
  -3  -3   2    2.56    0.65
   3   3  -1   39.24    2.41
  -3  -3   1   39.90    2.88
  -3  -3   1   36.20    2.51
   3   3  -1   36.38    3.46
   3   3   0    8.21    1.00
   3   3   0    9.72    1.79
  -3  -3   0    7.73    1.12
   3   3   1    5.09    0.79
  -3  -3  -1    6.72    0.92
  -3  -3  -2   16.82    1.24
   3   3   2    4.64    1.34
  -3  -3  -3    9.53    0.87
   3   3   3    3.89    1.15
  -3  -3  -4    2.37    0.38
   3   3   4    3.39    1.04
   3   3   5   19.48    2.51
  -3  -3  -5   20.66    1.17
   3   3   6    6.32    1.50
  -3  -3  -6    3.92    0.64
  -3  -3  -7    4.47    0.75
   3   3   7    1.22    0.76
  -3  -3  -8   12.46    1.41
   3   3   8    4.65    1.36
   3   3   9   14.76    2.36
  -3  -3  -9   10.53    1.43
   3   3  10   11.99    2.10
  -3  -3 -10   11.89    1.58
  -3  -3 -11    3.82    0.95
   3   3  11    4.26    1.32
   3   3  12    4.76    1.50
   3   3  13    1.76    1.03
   3   3  14    6.31    1.92
   3   3  15    1.42    1.12
   3   3  16    4.57    1.78
   3   3  17    1.20    0.79
   3   3  18    2.07    1.25
   3   3  19    1.01    1.05
   3   4 -20    9.53    2.93
   3   4 -19    1.65    1.08
   3   4 -18   21.79    4.13
   3   4 -17   34.62    5.15
   3   4 -16   23.51    4.00
   3   4 -15   12.33    2.76
   3   4 -14   25.76    4.04
   3   4 -13   49.37    5.64
   3   4 -12   19.50    3.70
   3   4 -11   82.63    6.78
   3   4 -10  137.12    8.48
   3   4  -9   34.50    4.09
   3   4  -9   20.24    1.14
   3   4  -8   26.70    1.54
   3   4  -8   49.21    4.76
   3   4  -7   47.99    4.53
   3   4  -7   26.37    1.61
   3   4  -6   46.64    2.25
   3   4  -6   99.46    6.05
   3   4  -5  125.77    6.72
   3   4  -4   43.44    3.61
   3   4  -3   91.68    4.78
   3   4  -2  310.75    7.94
   3   4  -1   47.72    4.32
   3   4  -1   52.63    2.99
  -3  -4   1   54.73    3.48
   3   4   0  107.48    3.92
   3   4   0   29.06    3.37
   3   4   1   42.68    1.99
   3   4   1   16.66    2.52
  -3  -4  -2   48.65    2.04
   3   4   2   29.50    3.25
   3   4   3  254.24    9.68
   3   4   4  174.81    8.06
   3   4   5   79.56    5.34
   3   4   6   87.66    5.70
   3   4   7   18.56    2.69
  -3  -4  -8   42.57    1.50
   3   4   8   26.36    3.22
  -3  -4  -9   30.20    1.62
   3   4   9   11.06    2.20
   3   4  10   11.50    2.21
  -3  -4 -10   12.63    1.19
   3   4  11   66.13    5.21
   3   4  12   31.60    3.77
   3   4  13   18.81    3.03
   3   4  14   29.92    3.98
   3   4  15   11.32    2.64
   3   4  16    6.87    2.04
   3   4  17    0.69    0.98
   3   4  18   13.03    3.21
   3   5 -20    0.58    0.27
   3   5 -19    0.41    1.36
   3   5 -18    3.46    1.78
   3   5 -17    5.29    1.99
   3   5 -16    9.48    2.73
   3   5 -15   11.34    2.87
   3   5 -14    0.28    0.37
   3   5 -13    1.05    0.90
   3   5 -12    4.08    1.65
   3   5 -11   22.09    3.72
   3   5 -10    9.69    2.43
   3   5  -9    0.31    0.49
   3   5  -9    0.29    0.17
   3   5  -8   30.82    1.62
   3   5  -8   37.12    4.39
   3   5  -7    9.10    2.13
   3   5  -7   10.19    1.00
   3   5  -6    4.91    1.45
   3   5  -5   10.31    2.01
   3   5  -4   10.43    2.22
   3   5  -3   13.08    2.02
   3   5  -2   83.52    4.50
   3   5  -1   11.90    1.60
   3   5  -1   10.60    2.24
   3   5   0   55.96    2.96
   3   5   0   36.25    4.08
   3   5   1   15.86    1.34
   3   5   1   16.39    2.65
  -3  -5  -1   19.11    1.60
   3   5   2   16.36    1.08
  -3  -5  -2   20.08    1.31
   3   5   3    2.33    0.93
   3   5   4    3.89    1.33
   3   5   5    4.27    1.31
   3   5   6   22.19    3.10
   3   5   7    0.91    0.58
   3   5   8    7.91    1.87
   3   5   9   18.33    2.92
   3   5  10    7.05    1.78
   3   5  11    1.81    0.80
   3   5  12    1.64    0.83
   3   5  13    8.79    2.04
   3   5  14    4.07    1.52
   3   5  15    5.31    1.76
   3   5  16    5.48    1.82
   3   5  17   -0.05    0.32
   3   5  18    0.49    0.74
   3   6 -20   13.53    3.59
   3   6 -19   13.46    3.51
   3   6 -18   15.54    3.69
   3   6 -17    5.41    2.04
   3   6 -16    6.04    2.32
   3   6 -15    2.89    1.59
   3   6 -14   37.51    5.46
   3   6 -13   39.35    5.59
   3   6 -12   35.37    5.51
   3   6 -11   69.04    6.91
   3   6 -10   47.42    5.57
   3   6  -9   16.93    3.22
   3   6  -8   23.23    1.49
   3   6  -8   27.14    4.02
   3   6  -7   14.58    2.77
   3   6  -6   91.52    6.62
   3   6  -5  218.07    9.84
   3   6  -4   86.70    5.87
   3   6  -3  116.18    6.34
   3   6  -2    4.71    1.23
   3   6  -1   78.24    4.40
   3   6  -1   82.26    6.68
   3   6   0    5.62    1.09
  -3  -6   0    6.76    1.23
   3   6   0    6.93    1.94
   3   6   1   70.51    3.15
   3   6   1   16.19    2.92
   3   6   2   73.68    2.58
   3   6   2   94.29    6.80
   3   6   3  231.02   10.43
   3   6   4   73.39    5.92
   3   6   5   18.78    3.03
   3   6   6    6.66    1.77
   3   6   7   23.05    3.29
   3   6   8    9.99    2.18
   3   6   9   37.42    4.31
   3   6  10   73.09    5.97
   3   6  11   54.46    5.36
   3   6  12   45.45    4.83
   3   6  13    1.34    1.00
   3   6  14    1.65    1.05
   3   6  15    4.13    1.57
   3   6  16   14.52    3.03
   3   6  17   16.19    3.44
   3   6  18   24.25    4.20
   3   7 -19   -0.79    1.09
   3   7 -18    4.15    1.96
   3   7 -17    6.59    2.42
   3   7 -16    3.85    2.01
   3   7 -15    4.10    1.70
   3   7 -14    1.15    1.01
   3   7 -13   10.01    3.00
   3   7 -12    2.91    1.79
   3   7 -11    6.77    2.09
   3   7 -10   14.91    3.11
   3   7  -9    0.10    0.42
   3   7  -8   -0.21    0.04
   3   7  -7    4.57    2.18
   3   7  -6   27.31    3.96
   3   7  -5    5.84    1.77
   3   7  -4    2.59    1.20
   3   7  -3    1.12    0.73
   3   7  -2   17.23    2.65
   3   7  -2    5.50    2.05
   3   7  -1   20.31    2.49
   3   7  -1   21.47    3.59
   3   7   0   34.23    4.54
   3   7   0   21.56    2.37
   3   7   1    0.60    0.28
   3   7   1    0.87    0.64
   3   7   2    4.51    1.61
   3   7   2    3.62    0.67
   3   7   3    3.34    0.46
   3   7   3    6.40    1.89
   3   7   4   40.96    4.66
   3   7   5   11.32    2.48
   3   7   6    0.09    0.16
   3   7   7    0.17    0.23
   3   7   8    4.27    1.50
   3   7   9    1.43    0.90
   3   7  10    5.17    1.68
   3   7  11   12.59    2.69
   3   7  12    0.09    0.46
   3   7  13    5.71    1.67
   3   7  14   -0.02    0.25
   3   7  15   10.34    2.55
   3   7  16    7.08    2.14
   3   7  17    1.89    1.26
   3   8 -18    4.38    2.18
   3   8 -17   10.21    3.15
   3   8 -16   22.19    4.69
   3   8 -15   14.68    3.77
   3   8 -14   14.15    3.39
   3   8 -13   14.48    4.03
   3   8 -12    9.37    2.98
   3   8 -11   24.80    4.59
   3   8 -10   17.40    3.74
   3   8  -9   61.63    6.66
   3   8  -8   51.66    6.63
   3   8  -7   35.09    4.71
   3   8  -6    3.22    1.53
   3   8  -5   25.73    3.77
   3   8  -4   55.93    5.24
   3   8  -3   32.79    3.89
   3   8  -2   77.03    5.58
   3   8  -2   60.03    6.45
   3   8  -1   52.97    4.30
   3   8  -1   53.04    5.99
   3   8   0   79.09    4.83
   3   8   0  101.48    8.41
   3   8   1   35.18    2.93
   3   8   1   53.03    5.89
   3   8   2   41.83    2.70
   3   8   2   43.23    5.14
   3   8   3   20.86    1.45
   3   8   3   39.01    4.78
   3   8   4    1.62    1.04
   3   8   5   18.30    3.29
   3   8   6   72.19    6.62
   3   8   7   26.71    3.95
   3   8   8   19.93    3.39
   3   8   9   26.79    3.94
   3   8  10   15.59    3.02
   3   8  11   36.59    4.67
   3   8  12    9.05    2.50
   3   8  13    9.99    2.61
   3   8  14   10.48    2.78
   3   8  15   14.85    3.10
   3   8  16    6.81    2.05
   3   9 -18    1.60    1.53
   3   9 -17    2.09    1.36
   3   9 -16    2.00    1.55
   3   9 -15    0.67    1.44
   3   9 -14   -0.85    1.12
   3   9 -13    0.99    1.15
   3   9 -12    1.61    1.20
   3   9 -11    2.09    1.20
   3   9 -10    1.75    1.00
   3   9  -9    7.87    3.03
   3   9  -8    1.95    1.44
   3   9  -7    2.42    1.92
   3   9  -6   16.15    3.42
   3   9  -5    2.43    1.49
   3   9  -4    8.56    2.14
   3   9  -3    6.55    1.88
   3   9  -3    2.17    1.43
   3   9  -2    3.92    1.44
   3   9  -2    0.84    0.77
   3   9  -1    1.27    0.76
   3   9  -1    2.35    1.32
   3   9   0    5.20    1.33
   3   9   0   12.61    3.09
   3   9   1   15.21    3.23
   3   9   1    8.33    1.53
   3   9   2    5.00    1.11
   3   9   2    3.05    1.63
   3   9   3    3.49    1.62
   3   9   4   21.28    3.73
   3   9   5    5.04    1.69
   3   9   6    7.12    2.24
   3   9   7   25.95    4.04
   3   9   8    1.62    0.91
   3   9   9    1.65    0.99
   3   9  10    0.14    0.11
   3   9  11    3.47    1.48
   3   9  12   -0.51    0.64
   3   9  13   -0.50    0.82
   3   9  14    2.79    1.47
   3   9  15    7.58    2.28
   3  10 -17    6.71    2.70
   3  10 -16    8.12    2.97
   3  10 -15    6.34    2.70
   3  10 -14   11.37    4.11
   3  10 -13    3.98    2.43
   3  10 -12   -0.42    0.56
   3  10 -11   14.09    3.57
   3  10 -10    6.55    2.21
   3  10  -9   38.39    5.44
   3  10  -8   20.90    4.26
   3  10  -7    9.26    2.73
   3  10  -6   18.88    3.87
   3  10  -5    1.25    0.77
   3  10  -4    2.28    1.20
   3  10  -3  101.49    9.32
   3  10  -3   61.18    5.82
   3  10  -2   97.40    9.11
   3  10  -2   61.31    5.54
   3  10  -1   31.30    3.79
   3  10  -1   38.33    5.60
   3  10   0   46.51    6.23
   3  10   0   47.56    4.35
   3  10   1   42.89    5.96
   3  10   1   40.50    3.68
   3  10   2    0.03    0.36
   3  10   3    0.06    0.48
   3  10   4   50.00    5.86
   3  10   5   24.57    4.12
   3  10   6   33.41    4.81
   3  10   7   14.16    3.27
   3  10   8    1.03    0.97
   3  10   9    5.92    1.95
   3  10  10    2.37    1.30
   3  10  11   12.20    2.90
   3  10  12   27.20    4.46
   3  10  13   12.93    3.21
   3  10  14    6.83    2.21
   3  11 -15    0.97    1.70
   3  11 -14    0.70    1.12
   3  11 -13    0.25    0.26
   3  11 -12    4.97    2.14
   3  11 -11    0.20    0.57
   3  11 -10    1.13    0.99
   3  11  -9    1.98    1.34
   3  11  -8   -0.12    0.50
   3  11  -7    8.93    2.52
   3  11  -6    0.33    0.36
   3  11  -5    0.97    0.56
   3  11  -4   49.69    6.95
   3  11  -4   25.18    3.97
   3  11  -3    0.25    0.95
   3  11  -3    0.86    0.86
   3  11  -2    1.26    0.99
   3  11  -2    0.78    1.23
   3  11  -1    9.35    2.96
   3  11  -1    6.24    1.72
   3  11   0    4.57    1.95
   3  11   1    2.67    1.71
   3  11   2   16.11    3.78
   3  11   3    1.67    1.22
   3  11   4    3.70    1.85
   3  11   5    4.68    1.86
   3  11   6    2.19    1.08
   3  11   7    7.99    2.46
   3  11   8    3.51    1.67
   3  11   9    1.72    1.08
   3  11  10    1.13    1.29
   3  11  11    5.23    1.85
   3  11  12    0.20    0.26
   3  11  13   -0.66    0.92
   3  12 -14    9.24    3.06
   3  12 -13    1.63    1.37
   3  12 -12    1.83    1.25
   3  12 -11    5.61    2.14
   3  12 -10    2.80    1.71
   3  12  -9   13.64    3.40
   3  12  -8    5.97    2.26
   3  12  -7    6.98    2.19
   3  12  -6    4.88    1.94
   3  12  -5   16.42    4.29
   3  12  -5    7.75    2.50
   3  12  -4    6.35    1.98
   3  12  -4   14.77    3.86
   3  12  -3   19.11    3.29
   3  12  -3   33.79    6.01
   3  12  -2    4.03    2.05
   3  12  -1    4.37    2.09
   3  12   0   21.97    4.51
   3  12   1   10.30    3.13
   3  12   2    0.48    0.60
   3  12   3   16.22    3.76
   3  12   4   28.46    4.93
   3  12   5   25.73    4.61
   3  12   6    3.93    2.08
   3  12   7    2.61    1.50
   3  12   8    4.61    2.00
   3  12   9    3.43    1.85
   3  12  10    4.53    1.87
   3  12  11   18.49    3.82
   3  12  12    5.98    2.15
   3  13 -12    2.54    1.57
   3  13 -11    0.14    0.41
   3  13 -10   -1.95    1.54
   3  13  -9    0.30    1.02
   3  13  -8    0.56    0.36
   3  13  -7   -0.05    0.43
   3  13  -6    0.46    0.79
   3  13  -6    0.41    1.02
   3  13  -5    4.35    1.48
   3  13  -5    6.17    2.75
   3  13  -4    1.61    1.07
   3  13  -4    2.17    1.80
   3  13  -3   -0.30    1.08
   3  13  -2    1.44    1.31
   3  13  -1    1.37    1.63
   3  13   0    0.05    0.96
   3  13   1    7.19    2.64
   3  13   2    2.01    1.12
   3  13   3   12.54    3.41
   3  13   4    0.63    0.75
   3  13   5   -0.50    0.25
   3  13   6   -0.02    0.25
   3  13   7    1.62    1.36
   3  13   8   -0.21    0.69
   3  13   9    8.54    2.79
   3  13  10    5.95    2.22
   3  14 -10    1.12    1.38
   3  14  -9   -0.67    1.03
   3  14  -8    4.55    1.91
   3  14  -7   15.47    3.57
   3  14  -7   32.54    6.70
   3  14  -6    4.00    1.97
   3  14  -6    7.00    3.22
   3  14  -5   -0.41    1.11
   3  14  -4    9.89    3.63
   3  14  -3    1.64    1.90
   3  14  -2    1.43    1.83
   3  14  -1   28.04    5.84
   3  14   0   24.69    5.16
   3  14   1    5.52    2.24
   3  14   2    8.13    2.92
   3  14   3   -0.02    0.56
   3  14   4   14.30    3.88
   3  14   5    0.74    0.98
   3  14   6    8.68    2.81
   3  14   7    6.10    2.25
   3  14   8   10.42    3.00
   3  15  -7    9.26    3.81
   3  15  -6   12.24    4.01
   3  15  -5    5.61    3.03
   3  15  -4    0.00    1.50
   3  15  -3    9.72    3.65
   3  15  -2    1.68    1.55
   3  15  -1    3.94    2.23
   3  15   0    0.16    0.78
   3  15   1    3.91    2.23
   3  15   2    5.45    2.34
   3  15   3    2.35    1.70
   3  15   4    0.06    0.61
   3  15   5    7.11    2.74
  -4  15   6    9.60    2.97
  -4  15   5    5.94    2.42
  -4  15   4    5.02    2.28
  -4  15   3    0.44    1.17
  -4  15   2   -0.52    1.04
  -4  15   1    1.62    1.15
  -4  15   0    2.40    1.36
  -4  15  -1    2.18    1.23
  -4  15  -2    2.41    1.39
  -4  15  -2    2.78    1.76
  -4  15  -3    4.47    1.99
  -4  15  -3    5.35    1.89
  -4  15  -4    3.67    1.69
  -4  14   9    0.92    1.12
  -4  14   8   -0.18    1.22
  -4  14   7   18.58    3.95
  -4  14   6    6.71    2.44
  -4  14   5    1.35    0.96
  -4  14   4    1.58    1.10
  -4  14   3    1.26    0.99
  -4  14   2    2.00    1.18
  -4  14   1    2.70    1.50
  -4  14   0    5.08    1.87
  -4  14  -1    3.68    1.55
  -4  14  -2    0.48    0.05
  -4  14  -3   -0.87    0.77
  -4  14  -4    2.29    1.65
  -4  14  -4   -0.45    0.70
  -4  14  -5    5.39    2.41
  -4  14  -6   -0.34    1.00
  -4  14  -7   11.70    3.39
  -4  13  11    4.12    1.92
  -4  13  10    1.87    1.20
  -4  13   9    5.44    2.00
  -4  13   8   16.95    3.66
  -4  13   7    5.43    2.28
  -4  13   6    8.68    2.59
  -4  13   5    0.09    0.70
  -4  13   4    0.19    0.93
  -4  13   3    1.94    1.31
  -4  13   2    7.21    2.23
  -4  13   1    9.43    2.49
  -4  13   0   13.23    2.85
  -4  13  -1    6.01    2.03
  -4  13  -2    2.65    1.18
  -4  13  -3    3.73    1.42
  -4  13  -4    2.61    1.14
  -4  13  -5    7.76    2.63
  -4  13  -5    8.70    2.17
  -4  13  -6    5.97    2.85
  -4  13  -7    4.71    2.27
  -4  13  -8    1.71    1.44
  -4  13  -9    4.90    1.90
  -4  13 -10    3.33    1.76
  -4  12  13    1.01    0.56
  -4  12  12   10.77    3.08
  -4  12  11    0.48    0.56
  -4  12  10    0.21    0.37
  -4  12   9    6.49    2.52
  -4  12   8    9.43    2.73
  -4  12   7    6.50    2.17
  -4  12   6    0.02    0.61
  -4  12   5    6.75    2.15
  -4  12   4    6.51    2.07
  -4  12   3   -0.18    0.58
  -4  12   2    2.16    1.44
  -4  12   1   13.97    2.87
  -4  12   0    9.22    2.25
  -4  12  -1    0.79    0.63
  -4  12  -2    1.33    1.02
  -4  12  -3    0.15    0.54
  -4  12  -4    0.95    0.63
  -4  12  -5    3.23    1.33
  -4  12  -5    4.76    2.06
  -4  12  -6    5.01    2.37
  -4  12  -6    4.09    1.50
  -4  12  -7   15.27    3.72
  -4  12  -8    1.80    1.12
  -4  12  -9    1.84    1.40
  -4  12 -10    4.24    2.32
  -4  12 -11    0.37    0.38
  -4  11  15    3.45    1.87
  -4  11  14    8.51    2.67
  -4  11  13    3.30    1.76
  -4  11  12    7.15    2.29
  -4  11  11   16.99    3.45
  -4  11  10   22.83    4.11
  -4  11   9   11.17    2.72
  -4  11   8    8.55    2.43
  -4  11   7    7.78    2.48
  -4  11   6    7.27    2.27
  -4  11   5    4.36    2.08
  -4  11   4   10.83    2.59
  -4  11   3   37.95    4.91
  -4  11   2   15.19    2.91
  -4  11   1   61.11    5.97
  -4  11   0    4.82    1.69
  -4  11  -1   16.94    3.18
  -4  11  -2    5.40    1.73
  -4  11  -3   21.43    3.32
  -4  11  -4   19.91    3.12
  -4  11  -5   28.80    3.71
  -4  11  -6    5.11    1.92
  -4  11  -6    1.75    1.00
  -4  11  -7   11.45    3.14
  -4  11  -7    8.59    1.97
  -4  11  -8   15.28    4.03
  -4  11  -9   10.63    3.13
  -4  11 -10    5.80    2.49
  -4  11 -11   11.11    3.36
  -4  11 -12   11.99    3.32
  -4  11 -13    2.24    1.45
  -4  10  16   -0.46    0.08
  -4  10  15    2.38    1.35
  -4  10  14    1.08    1.10
  -4  10  13   16.27    3.51
  -4  10  12   18.04    3.72
  -4  10  11    3.37    1.77
  -4  10  10    5.57    2.00
  -4  10   9    5.66    1.89
  -4  10   8    8.54    2.51
  -4  10   7    1.05    0.72
  -4  10   6    0.02    0.55
  -4  10   5   45.28    5.29
  -4  10   4    0.23    0.51
  -4  10   3    5.94    1.84
  -4  10   2    8.52    2.13
  -4  10   1   25.34    3.08
  -4  10   1   29.31    3.84
  -4  10   0   11.12    2.35
  -4  10   0   10.58    2.15
  -4  10  -1   17.87    2.96
  -4  10  -1   21.64    3.03
  -4  10  -2    1.30    0.75
  -4  10  -3   32.88    4.08
  -4  10  -4    1.51    0.86
  -4  10  -5    0.80    0.47
  -4  10  -6   28.78    3.50
  -4  10  -7    3.17    1.58
  -4  10  -7    1.80    0.78
  -4  10  -8    5.63    1.40
  -4  10  -8    7.16    2.37
  -4  10  -9    8.17    2.55
  -4  10 -10   14.45    3.82
  -4  10 -11   13.47    3.42
  -4  10 -12    1.41    1.36
  -4  10 -13    1.42    1.28
  -4  10 -14    0.76    0.89
  -4   9  17    2.09    1.26
  -4   9  16    0.26    0.49
  -4   9  15    0.67    0.62
  -4   9  14    6.37    2.12
  -4   9  13   25.11    4.24
  -4   9  12   54.57    6.15
  -4   9  11   11.61    2.74
  -4   9  10    3.57    1.37
  -4   9   9    6.30    1.89
  -4   9   8    8.70    1.45
  -4   9   8   12.94    2.89
  -4   9   7    4.00    1.03
  -4   9   7    7.77    2.21
  -4   9   6   24.88    2.44
  -4   9   6   26.97    3.94
  -4   9   5   41.16    3.12
  -4   9   5   50.67    5.27
  -4   9   4   56.31    3.72
  -4   9   4   58.62    5.71
  -4   9   3   20.62    2.34
  -4   9   3   21.86    3.43
  -4   9   2    0.79    0.55
  -4   9   2    4.83    1.63
  -4   9   1    1.44    0.77
  -4   9   1    1.50    0.87
  -4   9   0   13.51    2.10
  -4   9   0   10.60    2.16
  -4   9  -1   14.99    2.65
  -4   9  -2   36.00    4.10
  -4   9  -3   59.35    5.17
  -4   9  -4   17.28    2.71
  -4   9  -5   15.85    2.54
  -4   9  -6   20.64    2.85
  -4   9  -7    4.99    1.30
  -4   9  -7    6.02    1.96
  -4   9  -8    7.12    2.20
  -4   9  -8    6.22    1.45
  -4   9  -9   13.07    2.07
  -4   9  -9   13.71    3.30
  -4   9 -10   56.48    6.69
  -4   9 -11   25.11    4.63
  -4   9 -12    9.63    2.84
  -4   9 -13    1.36    1.30
  -4   9 -14    0.41    0.81
  -4   9 -15    0.35    0.85
  -4   8  18    3.04    1.66
  -4   8  17    2.21    1.33
  -4   8  16    2.47    1.36
  -4   8  15    3.09    1.52
  -4   8  14    9.98    2.47
  -4   8  13   16.36    2.47
  -4   8  13   14.37    2.86
  -4   8  12    0.46    0.25
  -4   8  12   -0.13    0.27
  -4   8  11    9.06    1.69
  -4   8  11    8.70    2.27
  -4   8  10   10.97    1.78
  -4   8  10   15.41    3.06
  -4   8   9    3.33    0.96
  -4   8   9    3.73    1.43
  -4   8   8    1.42    0.62
  -4   8   8    5.62    1.76
  -4   8   7    7.36    1.24
  -4   8   7    8.50    2.16
  -4   8   6   13.36    1.65
  -4   8   6   12.07    2.49
  -4   8   5   13.06    1.56
  -4   8   5   12.57    2.46
  -4   8   4    2.31    0.67
  -4   8   4    6.74    1.92
  -4   8   3   23.78    2.16
  -4   8   3   22.26    3.27
  -4   8   2    0.48    0.41
  -4   8   2    2.11    1.10
  -4   8   1    7.18    1.39
  -4   8   1    9.30    1.96
  -4   8   0    6.17    1.64
  -4   8   0    5.49    1.24
  -4   8  -1    8.82    1.98
  -4   8  -2   13.55    2.39
  -4   8  -3    5.20    1.40
  -4   8  -4    6.97    1.56
  -4   8  -5    3.34    1.09
  -4   8  -6   13.45    2.22
  -4   8  -7    1.22    0.65
  -4   8  -8   19.61    3.50
  -4   8  -8   18.38    2.51
  -4   8  -9    7.60    2.25
  -4   8  -9    1.63    0.76
  -4   8 -10    1.33    1.04
  -4   8 -11    9.57    2.65
  -4   8 -12    6.59    2.17
  -4   8 -13    3.55    1.76
  -4   8 -14    1.94    1.24
  -4   8 -15    4.08    2.21
  -4   8 -16    4.14    2.02
  -4   7  18    3.86    1.53
  -4   7  17    7.42    2.15
  -4   7  16   27.36    4.08
  -4   7  16   22.42    3.26
  -4   7  15   22.35    3.66
  -4   7  15   21.54    3.13
  -4   7  14   23.38    3.76
  -4   7  14   27.83    3.44
  -4   7  13   33.11    4.41
  -4   7  13   33.63    3.62
  -4   7  12    9.60    1.87
  -4   7  12   14.31    2.95
  -4   7  11    2.31    0.98
  -4   7  11    4.05    1.65
  -4   7  10    2.91    0.92
  -4   7  10    4.18    1.41
  -4   7   9   12.16    1.79
  -4   7   9   23.07    3.44
  -4   7   8   36.69    2.79
  -4   7   8   46.32    4.77
  -4   7   7   30.65    2.31
  -4   7   7   32.97    3.97
  -4   7   6   51.29    2.78
  -4   7   6   47.16    4.74
  -4   7   5   87.80    3.64
  -4   7   5   78.39    5.99
  -4   7   4    4.54    0.82
  -4   7   4   19.00    3.04
  -4   7   3    4.20    0.79
  -4   7   3   21.96    3.05
  -4   7   2   19.74    1.77
  -4   7   2   37.21    3.89
  -4   7   1  108.73    4.54
  -4   7   1  133.10    7.19
  -4   7   0   64.86    5.01
  -4   7   0   59.08    3.61
  -4   7  -1   51.27    4.47
  -4   7  -2   53.98    4.54
  -4   7  -3   28.94    3.40
  -4   7  -4   18.00    2.58
  -4   7  -5   10.86    1.91
  -4   7  -6   42.51    3.64
  -4   7  -7   46.76    3.79
  -4   7  -8    6.64    1.39
  -4   7  -8    7.06    1.98
  -4   7  -9   14.19    2.08
  -4   7  -9   11.10    2.62
  -4   7 -10   29.36    3.00
  -4   7 -10   27.26    4.33
  -4   7 -11   27.45    4.39
  -4   7 -12   19.07    3.65
  -4   7 -13   24.05    4.19
  -4   7 -14   30.17    5.01
  -4   7 -15    6.22    2.30
  -4   7 -16    3.67    1.88
  -4   6  18    4.95    1.64
  -4   6  18    4.39    1.57
  -4   6  17    3.21    1.35
  -4   6  17    2.38    1.00
  -4   6  16    0.20    0.19
  -4   6  16   -0.06    0.58
  -4   6  15    2.41    1.11
  -4   6  15    5.98    1.87
  -4   6  14    0.27    0.14
  -4   6  14    0.82    0.78
  -4   6  13   -0.88    0.75
  -4   6  13    0.60    0.75
  -4   6  12    0.41    0.26
  -4   6  12    0.72    0.57
  -4   6  11   68.24    5.78
  -4   6  11   71.10    4.68
  -4   6  10    2.41    0.87
  -4   6  10    3.83    1.39
  -4   6   9   12.44    1.76
  -4   6   9   13.80    2.45
  -4   6   8    4.04    0.96
  -4   6   8    4.39    1.32
  -4   6   7    2.80    0.76
  -4   6   7    4.79    1.56
   4  -6  -6    0.28    0.31
  -4   6   6    0.38    0.25
  -4   6   5    0.52    0.26
  -4   6   5    1.86    1.02
  -4   6   4   15.19    1.22
  -4   6   4   17.83    2.64
  -4   6   3    2.52    0.52
  -4   6   3   11.65    2.08
  -4   6   2   71.01    5.13
  -4   6   2   61.77    2.48
  -4   6   1   52.69    4.46
  -4   6   1   38.66    2.27
  -4   6   0   49.82    4.46
  -4   6  -1   31.36    3.41
  -4   6  -1   31.88    2.03
  -4   6  -2   15.52    2.35
  -4   6  -3    5.73    1.41
  -4   6  -4    5.71    1.37
  -4   6  -5    9.23    1.71
  -4   6  -6    3.41    1.04
  -4   6  -7    9.72    1.71
  -4   6  -8    5.55    1.64
  -4   6  -8    5.47    1.29
  -4   6  -9   10.36    1.81
  -4   6  -9   46.09    5.24
  -4   6 -10    1.34    0.96
  -4   6 -10    0.37    0.28
  -4   6 -11   -0.32    0.32
  -4   6 -11   -0.44    0.71
  -4   6 -12    0.28    0.75
  -4   6 -13   11.57    2.89
  -4   6 -14    0.44    0.36
  -4   6 -15    3.77    1.70
  -4   6 -16    2.79    1.51
  -4   6 -17    9.12    2.65
   4  -5 -20    1.59    0.99
   4  -5 -19    5.01    1.90
   4  -5 -18   20.12    3.88
   4  -5 -17   11.86    2.96
  -4   5  17   14.76    2.91
  -4   5  16   33.38    4.14
  -4   5  16   31.93    3.96
   4  -5 -16   29.31    4.42
  -4   5  15   20.10    3.33
  -4   5  15   14.52    2.65
   4  -5 -15   17.58    3.53
  -4   5  14   15.46    2.79
  -4   5  14   12.25    2.28
   4  -5 -14   14.22    3.13
  -4   5  13    5.42    1.52
  -4   5  13   11.47    2.37
  -4   5  12   19.36    2.94
  -4   5  12   19.00    2.54
  -4   5  11   11.62    2.28
  -4   5  11   12.82    1.96
  -4   5  10  122.93    7.35
  -4   5  10  127.07    5.79
  -4   5   9   63.46    5.18
  -4   5   9   62.53    3.84
  -4   5   8   31.34    3.68
  -4   5   8   15.91    1.89
  -4   5   7   69.88    5.38
  -4   5   7   29.42    2.39
  -4   5   6    0.35    0.17
   4  -5  -6    0.54    0.35
  -4   5   5   16.05    1.36
   4  -5  -5   15.35    1.61
  -4   5   4    7.57    0.73
  -4   5   4    8.71    1.76
  -4   5   3   84.28    1.87
  -4   5   3  104.69    6.05
  -4   5   2   54.67    4.38
  -4   5   1  101.72    2.16
  -4   5   1   96.99    2.51
  -4   5   0   36.14    3.65
  -4   5   0   23.04    1.31
  -4   5  -1   41.75    2.18
  -4   5  -1   67.56    4.80
  -4   5  -2    2.11    0.58
  -4   5  -2    3.00    1.11
  -4   5  -3   67.57    4.60
  -4   5  -4    1.39    0.69
  -4   5  -5  137.30    6.37
  -4   5  -6   56.34    4.01
  -4   5  -7   20.89    2.56
  -4   5  -8   87.94    6.75
  -4   5  -8   36.15    3.36
  -4   5  -9    3.75    1.05
  -4   5  -9   10.17    2.30
  -4   5 -10    1.18    0.65
  -4   5 -10   11.45    2.71
  -4   5 -11   14.97    3.14
  -4   5 -11   14.64    2.09
  -4   5 -12   20.58    3.58
  -4   5 -12   17.93    2.28
  -4   5 -13   29.63    4.34
  -4   5 -14   25.00    4.22
  -4   5 -15   11.75    2.98
  -4   5 -16   20.66    4.08
  -4   5 -17    3.94    1.69
  -4   5 -18    0.92    0.77
   4  -4 -20    1.35    0.93
   4  -4 -19    8.25    2.59
   4  -4 -18    0.50    0.45
   4  -4 -17    6.18    2.09
  -4   4  17    7.86    1.99
   4  -4 -16    2.38    1.31
  -4   4  16    2.13    0.95
   4  -4 -15    6.12    1.92
  -4   4  15    6.59    1.68
   4  -4 -14    3.75    1.61
  -4   4  14    3.65    1.45
   4  -4 -13    3.72    1.47
  -4   4  13    3.91    1.18
  -4   4  12   34.71    3.49
  -4   4  12   35.74    3.90
   4  -4 -12   38.91    4.50
   4  -4 -11    6.14    1.74
  -4   4  11    8.41    1.81
  -4   4  11    7.01    1.46
  -4   4  10    3.15    1.11
  -4   4  10    7.16    2.05
   4  -4 -10    7.52    2.19
  -4   4   9   31.17    3.42
  -4   4   9   27.11    2.51
  -4   4   8    0.46    0.33
  -4   4   8    2.59    1.07
  -4   4   7    2.04    0.58
  -4   4   7    1.50    0.68
   4  -4  -6    0.68    0.43
  -4   4   6    1.57    0.65
  -4   4   5   22.29    2.99
   4  -4  -5   10.57    1.15
   4  -4  -4   46.78    1.97
  -4   4   4   48.05    3.91
  -4   4   3    2.11    0.87
  -4   4   2   91.52    5.44
  -4   4   1   47.03    3.90
  -4   4   0    5.68    0.60
  -4   4   0   25.03    3.03
  -4   4  -1    0.14    0.11
  -4   4  -1    0.55    0.47
  -4   4  -2    2.08    0.67
  -4   4  -2    6.52    1.80
  -4   4  -3   49.11    3.66
  -4   4  -4   47.71    3.58
  -4   4  -5    1.15    0.52
  -4   4  -6    7.09    1.47
  -4   4  -7    2.36    0.98
  -4   4  -8   20.20    3.00
  -4   4  -8   23.38    2.56
  -4   4  -9    4.86    1.52
  -4   4  -9    0.92    0.57
  -4   4 -10    4.46    1.19
  -4   4 -10   26.07    3.84
  -4   4 -11    2.32    1.20
  -4   4 -11    0.12    0.27
  -4   4 -12    8.61    2.16
  -4   4 -12    8.36    1.54
  -4   4 -13    5.88    1.89
  -4   4 -14    7.32    2.21
  -4   4 -15    9.06    2.47
  -4   4 -16    2.46    1.43
  -4   4 -17    4.84    2.12
  -4   4 -18    0.10    0.72
   4  -3 -20    8.59    2.76
   4  -3 -19   29.04    4.71
   4  -3 -18   29.86    4.76
   4  -3 -17    0.52    0.20
   4  -3 -16    0.29    0.37
  -4   3  16    1.09    0.48
   4  -3 -15    5.20    1.78
  -4   3  15    6.25    1.67
   4  -3 -14   21.41    3.62
  -4   3  14   23.25    3.09
   4  -3 -13   13.48    2.87
  -4   3  13   14.31    2.39
   4  -3 -12   62.54    5.84
  -4   3  12   61.42    4.86
   4  -3 -11  110.01    7.35
  -4   3  11  103.64    6.12
   4  -3 -10   34.48    4.05
  -4   3  10   35.14    3.53
   4  -3  -9    1.34    0.67
  -4   3   9    1.17    0.70
  -4   3   8   20.89    2.67
   4  -3  -8   14.02    3.06
  -4   3   7    8.77    1.98
   4  -3  -6   45.32    2.54
  -4   3   6   74.57    5.03
   4  -3  -5  226.05    4.77
  -4   3   5  222.19    8.24
   4  -3  -4  159.20    3.25
  -4   3   4  173.65    7.31
  -4   3   3  175.84    7.54
  -4   3   2   22.22    2.57
  -4   3   1    0.23    0.35
  -4   3   0    4.88    1.35
  -4   3   0    3.74    0.47
  -4   3  -1  112.67    3.25
  -4   3  -1  121.63    5.68
  -4   3  -2   60.01    2.86
  -4   3  -2   76.29    4.58
  -4   3  -3   47.85    3.72
   4  -3   3   39.72    2.65
  -4   3  -4  148.79    6.15
   4  -3   4  129.82    5.18
  -4   3  -5   46.28    3.49
   4  -3   5   41.04    3.10
  -4   3  -6   64.07    4.28
   4  -3   6   56.30    3.95
   4  -3   7    0.35    0.40
  -4   3  -7    0.02    0.25
  -4   3  -8   37.88    3.94
  -4   3  -8   33.71    3.00
   4  -3   8   29.72    3.33
  -4   3  -9   22.90    2.58
   4  -3   9   22.87    3.08
  -4   3 -10   69.19    4.41
  -4   3 -10   81.46    6.23
   4  -3  10   72.55    5.62
  -4   3 -11   21.03    2.47
  -4   3 -11   22.06    3.34
   4  -3  11   23.32    3.38
  -4   3 -12   23.18    3.50
  -4   3 -13    6.80    2.15
  -4   3 -14    0.64    0.61
  -4   3 -15   -0.83    1.02
  -4   3 -16   14.22    3.39
  -4   3 -17   12.34    3.28
  -4   3 -18    4.90    2.08
   4  -2 -21    1.88    1.21
   4  -2 -20   -0.17    0.85
   4  -2 -19    6.50    2.30
   4  -2 -18    1.74    1.14
   4  -2 -17    1.74    1.35
   4  -2 -16    0.25    0.38
   4  -2 -15   -0.19    0.45
  -4   2  15    1.33    0.67
   4  -2 -14    2.10    1.17
  -4   2  14    2.07    0.84
  -4   2  13    4.65    1.33
   4  -2 -13    3.68    1.60
   4  -2 -12    9.78    2.25
  -4   2  12    9.66    1.77
   4  -2 -11   -0.67    0.58
  -4   2  11    0.35    0.41
   4  -2 -10   27.96    3.55
  -4   2  10   24.99    2.72
   4  -2  -9   19.96    3.13
  -4   2   9   19.70    2.70
  -4   2   8    0.57    0.35
   4  -2  -8    0.54    0.57
   4  -2  -7   24.53    2.99
  -4   2   7   24.12    2.62
   4  -2  -6    0.39    0.62
   4  -2  -6    0.06    0.08
  -4   2   6    0.43    0.48
   4  -2  -5   19.07    1.40
  -4   2   5   21.10    2.47
   4  -2  -4    0.27    0.13
  -4   2   4    0.23    0.42
  -4   2   3   10.10    1.66
  -4   2   2   31.13    2.80
  -4   2   1   37.95    3.13
   4  -2   0    5.07    0.55
  -4   2   0    4.99    0.68
  -4   2   0    4.73    1.14
   4  -2   1    4.19    0.62
  -4   2  -1    4.17    0.71
  -4   2  -1    4.91    1.09
   4  -2   2    4.61    0.81
  -4   2  -2    5.35    0.91
  -4   2  -2    5.32    1.14
   4  -2   3   14.03    1.55
  -4   2  -3   14.84    1.92
   4  -2   4    3.47    0.90
  -4   2  -4    3.88    0.99
  -4   2  -5    5.74    1.24
   4  -2   5    6.17    1.18
   4  -2   6    1.08    0.44
  -4   2  -6    1.25    0.50
  -4   2  -7   42.61    3.33
   4  -2   7   41.61    3.65
   4  -2   8    2.66    1.02
  -4   2  -8    2.65    0.94
  -4   2  -8    5.32    1.66
   4  -2   9    2.97    0.94
  -4   2  -9    1.82    0.81
  -4   2  -9    3.07    0.91
   4  -2  10    5.62    1.52
  -4   2 -10    6.92    1.82
  -4   2 -10    5.42    1.26
  -4   2 -11   10.22    2.11
   4  -2  11   10.59    2.22
   4  -2  12    3.21    1.28
  -4   2 -12    3.65    1.36
   4  -2  13    0.69    0.83
  -4   2 -13    0.99    0.96
   4  -2  14    1.55    1.13
  -4   2 -14    0.75    0.82
  -4   2 -15   12.00    2.76
   4  -2  15   17.80    3.32
  -4   2 -16    0.69    0.72
  -4   2 -17    1.28    1.14
   4  -1 -21    5.43    1.94
   4  -1 -20   14.27    3.22
   4  -1 -19   16.61    3.49
   4  -1 -18    0.84    0.76
   4  -1 -17    5.93    1.95
   4  -1 -16   14.76    3.07
   4  -1 -15   48.61    5.35
  -4   1  15   47.61    3.80
   4  -1 -14   16.43    3.01
  -4   1  14   15.04    2.10
   4  -1 -13   49.49    5.17
  -4   1  13   52.38    3.90
  -4   1  12   35.49    3.24
   4  -1 -12   34.74    4.07
   4  -1 -11   12.03    2.36
  -4   1  11   11.09    1.77
   4  -1 -10   19.83    3.01
  -4   1  10   18.83    2.47
   4  -1  -9    5.65    1.60
  -4   1   9    6.55    1.58
   4  -1  -8   25.84    3.25
  -4   1   8   22.67    2.57
   4  -1  -7  293.28   10.26
  -4   1   7  281.14    8.52
   4  -1  -6  123.77    6.45
  -4   1   6  117.73    5.49
   4  -1  -5  223.12    8.34
  -4   1   5  222.74    7.49
   4  -1  -5  241.55    5.57
   4  -1  -4    1.18    1.27
  -4   1   4    1.42    0.99
  -4   1   3    5.08    1.16
   4  -1  -2    2.82    0.55
  -4   1   2    3.65    1.13
   4  -1  -1  123.37    3.53
  -4   1   1  119.04    5.14
   4  -1   0  152.53    4.00
  -4   1   0  140.52    5.76
  -4   1   0  140.82    4.53
   4  -1   1   49.66    2.48
  -4   1  -1   45.18    3.23
  -4   1  -1   43.84    2.69
   4  -1   2   74.73    3.20
  -4   1  -2   78.07    4.32
   4  -1   3   50.50    2.88
  -4   1  -3   56.66    3.81
   4  -1   4   65.81    3.52
  -4   1  -4   68.53    4.15
   4  -1   5    7.71    1.39
  -4   1  -5    7.92    1.56
   4  -1   6   55.87    3.82
  -4   1  -6   53.26    3.72
   4  -1   7   49.15    3.87
  -4   1  -7   46.24    3.53
   4  -1   8  101.13    5.91
  -4   1  -8   94.07    5.08
   4  -1   9   13.69    2.33
  -4   1  -9   12.71    1.93
  -4   1  -9   13.79    2.22
  -4   1 -10   34.33    3.72
   4  -1  10   40.67    4.16
  -4   1 -11   20.88    3.15
   4  -1  11   23.79    3.30
   4  -1  12    0.52    0.45
  -4   1 -12    2.44    1.05
   4  -1  13    5.43    1.69
  -4   1 -13    8.36    2.57
  -4   1 -14   12.17    2.77
   4  -1  14   18.98    3.26
  -4   1 -15   12.79    2.87
   4  -1  15   18.73    3.51
   4  -1  16   10.71    2.67
   4  -1  17   11.97    3.01
   4  -1  18   10.24    2.78
   4   0 -21    0.10    0.30
   4   0 -20    0.38    0.54
   4   0 -19    6.78    2.40
   4   0 -18    9.70    2.71
   4   0 -17    4.48    1.67
   4   0 -16    0.92    0.81
   4   0 -15    0.09    0.15
  -4   0  14    8.07    1.41
   4   0 -14    7.76    2.18
  -4   0  13   -0.39    0.29
   4   0 -13    0.28    0.55
   4   0 -12    0.71    0.71
  -4   0  12    1.66    0.57
   4   0 -11    2.72    1.06
  -4   0  11    2.86    0.83
   4   0 -10   19.61    2.87
  -4   0  10   19.30    2.17
  -4   0   9    2.51    0.95
   4   0  -9    1.42    0.75
   4   0  -8   69.36    5.03
  -4   0   8   65.27    3.94
   4   0  -7    2.60    1.01
  -4   0   7    2.20    0.73
   4   0  -6    7.62    1.77
  -4   0   6    7.06    1.23
   4   0  -5   19.76    2.41
  -4   0   5   17.84    1.94
   4   0  -4    0.96    0.43
  -4   0   4    0.52    0.35
  -4   0   3   26.71    2.35
   4   0  -3   25.81    2.51
  -4   0   2    5.86    1.12
   4   0  -2    6.84    1.13
  -4   0   1    5.52    1.12
   4   0  -1    5.76    1.01
   4   0   0    8.86    1.23
  -4   0   0    9.39    1.46
  -4   0   0    8.50    1.31
   4   0   1   12.32    1.48
  -4   0  -1   12.68    1.73
  -4   0  -2    2.51    0.76
   4   0   2    2.23    0.65
   4   0   3   31.38    2.52
  -4   0  -3   32.26    2.78
   4   0   4   42.17    3.03
  -4   0  -4   41.80    3.21
   4   0   5   39.49    2.93
  -4   0  -5   40.94    3.30
   4   0   6   64.33    4.05
  -4   0  -6   63.07    4.11
   4   0   7   66.07    4.37
  -4   0  -7   55.81    3.82
  -4   0  -7   71.55    4.46
  -4   0  -8    1.13    0.81
   4   0   8    0.95    0.54
  -4   0  -8    1.12    0.55
   4   0   9    0.84    0.51
  -4   0  -9    0.26    0.31
   4   0  10    0.07    0.09
  -4   0 -10   -0.03    0.11
   4   0  11    4.91    1.53
  -4   0 -11    3.91    1.27
   4   0  12    7.11    1.95
  -4   0 -12    4.34    1.32
   4   0  13    8.68    2.21
  -4   0 -13    4.57    1.45
   4   0  14   13.27    2.84
  -4   0 -14    8.26    2.07
   4   0  15    6.34    1.96
   4   0  16    7.74    2.23
   4   0  17    0.03    0.36
   4   0  18    2.50    1.69
   4   1 -21    0.76    1.18
   4   1 -20    0.80    0.86
   4   1 -19    2.37    1.21
   4   1 -18   13.36    3.03
   4   1 -17   15.16    3.17
   4   1 -16   30.65    4.45
   4   1 -15    1.88    1.01
   4   1 -14    9.62    2.27
  -4  -1  13    8.29    1.26
   4   1 -13    7.00    1.90
   4   1 -12    1.19    0.82
  -4  -1  12    1.71    0.57
   4   1 -11    2.91    1.17
  -4  -1  11    3.34    0.81
   4   1 -10  101.93    6.60
  -4  -1  10  100.24    4.38
   4   1  -9   60.14    4.86
  -4  -1   9   55.93    3.18
   4   1  -8  132.80    6.89
  -4  -1   8  127.45    4.79
   4   1  -7   49.32    4.12
  -4  -1   7   43.72    2.87
   4   1  -6    2.21    0.84
  -4  -1   6    2.40    0.70
   4   1  -5    0.89    0.49
  -4  -1   5    1.04    0.42
   4   1  -4   20.47    2.31
  -4  -1   4   17.32    1.88
   4   1  -3    5.43    1.14
  -4  -1   3    5.79    1.09
  -4  -1   2  160.50    5.81
   4   1  -2  159.13    6.33
   4   1  -2  145.25    5.74
  -4  -1   1  194.20    6.46
   4   1  -1  187.02    6.93
   4   1   0  129.17    5.49
  -4  -1   0  128.70    5.44
   4   1   1  104.62    4.91
  -4  -1  -1  107.69    4.98
   4   1   2  113.56    5.15
  -4  -1  -2  108.14    5.07
   4   1   3   15.02    1.91
  -4  -1  -3   15.30    1.99
   4   1   4   46.60    3.57
  -4  -1  -4   46.16    3.49
   4   1   5  190.89    7.38
  -4  -1  -5  181.53    6.96
   4   1   6  122.36    5.99
  -4  -1  -6  115.98    5.79
   4   1   7   33.08    3.08
  -4  -1  -7   26.44    2.46
   4   1   8   53.76    4.20
  -4  -1  -8   45.71    3.49
   4   1   9   12.30    2.11
  -4  -1  -9    8.77    1.52
   4   1  10   -0.16    0.36
  -4  -1 -10    0.27    0.41
   4   1  11    1.13    0.72
  -4  -1 -11    1.84    0.72
  -4  -1 -12    2.95    1.09
   4   1  12    2.54    1.16
   4   1  13   43.55    4.92
  -4  -1 -13   26.92    3.50
   4   1  14   37.71    4.78
   4   1  15   22.05    3.78
   4   1  16    6.12    2.17
   4   1  17    0.27    0.59
   4   1  18   -0.55    0.38
   4   2 -21    2.07    1.30
   4   2 -20    1.25    0.98
   4   2 -19   -1.25    0.82
   4   2 -18    1.82    1.35
   4   2 -17    1.23    0.70
   4   2 -16    5.97    2.00
   4   2 -15    6.03    1.85
   4   2 -14    1.04    0.63
   4   2 -13    6.65    1.89
  -4  -2  12    1.91    0.50
   4   2 -12    1.78    0.94
  -4  -2  11    3.89    0.71
   4   2 -11    2.99    1.15
  -4  -2  10    4.26    0.79
   4   2 -10    2.61    0.84
   4   2  -9   40.64    4.12
  -4  -2   9   39.25    2.50
   4   2  -8   17.10    2.52
  -4  -2   8   17.78    1.73
   4   2  -7   13.82    2.15
  -4  -2   7   13.01    1.50
   4   2  -6   10.17    1.81
  -4  -2   6   10.53    1.37
   4   2  -5    7.59    1.43
  -4  -2   5    7.96    1.21
   4   2  -4    0.12    0.12
  -4  -2   4    0.10    0.19
   4   2  -3    9.96    1.55
  -4  -2   3   11.59    1.49
   4   2  -2    0.48    0.41
  -4  -2   2    0.28    0.22
   4   2  -2    0.29    0.50
  -4  -2   1  132.22    5.26
   4   2  -1  136.06    6.65
  -4  -2   0    2.49    0.75
   4   2   0    2.56    0.87
  -4  -2  -1    9.91    1.25
   4   2   1   10.28    1.74
  -4  -2  -1   11.16    1.69
  -4  -2  -2   22.49    1.83
   4   2   2   24.37    2.67
  -4  -2  -2   24.02    2.49
  -4  -2  -3    0.13    0.13
   4   2   3    0.26    0.28
  -4  -2  -3    0.21    0.39
  -4  -2  -4   -0.12    0.10
   4   2   4    0.26    0.27
   4   2   5   12.93    2.00
  -4  -2  -6   12.48    1.47
   4   2   6   15.58    2.35
   4   2   7   28.08    3.19
  -4  -2  -7   20.32    1.99
  -4  -2  -8    6.77    1.20
   4   2   8   10.16    1.87
   4   2   9    4.16    1.23
  -4  -2  -9    3.16    0.75
  -4  -2 -10    0.08    0.44
   4   2  10    0.57    0.54
   4   2  11    0.10    0.05
  -4  -2 -11   -0.40    0.62
   4   2  12    9.76    2.15
   4   2  13   10.20    2.36
   4   2  14   12.93    2.69
   4   2  15    0.20    0.19
   4   2  16    5.09    1.84
   4   2  17    0.77    0.55
   4   2  18   -0.09    0.43
   4   3 -20   -0.01    0.65
   4   3 -19    2.98    1.27
   4   3 -18   21.17    4.11
   4   3 -17    3.51    1.66
   4   3 -16    0.32    0.60
   4   3 -15   -0.81    1.16
   4   3 -14   -0.81    0.86
   4   3 -13   -0.71    0.64
   4   3 -12   32.61    4.19
   4   3 -11   65.75    5.80
  -4  -3  11   74.67    2.82
   4   3 -10   75.71    6.11
  -4  -3  10   85.18    3.21
   4   3 -10   86.69    3.36
   4   3  -9   27.39    3.50
  -4  -3   9   31.87    2.07
  -4  -3   8    0.10    0.16
   4   3  -8    0.36    0.43
  -4  -3   7   -0.06    0.18
   4   3  -7   -0.17    0.54
   4   3  -6   45.17    3.92
  -4  -3   6   44.92    2.73
   4   3  -5   76.03    4.77
  -4  -3   5   79.00    3.75
   4   3  -4   80.06    4.52
  -4  -3   4   80.63    3.89
   4   3  -3  238.12    7.60
  -4  -3   3  247.16    7.02
   4   3  -2   42.68    3.01
  -4  -3   2   47.61    3.20
   4   3  -2   47.47    4.25
   4   3  -1   10.73    1.42
  -4  -3   1   11.55    1.64
   4   3  -1   10.89    2.00
  -4  -3   0   28.29    2.61
   4   3   0   27.37    3.16
   4   3   0   22.60    1.96
  -4  -3  -1   21.14    1.89
   4   3   1   25.12    2.99
  -4  -3  -1   26.57    2.67
  -4  -3  -2   32.64    2.13
   4   3   2   43.04    3.90
  -4  -3  -3   85.59    3.12
   4   3   3   99.58    5.91
  -4  -3  -4   95.04    3.13
   4   3   4  116.44    6.48
   4   3   5   37.41    3.63
  -4  -3  -5   27.85    1.69
   4   3   6   35.03    3.63
  -4  -3  -6   27.77    1.83
   4   3   7   27.51    3.31
  -4  -3  -7   19.02    1.58
  -4  -3  -8    0.19    0.06
   4   3   8    1.01    0.68
   4   3   9   32.79    3.58
  -4  -3  -9   20.22    2.02
   4   3  10   28.76    3.40
   4   3  11    5.09    1.48
   4   3  12   46.63    4.64
   4   3  13   26.96    3.75
   4   3  14    6.40    1.98
   4   3  15    5.56    1.85
   4   3  16    2.29    1.31
   4   3  17    2.77    1.66
   4   3  18    0.38    0.57
   4   4 -20    2.19    1.39
   4   4 -19    0.53    0.26
   4   4 -18   -1.11    1.15
   4   4 -17   -0.51    0.75
   4   4 -16   14.79    3.33
   4   4 -15    4.37    1.49
   4   4 -14    6.59    2.24
   4   4 -13    2.16    1.00
   4   4 -12   20.76    3.48
   4   4 -11    0.95    0.56
   4   4 -10    5.86    1.73
   4   4  -9    9.43    1.11
   4   4  -9    6.93    1.94
   4   4  -8    5.07    1.53
  -4  -4   7    7.90    1.13
   4   4  -7    6.76    1.75
   4   4  -6  196.63    8.35
  -4  -4   6  218.49    6.18
  -4  -4   5    0.30    0.27
   4   4  -5    0.50    0.41
   4   4  -4    1.49    0.70
   4   4  -3    5.05    1.10
   4   4  -2    7.94    1.36
   4   4  -2    8.80    1.99
   4   4  -1  147.59    5.32
   4   4  -1  169.53    8.70
   4   4   0   34.80    2.41
  -4  -4   0   27.40    2.60
   4   4   1   65.67    5.20
   4   4   1   55.28    2.77
  -4  -4  -2    0.07    0.16
   4   4   2    0.20    0.34
  -4  -4  -3   16.52    1.44
   4   4   3   30.43    3.50
  -4  -4  -4    0.02    0.07
   4   4   4    0.33    0.48
   4   4   5   13.49    2.32
   4   4   6   26.84    3.39
   4   4   7    4.96    1.46
   4   4   8   38.26    4.16
   4   4   9   40.79    4.34
   4   4  10    7.80    1.89
   4   4  11    5.01    1.48
   4   4  12   15.06    2.73
   4   4  13    0.35    0.47
   4   4  14    7.33    2.07
   4   4  15   18.15    3.42
   4   4  16    7.91    2.30
   4   4  17    1.40    1.01
   4   4  18    0.11    0.68
   4   5 -20    5.29    2.12
   4   5 -19    6.07    2.26
   4   5 -18   -2.58    1.69
   4   5 -17    1.35    0.75
   4   5 -16    6.30    1.98
   4   5 -15    7.42    2.40
   4   5 -14   13.65    2.98
   4   5 -13   21.59    3.72
   4   5 -12    7.91    2.25
   4   5 -11   13.86    2.92
   4   5 -10    0.04    0.72
   4   5  -9    0.72    0.80
   4   5  -8    1.89    1.00
   4   5  -7   92.61    6.28
   4   5  -6    3.50    1.28
   4   5  -5  108.37    6.02
   4   5  -4   60.22    4.34
   4   5  -3    4.26    1.01
   4   5  -2    3.55    0.92
   4   5  -2    3.76    1.35
   4   5  -1   38.36    2.75
   4   5  -1   46.08    4.86
   4   5   0   14.62    1.57
   4   5   0   18.35    3.01
   4   5   1  112.82    3.94
  -4  -5  -1  100.84    4.29
   4   5   2   40.91    4.34
  -4  -5  -2   30.72    1.99
  -4  -5  -3   66.07    2.17
   4   5   3   87.37    6.40
   4   5   4   36.49    4.15
   4   5   5   -0.13    0.36
   4   5   6    0.31    0.29
   4   5   7   12.91    2.48
   4   5   8   83.13    6.42
   4   5   9   23.18    3.37
   4   5  10   10.24    2.48
   4   5  11   35.18    4.28
   4   5  12    5.58    1.70
   4   5  13    1.25    0.79
   4   5  14    1.44    1.05
   4   5  15    7.74    2.21
   4   5  16   15.49    3.27
   4   5  17    4.04    1.90
   4   6 -19   -0.63    1.05
   4   6 -18    2.41    1.32
   4   6 -17    0.31    0.74
   4   6 -16    3.74    1.83
   4   6 -15    7.65    2.70
   4   6 -14    8.83    2.67
   4   6 -13   10.21    2.65
   4   6 -12    2.00    1.29
   4   6 -11    3.17    1.60
   4   6 -10    3.50    1.42
   4   6  -9    1.77    1.10
   4   6  -8    4.93    1.64
   4   6  -7   50.19    4.87
   4   6  -6    9.35    2.01
   4   6  -5    0.29    0.30
   4   6  -4    2.46    1.02
   4   6  -3    3.88    1.29
   4   6  -2   17.99    2.10
   4   6  -2   24.05    3.78
   4   6  -1    6.27    1.18
   4   6  -1    6.16    1.91
   4   6   0   77.45    3.68
   4   6   0  115.86    8.10
   4   6   1   34.94    2.19
  -4  -6  -1   39.80    2.65
  -4  -6  -2    0.31    0.20
   4   6   2    0.28    0.17
   4   6   2   -0.03    0.16
   4   6   3    0.33    0.48
   4   6   4    1.15    1.21
   4   6   5   10.11    2.33
   4   6   6    2.49    1.03
   4   6   7   50.22    4.98
   4   6   8   54.85    5.32
   4   6   9    2.04    1.15
   4   6  10    0.69    0.68
   4   6  11   -0.18    0.42
   4   6  12    0.73    0.72
   4   6  13    0.38    0.77
   4   6  14    4.71    1.60
   4   6  15    6.46    2.00
   4   6  16    6.70    2.30
   4   6  17    0.96    0.85
   4   7 -19   -0.40    0.87
   4   7 -18    2.00    1.36
   4   7 -17    0.69    0.98
   4   7 -16   13.81    3.64
   4   7 -15   11.72    3.07
   4   7 -14    0.59    0.89
   4   7 -13    6.86    2.40
   4   7 -12   -0.69    0.75
   4   7 -11    1.25    0.98
   4   7 -10    5.34    2.40
   4   7  -9   49.27    5.29
   4   7  -8   49.22    5.18
   4   7  -7    2.67    1.37
   4   7  -6    1.84    1.00
   4   7  -5   11.97    2.34
   4   7  -4    1.14    1.04
   4   7  -3    8.58    1.86
   4   7  -3   13.72    3.09
   4   7  -2   19.07    2.46
   4   7  -2   27.71    4.37
   4   7  -1   41.60    3.15
   4   7  -1   58.95    6.32
   4   7   0   44.53    3.02
   4   7   0   70.61    6.73
   4   7   1   20.87    1.71
   4   7   1   30.31    4.25
   4   7   2   24.06    1.60
   4   7   2   41.81    4.98
   4   7   3    0.48    0.59
   4   7   4   20.83    3.49
   4   7   5   16.78    3.13
   4   7   6   31.21    4.22
   4   7   7   32.04    4.18
   4   7   8   11.42    2.55
   4   7   9    2.25    1.16
   4   7  10   19.59    3.44
   4   7  11    0.63    0.72
   4   7  12    0.08    0.26
   4   7  13    5.05    1.82
   4   7  14   13.53    2.82
   4   7  15    6.49    2.04
   4   7  16   11.70    2.88
   4   8 -18    0.44    0.85
   4   8 -17    4.52    2.29
   4   8 -16    1.91    1.50
   4   8 -15   10.69    3.11
   4   8 -14    2.83    1.72
   4   8 -13    1.15    1.18
   4   8 -12    3.69    1.93
   4   8 -11   15.74    3.60
   4   8 -10    6.98    2.62
   4   8  -9    0.44    0.51
   4   8  -8   11.95    2.68
   4   8  -7   13.79    2.75
   4   8  -6    2.05    1.47
   4   8  -5    2.94    1.21
   4   8  -4    1.58    1.05
   4   8  -3   13.42    2.43
   4   8  -3   17.48    3.82
   4   8  -2    2.24    1.03
   4   8  -2    1.11    1.07
   4   8  -1   24.49    2.59
   4   8  -1   38.03    5.25
   4   8   0   36.19    2.81
   4   8   0   56.14    6.37
   4   8   1    5.63    0.92
   4   8   1    7.24    2.27
   4   8   2    2.80    1.40
   4   8   3   12.61    2.78
   4   8   4    1.88    1.41
   4   8   5   11.50    2.87
   4   8   6    1.62    1.08
   4   8   7   50.82    5.63
   4   8   8   32.20    4.44
   4   8   9    0.29    0.56
   4   8  10    5.91    2.06
   4   8  11    4.21    1.64
   4   8  12    2.13    1.32
   4   8  13   12.00    2.84
   4   8  14   15.89    3.14
   4   8  15    5.47    1.85
   4   9 -17   17.49    3.98
   4   9 -16    3.12    1.85
   4   9 -15    1.65    1.60
   4   9 -14    4.96    2.33
   4   9 -13    3.49    1.70
   4   9 -12    3.02    1.58
   4   9 -11   15.71    3.45
   4   9 -10   14.66    3.43
   4   9  -9   31.32    4.72
   4   9  -8    4.89    1.94
   4   9  -7    5.84    1.98
   4   9  -6    5.74    1.86
   4   9  -5    8.85    2.26
   4   9  -4    7.64    1.94
   4   9  -4   21.72    4.29
   4   9  -3   13.40    2.50
   4   9  -3   21.99    4.28
   4   9  -2   32.02    3.36
   4   9  -2   52.26    6.56
   4   9  -1   12.24    2.10
   4   9  -1   14.94    3.64
   4   9   0   12.88    3.41
   4   9   0    7.54    1.48
   4   9   1    3.71    1.83
   4   9   2   15.98    3.49
   4   9   3   12.39    3.00
   4   9   4   21.16    3.94
   4   9   5   13.37    3.05
   4   9   6   34.03    4.99
   4   9   7   11.33    2.79
   4   9   8    6.37    2.11
   4   9   9    2.26    1.14
   4   9  10   10.43    2.73
   4   9  11   10.71    2.76
   4   9  12   12.80    3.04
   4   9  13   10.91    2.89
   4   9  14    5.60    2.15
   4  10 -16    5.63    2.68
   4  10 -15    3.21    1.86
   4  10 -14    1.64    1.10
   4  10 -13   16.27    3.98
   4  10 -12   20.47    4.14
   4  10 -11    4.30    1.80
   4  10 -10    8.74    2.78
   4  10  -9    2.74    1.34
   4  10  -8   20.87    3.79
   4  10  -7    6.90    2.05
   4  10  -6    5.75    1.87
   4  10  -5   35.80    4.70
   4  10  -4   23.79    3.43
   4  10  -4   43.22    6.32
   4  10  -3    2.90    1.43
   4  10  -3    1.19    0.90
   4  10  -2   16.29    2.83
   4  10  -2   12.12    3.51
   4  10  -1   29.68    3.24
   4  10  -1   54.91    7.06
   4  10   0   18.17    3.99
   4  10   1    5.76    2.24
   4  10   2   97.42    8.86
   4  10   3   10.73    2.89
   4  10   4   10.60    2.80
   4  10   5    9.76    2.96
   4  10   6    1.80    1.34
   4  10   7   17.75    3.58
   4  10   8    3.21    1.56
   4  10   9   33.01    4.86
   4  10  10   17.84    3.63
   4  10  11    0.02    0.57
   4  10  12    3.57    1.91
   4  10  13    9.88    2.85
   4  11 -15   -0.15    0.57
   4  11 -14   11.48    3.45
   4  11 -13   10.50    3.32
   4  11 -12    7.82    2.83
   4  11 -11    6.27    2.35
   4  11 -10    1.04    0.49
   4  11  -9    3.52    1.95
   4  11  -8    4.27    1.89
   4  11  -7   15.73    3.45
   4  11  -6    3.57    1.32
   4  11  -5   17.67    3.46
   4  11  -5   21.13    4.62
   4  11  -4   35.80    6.23
   4  11  -4   23.63    3.71
   4  11  -3    3.41    1.48
   4  11  -3    1.53    1.62
   4  11  -2   23.84    4.92
   4  11  -1    9.95    3.10
   4  11   0    3.62    1.76
   4  11   1   15.55    3.71
   4  11   2   22.87    4.52
   4  11   3    1.49    0.89
   4  11   4   23.65    4.46
   4  11   5   11.30    2.98
   4  11   6    0.84    1.26
   4  11   7    1.32    1.18
   4  11   8    6.40    2.29
   4  11   9   15.13    3.41
   4  11  10    7.07    2.41
   4  11  11    8.46    2.68
   4  11  12    0.15    0.10
   4  12 -13   13.40    3.72
   4  12 -12   20.47    4.39
   4  12 -11   13.34    3.87
   4  12 -10    4.50    2.09
   4  12  -9    1.16    0.99
   4  12  -8    3.01    1.36
   4  12  -7    7.19    2.49
   4  12  -6    9.89    2.75
   4  12  -6   15.78    4.25
   4  12  -5   18.43    3.54
   4  12  -5   22.18    5.03
   4  12  -4    4.68    2.05
   4  12  -3    1.21    0.89
   4  12  -2    0.85    1.43
   4  12  -1    2.48    1.67
   4  12   0    4.72    2.67
   4  12   1   33.53    5.62
   4  12   2   22.26    4.51
   4  12   3    6.56    2.32
   4  12   4    1.99    1.36
   4  12   5    1.69    1.16
   4  12   6    1.59    1.49
   4  12   7    2.43    1.58
   4  12   8   21.25    4.22
   4  12   9   27.69    4.71
   4  12  10   12.56    3.20
   4  13 -12    5.83    2.26
   4  13 -11   -0.39    1.49
   4  13 -10    1.64    1.51
   4  13  -9    7.22    2.57
   4  13  -8    4.28    2.03
   4  13  -7    3.07    1.73
   4  13  -7    4.43    2.32
   4  13  -6    7.49    2.62
   4  13  -6    8.92    3.24
   4  13  -5   -0.31    0.87
   4  13  -4    0.26    0.83
   4  13  -3    2.45    1.81
   4  13  -2    8.97    3.30
   4  13  -1    5.97    2.61
   4  13   0   15.20    3.96
   4  13   1    0.91    1.51
   4  13   2    2.30    1.63
   4  13   3    8.96    3.01
   4  13   4    0.62    0.37
   4  13   5    1.86    1.56
   4  13   6    8.99    2.80
   4  13   7    2.39    1.47
   4  13   8    0.71    0.76
   4  13   9    9.26    2.85
   4  14  -9    2.16    1.37
   4  14  -8   -0.47    0.65
   4  14  -7    3.36    2.24
   4  14  -6    9.97    3.83
   4  14  -5    4.85    2.90
   4  14  -4    7.47    3.11
   4  14  -3    5.81    2.79
   4  14  -2    6.82    2.80
   4  14  -1    2.29    1.34
   4  14   0    4.73    2.27
   4  14   1   18.81    4.60
   4  14   2    6.98    2.81
   4  14   3    6.99    2.77
   4  14   4    7.05    2.74
   4  14   5    0.12    0.52
   4  14   6   -0.15    1.01
   4  15  -5    4.23    2.86
   4  15  -4    1.51    2.00
   4  15  -3    0.42    0.91
   4  15  -2    5.70    3.03
   4  15  -1    3.90    2.10
   4  15   0    0.07    0.95
   4  15   1    1.08    1.08
   4  15   2    1.21    1.44
  -5  15   2   -0.95    1.31
  -5  15   1    2.92    1.48
  -5  14   8    1.81    1.26
  -5  14   7    3.24    1.83
  -5  14   6    1.22    1.22
  -5  14   5    4.90    2.00
  -5  14   4    3.13    1.67
  -5  14   3    8.08    2.46
  -5  14   2    5.00    2.00
  -5  14   1    5.22    1.76
  -5  14   0    5.15    1.81
  -5  14  -1    5.99    1.98
  -5  14  -2    8.14    2.32
  -5  14  -3    0.09    0.24
  -5  14  -4    2.62    1.06
  -5  14  -5    9.76    3.09
  -5  13  10    2.51    1.52
  -5  13   9   -1.68    1.27
  -5  13   8    6.06    2.57
  -5  13   7    3.84    1.98
  -5  13   6    2.57    1.68
  -5  13   5    4.98    1.88
  -5  13   4    0.64    0.86
  -5  13   3    4.01    1.69
  -5  13   2    1.98    1.37
  -5  13   1   -0.39    0.06
  -5  13   0    1.46    0.51
  -5  13  -1    0.15    0.54
  -5  13  -2    1.05    0.43
  -5  13  -3    2.17    1.00
  -5  13  -4    0.44    0.84
  -5  13  -5   -0.50    0.57
  -5  13  -6    3.02    1.69
  -5  13  -7    0.79    1.36
  -5  13  -8    1.45    1.20
  -5  12  12    8.05    2.82
  -5  12  11   13.33    3.31
  -5  12  10    9.72    2.83
  -5  12   9    5.16    2.21
  -5  12   8    0.08    0.64
  -5  12   7   -1.17    0.96
  -5  12   6   -0.52    0.57
  -5  12   5    1.53    1.21
  -5  12   4   25.06    4.14
  -5  12   3   27.63    4.29
  -5  12   2    6.19    1.95
  -5  12   1    3.32    1.46
  -5  12   0   -0.16    0.32
  -5  12  -1    1.62    1.29
  -5  12  -2    0.71    0.38
  -5  12  -3   20.45    3.49
  -5  12  -4   20.24    3.44
  -5  12  -5    7.92    2.02
  -5  12  -6   -0.75    1.16
  -5  12  -6   -0.08    0.35
  -5  12  -7    1.68    0.90
  -5  12  -8    3.47    2.07
  -5  12  -9    1.45    1.52
  -5  12 -10    5.06    2.67
  -5  11  14    0.69    1.04
  -5  11  13    5.70    2.11
  -5  11  12   -0.01    0.48
  -5  11  11   -0.56    0.63
  -5  11  10    5.83    2.14
  -5  11   9    0.56    0.43
  -5  11   8    0.28    0.62
  -5  11   7    3.75    1.46
  -5  11   6   -0.24    0.53
  -5  11   5    1.84    0.79
  -5  11   4    0.53    0.63
  -5  11   3    2.88    1.51
  -5  11   2   -0.25    0.48
  -5  11   1   -0.36    0.25
  -5  11   0    0.69    0.49
  -5  11  -1    1.16    0.91
  -5  11  -2    0.09    0.24
  -5  11  -3    7.85    2.13
  -5  11  -4    1.08    0.37
  -5  11  -5    3.79    1.37
  -5  11  -6    0.02    0.31
  -5  11  -7    6.71    2.39
  -5  11  -7    6.77    1.78
  -5  11  -8    1.17    1.22
  -5  11  -9    0.20    0.96
  -5  11 -10    0.47    0.50
  -5  11 -11    0.83    0.93
  -5  11 -12    2.53    1.53
  -5  10  15   12.82    2.98
  -5  10  14    7.22    2.08
  -5  10  13    9.65    2.58
  -5  10  12   16.89    3.38
  -5  10  11   12.52    3.07
  -5  10  10    3.12    1.29
  -5  10   9   12.50    2.89
  -5  10   8    6.29    2.00
  -5  10   7   16.91    3.27
  -5  10   6    4.74    1.70
  -5  10   5   33.19    4.58
  -5  10   4   51.30    5.53
  -5  10   3    4.21    1.36
  -5  10   2    0.68    0.63
  -5  10   1   28.30    4.03
  -5  10   0    9.31    2.20
  -5  10  -1   15.03    2.90
  -5  10  -2    9.63    2.17
  -5  10  -3   12.99    2.57
  -5  10  -4   13.54    2.66
  -5  10  -5    1.64    0.80
  -5  10  -6    0.13    0.15
  -5  10  -7    0.74    0.66
  -5  10  -8    0.62    0.30
  -5  10  -8    0.95    0.22
  -5  10  -9    6.22    2.11
  -5  10 -10   19.94    4.40
  -5  10 -11    6.75    2.44
  -5  10 -12    2.33    1.25
  -5  10 -13    0.67    1.34
  -5   9  16   -0.02    0.66
  -5   9  15    0.76    0.18
  -5   9  14    3.27    1.41
  -5   9  13   -0.21    0.66
  -5   9  12    6.12    2.14
  -5   9  11   10.95    2.75
  -5   9  10    3.70    1.62
  -5   9   9    9.07    2.38
  -5   9   8    0.84    0.06
  -5   9   7    0.43    0.76
  -5   9   6    0.34    0.86
  -5   9   5    0.38    0.51
  -5   9   4   14.73    2.78
  -5   9   3   -0.18    0.53
  -5   9   2    0.33    0.23
  -5   9   1    3.20    1.39
  -5   9   0    5.31    1.67
  -5   9  -1    1.73    0.87
  -5   9  -2   10.03    2.16
  -5   9  -3    1.68    1.02
  -5   9  -4    3.77    1.50
  -5   9  -5    9.72    2.12
  -5   9  -6   12.82    2.30
  -5   9  -7    0.81    0.38
  -5   9  -8    1.76    0.88
  -5   9  -8    1.34    0.64
  -5   9  -9    0.36    0.59
  -5   9  -9   -0.31    0.53
  -5   9 -10    2.42    1.19
  -5   9 -11   -0.51    1.00
  -5   9 -12    1.73    1.13
  -5   9 -13    0.96    1.15
  -5   9 -14    1.37    1.33
  -5   8  17    6.78    2.18
  -5   8  16   22.49    3.95
  -5   8  15   24.32    4.04
  -5   8  14    7.89    2.38
  -5   8  13    5.58    1.90
  -5   8  12    1.07    0.67
  -5   8  11   -0.08    0.34
  -5   8  10   49.53    5.32
  -5   8   9   15.39    3.01
  -5   8   8   28.58    4.07
  -5   8   7   46.36    5.08
  -5   8   6    0.70    0.59
  -5   8   5   31.51    4.13
  -5   8   4    0.59    0.27
  -5   8   3    9.40    2.11
  -5   8   2   55.77    5.24
  -5   8   1   56.09    5.28
  -5   8   0   25.11    3.52
  -5   8  -1   17.05    2.87
  -5   8  -2    3.55    1.18
  -5   8  -3   13.41    2.50
  -5   8  -4    1.04    0.83
  -5   8  -5   27.89    3.38
  -5   8  -6   31.68    3.58
  -5   8  -7    7.54    1.75
  -5   8  -8    8.81    1.81
  -5   8  -8    8.10    2.08
  -5   8  -9    2.46    1.54
  -5   8  -9    3.64    1.21
  -5   8 -10    9.38    2.49
  -5   8 -11    0.69    1.05
  -5   8 -12    4.42    2.08
  -5   8 -13    5.58    2.08
  -5   8 -14    2.63    1.39
  -5   8 -15    0.98    0.80
  -5   7  18    2.67    1.17
  -5   7  17    4.97    1.86
  -5   7  16    6.67    2.13
  -5   7  15    4.47    1.66
  -5   7  14    2.62    1.28
  -5   7  13    3.59    1.28
  -5   7  12    3.60    1.28
  -5   7  11    5.16    1.76
  -5   7  10    4.99    1.78
  -5   7   9    4.11    1.44
  -5   7   8    1.50    0.84
  -5   7   7    7.10    1.80
  -5   7   6    6.62    1.81
  -5   7   5   29.81    3.69
  -5   7   4    0.23    0.17
  -5   7   3    0.22    0.35
  -5   7   2    2.78    1.12
  -5   7   1   15.65    1.17
  -5   7   1   18.18    2.83
  -5   7   0    3.54    0.71
  -5   7   0    3.78    1.27
  -5   7  -1    0.33    0.34
  -5   7  -2   -0.15    0.36
  -5   7  -3   19.31    2.78
  -5   7  -4   17.45    2.67
  -5   7  -5   15.39    2.42
  -5   7  -6    8.60    1.81
  -5   7  -7   17.71    2.58
  -5   7  -8    0.13    0.27
  -5   7  -9   -0.44    0.60
  -5   7  -9   -0.40    0.66
  -5   7 -10    1.63    0.74
  -5   7 -10    2.42    1.43
  -5   7 -11    8.08    2.39
  -5   7 -12    2.44    1.28
  -5   7 -13    1.91    1.26
  -5   7 -14    0.95    1.07
  -5   7 -15    0.85    0.55
  -5   6  17    8.88    2.24
  -5   6  16   27.01    3.99
  -5   6  15    0.20    0.31
  -5   6  14    2.83    1.43
  -5   6  13    0.10    0.41
  -5   6  12   10.52    2.44
  -5   6  11   26.86    3.78
  -5   6  11   23.55    2.56
  -5   6  10   60.03    5.54
  -5   6  10   56.91    3.69
  -5   6   9   59.18    5.52
  -5   6   9   54.51    3.36
  -5   6   8   48.67    4.86
  -5   6   8   46.27    2.79
  -5   6   7    1.03    0.93
  -5   6   7    0.33    0.23
  -5   6   6   18.56    2.93
  -5   6   5    5.52    1.60
  -5   6   4   55.13    4.93
  -5   6   3  128.42    7.53
  -5   6   2  103.98    6.79
  -5   6   1    8.94    2.26
  -5   6   0    0.40    0.17
  -5   6   0    0.45    0.20
  -5   6  -1    2.55    0.48
  -5   6  -1    5.68    1.70
  -5   6  -2    2.56    1.13
  -5   6  -3    2.90    1.22
  -5   6  -4   40.43    3.84
  -5   6  -5   47.72    4.16
  -5   6  -6   52.33    4.44
  -5   6  -7    1.10    0.88
  -5   6  -8    0.98    0.63
  -5   6  -9   10.69    2.02
  -5   6  -9    8.99    2.37
  -5   6 -10    2.21    0.85
  -5   6 -10    1.15    0.63
  -5   6 -11   19.98    2.66
  -5   6 -11   18.88    3.56
  -5   6 -12   18.11    3.71
  -5   6 -13   12.60    3.26
  -5   6 -14    0.53    1.20
  -5   6 -15    0.52    1.56
  -5   6 -16    1.41    1.35
   5  -5 -19   -0.58    0.95
   5  -5 -18    2.56    1.62
  -5   5  17    3.79    1.36
   5  -5 -17    3.40    1.68
  -5   5  16    8.76    2.14
  -5   5  15    4.67    1.48
  -5   5  14    2.57    1.33
  -5   5  13    4.76    1.57
  -5   5  12   11.50    2.35
  -5   5  11    6.85    1.76
  -5   5  10    4.78    1.28
  -5   5   9   17.78    2.72
  -5   5   8    2.58    1.09
  -5   5   7   10.95    2.21
   5  -5  -6    0.37    0.27
  -5   5   6    1.69    1.20
  -5   5   5   20.76    2.96
  -5   5   4   36.74    3.91
  -5   5   3    2.59    1.48
  -5   5   2   34.33    3.76
  -5   5   1   19.20    2.78
  -5   5   0   43.97    4.12
  -5   5  -1    3.11    0.55
  -5   5  -1    5.73    1.58
  -5   5  -2   10.25    1.16
  -5   5  -2   11.25    2.09
  -5   5  -3   19.40    2.62
  -5   5  -4   15.97    2.35
  -5   5  -5   11.52    1.99
  -5   5  -6    1.99    0.90
  -5   5  -7    0.84    0.56
  -5   5  -8   13.73    2.22
  -5   5  -9    3.10    1.11
  -5   5  -9    3.75    1.76
  -5   5 -10    1.37    0.65
  -5   5 -10    0.94    0.80
  -5   5 -11   17.45    2.43
  -5   5 -11   12.86    2.97
  -5   5 -12    0.53    0.33
  -5   5 -12    1.66    1.50
  -5   5 -13    2.38    1.44
  -5   5 -14    0.82    1.07
  -5   5 -15    0.83    1.10
  -5   5 -16   -0.15    0.23
   5  -4 -20    9.54    2.90
   5  -4 -19    5.40    1.90
   5  -4 -18    9.59    2.77
   5  -4 -17    6.29    2.19
   5  -4 -16    7.81    2.34
  -5   4  16    7.04    1.84
   5  -4 -15   12.82    3.10
  -5   4  15   12.51    2.42
  -5   4  14   47.41    4.63
   5  -4 -14   51.74    5.77
  -5   4  13   13.97    2.52
   5  -4 -13   20.58    3.77
  -5   4  12   19.85    2.97
   5  -4 -12   25.81    3.92
  -5   4  11   28.44    3.41
  -5   4  10   11.60    2.26
  -5   4   9   17.24    2.62
  -5   4   8   29.21    3.56
   5  -4  -7   24.84    2.03
  -5   4   7   28.97    3.43
   5  -4  -6   13.06    1.28
  -5   4   6   19.06    2.90
  -5   4   5  134.22    7.29
  -5   4   4   51.16    4.51
  -5   4   3  140.93    7.29
  -5   4   2   51.36    4.47
  -5   4   1   87.97    5.66
  -5   4   0   29.99    3.52
  -5   4  -1   48.99    2.30
  -5   4  -1   55.95    4.39
  -5   4  -2   19.46    1.69
  -5   4  -2   34.21    3.40
  -5   4  -3   47.19    3.91
  -5   4  -4   41.66    3.76
  -5   4  -5   34.79    3.42
  -5   4  -6   22.65    2.79
  -5   4  -7   35.61    3.50
  -5   4  -8    1.45    0.96
  -5   4  -9   12.78    2.85
  -5   4  -9   13.09    2.16
  -5   4 -10   38.44    3.61
  -5   4 -10   36.87    4.53
  -5   4 -11   23.83    2.90
  -5   4 -11   36.50    4.81
  -5   4 -12   16.81    3.22
  -5   4 -12   17.82    2.51
  -5   4 -13    5.13    1.85
  -5   4 -14    3.35    1.47
  -5   4 -15    7.35    2.34
  -5   4 -16    3.88    1.74
  -5   4 -17    7.03    2.44
   5  -3 -20    2.55    1.32
   5  -3 -19    2.24    1.36
   5  -3 -18    3.23    1.37
   5  -3 -17   24.18    4.26
   5  -3 -16    3.33    1.58
  -5   3  16    2.84    1.01
   5  -3 -15    8.12    2.50
  -5   3  15    8.08    1.85
   5  -3 -14    5.92    2.00
  -5   3  14    5.37    1.48
   5  -3 -13   15.14    3.01
  -5   3  13   12.80    2.25
   5  -3 -12    2.07    1.19
  -5   3  12    1.08    0.66
  -5   3  11   17.10    2.70
   5  -3 -11   21.35    3.41
  -5   3  10   30.25    3.49
   5  -3 -10   35.90    4.34
  -5   3   9    1.46    0.89
   5  -3  -9    3.28    1.18
  -5   3   8   33.38    3.52
   5  -3  -7   95.16    3.82
  -5   3   7  106.28    6.31
   5  -3  -6    5.38    0.78
  -5   3   6    7.89    1.61
   5  -3  -5    4.85    0.62
  -5   3   5   16.35    2.62
  -5   3   4   17.64    2.44
  -5   3   3    8.97    1.87
  -5   3   2   47.91    4.20
  -5   3   1  105.07    5.89
  -5   3   0   15.42    2.10
  -5   3   0   11.80    1.02
  -5   3  -1    2.16    0.97
  -5   3  -1    0.49    0.25
  -5   3  -2   49.72    2.90
  -5   3  -2   51.54    4.05
   5  -3   2   46.63    2.58
   5  -3   3    4.04    0.85
  -5   3  -3    5.86    1.33
  -5   3  -4   38.85    3.62
   5  -3   4   29.24    2.54
   5  -3   5    4.17    1.09
  -5   3  -5    6.35    1.54
  -5   3  -6   12.55    2.05
   5  -3   6    9.61    1.70
  -5   3  -7   19.85    2.62
   5  -3   7   19.83    2.57
  -5   3  -8   14.51    2.22
   5  -3   8   13.99    2.30
   5  -3   9    0.24    0.33
  -5   3  -9    0.76    0.51
  -5   3  -9    0.79    0.60
   5  -3  10    8.05    1.91
  -5   3 -10    7.42    1.62
  -5   3 -10   10.75    2.52
  -5   3 -11    2.71    0.96
  -5   3 -11    2.97    1.28
   5  -3  11    2.80    1.22
  -5   3 -12    6.56    1.92
  -5   3 -12    4.24    1.26
   5  -3  12    4.06    1.46
  -5   3 -13    4.62    1.67
  -5   3 -14   14.18    3.36
  -5   3 -15    1.58    1.40
  -5   3 -16    2.52    1.33
   5  -2 -20    6.06    2.36
   5  -2 -19    1.96    1.45
   5  -2 -18    0.89    0.82
   5  -2 -17   12.30    3.01
   5  -2 -16   16.61    3.39
   5  -2 -15    8.83    2.51
  -5   2  15   12.17    2.19
   5  -2 -14   41.14    5.19
  -5   2  14   39.52    3.94
   5  -2 -13   10.28    2.49
  -5   2  13   10.26    1.97
   5  -2 -12    2.73    1.15
  -5   2  12    2.27    1.06
   5  -2 -11   14.64    2.72
  -5   2  11   13.01    2.32
   5  -2 -10   32.90    4.01
  -5   2  10   22.01    3.01
   5  -2  -9  103.08    6.99
  -5   2   9   92.78    5.78
  -5   2   8   79.51    5.32
   5  -2  -8   83.11    6.11
  -5   2   7  111.21    6.16
   5  -2  -7  114.47    7.19
   5  -2  -6   62.23    2.85
  -5   2   6   68.21    4.81
   5  -2  -5   34.20    1.86
  -5   2   5   40.25    3.63
  -5   2   4   19.23    2.54
   5  -2  -4   15.34    1.07
   5  -2  -3    6.73    0.71
  -5   2   3   13.67    2.03
   5  -2  -2   14.82    1.08
  -5   2   2   64.65    4.42
   5  -2  -1  216.33    3.55
  -5   2   1  210.60    7.79
   5  -2   0   24.00    1.39
  -5   2   0   25.59    2.73
  -5   2   0   22.61    1.77
   5  -2   1   39.60    2.15
  -5   2  -1   39.73    3.46
  -5   2  -1   36.10    2.47
   5  -2   2   43.65    2.62
  -5   2  -2   49.78    3.83
   5  -2   3   28.77    2.39
  -5   2  -3   32.70    3.18
   5  -2   4   32.95    2.79
  -5   2  -4   33.95    3.35
   5  -2   5   15.51    2.09
  -5   2  -5   15.94    2.33
   5  -2   6  103.88    5.53
  -5   2  -6  105.54    5.89
  -5   2  -7   96.43    5.56
   5  -2   7   97.21    5.75
  -5   2  -8   20.82    2.64
   5  -2   8   20.23    2.74
  -5   2  -9    6.77    1.63
   5  -2   9    7.62    1.78
  -5   2  -9    6.38    1.44
  -5   2 -10    6.96    1.91
   5  -2  10    3.35    1.21
  -5   2 -10    3.78    1.19
  -5   2 -11   22.86    2.95
   5  -2  11   26.06    3.59
   5  -2  12    1.38    0.89
  -5   2 -12    7.94    2.02
   5  -2  13    4.89    1.73
  -5   2 -13    9.50    2.31
  -5   2 -14   16.92    3.17
   5  -2  14   19.89    3.44
   5  -2  15    1.63    0.75
  -5   2 -15    0.69    0.74
   5  -2  16    2.68    1.33
   5  -1 -20    0.42    0.72
   5  -1 -19    2.43    1.32
   5  -1 -18   -0.28    0.48
   5  -1 -17    0.56    0.21
   5  -1 -16   30.73    4.64
   5  -1 -15   33.16    4.76
   5  -1 -14    2.84    1.50
  -5   1  14    1.87    0.76
   5  -1 -13    1.01    0.93
  -5   1  13    0.80    0.67
   5  -1 -12    0.38    0.23
  -5   1  12    1.61    0.76
   5  -1 -11    2.60    1.13
  -5   1  11    2.40    0.86
   5  -1 -10   17.24    2.92
  -5   1  10   11.40    2.05
   5  -1  -9   90.82    6.53
  -5   1   9   82.51    5.13
   5  -1  -8   36.02    4.11
  -5   1   8   31.30    3.14
   5  -1  -7   41.02    4.13
  -5   1   7   43.02    3.61
  -5   1   6   10.78    1.76
   5  -1  -6   10.78    2.05
  -5   1   5   14.08    2.05
   5  -1  -5   17.22    2.70
  -5   1   4   44.23    3.43
  -5   1   3   43.85    3.45
   5  -1  -3   40.30    2.64
   5  -1  -2   56.77    2.86
  -5   1   2   83.14    4.83
   5  -1  -1  148.31    4.45
  -5   1   1  151.98    6.52
   5  -1   0   38.96    2.35
  -5   1   0   43.53    3.51
  -5   1   0   35.32    2.59
   5  -1   1   64.97    3.22
  -5   1  -1   68.51    4.49
   5  -1   2   26.72    2.16
  -5   1  -2   28.08    2.90
   5  -1   3    2.03    0.59
  -5   1  -3    2.49    0.85
   5  -1   4    7.73    1.26
  -5   1  -4    8.45    1.59
   5  -1   5   55.96    3.74
  -5   1  -5   55.58    4.20
   5  -1   6   28.00    2.88
  -5   1  -6   25.33    2.83
   5  -1   7   43.30    3.73
  -5   1  -7   42.89    3.75
   5  -1   8    1.09    0.54
  -5   1  -8    1.24    0.74
   5  -1   9    0.74    0.43
  -5   1  -9    2.00    0.92
  -5   1  -9    1.26    0.64
   5  -1  10    0.86    0.55
  -5   1 -10    0.19    0.27
  -5   1 -10    0.58    0.54
   5  -1  11    0.22    0.31
  -5   1 -11    1.87    1.00
   5  -1  12    6.48    1.89
  -5   1 -12   25.27    3.44
  -5   1 -13   41.39    4.57
   5  -1  13   43.41    5.03
   5  -1  14    0.33    0.20
  -5   1 -14    0.99    0.83
   5  -1  15    2.12    1.26
   5  -1  16    4.29    1.76
   5  -1  17    0.69    0.93
   5   0 -20    4.45    1.96
   5   0 -19    9.39    2.63
   5   0 -18    6.52    2.18
   5   0 -17   24.35    4.21
   5   0 -16   11.40    2.85
   5   0 -15   21.78    3.79
   5   0 -14    0.52    0.44
  -5   0  14    0.64    0.38
   5   0 -13    9.10    2.21
  -5   0  13    8.86    1.61
   5   0 -12    3.07    1.30
  -5   0  12    3.84    1.03
   5   0 -11   11.74    2.38
  -5   0  11   10.24    1.71
   5   0 -10   14.79    2.71
  -5   0  10   13.26    1.96
   5   0  -9  287.94   11.45
  -5   0   9  251.81    8.33
   5   0  -8   41.77    4.25
  -5   0   8   34.89    3.05
   5   0  -7   25.17    3.24
  -5   0   7   17.46    2.15
   5   0  -6    6.08    1.45
  -5   0   6    3.87    1.01
   5   0  -5  170.99    7.77
  -5   0   5  155.30    6.36
   5   0  -4    2.19    0.95
  -5   0   4    1.91    0.69
  -5   0   3   29.40    2.84
   5   0  -3   26.47    2.53
  -5   0   2  107.04    5.45
   5   0  -2  105.26    4.84
   5   0  -1   96.26    4.51
  -5   0   1  106.57    5.50
   5   0   0   41.02    2.95
  -5   0   0   42.34    3.55
   5   0   1    6.18    1.16
  -5   0  -1    6.14    1.36
  -5   0  -2   81.71    4.97
   5   0   2   70.59    3.99
   5   0   3    8.08    1.38
  -5   0  -3    7.44    1.47
   5   0   4   49.57    3.68
  -5   0  -4   49.96    3.90
   5   0   5   34.83    3.00
  -5   0  -5   35.04    3.39
   5   0   6  239.86    8.06
  -5   0  -6  248.76    8.90
   5   0   7   11.94    1.88
  -5   0  -7   11.40    1.93
   5   0   8    2.01    0.86
  -5   0  -8    0.86    0.37
  -5   0  -9    3.05    1.06
   5   0   9    0.68    0.36
   5   0  10    2.03    0.91
  -5   0 -10    6.59    1.53
   5   0  11    1.30    0.79
  -5   0 -11    1.61    0.86
  -5   0 -12   31.37    3.72
   5   0  12   31.12    4.01
   5   0  13   17.08    3.15
   5   0  14   17.77    3.26
   5   0  15    5.02    1.79
   5   0  16    1.95    1.31
   5   0  17    1.09    0.92
   5   1 -20    1.85    1.36
   5   1 -19    3.31    1.65
   5   1 -18   -0.58    0.28
   5   1 -17    1.32    0.86
   5   1 -16   31.95    4.83
   5   1 -15   15.70    3.34
   5   1 -14    4.81    1.78
  -5  -1  13    8.92    1.45
   5   1 -13   11.87    2.65
   5   1 -12   14.75    2.91
  -5  -1  12   10.91    1.62
  -5  -1  11    6.26    1.21
   5   1 -11   10.47    2.35
   5   1 -10   12.75    2.50
  -5  -1  10   12.30    1.67
   5   1  -9   53.40    4.90
  -5  -1   9   44.10    3.28
   5   1  -8   53.44    4.71
  -5  -1   8   50.39    3.53
   5   1  -7   26.80    3.24
  -5  -1   7   16.09    1.99
   5   1  -6   15.01    2.33
  -5  -1   6   13.84    1.88
   5   1  -5   36.69    3.57
  -5  -1   5   21.78    2.39
   5   1  -4  103.44    5.78
  -5  -1   4   93.53    4.99
  -5  -1   3   26.47    2.65
   5   1  -3   22.20    2.60
   5   1  -3   24.99    2.71
  -5  -1   2  132.19    6.03
   5   1  -2  135.72    6.45
  -5  -1   1   55.76    3.92
   5   1  -1   39.81    3.37
  -5  -1   0   19.99    2.35
   5   1   0   16.46    2.09
   5   1   1   80.32    4.69
  -5  -1  -1   82.87    4.93
  -5  -1  -2   80.34    4.95
   5   1   2   83.87    4.77
   5   1   3    1.29    0.50
  -5  -1  -3    1.49    0.75
   5   1   4   77.76    4.75
  -5  -1  -4   74.88    4.92
   5   1   5   30.87    3.20
  -5  -1  -5   31.87    3.21
   5   1   6   51.12    4.12
  -5  -1  -6   51.12    4.15
   5   1   7    2.75    0.80
  -5  -1  -7    2.57    0.97
   5   1   8   22.42    2.81
  -5  -1  -8   19.28    2.33
   5   1   9    5.22    1.46
  -5  -1  -9   12.71    1.99
  -5  -1 -10   13.82    2.15
   5   1  10    7.73    1.83
   5   1  11    1.52    0.85
  -5  -1 -11    5.27    1.42
   5   1  12   18.04    3.07
   5   1  13   15.41    2.98
   5   1  14    0.52    0.62
   5   1  15    1.83    1.17
   5   1  16   -0.32    0.33
   5   1  17    1.58    1.38
   5   2 -20   12.21    3.11
   5   2 -19    4.64    1.88
   5   2 -18    3.64    1.76
   5   2 -17   11.00    2.79
   5   2 -16    9.67    2.80
   5   2 -15    9.70    2.55
   5   2 -14   17.22    3.18
   5   2 -13   19.06    3.41
   5   2 -12   20.44    3.36
  -5  -2  12   20.19    1.99
   5   2 -11   22.16    3.39
  -5  -2  11   19.25    2.02
   5   2 -10   20.64    3.10
  -5  -2  10   22.82    2.23
   5   2  -9   56.62    5.14
  -5  -2   9   51.52    3.42
   5   2  -8   20.13    2.99
  -5  -2   8   16.98    2.02
   5   2  -7   41.90    4.11
  -5  -2   7   36.62    2.99
   5   2  -6   35.07    3.50
  -5  -2   6   31.91    2.81
   5   2  -5  101.07    5.88
  -5  -2   5   87.17    4.67
   5   2  -4   51.52    4.01
  -5  -2   4   48.09    3.48
  -5  -2   3    7.20    1.41
   5   2  -3    5.12    1.39
  -5  -2   2  113.27    5.40
   5   2  -2  110.85    6.41
   5   2  -2  100.62    5.23
   5   2  -1   14.56    2.33
  -5  -2   1   20.22    2.37
  -5  -2   0   31.49    3.00
   5   2   0   29.72    3.14
  -5  -2  -1   15.08    2.14
   5   2   1   11.14    1.96
   5   2   2   72.41    4.96
  -5  -2  -2   73.59    4.86
   5   2   3   21.17    2.70
  -5  -2  -3   22.52    2.72
   5   2   4   33.31    3.35
  -5  -2  -4   36.28    3.54
   5   2   5   15.14    2.35
  -5  -2  -5   14.96    2.28
   5   2   6   45.12    4.09
   5   2   7    2.51    0.95
  -5  -2  -7   12.98    1.75
   5   2   8   18.57    2.65
  -5  -2  -8   25.88    2.54
  -5  -2  -9   16.55    2.12
   5   2   9    3.11    1.16
   5   2  10    6.90    1.71
   5   2  11   14.90    2.62
   5   2  12   18.13    3.07
   5   2  13   25.53    3.74
   5   2  14    5.27    1.86
   5   2  15    4.09    1.69
   5   2  16    0.98    0.94
   5   2  17    3.06    1.48
   5   3 -20   10.90    2.98
   5   3 -19    2.72    1.46
   5   3 -18    2.05    1.24
   5   3 -17    9.30    2.66
   5   3 -16    1.62    1.03
   5   3 -15    8.81    2.52
   5   3 -14   10.78    2.76
   5   3 -13   35.78    4.70
   5   3 -12    6.31    1.91
   5   3 -11   11.69    2.55
  -5  -3  11    7.87    1.21
   5   3 -10   26.43    3.52
  -5  -3  10   22.06    2.07
   5   3  -9   14.24    2.57
  -5  -3   9   16.49    1.85
  -5  -3   8    2.50    0.78
   5   3  -8    5.86    1.53
   5   3  -7   84.36    5.70
  -5  -3   7   68.76    3.86
   5   3  -6   21.94    2.78
  -5  -3   6   19.43    2.09
   5   3  -5  111.26    6.18
  -5  -3   5   96.40    4.79
   5   3  -4   23.43    2.73
  -5  -3   4    6.60    1.44
   5   3  -3   12.76    1.91
  -5  -3   3    9.75    1.58
   5   3  -3    9.32    2.01
   5   3  -2  124.65    5.72
  -5  -3   2  131.31    5.90
   5   3  -2  129.40    7.49
  -5  -3   1   36.60    3.25
   5   3  -1   33.25    3.82
  -5  -3   0    9.77    1.72
   5   3   0    9.57    2.00
  -5  -3  -1   74.84    4.86
   5   3   1   74.00    5.37
  -5  -3  -2   85.41    5.25
   5   3   2   75.93    5.49
  -5  -3  -3    3.40    1.07
   5   3   3    1.87    0.97
  -5  -3  -4   88.70    3.71
   5   3   4   82.19    5.65
  -5  -3  -5   18.95    1.72
   5   3   5   21.34    2.87
   5   3   6    0.83    0.65
   5   3   7   44.09    4.29
  -5  -3  -7   44.61    2.78
  -5  -3  -8   25.00    2.12
   5   3   8   32.12    3.85
   5   3   9    7.38    1.79
   5   3  10   46.27    4.43
   5   3  11    3.45    1.32
   5   3  12   11.58    2.40
   5   3  13    3.65    1.51
   5   3  14   12.95    2.77
   5   3  15    0.84    0.62
   5   3  16    6.74    2.17
   5   3  17    9.38    2.56
   5   4 -20    4.26    2.11
   5   4 -19   -1.76    1.36
   5   4 -18    2.61    1.53
   5   4 -17    3.07    1.67
   5   4 -16    7.21    2.36
   5   4 -15   17.45    3.58
   5   4 -14   15.15    3.24
   5   4 -13   32.04    4.53
   5   4 -12   12.99    2.80
   5   4 -11   29.61    4.21
  -5  -4  11   30.03    2.16
  -5  -4  10    4.49    0.90
   5   4 -10    8.68    2.25
   5   4  -9   30.94    3.96
  -5  -4   9   32.80    2.49
   5   4  -8   41.65    4.32
  -5  -4   8   41.54    2.91
   5   4  -7   17.97    2.65
  -5  -4   7   15.82    1.85
   5   4  -6   35.86    3.59
  -5  -4   6   36.85    2.92
   5   4  -5   18.98    2.52
  -5  -4   5    4.25    1.14
   5   4  -4   22.15    2.61
  -5  -4   4   15.06    2.01
  -5  -4   3   12.86    1.99
   5   4  -3    4.73    2.53
   5   4  -2   42.28    3.30
   5   4  -2   47.89    4.85
  -5  -4   2   47.81    3.74
  -5  -4   1    5.15    1.35
   5   4  -1    3.98    1.56
   5   4   0  142.86    8.22
   5   4   0  125.36    5.26
   5   4   1   35.67    4.05
  -5  -4  -2   48.69    3.15
   5   4   2   68.27    5.51
  -5  -4  -3    9.88    1.35
   5   4   3    1.93    1.05
  -5  -4  -4   13.24    1.35
   5   4   4   15.55    2.76
   5   4   5   26.43    3.47
   5   4   6   21.00    3.08
  -5  -4  -6   23.07    1.65
   5   4   7   20.69    3.11
   5   4   8   37.11    4.18
   5   4   9   16.03    2.89
   5   4  10    3.92    1.59
   5   4  11   11.54    2.33
   5   4  12   12.35    2.57
   5   4  13    7.04    2.00
   5   4  14   11.53    2.67
   5   4  15    9.11    2.44
   5   4  16    0.97    0.77
   5   4  17    8.44    2.52
   5   5 -19    1.00    1.09
   5   5 -18    6.29    2.33
   5   5 -17    3.49    1.72
   5   5 -16    6.90    2.38
   5   5 -15    2.99    1.42
   5   5 -14   22.73    4.35
   5   5 -13    0.43    0.60
   5   5 -12   11.73    3.07
   5   5 -11    2.13    1.24
   5   5 -10   10.55    2.49
   5   5  -9   10.35    2.45
   5   5  -8   10.80    2.25
   5   5  -7   34.02    3.84
   5   5  -6  101.10    6.24
   5   5  -5    0.02    0.21
   5   5  -4   38.98    3.57
   5   5  -3   69.99    4.55
   5   5  -3   68.69    6.35
   5   5  -2   45.96    3.40
   5   5  -2   31.33    4.44
   5   5  -1   90.20    4.65
   5   5  -1  113.04    7.98
   5   5   0   61.65    3.57
   5   5   0   71.48    6.23
   5   5   1  185.06    9.82
  -5  -5  -2   -0.30    0.37
   5   5   2    0.26    0.49
   5   5   3    5.41    2.11
  -5  -5  -3   36.42    2.76
   5   5   4    3.37    1.44
   5   5   5    8.26    2.03
   5   5   6   41.11    4.55
   5   5   7   51.58    5.07
   5   5   8    5.02    1.58
   5   5   9   56.23    5.65
   5   5  10    0.02    0.33
   5   5  11    0.95    0.84
   5   5  12    2.47    0.95
   5   5  13   17.59    3.22
   5   5  14   15.01    3.02
   5   5  15   20.98    3.74
   5   5  16    2.61    1.36
   5   6 -19    3.94    2.14
   5   6 -18    3.50    1.84
   5   6 -17    2.66    1.63
   5   6 -16    7.82    2.68
   5   6 -15    4.61    1.99
   5   6 -14    1.98    1.35
   5   6 -13    1.35    1.10
   5   6 -12    4.76    1.70
   5   6 -11    7.05    2.03
   5   6 -10    4.15    1.74
   5   6  -9   29.13    3.90
   5   6  -8   34.22    4.06
   5   6  -7   15.78    2.72
   5   6  -6    2.01    0.90
   5   6  -5   15.50    2.47
   5   6  -4    3.48    1.20
   5   6  -3   19.76    2.41
   5   6  -3   16.16    3.36
   5   6  -2   11.91    1.77
   5   6  -2    9.14    2.54
   5   6  -1   26.59    2.52
   5   6  -1   32.31    4.67
   5   6   0   45.48    3.07
   5   6   0   58.49    6.05
   5   6   1   12.54    2.76
   5   6   1    9.59    1.28
   5   6   2    7.70    2.20
   5   6   3    0.79    0.74
   5   6   4    0.11    0.29
   5   6   5   25.27    3.78
   5   6   6   18.65    3.19
   5   6   7   19.40    3.26
   5   6   8    9.71    2.35
   5   6   9    3.70    1.44
   5   6  10    1.59    1.08
   5   6  11    6.02    1.94
   5   6  12    0.17    0.45
   5   6  13   16.13    3.10
   5   6  14   10.28    2.47
   5   6  15    7.36    2.27
   5   7 -18    2.37    1.11
   5   7 -17    3.42    1.85
   5   7 -16    2.69    1.42
   5   7 -15    8.06    2.46
   5   7 -14    8.67    2.64
   5   7 -13    9.97    2.66
   5   7 -12    9.56    2.42
   5   7 -11    8.54    2.19
   5   7 -10   16.70    3.15
   5   7  -9    5.75    1.97
   5   7  -8   33.83    4.16
   5   7  -7   35.13    4.08
   5   7  -6   15.40    2.55
   5   7  -5   13.85    2.37
   5   7  -4   17.64    2.43
   5   7  -4   20.82    3.96
   5   7  -3    5.16    1.34
   5   7  -3    5.91    2.03
   5   7  -2   50.49    3.69
   5   7  -2   67.04    7.04
   5   7  -1   39.92    3.15
   5   7  -1   55.83    6.26
   5   7   0   15.86    1.79
   5   7   0   23.76    4.03
   5   7   1    3.84    0.79
   5   7   1    4.79    1.81
   5   7   2   45.69    5.49
   5   7   3   11.85    2.73
   5   7   4    6.37    2.08
   5   7   5   37.20    4.92
   5   7   6   41.53    5.10
   5   7   7   13.00    2.77
   5   7   8   21.10    3.65
   5   7   9    3.41    1.38
   5   7  10   10.34    2.63
   5   7  11    1.28    0.91
   5   7  12   16.92    3.37
   5   7  13   14.88    3.01
   5   7  14   32.37    4.46
   5   7  15    1.73    1.01
   5   8 -17    0.22    0.97
   5   8 -16    1.74    1.20
   5   8 -15   -0.35    0.57
   5   8 -14    3.25    1.25
   5   8 -13    4.13    1.51
   5   8 -12    5.22    1.87
   5   8 -11   10.26    2.45
   5   8 -10    1.49    1.31
   5   8  -9    0.47    0.90
   5   8  -8    0.15    0.29
   5   8  -7    0.71    0.30
   5   8  -6    7.90    1.94
   5   8  -5    3.11    1.27
   5   8  -4    6.78    1.62
   5   8  -4   11.26    3.07
   5   8  -3    5.14    1.30
   5   8  -3    9.54    2.84
   5   8  -2    4.36    1.15
   5   8  -2    6.88    2.42
   5   8  -1   13.99    1.89
   5   8  -1   24.42    4.38
   5   8   0    0.85    0.35
   5   8   0    2.77    1.38
   5   8   1    0.12    0.27
   5   8   2   66.90    6.88
   5   8   3    1.40    0.94
   5   8   4    6.90    2.22
   5   8   5    2.51    1.14
   5   8   6    0.88    0.98
   5   8   7   27.51    4.39
   5   8   8    0.44    0.64
   5   8   9    3.35    1.59
   5   8  10    2.17    1.22
   5   8  11    0.88    0.84
   5   8  12    3.79    1.66
   5   8  13    8.72    2.48
   5   8  14    6.50    2.01
   5   9 -16    0.48    0.63
   5   9 -15   -0.97    1.18
   5   9 -14    0.74    0.60
   5   9 -13   17.97    3.88
   5   9 -12    4.88    1.68
   5   9 -11    2.20    1.38
   5   9 -10    0.77    0.82
   5   9  -9    6.85    2.19
   5   9  -8    2.85    1.22
   5   9  -7    8.37    1.96
   5   9  -6   17.46    2.98
   5   9  -5   42.94    4.47
   5   9  -5   81.73    8.76
   5   9  -4    3.00    1.91
   5   9  -4    2.45    1.00
   5   9  -3   13.07    2.11
   5   9  -3   22.94    4.59
   5   9  -2    1.02    0.55
   5   9  -2    2.54    1.63
   5   9  -1    1.74    1.32
   5   9   0    0.80    1.04
   5   9   1   66.47    7.18
   5   9   2   12.26    3.19
   5   9   3   51.98    6.40
   5   9   4    4.72    1.85
   5   9   5    3.26    1.60
   5   9   6   24.82    4.36
   5   9   7    0.79    0.77
   5   9   8    4.89    1.81
   5   9   9   25.30    4.13
   5   9  10   13.75    3.22
   5   9  11    2.20    1.30
   5   9  12   14.01    3.31
   5   9  13    3.62    1.79
   5  10 -15    2.15    1.44
   5  10 -14    1.58    0.94
   5  10 -13    3.58    1.83
   5  10 -12   -1.15    1.27
   5  10 -11   -0.39    0.53
   5  10 -10    1.97    1.26
   5  10  -9    1.00    0.93
   5  10  -8   -0.03    0.25
   5  10  -7    2.38    1.20
   5  10  -6    7.38    1.98
   5  10  -5    1.71    0.83
   5  10  -5    3.96    2.13
   5  10  -4    6.30    2.68
   5  10  -4    2.64    1.18
   5  10  -3    0.96    1.29
   5  10  -3   -0.04    0.12
   5  10  -2   -0.95    1.43
   5  10  -1    2.01    1.51
   5  10   0    7.92    2.69
   5  10   1   21.89    4.44
   5  10   2   12.49    3.13
   5  10   3    6.14    2.29
   5  10   4    0.70    0.63
   5  10   5    0.06    0.83
   5  10   6   13.69    3.45
   5  10   7   -0.07    0.25
   5  10   8    3.32    1.52
   5  10   9    7.69    2.38
   5  10  10    1.67    1.20
   5  10  11    1.54    1.24
   5  10  12    4.40    1.90
   5  11 -14    4.24    1.91
   5  11 -13   10.78    2.99
   5  11 -12   -0.93    0.85
   5  11 -11    1.58    0.80
   5  11 -10   -0.77    0.97
   5  11  -9    0.08    0.36
   5  11  -8    5.12    1.87
   5  11  -7    3.46    1.48
   5  11  -6   22.29    3.78
   5  11  -6   54.73    7.96
   5  11  -5    3.66    1.24
   5  11  -5    8.02    3.06
   5  11  -4   -0.08    1.28
   5  11  -3    2.85    2.00
   5  11  -2    7.35    2.72
   5  11  -1    5.09    2.26
   5  11   0   32.65    5.54
   5  11   1   19.82    4.34
   5  11   2   16.66    4.14
   5  11   3    0.66    0.97
   5  11   4    7.40    2.54
   5  11   5    1.24    1.04
   5  11   6    2.79    1.67
   5  11   7   13.98    3.46
   5  11   8   19.51    4.03
   5  11   9   17.33    3.77
   5  11  10    5.20    2.01
   5  11  11    2.92    1.59
   5  12 -12    1.53    1.03
   5  12 -11    0.24    0.75
   5  12 -10    0.62    0.66
   5  12  -9   -0.40    0.75
   5  12  -8    1.10    1.07
   5  12  -7    1.58    1.21
   5  12  -7    4.11    2.35
   5  12  -6    3.22    2.12
   5  12  -5    4.99    2.71
   5  12  -4    1.92    1.44
   5  12  -3    0.25    0.87
   5  12  -2    2.84    2.02
   5  12  -1    1.07    1.49
   5  12   0    1.39    1.47
   5  12   1    4.99    2.34
   5  12   2    0.13    0.84
   5  12   3    1.12    1.56
   5  12   4    0.40    0.41
   5  12   5   -0.17    0.24
   5  12   6    0.87    1.09
   5  12   7    2.91    1.65
   5  12   8    2.86    1.72
   5  12   9    1.83    1.22
   5  13 -10    0.29    0.51
   5  13  -9   -0.05    0.55
   5  13  -8    8.54    3.64
   5  13  -7    6.14    2.83
   5  13  -6   19.60    5.25
   5  13  -5    0.13    0.71
   5  13  -4   17.63    4.86
   5  13  -3    9.49    3.43
   5  13  -2   12.88    4.18
   5  13  -1    3.68    2.13
   5  13   0   28.73    5.72
   5  13   1   14.33    3.97
   5  13   2    1.18    1.02
   5  13   3    7.09    2.69
   5  13   4   17.62    4.31
   5  13   5    0.32    0.32
   5  13   6    9.30    3.21
   5  13   7   15.07    3.87
   5  14  -7    0.53    0.34
   5  14  -6    2.53    2.44
   5  14  -5    3.70    2.08
   5  14  -4    3.39    2.25
   5  14  -3    1.10    1.03
   5  14  -2    2.03    1.66
   5  14  -1    1.19    1.63
   5  14   0    2.02    1.61
   5  14   1    0.88    0.67
   5  14   2    3.03    1.88
   5  14   3    0.23    0.15
   5  14   4    1.23    1.29
  -6  14   5   -0.42    0.39
  -6  14   4    0.08    0.58
  -6  14   3    4.41    2.10
  -6  14   2    1.31    1.03
  -6  14   1    0.46    0.65
  -6  14   0    1.03    0.80
  -6  14  -1    0.11    0.26
  -6  14  -2    0.13    0.77
  -6  13   9    3.85    1.79
  -6  13   8    3.36    1.65
  -6  13   7    4.69    2.10
  -6  13   6    4.10    1.95
  -6  13   5    5.93    2.24
  -6  13   4   17.99    3.73
  -6  13   3   15.09    3.53
  -6  13   2    0.35    0.78
  -6  13   1   -0.15    0.71
  -6  13   0    7.21    2.35
  -6  13  -1    8.26    2.44
  -6  13  -2    8.60    2.47
  -6  13  -3    9.80    2.42
  -6  13  -4    6.41    1.95
  -6  13  -5    2.67    1.20
  -6  13  -6    4.66    1.74
  -6  12  11    2.36    1.30
  -6  12  10   -1.01    0.34
  -6  12   9    1.67    0.98
  -6  12   8    1.49    1.41
  -6  12   7    1.47    1.05
  -6  12   6    2.53    1.44
  -6  12   5    3.69    1.78
  -6  12   4    4.87    1.95
  -6  12   3    1.10    1.16
  -6  12   2    1.08    1.02
  -6  12   1    0.73    0.87
  -6  12   0    2.30    1.27
  -6  12  -1    4.64    1.87
  -6  12  -2    0.84    0.73
  -6  12  -3    3.06    1.51
  -6  12  -4   -0.39    0.27
  -6  12  -5    0.46    0.47
  -6  12  -6    1.63    0.89
  -6  12  -7    2.16    1.63
  -6  12  -8    2.00    1.27
  -6  11  13   10.79    2.94
  -6  11  12    7.55    2.42
  -6  11  11   10.01    2.83
  -6  11  10    3.65    1.68
  -6  11   9   18.07    3.62
  -6  11   8    7.02    2.29
  -6  11   7    3.99    1.83
  -6  11   6   15.05    3.30
  -6  11   5   23.30    4.05
  -6  11   4    7.05    2.24
  -6  11   3    2.87    1.28
  -6  11   2    9.47    2.47
  -6  11   1   10.80    2.72
  -6  11   0    7.45    2.04
  -6  11  -1    9.33    2.42
  -6  11  -2   19.15    3.51
  -6  11  -3   17.23    3.29
  -6  11  -4    2.26    1.22
  -6  11  -5    4.41    1.59
  -6  11  -6    9.30    2.20
  -6  11  -7    1.17    0.72
  -6  11  -8    9.53    3.00
  -6  11  -9    9.67    3.00
  -6  11 -10   19.97    4.47
  -6  10  14    0.91    0.69
  -6  10  13    2.44    1.49
  -6  10  12    4.73    1.83
  -6  10  11    3.10    1.74
  -6  10  10    2.18    1.40
  -6  10   9    2.08    1.20
  -6  10   8   14.71    3.13
  -6  10   7    2.30    1.20
  -6  10   6    3.23    1.24
  -6  10   5    3.21    1.41
  -6  10   4    0.58    0.68
  -6  10   3    3.06    1.37
  -6  10   2    6.91    2.12
  -6  10   1   13.63    2.89
  -6  10   0    3.22    1.36
  -6  10  -1    0.10    0.45
  -6  10  -2    3.58    1.29
  -6  10  -3    0.70    0.11
  -6  10  -4    1.24    0.78
  -6  10  -5    5.58    1.63
  -6  10  -6    0.99    0.93
  -6  10  -7    3.37    1.19
  -6  10  -8    1.63    0.88
  -6  10  -8    1.82    1.48
  -6  10  -9    2.70    1.65
  -6  10 -10    3.29    1.82
  -6  10 -11    0.64    0.75
  -6   9  15    4.72    1.87
  -6   9  14    1.65    1.38
  -6   9  13    2.55    1.29
  -6   9  12    2.92    1.84
  -6   9  11    5.15    2.03
  -6   9  10   21.84    3.82
  -6   9   9   53.43    5.97
  -6   9   8    7.42    2.23
  -6   9   7    2.85    1.19
  -6   9   6    8.06    2.25
  -6   9   5   12.45    2.88
  -6   9   4    1.11    0.62
  -6   9   3   24.85    3.94
  -6   9   2   28.46    4.17
  -6   9   1   33.78    4.51
  -6   9   0    7.70    2.50
  -6   9  -1    0.95    0.66
  -6   9  -2   36.36    4.47
  -6   9  -3    6.19    1.85
  -6   9  -4    4.70    1.57
  -6   9  -5   13.33    2.40
  -6   9  -6   20.11    3.32
  -6   9  -7    8.86    2.11
  -6   9  -8    5.11    1.51
  -6   9  -9   12.02    2.35
  -6   9  -9    9.88    2.76
  -6   9 -10    2.70    1.40
  -6   9 -11    3.48    1.83
  -6   9 -12   13.18    3.54
  -6   8  16    5.50    2.10
  -6   8  15    2.30    1.38
  -6   8  14    1.19    1.13
  -6   8  13    9.41    2.58
  -6   8  12    1.24    0.80
  -6   8  11    5.31    1.76
  -6   8  10    4.87    1.67
  -6   8   9   60.29    6.15
  -6   8   8    1.37    0.83
  -6   8   7    5.55    1.73
  -6   8   6    9.29    2.92
  -6   8   5    2.15    1.11
  -6   8   4    1.89    1.30
  -6   8   3   30.03    4.12
  -6   8   2   12.50    3.17
  -6   8   1   38.69    4.61
  -6   8   0    5.56    2.31
  -6   8  -1    3.32    1.27
  -6   8  -2    0.88    0.69
  -6   8  -3   38.14    4.33
  -6   8  -4    1.08    0.85
  -6   8  -5    5.48    1.61
  -6   8  -6   17.73    3.11
  -6   8  -7    0.05    0.59
  -6   8  -8    4.30    1.51
  -6   8  -9    0.66    0.43
  -6   8  -9    0.19    0.67
  -6   8 -10    8.77    2.00
  -6   8 -10   12.17    3.17
  -6   8 -11    1.80    1.37
  -6   8 -12    2.00    0.91
  -6   8 -13    4.14    1.77
  -6   7  17   23.83    3.88
  -6   7  16   -0.62    0.69
  -6   7  15    4.18    1.87
  -6   7  14   18.89    3.57
  -6   7  13    2.24    1.34
  -6   7  12    8.67    2.35
  -6   7  11   21.55    3.60
  -6   7  10    7.71    2.10
  -6   7   9   12.50    2.72
  -6   7   8    1.36    0.81
  -6   7   7   22.42    3.87
  -6   7   6    4.81    1.74
  -6   7   5    6.68    1.91
  -6   7   4   19.64    3.36
  -6   7   3   72.54    6.18
  -6   7   2   83.63    6.59
  -6   7   1   21.04    3.83
  -6   7   0    7.54    2.88
  -6   7  -1    7.47    2.13
  -6   7  -2    1.24    0.88
  -6   7  -3    5.45    1.64
  -6   7  -4   74.50    5.69
  -6   7  -5    1.00    0.63
  -6   7  -6    8.43    2.01
  -6   7  -7    0.16    0.36
  -6   7  -8    0.86    0.83
  -6   7  -9    5.29    1.57
  -6   7  -9    8.93    2.57
  -6   7 -10    3.91    1.66
  -6   7 -10    5.17    1.50
  -6   7 -11   14.44    3.70
  -6   7 -12    9.31    2.73
  -6   7 -13    0.69    0.54
  -6   7 -14   11.90    3.17
  -6   6  17    9.48    2.39
  -6   6  16    1.10    1.15
  -6   6  15    0.70    0.84
  -6   6  14   -0.26    0.73
  -6   6  13   13.20    2.93
  -6   6  12   11.84    2.73
  -6   6  11   18.13    3.19
  -6   6  10   13.92    2.79
  -6   6   9    1.75    0.90
  -6   6   8    4.46    1.82
  -6   6   7    2.70    1.21
  -6   6   6   42.79    4.82
  -6   6   5   42.07    4.93
  -6   6   4   68.42    5.96
  -6   6   3   23.44    3.37
  -6   6   2    7.40    1.85
  -6   6   1    6.48    1.86
  -6   6   0    8.40    2.20
  -6   6  -1   15.89    3.09
  -6   6  -2   94.21    6.40
  -6   6  -3    4.60    1.60
  -6   6  -4    5.97    1.57
  -6   6  -5   17.60    2.83
  -6   6  -6   -0.19    0.55
  -6   6  -7    0.08    0.31
  -6   6  -8    2.88    1.10
  -6   6  -9   15.83    2.62
  -6   6  -9   15.33    3.41
  -6   6 -10   17.54    2.76
  -6   6 -10   15.36    3.24
  -6   6 -11    0.37    0.68
  -6   6 -11   -0.01    0.08
  -6   6 -12    3.83    1.72
  -6   6 -13    6.15    2.20
  -6   6 -14    2.02    1.27
  -6   6 -15    0.69    0.83
  -6   5  17   -0.77    0.55
  -6   5  16   11.70    2.58
  -6   5  15   31.30    4.16
  -6   5  14   11.10    2.70
  -6   5  13    9.98    2.32
  -6   5  12    6.17    1.78
  -6   5  11    1.94    1.59
  -6   5  10    3.85    1.40
  -6   5   9    2.68    1.30
  -6   5   8   38.65    4.45
  -6   5   7   62.92    5.72
  -6   5   6    2.80    1.69
  -6   5   5    5.53    1.75
  -6   5   4   45.00    4.60
  -6   5   3    8.46    2.14
  -6   5   2    1.92    1.19
  -6   5   1   15.18    2.54
  -6   5   0   37.53    4.01
  -6   5  -1    2.69    1.13
  -6   5  -2    9.32    1.89
  -6   5  -3   42.05    4.14
  -6   5  -4   47.20    4.44
  -6   5  -5    4.29    1.39
  -6   5  -6    6.32    1.61
  -6   5  -7    0.20    0.16
  -6   5  -8   21.87    3.00
  -6   5  -9    0.98    0.67
  -6   5 -10    6.80    2.16
  -6   5 -10    4.65    1.35
  -6   5 -11   29.49    3.45
  -6   5 -11   26.22    4.17
  -6   5 -12    0.31    0.37
  -6   5 -12    4.41    2.06
  -6   5 -13    2.14    1.70
  -6   5 -14    0.07    0.63
  -6   5 -15    1.45    1.23
   6  -4 -19    3.62    1.94
   6  -4 -18   -0.49    0.22
   6  -4 -17   -0.38    0.86
  -6   4  16    0.72    0.73
   6  -4 -16    0.10    0.86
  -6   4  15   29.94    3.95
   6  -4 -15   31.33    5.01
  -6   4  14    7.42    1.89
  -6   4  13   15.92    2.82
  -6   4  12   13.43    2.66
  -6   4  11    2.22    1.05
  -6   4  10    2.60    1.44
  -6   4   9    9.69    2.26
  -6   4   8   32.40    3.96
  -6   4   7   79.23    6.09
  -6   4   6   39.09    4.15
  -6   4   5    1.10    1.10
  -6   4   4   33.26    3.86
  -6   4   3    6.07    1.73
  -6   4   2    7.74    1.76
  -6   4   1   12.11    2.11
  -6   4   0   43.38    4.07
  -6   4  -1   41.78    3.99
  -6   4  -2   31.91    3.50
  -6   4  -3    8.12    1.76
  -6   4  -4   10.71    2.11
  -6   4  -5   16.80    2.59
  -6   4  -6   18.42    2.75
  -6   4  -7   23.13    3.11
  -6   4  -8   14.62    2.50
  -6   4  -9   14.17    2.39
  -6   4 -10    7.38    2.05
  -6   4 -10    6.82    1.66
  -6   4 -11    1.10    0.78
  -6   4 -11    1.64    0.84
  -6   4 -12    0.85    0.63
  -6   4 -12    1.90    1.60
  -6   4 -13    7.04    2.20
  -6   4 -14    3.12    1.42
  -6   4 -15    2.58    1.10
   6  -3 -19    3.82    1.68
   6  -3 -18    0.39    0.50
   6  -3 -17   10.14    3.04
   6  -3 -16   35.88    5.55
   6  -3 -15    7.44    2.44
  -6   3  15    8.53    1.97
   6  -3 -14   -0.30    0.66
  -6   3  14    0.92    0.82
   6  -3 -13    2.57    1.38
  -6   3  13    2.48    1.01
   6  -3 -12    3.46    1.53
  -6   3  12    3.32    1.25
  -6   3  11    0.27    0.27
   6  -3 -11    0.70    0.44
  -6   3  10    1.39    0.88
  -6   3   9   54.69    4.93
  -6   3   8  120.27    7.21
  -6   3   7    6.28    1.67
   6  -3  -6    0.44    0.19
  -6   3   6    1.19    0.80
  -6   3   5    5.37    1.44
  -6   3   4   13.89    2.31
  -6   3   3   32.21    3.51
  -6   3   2   25.22    3.02
  -6   3   1   50.35    4.25
  -6   3   0   41.31    3.85
  -6   3  -1   15.80    2.40
  -6   3  -1   14.79    1.61
   6  -3   1   13.07    1.26
  -6   3  -2   17.49    2.61
   6  -3   2   14.36    1.50
  -6   3  -3   30.92    3.45
   6  -3   3   27.02    2.33
   6  -3   4    0.32    0.28
  -6   3  -4    0.57    0.26
  -6   3  -5    8.92    1.85
   6  -3   5    7.65    1.41
  -6   3  -6   25.53    3.28
   6  -3   6   21.18    2.62
  -6   3  -7   32.84    3.62
   6  -3   7   27.80    3.13
   6  -3   8    5.83    1.40
  -6   3  -8    4.88    1.46
   6  -3   9    0.84    0.50
  -6   3  -9    0.62    0.39
   6  -3  10    1.89    0.97
  -6   3 -10    2.71    1.07
  -6   3 -10    2.11    1.12
  -6   3 -11    6.28    1.95
  -6   3 -11    7.77    1.78
   6  -3  11    8.71    2.05
  -6   3 -12    4.32    1.42
  -6   3 -12    3.43    1.69
   6  -3  12    4.41    1.51
  -6   3 -13    5.45    1.98
  -6   3 -14    0.67    0.87
   6  -2 -20   -0.39    1.00
   6  -2 -19    2.05    1.39
   6  -2 -18    4.72    1.85
   6  -2 -17   -0.55    0.99
   6  -2 -16   29.59    4.82
   6  -2 -15    7.36    2.21
  -6   2  15    6.94    1.70
   6  -2 -14   -0.43    0.63
  -6   2  14    0.58    0.58
   6  -2 -13    1.52    0.92
  -6   2  13    2.32    1.12
   6  -2 -12   -0.36    0.83
  -6   2  12    0.02    0.33
   6  -2 -11    1.95    1.11
  -6   2  11    1.56    0.81
  -6   2  10   20.00    2.88
   6  -2 -10   19.87    3.40
  -6   2   9   56.90    4.80
   6  -2  -9   60.28    5.92
  -6   2   8   44.17    4.15
   6  -2  -7    7.12    1.04
  -6   2   7    7.47    1.68
  -6   2   6    4.80    1.35
   6  -2  -6    4.57    0.77
   6  -2  -5    3.04    0.71
  -6   2   5    3.97    1.17
   6  -2  -5    3.27    0.57
   6  -2  -4   18.16    1.43
  -6   2   4   18.15    2.46
   6  -2  -4   19.99    1.22
   6  -2  -3   17.86    1.21
  -6   2   3   17.37    2.41
   6  -2  -2   57.23    2.10
  -6   2   2   52.20    4.23
   6  -2  -1   94.91    2.79
  -6   2   1   98.42    5.97
   6  -2   0    4.66    0.66
  -6   2   0    4.44    1.17
   6  -2   1   29.97    2.06
  -6   2  -1   31.54    3.37
   6  -2   2    0.74    0.39
  -6   2  -2    0.95    0.71
   6  -2   3   13.42    1.67
  -6   2  -3   14.35    2.36
   6  -2   4   31.86    2.82
  -6   2  -4   33.38    3.60
   6  -2   5   21.09    2.48
  -6   2  -5   23.07    3.01
   6  -2   6    3.78    1.16
  -6   2  -6    3.97    1.17
  -6   2  -7   48.71    4.36
   6  -2   7   53.56    4.37
   6  -2   8    5.00    1.40
  -6   2  -8    5.65    1.51
  -6   2  -9   17.41    2.80
  -6   2  -9   18.18    2.74
   6  -2   9   21.93    3.03
   6  -2  10   -0.28    0.57
  -6   2 -10    0.41    0.38
  -6   2 -10    0.69    0.65
  -6   2 -11   14.77    2.58
  -6   2 -11   14.10    2.72
   6  -2  11   15.58    2.79
   6  -2  12    6.67    1.95
  -6   2 -12    4.54    1.47
  -6   2 -13   13.92    2.81
   6  -2  13   19.62    3.37
   6  -2  14    7.04    2.09
   6  -2  15   15.47    3.28
   6  -2  16    2.52    1.47
   6  -1 -20    4.40    1.93
   6  -1 -19    3.14    1.59
   6  -1 -18    3.08    1.64
   6  -1 -17    7.42    2.36
   6  -1 -16   10.34    2.74
   6  -1 -15    1.13    0.25
   6  -1 -14   24.76    4.11
  -6   1  14   21.37    2.82
   6  -1 -13    5.78    1.72
  -6   1  13    7.62    1.61
   6  -1 -12   10.49    2.54
  -6   1  12   10.30    1.98
   6  -1 -11    0.66    0.70
  -6   1  11    0.65    0.54
   6  -1 -10   21.67    3.47
  -6   1  10   20.95    2.76
   6  -1  -9   75.19    6.28
  -6   1   9   70.32    5.12
   6  -1  -8    1.46    0.91
  -6   1   8    1.38    0.66
   6  -1  -7    4.45    1.45
  -6   1   7    3.99    1.16
  -6   1   6   31.81    3.26
  -6   1   5    0.91    0.53
  -6   1   4   13.16    2.09
   6  -1  -4   14.97    1.78
   6  -1  -3   44.20    2.80
  -6   1   3   42.49    3.85
   6  -1  -2   15.28    1.55
  -6   1   2   12.95    2.09
   6  -1  -1   25.30    1.99
  -6   1   1   24.89    2.90
   6  -1   0    0.07    0.06
  -6   1   0    0.39    0.48
   6  -1   1    5.90    1.10
  -6   1  -1    6.21    1.56
   6  -1   2    0.06    0.15
  -6   1  -2    0.30    0.17
   6  -1   3    8.23    1.30
  -6   1  -3    7.53    1.67
   6  -1   4   11.56    1.65
  -6   1  -4   11.74    2.15
   6  -1   5   31.51    2.97
  -6   1  -5   32.85    3.59
   6  -1   6   35.91    3.40
  -6   1  -6   34.67    3.72
   6  -1   7    7.01    1.53
  -6   1  -7    7.09    1.77
   6  -1   8    6.36    1.56
  -6   1  -8    6.02    1.58
   6  -1   9    1.64    0.76
  -6   1  -9    1.69    0.78
  -6   1  -9    2.74    1.08
   6  -1  10    6.44    1.75
  -6   1 -10    5.17    1.49
  -6   1 -10    6.96    1.77
   6  -1  11   -0.19    0.50
  -6   1 -11    0.39    0.39
  -6   1 -12   13.91    2.60
   6  -1  12   19.25    3.26
   6  -1  13   12.21    2.60
   6  -1  14    1.91    1.15
   6  -1  15    1.59    0.99
   6  -1  16    1.03    0.59
   6   0 -20    0.46    0.38
   6   0 -19    2.25    1.27
   6   0 -18    2.34    1.45
   6   0 -17    7.15    2.34
   6   0 -16   11.31    2.81
   6   0 -15   -0.99    1.17
   6   0 -14   -1.65    1.24
   6   0 -13   28.97    4.30
  -6   0  13   23.65    2.71
   6   0 -12   13.55    2.87
  -6   0  12   10.55    1.83
   6   0 -11   34.74    4.51
  -6   0  11   29.71    3.03
   6   0 -10   47.04    5.18
  -6   0  10   38.57    3.45
   6   0  -9   12.11    2.66
  -6   0   9    9.32    1.79
   6   0  -8    5.06    1.44
  -6   0   8    5.37    1.31
   6   0  -7    1.02    0.74
  -6   0   7    1.68    0.76
   6   0  -6    5.80    1.73
  -6   0   6    3.62    1.17
  -6   0   5   94.68    5.52
   6   0  -5   98.17    6.46
  -6   0   4   38.56    3.51
   6   0  -4   40.31    3.48
   6   0  -3    9.84    1.66
  -6   0   3    9.33    1.70
  -6   0   2  149.45    7.19
   6   0  -2  140.17    5.92
  -6   0   1    0.31    0.29
   6   0  -1    0.54    0.42
   6   0   0    0.73    0.47
  -6   0   0   -0.02    0.30
   6   0   1    7.47    1.36
  -6   0  -1    7.67    1.67
   6   0   2   79.29    4.46
  -6   0  -2   74.44    5.16
   6   0   3   27.17    2.71
  -6   0  -3   26.61    3.14
   6   0   4   40.24    3.35
  -6   0  -4   38.01    3.82
   6   0   5   53.65    3.81
  -6   0  -5   54.19    4.64
   6   0   6   48.12    3.86
  -6   0  -6   49.43    4.40
   6   0   7   13.57    2.14
  -6   0  -7   14.43    2.48
   6   0   8    7.17    1.64
  -6   0  -8    7.13    1.69
   6   0   9   14.87    2.51
  -6   0  -9   14.42    2.56
  -6   0  -9   11.52    2.03
   6   0  10   60.73    5.31
  -6   0 -10   46.30    4.38
   6   0  11   30.74    3.95
   6   0  12   17.02    3.03
   6   0  13    5.87    1.84
   6   0  14    0.16    0.70
   6   0  15   -0.31    0.45
   6   0  16    1.48    1.03
   6   1 -20    2.55    1.37
   6   1 -19   -1.07    1.31
   6   1 -18   -0.48    0.52
   6   1 -17   -1.26    1.36
   6   1 -16    4.58    1.84
   6   1 -15   11.93    2.92
   6   1 -14   22.08    3.80
   6   1 -13    3.62    1.65
  -6  -1  13    3.42    1.01
   6   1 -12    1.27    0.84
  -6  -1  12    0.98    0.63
   6   1 -11    1.58    0.95
  -6  -1  11    2.42    0.93
   6   1 -10   19.82    3.28
  -6  -1  10   16.55    2.21
   6   1  -9    0.71    0.93
  -6  -1   9    0.17    0.15
   6   1  -8    0.77    0.46
  -6  -1   8    0.81    0.57
   6   1  -7   58.55    5.17
  -6  -1   7   52.43    4.06
   6   1  -6   33.48    3.74
  -6  -1   6   31.02    3.16
   6   1  -5    2.80    1.03
  -6  -1   5    3.38    1.05
  -6  -1   4    5.06    1.28
   6   1  -4    5.07    1.32
   6   1  -4    5.36    1.49
  -6  -1   3   26.23    2.96
   6   1  -3   26.33    3.12
  -6  -1   2   19.84    2.61
   6   1  -2   20.44    2.59
  -6  -1   1   19.13    2.54
   6   1  -1   17.79    2.35
  -6  -1   0   10.08    1.84
   6   1   0   10.97    1.83
  -6  -1  -1   53.56    4.39
   6   1   1   53.44    4.05
  -6  -1  -2    7.41    1.61
   6   1   2    7.74    1.63
   6   1   3    4.60    1.23
  -6  -1  -3    4.31    1.38
   6   1   4   21.05    2.65
  -6  -1  -4   18.33    2.71
   6   1   5   66.96    4.88
  -6  -1  -5   63.30    5.08
   6   1   6    3.89    1.18
  -6  -1  -6    2.90    1.04
   6   1   7   13.13    2.14
  -6  -1  -7   13.31    2.50
  -6  -1  -8    1.44    0.67
   6   1   8    1.86    0.80
  -6  -1  -9    0.08    0.18
   6   1   9   -0.03    0.15
   6   1  10    1.95    1.07
   6   1  11   11.17    2.40
   6   1  12   12.52    2.64
   6   1  13    4.92    1.70
   6   1  14    0.05    0.64
   6   1  15    0.08    0.43
   6   1  16    0.11    0.74
   6   2 -20    2.88    1.55
   6   2 -19    4.73    1.96
   6   2 -18   -0.62    0.89
   6   2 -17    1.06    0.85
   6   2 -16    1.65    1.29
   6   2 -15   22.53    4.12
   6   2 -14   28.20    4.48
   6   2 -13   35.15    4.84
   6   2 -12    0.65    0.68
  -6  -2  12    0.14    0.25
   6   2 -11   18.99    3.44
  -6  -2  11   19.55    2.32
   6   2 -10   -0.60    0.44
  -6  -2  10    0.76    0.44
   6   2  -9   -0.03    0.31
  -6  -2   9    1.33    0.67
  -6  -2   8    8.59    1.60
   6   2  -8    9.89    2.27
   6   2  -7  104.52    6.99
  -6  -2   7  100.14    5.47
   6   2  -6   90.10    6.20
  -6  -2   6   87.63    5.19
   6   2  -5   61.13    5.04
  -6  -2   5   58.46    4.26
   6   2  -4    6.16    1.53
  -6  -2   4    7.06    1.50
   6   2  -4    6.19    1.70
  -6  -2   3   23.84    2.80
   6   2  -3   23.65    3.18
   6   2  -3   23.31    3.03
  -6  -2   2    6.42    1.48
   6   2  -2    5.53    1.49
  -6  -2   1   34.05    3.41
   6   2  -1   34.31    3.62
  -6  -2   0   26.92    3.09
   6   2   0   29.03    3.27
   6   2   1   95.45    5.91
  -6  -2  -1   92.97    5.88
   6   2   2   30.70    3.43
  -6  -2  -2   29.94    3.41
   6   2   3   36.26    3.74
  -6  -2  -3   37.08    3.80
   6   2   4   31.40    3.48
  -6  -2  -4   33.75    3.64
   6   2   5    0.85    0.63
  -6  -2  -5   -0.16    0.24
   6   2   6    8.35    1.89
  -6  -2  -6    6.50    1.69
   6   2   7   19.61    2.94
   6   2   8   21.54    3.00
   6   2   9   38.16    4.06
   6   2  10   28.55    3.69
   6   2  11   14.81    2.78
   6   2  12    8.96    2.21
   6   2  13   12.06    2.65
   6   2  14   -0.04    0.16
   6   2  15    7.82    2.34
   6   2  16   22.10    4.07
   6   3 -19    0.73    0.87
   6   3 -18    3.79    1.98
   6   3 -17    1.87    1.46
   6   3 -16    0.73    0.90
   6   3 -15   15.62    3.37
   6   3 -14    2.81    1.44
   6   3 -13    0.87    0.81
   6   3 -12    0.43    0.64
  -6  -3  11    2.84    0.77
   6   3 -11    1.20    1.02
  -6  -3  10    0.35    0.41
   6   3 -10    0.69    1.08
  -6  -3   9    4.89    1.15
   6   3  -9    6.15    1.75
   6   3  -8   31.37    3.94
  -6  -3   8   29.75    2.84
   6   3  -7   63.97    5.34
  -6  -3   7   64.26    4.24
   6   3  -6    4.37    1.36
  -6  -3   6    4.72    1.18
   6   3  -5   28.78    3.46
  -6  -3   5   31.42    3.06
   6   3  -4    2.53    1.62
  -6  -3   4    0.49    0.51
   6   3  -4    0.47    1.05
   6   3  -3    1.18    0.68
  -6  -3   3    1.90    0.73
   6   3  -3    2.46    1.12
  -6  -3   2    1.32    0.77
   6   3  -2    1.13    0.75
   6   3  -2    1.50    0.78
  -6  -3   1    2.68    0.84
   6   3  -1    2.75    1.18
   6   3   0   53.85    4.86
  -6  -3   0   54.88    4.43
   6   3   1   13.38    2.41
  -6  -3  -1   12.95    2.21
  -6  -3  -2    5.44    1.47
   6   3   2    4.99    1.55
   6   3   3    1.38    1.16
  -6  -3  -3    0.08    0.45
   6   3   4   41.85    4.20
   6   3   5    2.20    1.01
   6   3   6   14.76    2.58
   6   3   7    9.83    2.12
   6   3   8    1.85    1.01
   6   3   9    3.04    1.30
   6   3  10    1.12    0.75
   6   3  11    2.67    1.28
   6   3  12   16.78    3.04
   6   3  13   -0.11    0.24
   6   3  14    2.04    1.14
   6   3  15    0.60    0.60
   6   3  16    0.84    0.88
   6   4 -19    3.93    1.82
   6   4 -18    2.02    1.23
   6   4 -17    0.80    0.55
   6   4 -16   20.92    4.22
   6   4 -15   13.40    3.33
   6   4 -14   12.25    3.00
   6   4 -13    4.29    2.01
   6   4 -12    5.28    2.30
   6   4 -11    4.06    1.78
   6   4 -10   35.37    4.44
  -6  -4  10   39.99    3.08
   6   4  -9   51.52    5.31
  -6  -4   9   50.16    3.57
   6   4  -8  126.45    7.90
  -6  -4   8  123.09    5.74
   6   4  -7   19.50    3.02
  -6  -4   7   18.71    2.30
   6   4  -6    1.18    1.24
  -6  -4   6    0.89    0.65
   6   4  -5    0.62    0.81
  -6  -4   5   -0.21    0.25
   6   4  -4   19.40    3.33
  -6  -4   4   14.91    2.22
   6   4  -4   17.52    3.55
   6   4  -3   35.22    3.58
  -6  -4   3   35.88    3.44
   6   4  -3   35.38    4.52
   6   4  -2   26.42    2.90
  -6  -4   2   31.41    3.31
   6   4  -2   32.86    4.34
  -6  -4   1   28.13    3.26
   6   4  -1   28.33    4.00
   6   4   0  111.16    7.47
  -6  -4   0  108.83    6.46
   6   4   1    7.34    1.88
   6   4   2   20.43    3.24
   6   4   3    3.17    1.48
   6   4   4   30.68    4.07
   6   4   5   46.79    4.71
   6   4   6   37.68    4.27
   6   4   7   19.62    3.17
   6   4   8   46.60    4.89
   6   4   9   12.50    2.64
   6   4  10    1.04    1.04
   6   4  11    0.96    1.08
   6   4  12   27.71    3.96
   6   4  13    7.72    2.15
   6   4  14    4.88    1.83
   6   4  15   20.26    3.77
   6   5 -19   -0.98    1.35
   6   5 -18    0.50    0.74
   6   5 -17    1.59    1.40
   6   5 -16    1.49    1.15
   6   5 -15    6.07    2.15
   6   5 -14    0.28    0.52
   6   5 -13    8.68    2.24
   6   5 -12    2.27    1.24
   6   5 -11    6.63    1.85
   6   5 -10    0.00    0.60
   6   5  -9    0.45    0.63
   6   5  -8   10.03    2.18
   6   5  -7    9.14    2.04
   6   5  -6    8.86    2.17
   6   5  -5   17.28    2.53
   6   5  -4    3.62    1.38
   6   5  -4    3.24    1.46
   6   5  -3    6.25    1.73
   6   5  -3    5.25    1.85
   6   5  -2   14.27    2.16
   6   5  -2   15.44    3.18
   6   5  -1   27.74    4.12
   6   5  -1   22.01    2.49
   6   5   0   13.03    2.72
   6   5   1    0.91    0.88
   6   5   2   26.93    3.88
   6   5   3    2.61    1.21
   6   5   4    3.05    1.35
   6   5   5    2.83    1.15
   6   5   6    8.58    2.15
   6   5   7    4.05    1.53
   6   5   8    0.40    0.51
   6   5   9    0.37    0.82
   6   5  10   -0.37    0.52
   6   5  11    7.34    2.21
   6   5  12    1.59    1.00
   6   5  13    5.69    1.73
   6   5  14    6.55    2.01
   6   5  15    0.39    0.97
   6   6 -18    1.25    1.15
   6   6 -17   12.39    3.20
   6   6 -16    6.99    2.58
   6   6 -15    4.85    2.31
   6   6 -14    6.38    2.35
   6   6 -13   11.31    2.70
   6   6 -12   20.26    3.71
   6   6 -11   23.31    3.89
   6   6 -10   19.23    3.36
   6   6  -9   20.76    3.42
   6   6  -8   15.63    2.92
   6   6  -7   13.67    2.62
   6   6  -6    4.07    1.44
   6   6  -5   69.85    5.36
   6   6  -5   78.93    7.70
   6   6  -4   42.71    3.97
   6   6  -4   49.82    6.03
   6   6  -3   21.77    2.79
   6   6  -3   24.48    4.16
   6   6  -2   64.20    4.52
   6   6  -2   70.89    7.19
   6   6  -1   16.54    2.28
   6   6  -1   17.71    3.49
   6   6   0   16.92    3.34
   6   6   0   21.22    2.48
   6   6   1   26.89    4.20
   6   6   2    4.96    1.72
   6   6   3   41.86    5.15
   6   6   4   50.52    5.58
   6   6   5   13.36    2.84
   6   6   6   44.39    5.19
   6   6   7    9.07    2.40
   6   6   8    3.50    1.52
   6   6   9    3.81    1.53
   6   6  10   23.02    3.76
   6   6  11   13.84    3.07
   6   6  12   14.96    3.11
   6   6  13   12.11    2.73
   6   6  14    2.24    1.21
   6   7 -17    6.39    2.45
   6   7 -16    0.70    1.03
   6   7 -15    0.93    0.77
   6   7 -14    1.66    1.21
   6   7 -13   20.15    3.78
   6   7 -12    0.04    0.67
   6   7 -11    1.59    1.03
   6   7 -10   -0.47    0.75
   6   7  -9    9.41    2.32
   6   7  -8   20.31    3.27
   6   7  -7    7.07    1.82
   6   7  -6   21.65    3.09
   6   7  -5   -0.05    0.37
   6   7  -5    1.12    0.86
   6   7  -4    1.12    0.52
   6   7  -4    2.41    1.29
   6   7  -3   12.88    2.14
   6   7  -3   17.76    3.78
   6   7  -2   35.18    3.37
   6   7  -2   40.76    5.76
   6   7  -1    6.07    1.41
   6   7  -1    5.10    1.93
   6   7   0    0.37    0.17
   6   7   1    1.39    0.82
   6   7   2   21.22    3.84
   6   7   3    1.45    1.37
   6   7   4    8.94    2.55
   6   7   5    2.74    1.13
   6   7   6    0.46    0.41
   6   7   7    2.85    1.56
   6   7   8    0.04    0.11
   6   7   9    3.43    1.51
   6   7  10    4.59    1.78
   6   7  11    1.93    1.25
   6   7  12    0.16    0.59
   6   7  13   14.89    3.12
   6   8 -17   -0.67    0.99
   6   8 -16    0.56    0.98
   6   8 -15   10.72    3.25
   6   8 -14   12.55    3.32
   6   8 -13   36.31    5.36
   6   8 -12   13.23    3.14
   6   8 -11    4.14    1.75
   6   8 -10    7.81    2.31
   6   8  -9   11.88    2.76
   6   8  -8    4.18    1.67
   6   8  -7   14.76    2.88
   6   8  -6   66.32    5.64
   6   8  -5   34.09    3.85
   6   8  -5   42.61    6.31
   6   8  -4    9.75    1.95
   6   8  -4    4.72    2.00
   6   8  -3   27.74    3.18
   6   8  -3   42.82    6.09
   6   8  -2   -0.33    0.34
   6   8  -2   -0.28    0.72
   6   8  -1    3.60    1.94
   6   8   0   19.84    3.93
   6   8   1   29.42    4.87
   6   8   2   37.90    5.46
   6   8   3   47.23    5.94
   6   8   4    8.55    2.44
   6   8   5   38.61    5.34
   6   8   6    4.26    1.75
   6   8   7    8.47    2.42
   6   8   8   12.66    3.02
   6   8   9   29.68    4.73
   6   8  10   17.72    3.61
   6   8  11   20.53    3.91
   6   8  12    4.67    1.90
   6   8  13    0.62    0.61
   6   9 -16    2.42    1.65
   6   9 -15    0.94    0.82
   6   9 -14    1.13    0.90
   6   9 -13    1.10    1.04
   6   9 -12    4.72    1.86
   6   9 -11    3.70    1.55
   6   9 -10    2.73    1.31
   6   9  -9    9.52    2.53
   6   9  -8    4.66    1.66
   6   9  -7    1.19    0.86
   6   9  -6    7.46    1.97
   6   9  -6   11.62    3.45
   6   9  -5    3.80    1.46
   6   9  -5    5.47    2.48
   6   9  -4    6.52    1.55
   6   9  -4    9.16    3.08
   6   9  -3    4.28    2.15
   6   9  -2    0.35    0.26
   6   9  -1    8.65    2.75
   6   9   0   10.11    2.92
   6   9   1    1.69    1.16
   6   9   2    1.51    1.25
   6   9   3    3.67    1.83
   6   9   4   12.08    3.17
   6   9   5   22.29    4.26
   6   9   6    6.35    2.31
   6   9   7    1.35    1.23
   6   9   8    6.93    2.30
   6   9   9    3.64    1.66
   6   9  10    0.39    0.74
   6   9  11    1.56    0.96
   6  10 -14   12.62    3.36
   6  10 -13    3.03    1.70
   6  10 -12   11.57    3.25
   6  10 -11    2.84    1.56
   6  10 -10   15.86    3.43
   6  10  -9    7.35    2.11
   6  10  -8   13.88    2.85
   6  10  -7   16.72    3.11
   6  10  -7   28.64    5.73
   6  10  -6   13.95    2.84
   6  10  -6   16.54    4.32
   6  10  -5   17.39    2.98
   6  10  -5    5.80    2.56
   6  10  -4    2.31    1.56
   6  10  -3    2.11    1.21
   6  10  -2   32.80    5.73
   6  10  -1   13.59    3.68
   6  10   0   28.27    5.21
   6  10   1   61.32    7.52
   6  10   2   20.32    4.39
   6  10   3    2.46    1.63
   6  10   4    3.48    1.88
   6  10   5   15.56    3.75
   6  10   6   25.40    4.76
   6  10   7    8.08    2.61
   6  10   8   20.48    4.04
   6  10   9    4.17    1.92
   6  10  10    9.04    2.85
   6  11 -13    2.86    1.49
   6  11 -12    3.57    1.72
   6  11 -11    4.87    2.19
   6  11 -10    0.16    0.56
   6  11  -9    5.79    1.95
   6  11  -8   -0.53    0.68
   6  11  -7    1.53    1.11
   6  11  -7    1.15    1.31
   6  11  -6    1.15    1.47
   6  11  -5   -1.04    0.89
   6  11  -4    6.36    2.50
   6  11  -3    1.13    1.22
   6  11  -2    2.39    1.75
   6  11  -1    0.66    1.01
   6  11   0    0.86    0.83
   6  11   1    1.83    1.26
   6  11   2    4.20    2.01
   6  11   3    1.98    1.56
   6  11   4    0.73    0.49
   6  11   5   11.09    3.19
   6  11   6    2.09    1.57
   6  11   7   11.91    3.29
   6  11   8    0.25    0.62
   6  11   9    0.61    0.62
   6  12 -11    7.99    2.42
   6  12 -10   10.48    2.91
   6  12  -9    5.75    2.29
   6  12  -8    3.65    2.13
   6  12  -7    6.32    3.06
   6  12  -6    0.58    1.51
   6  12  -5    2.19    1.94
   6  12  -4   17.44    4.95
   6  12  -3   23.75    5.56
   6  12  -2    7.24    3.04
   6  12  -1   15.92    4.26
   6  12   0   12.12    3.68
   6  12   1    0.51    0.62
   6  12   2    0.92    1.07
   6  12   3   11.80    3.31
   6  12   4    6.57    2.72
   6  12   5   13.39    3.72
   6  12   6   16.87    4.04
   6  12   7   11.22    3.14
   6  13  -8    0.47    0.29
   6  13  -7    0.08    0.93
   6  13  -6    0.02    0.48
   6  13  -5    1.60    1.53
   6  13  -4    4.98    2.62
   6  13  -3    9.88    3.57
   6  13  -2    7.43    2.87
   6  13  -1    0.86    1.31
   6  13   0    2.67    2.06
   6  13   1    0.50    1.00
   6  13   2   -0.11    0.57
   6  13   3    2.36    1.55
   6  13   4    4.41    2.16
  -7  13   6    9.35    3.22
  -7  13   5    2.38    1.08
  -7  13   4   -0.37    0.46
  -7  13   3   -0.49    0.61
  -7  13   2    1.93    1.38
  -7  13   1    2.55    1.28
  -7  13   0    9.72    3.01
  -7  13  -1    0.32    0.82
  -7  13  -2    2.07    1.55
  -7  12   9    2.84    1.51
  -7  12   8   -0.74    0.90
  -7  12   7    0.01    0.46
  -7  12   6    5.29    1.82
  -7  12   5    2.01    1.06
  -7  12   4    2.66    1.38
  -7  12   3    3.62    1.68
  -7  12   2    3.40    1.79
  -7  12   1    1.99    1.16
  -7  12   0    2.96    1.46
  -7  12  -1    1.57    0.75
  -7  12  -2    3.80    1.76
  -7  12  -3    1.08    0.74
  -7  12  -4   -0.56    0.68
  -7  12  -5   -0.05    0.31
  -7  12  -6    0.81    0.71
  -7  11  11   -0.68    1.09
  -7  11  10    0.97    1.04
  -7  11   9   10.59    2.85
  -7  11   8   10.06    2.80
  -7  11   7   15.60    3.33
  -7  11   6    3.57    1.70
  -7  11   5    2.01    1.32
  -7  11   4   -1.21    0.87
  -7  11   3    1.89    0.93
  -7  11   2    1.89    0.94
  -7  11   1    7.52    2.35
  -7  11   0   19.70    3.61
  -7  11  -1    4.35    1.61
  -7  11  -2    1.56    1.29
  -7  11  -3   -0.26    0.14
  -7  11  -4    0.82    0.55
  -7  11  -5    0.37    0.31
  -7  11  -6   13.89    2.83
  -7  11  -7   11.28    2.54
  -7  11  -8    1.64    1.18
  -7  10  13   -1.27    0.75
  -7  10  12   -0.38    0.73
  -7  10  11    7.66    2.33
  -7  10  10    7.39    2.41
  -7  10   9    5.52    1.92
  -7  10   8   -1.28    0.97
  -7  10   7   -0.21    0.30
  -7  10   6   -0.09    0.63
  -7  10   5    1.22    0.99
  -7  10   4    1.62    1.06
  -7  10   3   12.96    3.09
  -7  10   2   13.28    2.98
  -7  10   1    0.95    0.95
  -7  10   0   -0.45    0.75
  -7  10  -1    2.63    1.50
  -7  10  -2    0.95    0.45
  -7  10  -3    1.60    0.80
  -7  10  -4    3.06    1.25
  -7  10  -5    3.52    1.27
  -7  10  -6    1.14    0.94
  -7  10  -7    1.14    0.71
  -7  10  -8    2.56    1.18
  -7  10  -9    5.03    2.30
  -7   9  14   -0.69    1.01
  -7   9  13    2.63    1.43
  -7   9  12    2.05    1.27
  -7   9  11   12.86    3.04
  -7   9  10   18.09    3.59
  -7   9   9    7.55    2.30
  -7   9   8   16.67    3.53
  -7   9   7   -0.22    0.38
  -7   9   6   11.01    2.83
  -7   9   5    9.78    2.53
  -7   9   4    8.41    2.35
  -7   9   3   11.15    2.72
  -7   9   2   10.48    2.56
  -7   9   1   12.12    2.82
  -7   9   0   21.20    3.64
  -7   9  -1    4.45    1.49
  -7   9  -2   19.15    3.36
  -7   9  -3   11.62    2.58
  -7   9  -4    5.26    1.72
  -7   9  -5    8.84    2.21
  -7   9  -6    5.90    1.93
  -7   9  -7    9.13    2.28
  -7   9  -8    1.16    0.83
  -7   9  -9    8.62    2.76
  -7   9  -9   10.57    2.39
  -7   9 -10   -1.34    1.20
  -7   9 -11    4.45    2.23
  -7   8  15    4.69    1.86
  -7   8  14    5.17    1.99
  -7   8  13    0.09    0.54
  -7   8  12    4.08    1.64
  -7   8  11   10.91    2.83
  -7   8  10   13.12    2.89
  -7   8   9    6.22    2.10
  -7   8   8    7.28    2.26
  -7   8   7   -0.01    0.17
  -7   8   6    5.89    2.00
  -7   8   5    1.07    0.74
  -7   8   4   32.21    4.50
  -7   8   3   16.14    3.19
  -7   8   2    1.00    0.81
  -7   8   1    3.80    1.75
  -7   8   0    7.79    2.14
  -7   8  -1    1.73    1.18
  -7   8  -2    9.91    2.41
  -7   8  -3    1.16    0.70
  -7   8  -4    6.93    1.93
  -7   8  -5    2.49    1.14
  -7   8  -6    4.60    1.59
  -7   8  -7    4.40    1.50
  -7   8  -8    2.68    1.29
  -7   8  -9    1.95    1.44
  -7   8  -9    1.01    0.77
  -7   8 -10    1.26    1.21
  -7   8 -11    2.47    1.31
  -7   8 -12    0.55    1.01
  -7   7  16    1.72    0.87
  -7   7  15    4.68    1.68
  -7   7  14   17.65    3.41
  -7   7  13   18.53    3.56
  -7   7  12   23.52    4.02
  -7   7  11   10.30    2.47
  -7   7  10    1.28    0.96
  -7   7   9    0.82    0.65
  -7   7   8    1.48    1.07
  -7   7   7   21.23    3.67
  -7   7   6   30.01    4.23
  -7   7   5   16.40    3.17
  -7   7   4   13.65    2.87
  -7   7   3    5.63    2.03
  -7   7   2   -0.01    0.56
  -7   7   1   23.02    3.61
  -7   7   0    9.71    2.29
  -7   7  -1   38.10    4.45
  -7   7  -2   30.03    3.95
  -7   7  -3   11.12    2.40
  -7   7  -4    4.38    1.50
  -7   7  -5    9.67    2.29
  -7   7  -6    4.99    1.67
  -7   7  -7    0.26    0.64
  -7   7  -8   30.61    4.00
  -7   7  -9   11.27    2.40
  -7   7 -10   10.94    2.43
  -7   7 -10   12.19    3.59
  -7   7 -11    2.13    1.47
  -7   7 -12    3.24    1.82
  -7   6  17    1.58    0.98
  -7   6  16    9.61    2.37
  -7   6  15    7.29    2.10
  -7   6  14    2.86    1.39
  -7   6  13    1.25    0.98
  -7   6  12    0.01    0.41
  -7   6  11   18.38    3.38
  -7   6  10    1.57    1.26
  -7   6   9   20.43    3.52
  -7   6   8    5.58    2.05
  -7   6   7   36.99    4.55
  -7   6   6    4.36    1.57
  -7   6   5    0.93    0.76
  -7   6   4   15.80    2.84
  -7   6   3   12.12    2.62
  -7   6   2    7.04    1.94
  -7   6   1   27.98    3.91
  -7   6   0    5.39    1.69
  -7   6  -1    0.14    0.47
  -7   6  -2    0.95    0.64
  -7   6  -3    7.04    1.88
  -7   6  -4   22.90    3.34
  -7   6  -5    3.36    1.35
  -7   6  -6    0.40    0.50
  -7   6  -7    2.99    1.40
  -7   6  -8    2.03    0.81
  -7   6  -9    3.91    1.48
  -7   6 -10    2.63    1.52
  -7   6 -10    1.92    1.09
  -7   6 -11    3.14    1.23
  -7   6 -11    4.03    2.06
  -7   6 -12    6.04    2.29
  -7   6 -13    1.09    0.74
  -7   5  16    3.25    1.50
  -7   5  15   19.25    3.44
  -7   5  14    9.79    2.51
  -7   5  13   18.03    3.35
  -7   5  12    8.46    2.31
  -7   5  11    5.98    2.01
  -7   5  10    8.13    2.40
  -7   5   9   16.34    3.09
  -7   5   8    2.32    0.76
  -7   5   7   65.80    5.95
  -7   5   6   54.17    5.47
  -7   5   5   20.83    3.31
  -7   5   4   18.47    3.14
  -7   5   3   12.50    2.51
  -7   5   2    0.49    0.61
  -7   5   1   15.55    2.68
  -7   5   0   55.86    4.99
  -7   5  -1   55.71    5.12
  -7   5  -2   27.73    3.66
  -7   5  -3   13.11    2.46
  -7   5  -4    1.06    0.71
  -7   5  -5    4.71    1.49
  -7   5  -6   25.36    3.59
  -7   5  -7   21.03    3.13
  -7   5  -8   30.83    3.90
  -7   5  -9   15.15    2.74
  -7   5 -10    7.85    2.36
  -7   5 -10    1.98    1.03
  -7   5 -11    1.94    0.87
  -7   5 -11   11.61    3.06
  -7   5 -12    0.08    0.56
  -7   5 -12    2.74    1.69
  -7   5 -13    0.95    0.99
  -7   5 -14    8.01    2.43
  -7   4  16    5.41    1.67
  -7   4  15    6.55    1.96
  -7   4  14    8.92    2.20
  -7   4  13   12.55    2.63
  -7   4  12    0.32    0.52
  -7   4  11    3.60    1.32
  -7   4  10    2.72    1.34
  -7   4   9   16.39    2.92
  -7   4   8    5.20    1.72
  -7   4   7   15.87    2.84
  -7   4   6    5.94    1.73
  -7   4   5    1.03    0.84
  -7   4   4   20.00    3.10
  -7   4   3   16.58    2.70
  -7   4   2   38.86    4.10
  -7   4   1    7.35    1.81
  -7   4   0    4.88    1.52
  -7   4  -1    0.20    0.17
  -7   4  -2    0.74    0.35
  -7   4  -3   26.07    3.45
  -7   4  -4    1.65    0.95
  -7   4  -5    6.26    1.71
  -7   4  -6    0.85    0.45
  -7   4  -7    3.58    1.36
  -7   4  -8    1.81    0.84
  -7   4  -9   11.76    2.37
  -7   4 -10    1.54    0.73
  -7   4 -10    6.62    1.85
  -7   4 -11    3.05    1.19
  -7   4 -11    5.81    1.93
  -7   4 -12    1.18    0.67
  -7   4 -12    5.79    2.04
  -7   4 -13    4.21    1.81
  -7   4 -14    9.12    2.71
   7  -3 -18   30.79    5.52
   7  -3 -17   17.79    3.99
   7  -3 -16    8.83    2.75
  -7   3  15   27.96    3.85
   7  -3 -15   28.56    5.17
  -7   3  14    3.70    1.36
   7  -3 -14    5.70    2.13
  -7   3  13    3.23    1.38
  -7   3  12   25.09    3.66
  -7   3  11   43.99    4.73
  -7   3  10   63.99    5.71
  -7   3   9   16.69    2.90
  -7   3   8   28.29    3.76
  -7   3   7   29.84    3.76
  -7   3   6    3.54    1.39
  -7   3   5   36.23    3.99
  -7   3   4   46.44    4.40
  -7   3   3   18.98    2.79
  -7   3   2   78.72    5.75
  -7   3   1   25.86    3.31
  -7   3   0   82.43    6.07
  -7   3  -1   14.67    2.48
   7  -3   1   10.24    1.22
  -7   3  -2   18.07    2.83
   7  -3   2   14.32    1.56
  -7   3  -3   37.66    4.16
   7  -3   3   29.80    2.50
  -7   3  -4   44.81    4.57
   7  -3   4   37.13    3.05
  -7   3  -5   27.05    3.53
   7  -3   5   20.29    2.46
  -7   3  -6   18.88    2.94
   7  -3   6   14.96    2.24
  -7   3  -7   14.70    2.62
   7  -3   7   14.29    2.29
  -7   3  -8   31.19    3.84
   7  -3   8   30.26    3.46
   7  -3   9    1.28    0.64
  -7   3  -9    0.90    0.55
   7  -3  10    6.62    1.75
  -7   3 -10    5.94    1.82
  -7   3 -10    5.30    1.76
  -7   3 -11   10.80    2.27
   7  -3  11   13.46    2.69
  -7   3 -12    1.92    1.02
  -7   3 -12    5.90    1.90
   7  -3  12    3.23    1.37
   7  -2 -19    1.77    1.33
   7  -2 -18    1.41    1.08
   7  -2 -17    0.51    0.89
   7  -2 -16    2.57    1.64
   7  -2 -15    5.55    1.93
   7  -2 -14    1.79    1.51
  -7   2  14    1.78    0.78
   7  -2 -13    5.20    2.13
  -7   2  13    4.69    1.43
   7  -2 -12    7.21    2.51
  -7   2  12    6.45    1.68
  -7   2  11    3.52    1.18
   7  -2 -11    5.97    2.02
  -7   2  10   18.89    2.87
  -7   2   9    4.73    1.55
  -7   2   8    7.74    1.88
  -7   2   7   59.38    4.90
  -7   2   6    0.44    0.61
   7  -2  -6    0.61    0.37
  -7   2   5    4.12    1.30
   7  -2  -5    4.26    0.80
   7  -2  -4    5.89    0.79
  -7   2   4    5.14    1.33
   7  -2  -3    0.40    0.21
  -7   2   3    2.06    1.03
   7  -2  -2   15.00    1.16
  -7   2   2   15.78    2.56
   7  -2  -1    6.03    0.75
  -7   2   1    6.65    1.65
   7  -2   0    1.10    0.39
  -7   2   0    2.05    1.03
   7  -2   1    2.41    0.66
  -7   2  -1    2.84    1.21
   7  -2   2    0.47    0.33
  -7   2  -2    0.30    0.36
   7  -2   3   21.36    2.24
  -7   2  -3   21.88    3.22
   7  -2   4   28.70    2.79
  -7   2  -4   30.57    3.75
   7  -2   5    2.40    0.85
  -7   2  -5    2.04    1.00
   7  -2   6    3.12    1.13
  -7   2  -6    4.29    1.44
   7  -2   7    1.09    0.65
  -7   2  -7    0.49    0.26
   7  -2   8    1.95    0.89
  -7   2  -8    2.59    0.94
  -7   2  -9    7.83    1.95
   7  -2   9   10.25    2.22
   7  -2  10    0.39    0.44
  -7   2 -10    1.82    1.02
  -7   2 -10    0.54    0.53
   7  -2  11    1.60    0.93
  -7   2 -11    4.78    1.53
  -7   2 -11    2.11    1.01
   7  -2  12    0.88    0.69
   7  -2  13    0.73    0.52
   7  -2  14   -0.66    0.86
   7  -2  15    3.59    1.72
   7  -1 -19   16.40    4.11
   7  -1 -18   10.40    3.22
   7  -1 -17    1.05    1.16
   7  -1 -16    0.97    0.63
   7  -1 -15    4.64    1.95
   7  -1 -14   15.56    3.60
  -7   1  14   12.80    2.36
   7  -1 -13   60.95    6.64
  -7   1  13   48.58    4.53
   7  -1 -12   43.42    5.37
  -7   1  12   34.10    3.70
   7  -1 -11   54.64    6.14
  -7   1  11   45.99    4.33
   7  -1 -10    6.04    1.93
  -7   1  10    5.96    1.54
   7  -1  -9    8.27    2.20
  -7   1   9    6.37    1.60
  -7   1   8    9.55    2.07
  -7   1   7   21.98    3.23
  -7   1   6   75.07    5.60
   7  -1  -6   64.75    4.41
  -7   1   5   58.07    4.90
   7  -1  -5   56.88    3.86
   7  -1  -4  104.78    4.76
  -7   1   4  104.04    6.41
   7  -1  -3   43.44    2.89
  -7   1   3   41.88    4.08
   7  -1  -2    7.83    1.22
  -7   1   2    8.34    1.85
   7  -1  -1    6.47    1.15
  -7   1   1   11.31    2.36
   7  -1   0   18.28    1.98
  -7   1   0   27.46    3.82
   7  -1   1   46.84    3.13
  -7   1  -1   50.32    4.65
   7  -1   2  102.92    4.63
  -7   1  -2  111.58    7.01
   7  -1   3   76.61    4.24
  -7   1  -3   79.51    5.92
   7  -1   4   13.34    1.88
  -7   1  -4   14.20    2.56
   7  -1   5    2.12    0.78
  -7   1  -5    1.59    0.92
   7  -1   6    1.38    0.75
  -7   1  -6    0.53    0.03
   7  -1   7   16.80    2.59
  -7   1  -7   16.90    2.83
   7  -1   8   12.05    2.28
  -7   1  -8    9.57    2.22
   7  -1   9   46.92    4.69
  -7   1  -9   43.64    4.69
   7  -1  10   33.52    4.09
  -7   1 -10   28.44    3.82
  -7   1 -10   29.69    3.82
   7  -1  11   14.27    2.77
   7  -1  12    0.61    0.81
   7  -1  13    4.80    1.72
   7  -1  14    2.91    1.25
   7  -1  15    2.02    1.18
   7   0 -19    0.93    0.86
   7   0 -18    3.12    1.70
   7   0 -17    0.60    1.14
   7   0 -16    3.51    1.58
   7   0 -15    3.54    1.69
   7   0 -14    2.84    1.22
   7   0 -13    0.42    0.05
  -7   0  13    0.65    0.62
   7   0 -12   10.81    2.67
  -7   0  12   10.25    1.94
   7   0 -11    2.57    1.31
  -7   0  11    0.44    0.33
   7   0 -10    1.95    1.17
  -7   0  10   -0.29    0.33
   7   0  -9    4.51    1.55
  -7   0   9    3.60    1.23
  -7   0   8   13.59    2.42
   7   0  -8   17.99    3.16
  -7   0   7   15.61    2.44
   7   0  -7   18.64    3.13
  -7   0   6    3.38    1.16
  -7   0   5    0.95    0.83
   7   0  -5    0.41    0.38
  -7   0   4    3.82    1.22
   7   0  -4    3.81    1.10
  -7   0   3    0.07    0.28
   7   0  -3    0.31    0.43
  -7   0   2    3.50    1.22
   7   0  -2    2.84    0.88
  -7   0   1   -0.14    0.50
   7   0  -1    0.15    0.26
   7   0   0    0.50    0.44
  -7   0   0    0.72    0.60
   7   0   1    1.76    0.68
  -7   0  -1    1.30    0.46
   7   0   2    6.86    1.41
  -7   0  -2    6.62    1.71
   7   0   3    0.55    0.57
  -7   0  -3    0.90    0.72
   7   0   4   17.92    2.30
  -7   0  -4   18.08    2.88
   7   0   5    1.87    0.80
  -7   0  -5    1.86    0.92
   7   0   6    0.96    0.63
  -7   0  -6    0.57    0.49
   7   0   7    8.56    1.83
  -7   0  -7    8.15    2.02
   7   0   8    1.59    0.88
  -7   0  -8    1.30    0.92
   7   0   9    1.60    0.66
  -7   0  -9    3.61    1.35
  -7   0  -9    2.29    0.89
   7   0  10    0.27    0.27
   7   0  11    0.20    0.49
   7   0  12    4.25    1.70
   7   0  13    0.88    0.81
   7   0  14    0.57    0.67
   7   0  15    0.03    0.36
   7   1 -19    3.99    2.04
   7   1 -18    0.46    0.74
   7   1 -17    5.79    2.32
   7   1 -16   11.06    3.01
   7   1 -15   20.03    3.99
   7   1 -14   23.31    4.15
   7   1 -13   30.83    4.88
   7   1 -12   22.81    4.03
  -7  -1  12   17.67    2.53
   7   1 -11   13.64    3.22
  -7  -1  11    7.63    1.83
   7   1 -10    5.65    1.94
  -7  -1  10    3.56    1.20
   7   1  -9    9.71    2.31
  -7  -1   9   10.70    1.98
   7   1  -8   26.70    3.70
  -7  -1   8   24.20    3.08
   7   1  -7   59.47    5.60
  -7  -1   7   53.22    4.51
  -7  -1   6   83.25    5.72
   7   1  -6   95.60    6.93
  -7  -1   5   72.53    5.34
   7   1  -5   70.33    5.51
  -7  -1   4   19.94    2.95
   7   1  -4   18.31    2.91
  -7  -1   3   22.98    3.13
   7   1  -3   19.93    2.83
  -7  -1   2   19.69    2.85
   7   1  -2   18.66    2.58
   7   1  -1   47.34    4.05
  -7  -1   1   49.29    4.55
   7   1   0   56.86    4.39
  -7  -1   0   58.21    4.92
   7   1   1   44.80    3.95
  -7  -1  -1   47.99    4.56
   7   1   2   76.94    5.17
  -7  -1  -2   81.17    5.97
   7   1   3   25.64    2.99
  -7  -1  -3   27.31    3.57
   7   1   4   14.14    2.24
  -7  -1  -4   13.57    2.46
   7   1   5    4.69    1.34
  -7  -1  -5    4.02    1.47
   7   1   6    3.92    1.26
  -7  -1  -6    3.84    1.53
   7   1   7   25.82    3.21
  -7  -1  -7   25.20    3.54
   7   1   8   21.57    2.98
  -7  -1  -8   23.36    3.60
   7   1   9   29.32    3.66
   7   1  10   12.15    2.49
   7   1  11    0.62    0.38
   7   1  12    2.40    1.19
   7   1  13    1.72    1.11
   7   1  14    0.70    0.90
   7   1  15    9.37    2.56
   7   2 -19    4.79    2.33
   7   2 -18    0.27    0.52
   7   2 -17    0.43    0.42
   7   2 -16    5.39    2.11
   7   2 -15    2.20    1.43
   7   2 -14    1.13    0.66
   7   2 -13   18.13    3.70
   7   2 -12    3.26    1.60
  -7  -2  12    3.33    1.13
   7   2 -11    2.43    1.18
  -7  -2  11    1.98    0.84
   7   2 -10    0.52    0.60
  -7  -2  10    0.11    0.22
   7   2  -9    7.11    2.00
  -7  -2   9    5.22    1.46
   7   2  -8   49.94    5.22
  -7  -2   8   50.02    4.25
   7   2  -7    5.42    1.88
  -7  -2   7    3.37    1.24
   7   2  -6   11.98    2.36
  -7  -2   6   10.26    1.98
   7   2  -5   10.09    2.10
  -7  -2   5    7.42    1.68
   7   2  -5    8.37    2.10
  -7  -2   4    8.03    1.71
   7   2  -4    7.19    1.80
  -7  -2   3   31.32    3.49
   7   2  -3   32.19    3.86
  -7  -2   2    1.44    0.59
   7   2  -2    1.11    0.70
  -7  -2   1    0.72    0.51
   7   2  -1   -0.03    0.46
  -7  -2   0    2.33    1.08
   7   2   0    2.08    0.84
   7   2   1   10.86    2.10
  -7  -2  -1   11.81    2.28
   7   2   2   15.25    2.47
  -7  -2  -2   14.39    2.51
   7   2   3   25.55    3.22
  -7  -2  -3   23.74    3.33
   7   2   4    0.99    0.92
  -7  -2  -4    1.38    1.11
   7   2   5    8.43    1.86
  -7  -2  -5    7.46    1.95
   7   2   6    0.01    0.38
  -7  -2  -6   -0.55    0.71
   7   2   7    1.87    0.88
   7   2   8   15.73    2.59
   7   2   9    1.05    0.76
   7   2  10    2.04    0.80
   7   2  11    9.82    2.26
   7   2  12    0.74    0.58
   7   2  13    0.77    0.85
   7   2  14    0.66    0.76
   7   3 -18    7.60    2.72
   7   3 -17   22.56    4.44
   7   3 -16    7.50    2.48
   7   3 -15    6.93    2.61
   7   3 -14    3.24    1.45
   7   3 -13    2.36    1.20
   7   3 -12    8.93    2.44
   7   3 -11    7.70    2.22
  -7  -3  11    6.62    1.43
   7   3 -10   19.59    3.40
  -7  -3  10   16.83    2.32
   7   3  -9   32.25    4.31
  -7  -3   9   30.41    3.20
   7   3  -8   51.27    5.27
  -7  -3   8   43.78    3.86
   7   3  -7   14.66    2.65
  -7  -3   7   13.82    2.19
   7   3  -6   16.25    2.73
  -7  -3   6   15.36    2.34
   7   3  -5   16.45    3.07
  -7  -3   5   13.71    2.28
   7   3  -5   13.97    3.11
  -7  -3   4   70.99    5.19
   7   3  -4   74.41    6.46
   7   3  -4   66.01    5.25
  -7  -3   3   22.65    2.97
   7   3  -3   23.99    3.72
  -7  -3   2   92.60    6.11
   7   3  -2   86.70    6.56
  -7  -3   1   44.17    4.27
   7   3  -1   43.38    4.73
  -7  -3   0   15.23    2.67
   7   3   0   14.16    2.59
   7   3   1   76.95    6.02
  -7  -3  -1   77.47    5.83
  -7  -3  -2    7.58    1.86
   7   3   2    6.82    1.82
   7   3   3   11.96    2.39
  -7  -3  -3   11.93    2.38
   7   3   4   71.62    5.87
  -7  -3  -4   69.58    5.91
   7   3   5   25.36    3.50
   7   3   6   27.81    3.64
   7   3   7   26.96    3.73
   7   3   8   16.00    2.88
   7   3   9   11.76    2.39
   7   3  10    0.74    0.40
   7   3  11   24.44    3.70
   7   3  12    4.80    1.59
   7   3  13    7.07    2.16
   7   3  14   12.25    2.82
   7   4 -18   10.30    2.89
   7   4 -17    0.77    0.72
   7   4 -16    3.33    1.56
   7   4 -15    1.35    1.02
   7   4 -14    1.20    1.12
   7   4 -13   10.63    2.69
   7   4 -12   -0.30    0.25
   7   4 -11    0.14    0.27
  -7  -4  10    1.18    0.59
   7   4 -10    1.11    0.80
   7   4  -9    2.26    1.00
  -7  -4   9    2.91    0.96
   7   4  -8    2.02    1.17
  -7  -4   8    2.46    0.89
   7   4  -7   33.67    4.07
  -7  -4   7   34.40    3.45
   7   4  -6    2.76    1.16
  -7  -4   6    3.74    1.17
   7   4  -5    5.28    1.50
  -7  -4   5    4.95    1.36
   7   4  -5    4.90    1.70
   7   4  -4   11.54    2.16
  -7  -4   4   12.35    2.17
   7   4  -4   13.49    2.82
  -7  -4   3   37.77    3.83
   7   4  -3   38.76    4.92
   7   4  -3   34.22    3.66
  -7  -4   2    0.41    0.54
   7   4  -2    0.20    0.69
  -7  -4   1   31.14    3.61
   7   4  -1   28.04    4.02
  -7  -4   0    1.58    0.93
   7   4   0    1.45    1.00
  -7  -4  -1   -0.23    0.09
   7   4   1    0.08    0.08
   7   4   2    8.57    2.20
   7   4   3    2.34    1.13
   7   4   4    3.81    1.41
   7   4   5    0.21    0.27
   7   4   6    1.87    1.08
   7   4   7    0.33    0.51
   7   4   8    3.76    1.48
   7   4   9   -0.15    0.29
   7   4  10   12.84    2.74
   7   4  11   -0.02    0.41
   7   4  12    0.65    0.68
   7   4  13    3.48    1.58
   7   4  14    8.25    2.25
   7   5 -18    2.52    1.36
   7   5 -17    1.67    1.47
   7   5 -16   -0.84    1.06
   7   5 -15    1.05    0.98
   7   5 -14    0.72    0.70
   7   5 -13    9.56    2.53
   7   5 -12   17.97    3.44
   7   5 -11   13.41    2.87
   7   5 -10   37.79    4.79
  -7  -5   9    5.44    1.33
   7   5  -9    3.44    1.37
   7   5  -8   -0.63    0.61
  -7  -5   8   -0.35    0.31
  -7  -5   7    0.72    0.71
   7   5  -7    0.99    0.63
  -7  -5   6    0.79    0.51
   7   5  -6    1.19    0.82
   7   5  -6    0.66    1.32
   7   5  -5   20.70    3.00
  -7  -5   5   23.28    3.00
   7   5  -5   25.56    4.39
   7   5  -4  100.17    6.52
  -7  -5   4  112.24    6.69
   7   5  -4  119.67    9.27
   7   5  -3   64.07    4.93
   7   5  -3   80.94    7.60
   7   5  -2   20.06    3.70
   7   5  -2   15.64    2.39
   7   5  -1   10.72    2.53
   7   5   0    0.98    1.45
   7   5   1    2.40    1.21
   7   5   2   36.07    4.59
   7   5   3  104.19    8.01
   7   5   4   30.41    4.21
   7   5   5   12.35    2.71
   7   5   6    3.27    1.46
   7   5   7    3.27    1.39
   7   5   8    0.22    0.47
   7   5   9    5.88    1.86
   7   5  10   17.09    3.32
   7   5  11   30.94    4.36
   7   5  12    9.28    2.43
   7   5  13    2.75    1.43
   7   6 -17   -0.65    0.39
   7   6 -16   -0.37    0.89
   7   6 -15   -0.03    0.65
   7   6 -14   -1.61    0.97
   7   6 -13   -1.13    0.93
   7   6 -12    0.45    0.18
   7   6 -11    5.67    1.96
   7   6 -10    6.42    2.20
   7   6  -9   12.57    2.82
   7   6  -8    3.31    1.28
   7   6  -7   -0.15    0.41
   7   6  -6    1.66    0.86
   7   6  -6    2.31    1.40
   7   6  -5    0.76    0.44
   7   6  -5    1.70    0.72
   7   6  -4   45.35    4.32
   7   6  -4   56.97    6.77
   7   6  -3    0.00    0.26
   7   6  -3    0.17    0.55
   7   6  -2   -0.09    0.40
   7   6  -2    0.28    0.70
   7   6  -1   11.98    3.00
   7   6   0    7.22    2.32
   7   6   1    0.17    0.40
   7   6   2   24.63    4.10
   7   6   3    2.68    1.37
   7   6   4   40.85    5.17
   7   6   5    1.21    0.60
   7   6   6   16.99    3.29
   7   6   7    6.18    2.00
   7   6   8    4.10    1.66
   7   6   9    1.97    1.14
   7   6  10    4.42    1.69
   7   6  11    1.35    1.13
   7   6  12    1.74    0.96
   7   7 -16    3.15    1.26
   7   7 -15    2.43    0.66
   7   7 -14    6.25    2.05
   7   7 -13    1.39    0.81
   7   7 -12   12.18    2.90
   7   7 -11    0.31    0.77
   7   7 -10    0.39    0.65
   7   7  -9    1.09    0.75
   7   7  -8   13.80    2.75
   7   7  -7    8.13    2.07
   7   7  -6   12.88    2.47
   7   7  -6   16.60    4.00
   7   7  -5   40.81    4.38
   7   7  -5   57.03    7.18
   7   7  -4   30.05    3.55
   7   7  -4   36.57    5.65
   7   7  -3    1.98    0.78
   7   7  -3    2.43    1.37
   7   7  -2    0.38    0.29
   7   7  -2    1.34    1.27
   7   7  -1   15.25    3.51
   7   7   0   16.26    3.76
   7   7   1   18.84    3.84
   7   7   2   26.68    4.46
   7   7   3   30.82    4.75
   7   7   4   21.14    3.99
   7   7   5    2.14    1.32
   7   7   6    0.54    0.65
   7   7   7   11.20    2.80
   7   7   8   12.19    2.85
   7   7   9    8.16    2.58
   7   7  10   30.44    4.75
   7   7  11   18.40    3.73
   7   7  12    0.34    0.56
   7   8 -15    1.61    1.22
   7   8 -14    0.50    0.42
   7   8 -13   -0.08    0.26
   7   8 -12   10.24    2.71
   7   8 -11   12.73    2.86
   7   8 -10    3.32    1.43
   7   8  -9    4.16    1.40
   7   8  -8    0.98    0.99
   7   8  -7    2.04    1.00
   7   8  -7    2.59    1.52
   7   8  -6    0.11    0.36
   7   8  -6    0.24    0.84
   7   8  -5    9.45    2.13
   7   8  -5   16.64    4.00
   7   8  -4    3.23    1.04
   7   8  -4    5.68    2.39
   7   8  -3   11.54    3.36
   7   8  -2    7.31    2.61
   7   8  -1    1.78    1.34
   7   8   0    4.63    1.91
   7   8   1    5.87    2.14
   7   8   2    6.11    2.20
   7   8   3    5.44    2.12
   7   8   4    1.20    1.02
   7   8   5   11.59    2.99
   7   8   6    6.35    2.26
   7   8   7    0.42    0.47
   7   8   8    1.96    1.33
   7   8   9    4.70    1.94
   7   8  10   -0.03    0.21
   7   8  11    0.05    0.58
   7   9 -14    0.95    1.04
   7   9 -13   -0.28    0.99
   7   9 -12   -0.90    0.93
   7   9 -11    2.14    0.80
   7   9 -10    1.57    0.91
   7   9  -9   10.31    2.40
   7   9  -8   10.98    2.47
   7   9  -7    2.09    0.90
   7   9  -7    5.40    2.43
   7   9  -6    1.76    0.99
   7   9  -6    3.71    2.16
   7   9  -5    6.81    2.48
   7   9  -4   10.81    3.47
   7   9  -3   13.99    3.98
   7   9  -2   18.53    4.21
   7   9  -1   27.66    5.17
   7   9   0    3.30    1.74
   7   9   1    3.98    1.79
   7   9   2    6.75    2.61
   7   9   3    6.88    2.48
   7   9   4   11.32    3.24
   7   9   5   13.82    3.39
   7   9   6   23.86    4.54
   7   9   7    3.94    1.83
   7   9   8    1.14    0.77
   7   9   9   15.20    3.46
   7   9  10    4.16    1.88
   7  10 -13   -0.19    0.72
   7  10 -12    0.27    0.26
   7  10 -11   -0.14    0.13
   7  10 -10    5.15    1.89
   7  10  -9    0.76    0.41
   7  10  -8    0.24    0.34
   7  10  -8    0.97    1.11
   7  10  -7    1.90    1.07
   7  10  -7    1.48    1.17
   7  10  -6    0.63    0.15
   7  10  -5    2.94    1.91
   7  10  -4    1.18    1.51
   7  10  -3    7.97    2.91
   7  10  -2    4.29    2.18
   7  10  -1    1.08    0.80
   7  10   0   -0.83    1.21
   7  10   1    6.76    2.54
   7  10   2   -0.24    0.48
   7  10   3   -0.37    1.07
   7  10   4   11.93    3.41
   7  10   5   13.53    3.65
   7  10   6    8.06    2.70
   7  10   7    0.66    0.34
   7  10   8    0.46    0.54
   7  11 -11    3.83    1.70
   7  11 -10    6.64    2.09
   7  11  -9    0.50    0.56
   7  11  -9    3.32    2.31
   7  11  -8    1.42    1.92
   7  11  -7   -0.38    1.07
   7  11  -6    1.67    0.96
   7  11  -5    4.23    2.60
   7  11  -4   10.52    3.69
   7  11  -3   18.23    4.82
   7  11  -2   14.61    4.14
   7  11  -1    3.14    1.82
   7  11   0    0.26    0.26
   7  11   1   -0.59    0.19
   7  11   2    1.54    1.31
   7  11   3    5.49    2.35
   7  11   4    8.92    2.86
   7  11   5   12.60    3.66
   7  11   6    3.07    1.95
   7  12  -8    1.80    1.65
   7  12  -7    3.87    2.21
   7  12  -6    0.00    0.41
   7  12  -5   -0.12    0.75
   7  12  -4    4.10    2.50
   7  12  -3   16.67    4.67
   7  12  -2   11.29    3.82
   7  12  -1    2.44    1.97
   7  12   0    1.88    1.74
   7  12   1    0.13    0.90
   7  12   2   -0.31    0.62
   7  12   3    5.65    2.41
   7  12   4   20.58    4.76
  -8  12   5    0.74    1.03
  -8  12   4    2.38    1.52
  -8  12   3    3.06    1.94
  -8  12   2    8.01    2.65
  -8  12   1    6.73    2.31
  -8  12   0   11.08    2.95
  -8  12  -1    0.58    1.02
  -8  11   9    1.07    0.77
  -8  11   8   -0.05    0.67
  -8  11   7    0.74    0.74
  -8  11   6    2.27    1.38
  -8  11   5    1.03    1.15
  -8  11   4    0.22    0.65
  -8  11   3    0.82    0.73
  -8  11   2   -0.64    1.09
  -8  11   1   -0.99    1.21
  -8  11   0   -0.57    1.02
  -8  11  -1    0.11    0.61
  -8  11  -2    1.49    1.09
  -8  11  -3    0.79    0.64
  -8  11  -4    0.85    0.74
  -8  11  -5   -0.25    0.65
  -8  10  11    5.28    2.18
  -8  10  10    5.30    2.45
  -8  10   9   13.09    3.38
  -8  10   8   13.76    3.09
  -8  10   7    4.67    1.88
  -8  10   6   13.09    3.28
  -8  10   5   17.65    3.78
  -8  10   4    3.90    1.22
  -8  10   3    0.46    1.38
  -8  10   2    7.74    2.45
  -8  10   1    8.27    2.44
  -8  10   0    2.15    0.94
  -8  10  -1    9.49    2.67
  -8  10  -2    7.81    2.25
  -8  10  -3    2.73    1.40
  -8  10  -4    1.67    1.07
  -8  10  -5    6.50    1.94
  -8  10  -6   13.99    2.87
  -8  10  -7    1.53    0.98
  -8   9  13    0.54    0.66
  -8   9  12    1.49    1.12
  -8   9  11   -0.55    0.85
  -8   9  10    0.83    0.87
  -8   9   9    1.92    1.46
  -8   9   8    0.78    0.07
  -8   9   7    1.63    1.05
  -8   9   6    3.62    1.77
  -8   9   5   -0.56    0.71
  -8   9   4   -0.17    0.38
  -8   9   3   -1.10    0.80
  -8   9   2    0.95    0.67
  -8   9   1    0.96    0.32
  -8   9   0   -0.32    0.69
  -8   9  -1   -0.56    0.49
  -8   9  -2    0.36    0.43
  -8   9  -3    0.15    0.67
  -8   9  -4    1.03    0.86
  -8   9  -5    1.31    0.71
  -8   9  -6    0.38    0.45
  -8   9  -7    1.91    1.19
  -8   9  -8    1.63    0.97
  -8   8  14   20.86    4.07
  -8   8  13   24.85    4.50
  -8   8  12    0.69    0.62
  -8   8  11    1.18    1.23
  -8   8  10    1.99    1.29
  -8   8   9   -0.06    0.40
  -8   8   8    6.81    2.23
  -8   8   7   24.17    4.13
  -8   8   6   51.43    6.04
  -8   8   5   11.70    2.95
  -8   8   4    1.84    1.49
  -8   8   3    4.78    1.85
  -8   8   2    2.58    1.49
  -8   8   1    0.16    0.45
  -8   8   0   33.66    4.43
  -8   8  -1   28.30    4.08
  -8   8  -2   11.84    2.61
  -8   8  -3    3.41    1.51
  -8   8  -4    1.62    0.95
  -8   8  -5    8.77    2.26
  -8   8  -6    0.33    0.42
  -8   8  -7   11.91    2.62
  -8   8  -8    7.84    2.13
  -8   8  -9    4.69    1.77
  -8   7  15    2.20    1.43
  -8   7  14    0.52    0.67
  -8   7  13    2.52    1.64
  -8   7  12    0.92    0.50
  -8   7  11    2.78    1.37
  -8   7  10    0.32    0.88
  -8   7   9   -0.89    0.26
  -8   7   8    0.34    0.76
  -8   7   7   11.35    2.72
  -8   7   6    3.19    1.11
  -8   7   5    1.71    1.26
  -8   7   4    0.00    0.43
  -8   7   3   -1.37    1.20
  -8   7   2    0.02    0.20
  -8   7   1   -0.13    0.47
  -8   7   0    3.66    1.54
  -8   7  -1    1.31    0.81
  -8   7  -2    1.53    0.95
  -8   7  -3    0.41    0.50
  -8   7  -4    0.22    0.45
  -8   7  -5    5.52    1.74
  -8   7  -6    4.29    1.64
  -8   7  -7    3.92    1.59
  -8   7  -8    0.86    0.64
  -8   7  -9    0.71    0.41
  -8   7 -10    0.47    0.55
  -8   7 -10   -0.48    0.63
  -8   6  16    1.99    1.32
  -8   6  15   19.04    3.67
  -8   6  14   18.20    3.52
  -8   6  13   -0.10    0.70
  -8   6  12   -1.50    1.37
  -8   6  11   12.52    2.90
  -8   6  10    8.61    2.49
  -8   6   9   10.99    2.54
  -8   6   8   37.69    4.92
  -8   6   7   17.92    3.31
  -8   6   6   50.91    5.67
  -8   6   5    5.41    1.99
  -8   6   4   21.59    3.47
  -8   6   3    0.57    0.46
  -8   6   2   29.13    3.97
  -8   6   1   19.67    3.20
  -8   6   0   59.17    5.71
  -8   6  -1    8.93    2.17
  -8   6  -2   -0.46    0.39
  -8   6  -3    1.69    0.94
  -8   6  -4   15.79    2.99
  -8   6  -5    0.02    0.39
  -8   6  -6    6.05    1.82
  -8   6  -7   34.31    4.48
  -8   6  -8    5.95    1.86
  -8   6  -9    1.68    0.99
  -8   6 -10    0.93    0.87
  -8   6 -10    1.43    1.38
  -8   6 -11   -0.52    0.46
  -8   6 -11    1.40    1.09
  -8   5  16    1.27    0.81
  -8   5  15    3.94    1.40
  -8   5  14    4.45    1.82
  -8   5  13    1.59    1.22
  -8   5  12    2.77    1.35
  -8   5  11    1.80    1.03
  -8   5  10    0.96    0.68
  -8   5   9    2.57    1.28
  -8   5   8   -0.23    0.63
  -8   5   7    1.84    1.07
  -8   5   6    0.45    0.41
  -8   5   5    0.75    0.84
  -8   5   4    0.47    0.68
  -8   5   3   27.29    3.71
  -8   5   2    0.35    0.33
  -8   5   1    2.52    1.23
  -8   5   0    2.92    1.17
  -8   5  -1    9.20    2.07
  -8   5  -2   -0.07    0.12
  -8   5  -3    5.26    1.65
  -8   5  -4    1.98    0.83
  -8   5  -5    0.60    0.41
  -8   5  -6    1.04    0.97
  -8   5  -7   -0.29    0.32
  -8   5  -8    0.48    0.30
  -8   5  -9    0.18    0.30
  -8   5 -10    0.26    0.05
  -8   5 -10   -0.67    0.96
  -8   5 -11   -0.30    0.44
  -8   5 -11    0.66    1.02
  -8   5 -12    2.99    1.50
  -8   5 -12    3.74    1.41
  -8   4  15    4.78    1.60
  -8   4  14    4.76    1.63
  -8   4  13    9.92    2.41
  -8   4  12   40.55    4.92
  -8   4  11   44.75    5.07
  -8   4  10    8.14    2.11
  -8   4   9    6.86    1.83
  -8   4   8   16.15    3.03
  -8   4   7    0.21    0.43
  -8   4   6    3.39    1.44
  -8   4   5   64.47    5.59
  -8   4   4   57.68    5.33
  -8   4   3    0.60    0.10
  -8   4   2    8.92    2.10
  -8   4   1   58.16    5.56
  -8   4   0    7.49    1.98
  -8   4  -1   -0.31    0.76
  -8   4  -2   11.70    2.49
  -8   4  -3   60.48    5.75
  -8   4  -4   11.74    2.54
  -8   4  -5    2.25    1.16
  -8   4  -6   18.60    3.26
  -8   4  -7   22.84    3.52
  -8   4  -8    0.99    0.63
  -8   4  -9    2.74    1.12
  -8   4 -10    0.69    0.53
  -8   4 -10    1.03    0.72
  -8   4 -11    9.29    2.34
  -8   4 -11    9.80    2.62
  -8   4 -12    0.44    0.68
  -8   4 -12    0.41    0.63
  -8   3  15    6.62    1.88
  -8   3  14    0.52    0.63
  -8   3  13    0.09    0.52
  -8   3  12    8.65    2.25
  -8   3  11   -0.19    0.26
  -8   3  10    1.21    0.69
  -8   3   9    1.79    0.95
  -8   3   8   -0.39    0.35
  -8   3   7    4.74    1.39
  -8   3   6    1.31    0.86
  -8   3   5   -0.53    0.77
  -8   3   4   18.90    3.03
  -8   3   3    0.71    0.64
  -8   3   2    1.12    0.77
  -8   3   1    9.19    2.11
  -8   3   0    8.85    2.15
  -8   3  -1    0.36    0.45
  -8   3  -2    6.94    1.95
  -8   3  -3    1.22    0.64
  -8   3  -4    1.56    0.80
  -8   3  -5    0.24    0.49
  -8   3  -6    2.26    1.09
  -8   3  -7    2.04    1.18
  -8   3  -8    6.35    1.88
  -8   3  -9    0.34    0.32
  -8   3 -10    0.41    0.47
  -8   3 -10    1.30    0.84
  -8   3 -11    2.24    1.13
  -8   3 -11    1.48    1.04
  -8   3 -12    5.59    1.83
   8  -2 -17    3.67    2.52
   8  -2 -16    2.79    1.53
   8  -2 -15    0.20    0.42
  -8   2  14    3.32    1.20
   8  -2 -14    6.90    2.33
  -8   2  13   31.87    3.91
  -8   2  12   39.47    4.43
  -8   2  11   -0.26    0.14
  -8   2  10   -0.99    0.72
  -8   2   9    2.36    0.97
  -8   2   8    1.07    0.65
  -8   2   7    4.82    1.50
  -8   2   6   54.27    5.19
  -8   2   5   90.03    6.64
  -8   2   4   26.14    3.54
  -8   2   3    0.55    0.63
  -8   2   2    6.27    1.72
  -8   2   1    5.83    1.67
  -8   2   0   38.02    4.49
  -8   2  -1   33.34    4.23
  -8   2  -2   45.33    4.87
  -8   2  -3   38.89    4.55
  -8   2  -4    0.79    0.82
  -8   2  -5    3.81    1.51
  -8   2  -6    9.96    2.33
  -8   2  -7    1.83    1.10
   8  -2   8    6.49    1.66
  -8   2  -8    6.96    2.00
  -8   2  -9   29.85    4.10
   8  -2   9   29.90    3.74
  -8   2 -10   26.88    3.89
   8  -2  10   25.73    3.62
   8  -2  11    9.15    2.14
  -8   2 -11    9.06    2.28
   8  -2  12    2.71    1.23
   8  -1 -18    0.94    0.80
   8  -1 -17    1.30    1.49
   8  -1 -16    2.56    1.39
   8  -1 -15    1.44    1.68
   8  -1 -14    2.49    1.46
   8  -1 -13    0.35    0.45
  -8   1  13    1.08    0.73
   8  -1 -12   11.05    3.07
  -8   1  12    9.76    2.18
  -8   1  11    1.15    0.57
   8  -1 -11    0.85    0.71
  -8   1  10    6.69    1.78
  -8   1   9    0.49    0.57
  -8   1   8    1.54    0.77
  -8   1   7    0.45    0.24
  -8   1   6   14.41    2.50
  -8   1   5    6.43    1.77
  -8   1   4    1.20    0.61
  -8   1   3   -0.27    0.36
  -8   1   2    1.63    0.88
  -8   1   1    9.87    2.20
  -8   1   0    3.72    1.34
   8  -1   1    6.66    1.23
  -8   1  -1    6.58    1.89
   8  -1   2    9.17    1.47
  -8   1  -2    9.78    2.20
   8  -1   3    0.39    0.27
  -8   1  -3    0.20    0.30
   8  -1   4    1.26    0.72
  -8   1  -4    0.67    0.66
   8  -1   5    0.88    0.60
  -8   1  -5    0.37    0.34
   8  -1   6    6.24    1.58
  -8   1  -6    6.98    1.97
   8  -1   7   10.68    2.12
  -8   1  -7    9.14    2.29
   8  -1   8    1.60    0.88
  -8   1  -8    1.56    1.08
   8  -1   9   -0.09    0.29
  -8   1  -9    0.28    0.79
   8  -1  10    4.40    1.62
  -8   1 -10    3.39    1.41
   8  -1  11    0.17    0.40
   8  -1  12    1.64    0.88
   8  -1  13    0.96    0.93
   8   0 -18    1.53    1.38
   8   0 -17   10.18    3.21
   8   0 -16    2.13    1.31
   8   0 -15    9.14    2.95
   8   0 -14   24.48    4.60
   8   0 -13   42.86    6.12
  -8   0  13   33.09    3.86
   8   0 -12    2.15    1.49
  -8   0  12    0.98    0.48
   8   0 -11   14.54    3.24
  -8   0  11   13.63    2.42
   8   0 -10   15.52    3.22
  -8   0  10   11.97    2.30
  -8   0   9   13.51    2.45
   8   0  -9   15.92    3.26
  -8   0   8   14.32    2.53
  -8   0   7   33.76    3.99
  -8   0   6   43.69    4.48
   8   0  -6   45.88    4.46
   8   0  -5   36.11    3.64
  -8   0   5   33.55    4.07
  -8   0   4    0.65    0.66
   8   0  -4    0.21    0.47
   8   0  -3   24.39    2.71
  -8   0   3   24.88    3.46
   8   0  -2   13.92    2.08
  -8   0   2   12.57    2.63
   8   0  -1    7.36    1.42
  -8   0   1    7.92    1.97
   8   0   0   38.71    3.33
  -8   0   0   39.09    4.36
   8   0   1   48.52    3.82
  -8   0  -1   49.43    4.96
   8   0   2   39.57    3.59
  -8   0  -2   36.14    4.32
   8   0   3    3.36    1.05
  -8   0  -3    4.70    1.69
   8   0   4    1.00    0.72
  -8   0  -4    0.81    0.64
   8   0   5    4.61    1.33
  -8   0  -5    4.67    1.64
   8   0   6    2.11    1.08
  -8   0  -6    0.84    1.00
   8   0   7   12.27    2.22
  -8   0  -7   11.38    2.49
   8   0   8   78.63    6.07
  -8   0  -8   81.23    6.79
   8   0   9   35.78    4.24
  -8   0  -9   34.70    4.57
   8   0  10    2.63    1.36
   8   0  11    2.76    1.23
   8   0  12    0.76    0.84
   8   0  13    1.59    1.02
   8   1 -18    2.35    0.97
   8   1 -17   -0.08    0.46
   8   1 -16    1.97    1.24
   8   1 -15    0.36    0.24
   8   1 -14    4.41    1.88
   8   1 -13    3.05    1.40
   8   1 -12    2.15    1.30
  -8  -1  12    3.38    1.16
   8   1 -11    2.99    1.49
  -8  -1  11    1.22    0.64
   8   1 -10    9.67    2.68
  -8  -1  10    9.22    1.97
   8   1  -9    1.08    1.01
  -8  -1   9    0.92    0.62
   8   1  -8    1.41    0.91
  -8  -1   8    1.70    0.82
  -8  -1   7    4.30    1.30
   8   1  -7    5.27    1.59
  -8  -1   6    5.76    1.62
   8   1  -6    5.68    1.64
  -8  -1   5   -0.06    0.22
   8   1  -5    0.43    0.35
  -8  -1   4   -0.04    0.30
   8   1  -4    0.09    0.26
  -8  -1   3   16.86    2.83
   8   1  -3   16.77    2.52
   8   1  -2    6.27    1.64
  -8  -1   2    6.63    1.88
  -8  -1   1    2.96    1.25
   8   1  -1    3.19    1.12
  -8  -1   0    5.46    1.59
   8   1   0    5.05    1.39
   8   1   1    1.33    0.69
  -8  -1  -1    1.75    0.78
   8   1   2    2.62    1.00
  -8  -1  -2    2.63    1.31
   8   1   3    1.70    0.86
  -8  -1  -3    0.44    0.38
   8   1   4    0.35    0.28
  -8  -1  -4    0.23    0.44
   8   1   5    6.53    1.63
  -8  -1  -5    4.79    1.63
   8   1   6    2.12    0.91
  -8  -1  -6    2.36    1.11
   8   1   7   10.87    2.16
  -8  -1  -7    8.78    2.31
   8   1   8    1.62    0.93
  -8  -1  -8    0.93    0.67
   8   1   9    2.58    1.05
   8   1  10    0.24    0.55
   8   1  11    6.13    1.82
   8   1  12    1.67    1.12
   8   1  13    8.73    2.58
   8   2 -17    6.86    2.50
   8   2 -16    3.38    1.90
   8   2 -15    2.61    1.71
   8   2 -14    0.09    0.23
   8   2 -13    8.90    2.88
   8   2 -12   25.09    4.58
   8   2 -11   44.84    5.77
  -8  -2  11   45.63    4.26
   8   2 -10   31.85    4.70
  -8  -2  10   28.08    3.43
   8   2  -9    8.44    2.32
  -8  -2   9    3.95    1.37
   8   2  -8   14.32    2.91
  -8  -2   8   11.46    2.26
  -8  -2   7   19.03    2.84
   8   2  -7   19.93    3.40
   8   2  -7   19.99    3.54
  -8  -2   6    0.42    0.47
   8   2  -6    0.84    0.69
  -8  -2   5    2.49    1.26
   8   2  -5    2.87    1.53
  -8  -2   4   77.16    5.81
   8   2  -4   76.28    6.27
  -8  -2   3   90.98    6.38
   8   2  -3   89.41    6.53
  -8  -2   2    7.80    2.16
   8   2  -2    4.54    1.74
   8   2  -1    7.44    2.01
  -8  -2   1    8.01    2.12
   8   2   0   28.22    3.54
  -8  -2   0   27.30    3.71
   8   2   1   17.30    2.71
  -8  -2  -1   18.45    3.01
  -8  -2  -2    1.85    0.98
   8   2   2    2.22    1.11
   8   2   3   18.55    2.84
  -8  -2  -3   16.08    2.96
   8   2   4   26.07    3.49
  -8  -2  -4   25.10    3.69
   8   2   5   19.82    3.04
  -8  -2  -5   17.42    3.17
   8   2   6    5.89    1.90
  -8  -2  -6    3.41    1.50
   8   2   7   30.97    3.87
   8   2   8   25.22    3.49
   8   2   9   -0.21    0.49
   8   2  10    6.70    2.00
   8   2  11    4.80    1.75
   8   2  12    5.80    1.97
   8   2  13   13.88    3.12
   8   3 -17    2.94    1.64
   8   3 -16    3.04    1.63
   8   3 -15   -0.03    0.58
   8   3 -14    0.28    0.43
   8   3 -13    2.02    1.25
   8   3 -12    7.49    2.39
   8   3 -11   17.75    3.70
  -8  -3  11   15.50    2.39
   8   3 -10    3.73    1.42
  -8  -3  10    1.18    0.69
   8   3  -9    3.13    1.21
  -8  -3   9    0.39    0.47
   8   3  -8    4.28    1.56
  -8  -3   8    3.62    1.18
   8   3  -7   10.81    2.44
  -8  -3   7    5.73    1.59
   8   3  -7    5.48    1.92
   8   3  -6    0.73    0.90
  -8  -3   6   -0.28    0.56
   8   3  -6   -0.10    0.34
  -8  -3   5   -0.04    0.11
   8   3  -5    0.14    0.52
  -8  -3   4   39.21    4.25
   8   3  -4   39.49    4.91
  -8  -3   3    9.86    2.08
   8   3  -3    9.31    2.25
  -8  -3   2    2.18    1.17
   8   3  -2    2.12    1.00
  -8  -3   1   31.78    3.98
   8   3  -1   31.50    4.05
  -8  -3   0    7.89    2.12
   8   3   0    6.80    1.89
  -8  -3  -1   -0.17    0.62
   8   3   1    0.19    0.25
   8   3   2   15.95    2.86
  -8  -3  -2   16.60    3.06
  -8  -3  -3    3.63    1.49
   8   3   3    2.80    1.31
   8   3   4    7.00    1.83
  -8  -3  -4    5.08    1.78
   8   3   5   14.01    2.65
   8   3   6    2.23    1.15
   8   3   7    5.02    1.76
   8   3   8    7.50    2.05
   8   3   9    1.54    0.93
   8   3  10    4.18    1.42
   8   3  11    6.65    1.92
   8   3  12    2.99    1.61
   8   4 -17    3.35    1.69
   8   4 -16    4.49    2.08
   8   4 -15   11.90    3.09
   8   4 -14    7.79    2.62
   8   4 -13    0.33    0.32
   8   4 -12   50.30    6.01
   8   4 -11   24.98    4.14
   8   4 -10    2.84    1.42
  -8  -4  10    0.73    0.53
   8   4  -9    5.75    2.03
  -8  -4   9    3.56    1.26
   8   4  -8   12.33    2.72
  -8  -4   8    4.04    1.41
   8   4  -7   19.28    3.35
  -8  -4   7   12.92    2.31
   8   4  -7   13.96    3.33
   8   4  -6   28.49    3.86
  -8  -4   6   31.21    3.63
   8   4  -6   29.58    4.72
  -8  -4   5   18.95    2.87
   8   4  -5   20.50    3.81
   8   4  -5   16.51    2.94
  -8  -4   4   54.50    4.94
   8   4  -4   59.46    6.41
  -8  -4   3    8.15    1.90
   8   4  -3    8.96    2.38
  -8  -4   2    9.97    2.23
   8   4  -2   10.25    2.51
  -8  -4   1    3.25    1.46
   8   4  -1    2.84    1.61
  -8  -4   0    7.31    1.99
   8   4   0    6.26    1.97
  -8  -4  -1    4.84    1.49
   8   4   1    5.96    1.96
   8   4   2   30.45    4.17
   8   4   3   32.95    4.29
   8   4   4   16.14    2.98
   8   4   5    1.84    0.99
   8   4   6    4.98    1.58
   8   4   7    9.47    2.34
   8   4   8    1.16    0.72
   8   4   9    7.44    2.20
   8   4  10   22.30    3.57
   8   4  11   10.46    2.49
   8   4  12    3.85    1.56
   8   5 -16   -0.48    0.89
   8   5 -15    4.57    1.88
   8   5 -14    2.84    1.56
   8   5 -13    6.69    2.21
   8   5 -12   12.91    3.20
   8   5 -11    4.86    1.84
   8   5 -10    0.17    0.71
   8   5  -9    3.70    1.61
  -8  -5   9    0.85    0.77
   8   5  -8    7.27    2.27
  -8  -5   8    2.69    1.02
   8   5  -7   19.81    3.36
  -8  -5   7   18.14    2.82
   8   5  -7   19.13    4.04
   8   5  -6    5.28    1.76
  -8  -5   6    6.30    1.63
   8   5  -6    7.06    2.43
   8   5  -5   21.63    3.30
  -8  -5   5   21.83    3.18
   8   5  -5   22.47    4.29
   8   5  -4    6.83    1.93
  -8  -5   4    4.74    1.47
   8   5  -4    4.20    1.70
  -8  -5   3    1.40    0.76
   8   5  -3    2.09    1.34
   8   5  -2    5.68    1.92
   8   5  -1   10.84    2.75
   8   5   0    4.97    1.79
   8   5   1    0.64    0.16
   8   5   2   14.20    3.03
   8   5   3   16.17    3.21
   8   5   4    9.78    2.49
   8   5   5   -0.18    0.48
   8   5   6    0.42    0.58
   8   5   7   16.46    3.29
   8   5   8   11.16    2.69
   8   5   9    5.81    1.96
   8   5  10    7.62    2.31
   8   5  11    0.97    0.92
   8   6 -16    5.78    2.48
   8   6 -15   13.08    3.32
   8   6 -14   10.46    3.14
   8   6 -13   -1.05    1.08
   8   6 -12   11.93    2.94
   8   6 -11    1.24    0.98
   8   6 -10   19.43    3.55
   8   6  -9   10.48    2.57
   8   6  -8   10.60    2.42
   8   6  -8   12.08    3.30
   8   6  -7    8.28    2.21
   8   6  -7    5.25    2.19
   8   6  -6   11.57    2.47
   8   6  -6    6.71    2.46
   8   6  -5   30.59    4.04
   8   6  -5   40.08    6.03
   8   6  -4    4.72    1.40
   8   6  -4    3.62    1.81
   8   6  -3    3.27    1.41
   8   6  -3   13.74    2.53
   8   6  -2   37.73    5.41
   8   6  -1    9.69    2.61
   8   6   0    4.62    1.85
   8   6   1   28.21    4.56
   8   6   2   15.12    3.26
   8   6   3   11.85    2.90
   8   6   4    2.61    1.43
   8   6   5    2.59    1.49
   8   6   6    2.21    1.28
   8   6   7    3.91    1.65
   8   6   8    1.99    1.23
   8   6   9   28.83    4.56
   8   6  10   17.74    3.51
   8   7 -15    1.14    1.40
   8   7 -14    2.14    1.48
   8   7 -13    7.45    2.16
   8   7 -12    2.69    1.59
   8   7 -11    5.87    1.96
   8   7 -10    2.96    1.43
   8   7  -9   15.91    3.15
   8   7  -8    3.16    1.32
   8   7  -8    5.07    2.27
   8   7  -7   16.18    3.15
   8   7  -7   15.33    4.04
   8   7  -6   11.39    2.45
   8   7  -6   15.34    3.92
   8   7  -5    3.22    1.34
   8   7  -5    0.35    0.99
   8   7  -4    3.66    1.36
   8   7  -4    1.23    1.05
   8   7  -3    9.11    2.71
   8   7  -2   18.90    3.95
   8   7  -1    9.66    2.85
   8   7   0    8.99    2.62
   8   7   1    2.71    1.74
   8   7   2   25.18    4.48
   8   7   3    1.21    0.68
   8   7   4    7.86    2.50
   8   7   5    1.71    1.15
   8   7   6   13.39    3.18
   8   7   7    8.98    2.42
   8   7   8    9.99    2.79
   8   7   9    5.39    2.09
   8   7  10    0.55    0.69
   8   8 -14    2.21    1.87
   8   8 -13    3.44    1.85
   8   8 -12    0.39    0.96
   8   8 -11    3.10    1.62
   8   8 -10   41.53    5.51
   8   8  -9    8.54    2.56
   8   8  -9    8.86    3.14
   8   8  -8    0.51    0.35
   8   8  -8   -0.29    0.59
   8   8  -7    2.50    1.12
   8   8  -7    2.68    1.74
   8   8  -6    6.04    1.92
   8   8  -6    2.44    1.63
   8   8  -5    1.98    1.84
   8   8  -4   15.90    3.92
   8   8  -3   28.24    5.28
   8   8  -2   15.65    3.89
   8   8  -1    1.96    1.43
   8   8   0   -0.18    0.66
   8   8   1   15.48    3.63
   8   8   2    8.05    2.69
   8   8   3    1.43    1.25
   8   8   4   10.45    3.11
   8   8   5   29.06    4.97
   8   8   6    5.55    2.11
   8   8   7    0.81    0.70
   8   8   8    4.38    1.95
   8   9 -12    3.03    1.62
   8   9 -11    9.97    2.77
   8   9 -10    8.75    2.40
   8   9  -9    2.36    1.42
   8   9  -9    2.90    2.09
   8   9  -8    4.00    1.68
   8   9  -8    5.18    2.54
   8   9  -7    1.60    1.86
   8   9  -6    1.36    1.33
   8   9  -5    2.68    1.77
   8   9  -4    6.30    2.71
   8   9  -3   12.26    3.58
   8   9  -2   15.34    4.10
   8   9  -1    1.59    1.28
   8   9   0    3.46    1.77
   8   9   1    1.90    1.16
   8   9   2    7.48    2.62
   8   9   3    3.23    1.76
   8   9   4   13.41    3.60
   8   9   5    5.99    2.35
   8   9   6    1.98    1.27
   8   9   7   12.92    3.36
   8  10 -11    7.48    2.31
   8  10 -10    6.91    2.29
   8  10 -10   11.55    3.99
   8  10  -9    1.22    1.85
   8  10  -8    8.90    3.51
   8  10  -7    0.90    1.12
   8  10  -6    1.63    1.43
   8  10  -5    4.81    2.63
   8  10  -4    6.29    2.66
   8  10  -3   11.08    3.69
   8  10  -2    6.53    2.64
   8  10  -1    0.17    1.09
   8  10   0   -0.18    0.48
   8  10   1    0.00    0.59
   8  10   2   -0.99    0.98
   8  10   3   17.82    4.21
   8  10   4   27.17    5.16
   8  10   5    1.92    1.39
   8  11  -8    1.67    1.65
   8  11  -7   10.36    3.97
   8  11  -6    0.92    0.60
   8  11  -5    5.88    2.62
   8  11  -4   12.30    4.08
   8  11  -3    2.29    1.65
   8  11  -2    1.19    0.33
   8  11  -1    0.37    1.07
   8  11   0    0.62    0.90
   8  11   1    4.18    2.27
   8  11   2    6.97    2.77
   8  11   3    9.94    3.10
  -9  10   8    0.81    0.90
  -9  10   7    0.84    0.90
  -9  10   6   -0.40    0.41
  -9  10   5    0.18    0.53
  -9  10   4    9.72    2.85
  -9  10   3    0.97    0.58
  -9  10   2    1.92    1.23
  -9  10   1    1.94    0.95
  -9  10   0    0.50    0.52
  -9  10  -1    0.68    0.63
  -9  10  -2    2.16    1.17
  -9  10  -3    4.06    1.76
  -9   9  10    1.02    1.29
  -9   9   9    1.79    1.11
  -9   9   8   15.98    3.65
  -9   9   7   21.12    4.08
  -9   9   6   17.50    3.89
  -9   9   5    2.79    1.61
  -9   9   4    1.41    1.03
  -9   9   3    0.97    1.00
  -9   9   2   -0.04    0.35
  -9   9   1    5.21    1.84
  -9   9   0   16.27    3.31
  -9   9  -1   19.54    3.66
  -9   9  -2    4.69    1.82
  -9   9  -3    7.55    2.28
  -9   9  -4    0.98    0.99
  -9   9  -5    0.68    0.83
  -9   8  12    9.82    2.93
  -9   8  11    0.67    1.09
  -9   8  10    3.33    1.52
  -9   8   9    0.68    0.66
  -9   8   8    5.78    2.25
  -9   8   7    1.80    1.39
  -9   8   6    1.78    1.37
  -9   8   5    3.34    1.49
  -9   8   4    1.87    1.26
  -9   8   3    3.67    1.67
  -9   8   2    4.59    1.52
  -9   8   1    1.36    1.07
  -9   8   0    1.42    1.17
  -9   8  -1    1.62    1.03
  -9   8  -2    6.04    1.87
  -9   8  -3    6.85    2.18
  -9   8  -4    5.20    1.85
  -9   8  -5    7.55    2.10
  -9   8  -6   -0.20    0.72
  -9   8  -7    2.88    1.26
  -9   7  13    1.65    1.34
  -9   7  12   11.43    3.12
  -9   7  11    8.13    2.45
  -9   7  10    9.70    2.81
  -9   7   9    4.48    1.76
  -9   7   8   17.77    3.62
  -9   7   7    2.30    1.18
  -9   7   6    3.57    1.84
  -9   7   5    2.45    1.54
  -9   7   4    5.84    2.00
  -9   7   3    2.53    1.10
  -9   7   2    6.10    1.97
  -9   7   1   15.81    3.17
  -9   7   0   11.16    2.60
  -9   7  -1   14.23    3.07
  -9   7  -2    0.00    0.50
  -9   7  -3    3.73    1.38
  -9   7  -4    2.08    1.29
  -9   7  -5   14.29    3.14
  -9   7  -6    5.91    1.91
  -9   7  -7   11.72    2.77
  -9   7  -8   11.07    2.68
  -9   6  14    1.45    0.78
  -9   6  13    1.70    1.19
  -9   6  12    1.56    1.18
  -9   6  11    3.98    1.69
  -9   6  10   10.32    2.65
  -9   6   9    6.84    2.30
  -9   6   8    1.62    1.20
  -9   6   7   -0.48    0.07
  -9   6   6    1.55    1.32
  -9   6   5    6.65    1.99
  -9   6   4    1.36    1.28
  -9   6   3   14.63    3.03
  -9   6   2   14.54    2.99
  -9   6   1    3.30    1.34
  -9   6   0    3.06    1.41
  -9   6  -1    1.75    1.37
  -9   6  -2    0.46    0.79
  -9   6  -3    8.44    2.30
  -9   6  -4   13.20    2.89
  -9   6  -5    5.74    2.01
  -9   6  -6    1.08    0.96
  -9   6  -7   -0.32    0.28
  -9   6  -8    1.63    0.89
  -9   6  -9    1.17    0.55
  -9   5  15    2.02    1.33
  -9   5  14    3.81    1.61
  -9   5  13   12.58    2.90
  -9   5  12   22.37    3.89
  -9   5  11   10.88    2.82
  -9   5  10    5.06    1.82
  -9   5   9    2.24    1.26
  -9   5   8    7.01    2.16
  -9   5   7    7.00    2.09
  -9   5   6   23.04    3.67
  -9   5   5    8.65    2.29
  -9   5   4   16.01    3.10
  -9   5   3   17.11    3.15
  -9   5   2    4.73    1.92
  -9   5   1   18.96    3.42
  -9   5   0    5.16    1.90
  -9   5  -1    2.78    1.71
  -9   5  -2   25.91    4.05
  -9   5  -3   11.02    2.66
  -9   5  -4    2.81    1.26
  -9   5  -5   15.56    3.13
  -9   5  -6    5.72    1.95
  -9   5  -7    4.83    1.79
  -9   5  -8    0.33    0.56
  -9   5  -9    7.35    2.15
  -9   4  15    0.12    0.31
  -9   4  14    7.90    2.31
  -9   4  13    2.29    1.12
  -9   4  12    3.06    1.55
  -9   4  11   19.10    3.33
  -9   4  10    0.11    0.23
  -9   4   9    4.26    1.71
  -9   4   8    2.28    1.26
  -9   4   7    6.53    1.96
  -9   4   6    0.72    0.63
  -9   4   5    1.20    0.74
  -9   4   4    9.63    2.41
  -9   4   3   23.26    3.62
  -9   4   2    2.15    1.52
  -9   4   1    7.90    2.25
  -9   4   0    0.17    0.36
  -9   4  -1    4.73    1.60
  -9   4  -2    1.36    1.05
  -9   4  -3    6.32    1.92
  -9   4  -4   19.06    3.48
  -9   4  -5    1.43    1.00
  -9   4  -6    2.61    1.50
  -9   4  -7    2.56    1.39
  -9   4  -8    2.91    1.21
  -9   4  -9    1.35    0.85
  -9   4 -10    2.16    1.32
  -9   4 -10    2.98    1.36
  -9   3  14   25.89    3.90
  -9   3  13   23.27    3.59
  -9   3  12   17.00    3.05
  -9   3  11    9.70    2.32
  -9   3  10    3.11    1.23
  -9   3   9    7.56    2.00
  -9   3   8   -0.02    0.26
  -9   3   7   12.18    2.74
  -9   3   6   48.82    5.67
  -9   3   5    1.56    1.17
  -9   3   4   12.17    2.56
  -9   3   3    0.29    0.67
  -9   3   2   -0.17    0.55
  -9   3   1    1.90    0.84
  -9   3   0    9.60    2.39
  -9   3  -1   74.99    6.87
  -9   3  -2   17.88    3.33
  -9   3  -3    1.26    0.86
  -9   3  -4    1.68    0.75
  -9   3  -5    1.90    1.08
  -9   3  -6    0.42    0.73
  -9   3  -7    2.59    1.50
  -9   3  -8    2.78    1.54
  -9   3  -9   11.60    2.73
  -9   3 -10    0.39    0.36
  -9   2  14    3.08    1.25
  -9   2  13    1.04    0.78
  -9   2  12    3.55    1.56
  -9   2  11    2.50    1.20
  -9   2  10    0.95    0.80
  -9   2   9    1.57    1.02
  -9   2   8   12.21    2.57
  -9   2   7    7.37    2.03
  -9   2   6    2.93    1.25
  -9   2   5   17.35    3.21
  -9   2   4   15.47    2.88
  -9   2   3    4.49    1.66
  -9   2   2   11.34    2.49
  -9   2   1    7.82    2.19
  -9   2   0   32.49    4.37
  -9   2  -1    3.85    1.58
  -9   2  -2    0.80    1.01
  -9   2  -3    8.96    2.28
  -9   2  -4    0.29    0.55
  -9   2  -5    6.01    1.78
  -9   2  -6   14.00    3.04
  -9   2  -7    8.27    2.31
  -9   2  -8    1.61    0.99
  -9   2  -9   -0.04    0.61
  -9   2 -10    1.96    1.11
  -9   2 -11    3.03    1.42
   9  -1 -16    1.64    0.73
   9  -1 -15    7.34    2.81
  -9   1  13    2.23    1.28
  -9   1  12    3.29    1.33
  -9   1  11   18.81    3.16
  -9   1  10   12.67    2.66
  -9   1   9    6.13    1.83
  -9   1   8    4.13    1.45
  -9   1   7   13.25    2.62
  -9   1   6   10.35    2.50
  -9   1   5    0.50    0.75
  -9   1   4    9.03    2.13
  -9   1   3    8.19    2.19
  -9   1   2   11.50    2.42
  -9   1   1    8.89    2.19
  -9   1   0   16.06    3.05
  -9   1  -1   28.90    4.20
  -9   1  -2    0.88    0.57
  -9   1  -3    0.69    0.71
  -9   1  -4    1.39    0.86
  -9   1  -5    1.38    0.96
  -9   1  -6    1.06    0.93
  -9   1  -7    9.72    2.47
  -9   1  -8    7.99    2.38
  -9   1  -9    5.30    1.89
  -9   1 -10    1.11    0.92
   9   0 -16   12.14    3.41
   9   0 -15    4.43    1.77
   9   0 -14    1.59    1.24
   9   0 -13    0.02    0.89
  -9   0  12    0.56    0.47
   9   0 -12    0.35    0.97
  -9   0  11   12.25    2.55
  -9   0  10    8.37    2.09
  -9   0   9   32.76    4.18
  -9   0   8   12.18    2.51
  -9   0   7    1.87    1.06
  -9   0   6    1.81    1.09
  -9   0   5    0.29    0.28
  -9   0   4    7.36    1.98
  -9   0   3    6.38    1.76
  -9   0   2   16.16    3.01
  -9   0   1   48.45    5.21
  -9   0   0    8.09    2.13
  -9   0  -1    5.42    1.77
  -9   0  -2    0.82    0.79
  -9   0  -3    2.66    1.28
  -9   0  -4   13.44    2.87
  -9   0  -5   12.46    2.73
  -9   0  -6   27.56    4.17
  -9   0  -7    0.08    0.55
  -9   0  -8    1.20    1.06
  -9   0  -9    0.41    0.40
   9   1 -16   -0.39    0.92
   9   1 -15   -0.28    0.51
   9   1 -14    1.22    1.23
   9   1 -13    4.00    2.03
  -9  -1  12   19.38    3.05
   9   1 -12   20.01    4.19
   9   1 -11   17.75    3.71
  -9  -1  11   17.11    2.92
  -9  -1  10    3.56    1.31
   9   1 -10    4.47    1.59
  -9  -1   9   -0.24    0.58
  -9  -1   8    3.28    1.24
  -9  -1   7   25.11    3.66
  -9  -1   6   -0.12    0.29
  -9  -1   5   27.92    3.86
  -9  -1   4   21.67    3.34
  -9  -1   3   22.46    3.40
  -9  -1   2    1.00    0.93
  -9  -1   1    5.10    1.59
  -9  -1   0    1.26    0.89
  -9  -1  -1    0.88    0.64
  -9  -1  -2    4.80    1.57
  -9  -1  -3   16.18    3.11
   9   1   4    2.88    1.13
  -9  -1  -4    2.07    1.31
   9   1   5    0.76    0.41
  -9  -1  -5    1.26    0.98
   9   1   6    3.54    1.29
  -9  -1  -6    4.51    1.62
   9   1   7    8.28    1.93
  -9  -1  -7    8.70    2.46
   9   1   8    0.78    0.41
  -9  -1  -8    2.06    0.97
   9   1   9   -0.13    0.33
   9   1  10    2.04    1.06
   9   1  11   -0.07    0.52
   9   2 -16    1.25    0.92
   9   2 -15   -0.05    0.44
   9   2 -14    1.53    1.27
   9   2 -13    3.54    1.57
   9   2 -12   12.21    3.08
   9   2 -11    3.41    1.46
  -9  -2  11    6.18    1.69
   9   2 -10   14.63    3.13
  -9  -2  10   13.46    2.55
   9   2  -9   12.44    3.00
  -9  -2   9   12.46    2.44
  -9  -2   8    2.54    1.06
  -9  -2   7    0.84    0.77
  -9  -2   6    2.80    1.13
  -9  -2   5   26.01    3.69
  -9  -2   4   10.30    2.24
  -9  -2   3   23.86    3.53
   9   2  -3   22.70    3.34
   9   2  -2   49.38    4.81
  -9  -2   2   46.95    5.01
  -9  -2   1   -0.89    0.89
   9   2  -1    0.38    0.24
   9   2   0   18.19    2.85
  -9  -2   0   17.72    3.19
   9   2   1   10.00    2.15
  -9  -2  -1   11.55    2.65
   9   2   2    6.97    1.77
  -9  -2  -2    6.04    1.93
   9   2   3   14.40    2.55
  -9  -2  -3   15.90    3.17
   9   2   4   10.72    2.33
  -9  -2  -4    9.80    2.62
   9   2   5   28.24    3.74
  -9  -2  -5   25.08    4.11
   9   2   6    4.27    1.39
  -9  -2  -6    3.70    1.63
   9   2   7    8.55    1.98
   9   2   8    4.39    1.50
   9   2   9    3.27    1.30
   9   2  10    7.85    2.14
   9   3 -15   -0.13    0.48
   9   3 -14    2.03    1.29
   9   3 -13    2.80    1.64
   9   3 -12    7.73    2.62
   9   3 -11    5.27    1.95
   9   3 -10    0.28    0.57
  -9  -3  10    2.25    1.04
   9   3  -9    1.76    1.02
  -9  -3   9    1.02    0.65
   9   3  -9    2.78    1.31
   9   3  -8    1.23    0.91
  -9  -3   8    1.43    0.81
   9   3  -8    0.73    0.64
  -9  -3   7    2.77    1.20
   9   3  -7    2.31    1.29
  -9  -3   6   24.64    3.52
   9   3  -6   29.29    4.49
  -9  -3   5   37.65    4.32
   9   3  -5   39.94    5.12
  -9  -3   4   11.55    2.39
   9   3  -4   12.69    2.82
  -9  -3   3   -0.07    0.51
   9   3  -3    0.32    0.26
  -9  -3   2    2.78    1.20
   9   3  -2    2.39    1.18
  -9  -3   1    2.93    1.25
   9   3  -1    2.27    0.99
  -9  -3   0   -1.00    1.00
   9   3   0   -0.34    0.26
  -9  -3  -1    4.81    1.71
   9   3   1    5.27    1.66
   9   3   2   37.56    4.43
  -9  -3  -2   37.08    4.88
  -9  -3  -3    3.57    1.34
   9   3   3    3.48    1.34
  -9  -3  -4    5.71    1.95
   9   3   4    7.20    2.04
   9   3   5    0.27    0.59
   9   3   6    3.45    1.36
   9   3   7   -0.37    0.44
   9   3   8    1.29    0.85
   9   3   9    1.72    0.95
   9   3  10    9.39    2.42
   9   4 -15    4.28    1.97
   9   4 -14    4.26    2.13
   9   4 -13    4.38    1.83
   9   4 -12    3.56    1.41
   9   4 -11    1.84    1.23
   9   4 -10    4.88    1.84
   9   4  -9    1.03    0.60
  -9  -4   9    1.26    0.77
   9   4  -9    0.52    0.87
   9   4  -8    8.38    2.31
  -9  -4   8   12.44    2.41
   9   4  -8   11.54    3.16
  -9  -4   7   21.53    3.24
   9   4  -7   23.85    4.35
   9   4  -7   17.59    3.38
  -9  -4   6   66.51    5.85
   9   4  -6   71.71    7.57
  -9  -4   5    2.23    0.72
   9   4  -5    2.78    1.42
  -9  -4   4    3.39    1.41
   9   4  -4    3.76    1.76
  -9  -4   3    3.48    1.38
   9   4  -3    4.00    1.77
   9   4  -2   12.53    2.82
  -9  -4   2   13.04    2.68
  -9  -4   1   15.67    3.01
   9   4  -1   16.32    3.13
   9   4   0   35.63    4.81
  -9  -4   0   35.34    4.64
  -9  -4  -1   -0.50    0.78
   9   4   1    2.23    1.41
   9   4   2    6.25    1.88
   9   4   3    4.74    1.79
   9   4   4    1.06    0.60
   9   4   5   12.04    2.70
   9   4   6   14.76    3.08
   9   4   7   16.33    3.32
   9   4   8    9.39    2.50
   9   4   9   10.09    2.45
   9   5 -14    1.64    1.03
   9   5 -13    2.78    1.63
   9   5 -12    0.22    0.16
   9   5 -11   -0.84    0.85
   9   5 -10    8.13    2.33
   9   5  -9    3.84    1.46
  -9  -5   9    4.95    1.57
   9   5  -9    5.62    2.22
   9   5  -8   -0.74    0.75
  -9  -5   8    0.02    0.53
   9   5  -8    0.18    0.31
   9   5  -7    4.80    1.62
  -9  -5   7    6.90    1.86
   9   5  -7    8.15    2.58
   9   5  -6    4.07    1.65
  -9  -5   6    4.86    1.48
   9   5  -6    4.61    1.99
  -9  -5   5    8.59    2.19
   9   5  -5   10.66    3.10
  -9  -5   4   -0.16    0.58
   9   5  -4    0.43    0.90
  -9  -5   3    6.63    1.93
   9   5  -3    7.70    2.44
   9   5  -2    4.59    1.86
   9   5  -1   10.71    2.78
   9   5   0    0.32    0.39
   9   5   1    5.79    1.99
   9   5   2   15.26    3.14
   9   5   3    0.54    0.41
   9   5   4    1.38    1.18
   9   5   5    3.52    1.41
   9   5   6    0.78    0.98
   9   5   7    0.65    0.73
   9   5   8    4.58    1.73
   9   5   9    6.43    2.14
   9   6 -14   -1.26    1.46
   9   6 -13   -0.57    0.81
   9   6 -12    0.34    0.74
   9   6 -11    1.71    1.46
   9   6 -10    1.08    0.93
   9   6 -10    1.52    1.64
   9   6  -9    9.07    2.57
   9   6  -9   16.16    4.17
   9   6  -8   16.57    3.30
   9   6  -8   22.70    4.81
   9   6  -7   12.09    2.73
   9   6  -7   16.53    4.07
   9   6  -6    1.28    0.84
   9   6  -6    2.13    1.87
   9   6  -5    1.55    1.89
   9   6  -5    1.67    1.57
   9   6  -4    0.59    1.12
   9   6  -3    2.22    1.42
   9   6  -2   12.94    3.31
   9   6  -1   44.73    5.95
   9   6   0   13.21    3.23
   9   6   1   10.93    2.90
   9   6   2    0.92    1.05
   9   6   3    2.28    1.39
   9   6   4    3.04    1.54
   9   6   5   11.58    2.91
   9   6   6   14.95    3.24
   9   6   7   20.53    3.91
   9   6   8    0.79    0.84
   9   7 -13    0.35    0.07
   9   7 -12    0.63    0.42
   9   7 -11   -0.27    0.38
   9   7 -10    8.47    2.52
   9   7 -10   13.51    4.05
   9   7  -9    0.31    0.42
   9   7  -9    1.17    1.26
   9   7  -8    1.01    0.81
   9   7  -8    1.60    1.47
   9   7  -7   -0.47    1.03
   9   7  -7    0.63    0.61
   9   7  -6    2.76    1.59
   9   7  -5    0.54    0.87
   9   7  -4    7.54    2.75
   9   7  -3   26.82    5.01
   9   7  -2    2.53    1.81
   9   7  -1    0.02    0.35
   9   7   0    0.35    0.72
   9   7   1    3.19    1.85
   9   7   2    9.68    2.84
   9   7   3    5.79    2.34
   9   7   4    6.26    2.28
   9   7   5    1.71    1.36
   9   7   6    0.77    0.94
   9   7   7    2.89    1.51
   9   8 -11    0.87    0.66
   9   8 -11    1.70    1.75
   9   8 -10    7.72    2.33
   9   8 -10   13.60    4.06
   9   8  -9   22.42    4.10
   9   8  -9   29.46    6.05
   9   8  -8   -0.10    0.50
   9   8  -7    0.19    0.59
   9   8  -6   10.98    3.67
   9   8  -5   14.67    3.86
   9   8  -4   10.26    3.33
   9   8  -3    4.30    2.09
   9   8  -2   18.31    4.26
   9   8  -1   10.67    3.44
   9   8   0    0.61    1.02
   9   8   1    0.00    0.72
   9   8   2    5.19    2.06
   9   8   3   17.59    3.97
   9   8   4    2.00    1.19
   9   8   5   12.61    3.32
   9   9  -9    0.93    1.07
   9   9  -8    6.09    2.81
   9   9  -7   -0.39    0.99
   9   9  -6    0.99    1.32
   9   9  -5    3.12    1.82
   9   9  -4    3.40    1.81
   9   9  -3    1.09    1.14
   9   9  -2    1.75    1.52
   9   9  -1    1.29    1.30
   9   9   0   -0.29    0.21
   9   9   1    0.39    0.82
   9   9   2    0.31    0.46
   9   9   3    3.27    1.92
   9  10  -6   11.01    3.71
   9  10  -5   10.71    3.77
   9  10  -4    5.37    2.53
   9  10  -3    0.56    1.24
   9  10  -2    3.65    2.30
   9  10  -1    2.02    1.76
   9  10   0    5.19    2.26
 -10   9   4    0.06    0.66
 -10   9   3    9.01    2.69
 -10   9   2    4.23    1.74
 -10   9   1    0.78    0.96
 -10   8   8    0.76    0.28
 -10   8   7    0.14    1.02
 -10   8   6    5.36    1.98
 -10   8   5    0.04    0.43
 -10   8   4    1.25    1.08
 -10   8   3    5.18    1.91
 -10   8   2    0.70    0.87
 -10   8   1    4.97    1.76
 -10   8   0   -0.27    0.10
 -10   8  -1    0.28    0.89
 -10   8  -2    0.70    0.88
 -10   7  10   21.85    4.14
 -10   7   9    1.55    0.82
 -10   7   8    1.98    1.20
 -10   7   7   -0.30    0.92
 -10   7   6    1.47    1.19
 -10   7   5    3.50    1.32
 -10   7   4    5.02    1.99
 -10   7   3   11.03    2.72
 -10   7   2    2.96    1.48
 -10   7   1    0.45    0.47
 -10   7   0    0.90    1.34
 -10   7  -1    1.51    1.42
 -10   7  -2    3.73    1.65
 -10   7  -3    6.85    2.42
 -10   7  -4    9.51    2.64
 -10   6  11    0.28    0.90
 -10   6  10    2.19    0.71
 -10   6   9    0.00    0.40
 -10   6   8    0.78    1.15
 -10   6   7    2.23    1.38
 -10   6   6    4.99    1.97
 -10   6   5    1.87    1.24
 -10   6   4    7.14    2.29
 -10   6   3    6.21    2.03
 -10   6   2   -0.17    0.67
 -10   6   1   -0.48    0.38
 -10   6   0    0.14    0.57
 -10   6  -1    3.83    1.54
 -10   6  -2    4.36    2.02
 -10   6  -3    2.45    1.37
 -10   6  -4    2.24    1.21
 -10   6  -5    0.52    0.72
 -10   5  12    9.08    2.55
 -10   5  11    8.14    2.43
 -10   5  10    6.23    2.09
 -10   5   9    2.63    1.30
 -10   5   8    9.13    2.46
 -10   5   7    1.37    0.83
 -10   5   6    4.12    1.69
 -10   5   5   11.55    2.77
 -10   5   4   17.68    3.53
 -10   5   3   14.99    3.18
 -10   5   2    2.89    1.20
 -10   5   1   15.54    3.18
 -10   5   0   14.05    3.01
 -10   5  -1    0.70    0.68
 -10   5  -2    7.02    2.31
 -10   5  -3   12.95    3.07
 -10   5  -4    1.70    1.25
 -10   5  -5    0.44    0.80
 -10   5  -6    2.28    1.23
 -10   4  13    2.34    1.23
 -10   4  12    0.70    0.85
 -10   4  11   -0.54    0.74
 -10   4  10    6.49    2.04
 -10   4   9    1.05    0.87
 -10   4   8    9.39    2.72
 -10   4   7    3.23    1.63
 -10   4   6    1.27    0.99
 -10   4   5    6.02    1.94
 -10   4   4   -0.41    0.58
 -10   4   3   -0.38    0.55
 -10   4   2    1.84    0.22
 -10   4   1    0.85    0.83
 -10   4   0    1.71    1.03
 -10   4  -1   16.20    3.44
 -10   4  -2    0.16    0.69
 -10   4  -3    1.34    0.96
 -10   4  -4    3.92    1.79
 -10   4  -5    1.89    1.14
 -10   4  -6    0.55    0.72
 -10   4  -7    1.14    0.68
 -10   3  13    4.28    1.74
 -10   3  12    2.32    1.24
 -10   3  11    3.35    1.59
 -10   3  10    6.67    2.06
 -10   3   9   24.14    4.01
 -10   3   8   24.71    4.02
 -10   3   7   -0.19    0.20
 -10   3   6    8.91    2.35
 -10   3   5   11.73    2.69
 -10   3   4    3.39    1.81
 -10   3   3    1.75    1.03
 -10   3   2   41.45    5.27
 -10   3   1   29.06    4.31
 -10   3   0    2.40    1.30
 -10   3  -1    2.35    1.34
 -10   3  -2   17.71    3.64
 -10   3  -3    4.15    2.04
 -10   3  -4    2.08    1.21
 -10   3  -5   15.08    3.24
 -10   3  -6   13.84    2.99
 -10   3  -7    5.23    1.96
 -10   3  -8    1.17    0.92
 -10   2  13    0.88    0.52
 -10   2  12   -0.12    0.09
 -10   2  11    0.95    0.50
 -10   2  10    1.27    0.82
 -10   2   9    0.13    0.26
 -10   2   8    5.18    1.94
 -10   2   7    6.73    2.02
 -10   2   6    1.16    1.22
 -10   2   5    0.62    0.75
 -10   2   4    1.90    1.14
 -10   2   3   13.40    3.06
 -10   2   2    1.83    1.14
 -10   2   1    7.14    2.17
 -10   2   0    2.33    0.95
 -10   2  -1    0.06    0.28
 -10   2  -2    0.21    0.71
 -10   2  -3   -0.20    0.47
 -10   2  -4    1.33    0.84
 -10   2  -5    1.47    1.02
 -10   2  -6    0.14    0.44
 -10   2  -7    3.17    1.43
 -10   2  -8    1.27    1.15
 -10   1  13   -0.08    0.58
 -10   1  12    0.79    0.62
 -10   1  11    5.78    2.02
 -10   1  10   38.42    4.94
 -10   1   9   35.79    4.70
 -10   1   8    2.73    1.36
 -10   1   7    1.27    0.93
 -10   1   6    2.83    1.18
 -10   1   5    3.80    1.60
 -10   1   4   11.54    2.72
 -10   1   3   33.84    4.72
 -10   1   2   30.99    4.42
 -10   1   1    8.67    2.45
 -10   1   0   -0.03    0.03
 -10   1  -1    0.18    0.77
 -10   1  -2    2.32    1.04
 -10   1  -3    6.12    1.96
 -10   1  -4   19.77    3.76
 -10   1  -5   32.93    4.80
 -10   1  -6    4.00    1.65
 -10   1  -7    0.87    0.86
 -10   1  -8   -0.61    0.93
 -10   0  12    6.02    1.90
 -10   0  11    6.63    2.03
 -10   0  10    1.18    1.06
 -10   0   9    1.30    1.16
 -10   0   8    0.13    0.59
 -10   0   7   -0.01    0.29
 -10   0   6    0.03    0.46
 -10   0   5    4.25    1.71
 -10   0   4    5.84    1.98
 -10   0   3    0.44    0.72
 -10   0   2    3.33    1.52
 -10   0   1    1.14    1.12
 -10   0   0    0.21    0.07
 -10   0  -1    0.44    0.39
 -10   0  -2    0.51    0.72
 -10   0  -3   -0.30    0.75
 -10   0  -4    0.12    0.43
 -10   0  -5    3.28    1.52
 -10   0  -6    2.54    1.03
 -10   0  -7    2.70    1.54
 -10   0  -8    0.44    0.66
  10   1 -14   12.89    3.66
 -10  -1  11   16.55    2.96
 -10  -1  10   16.53    3.14
 -10  -1   9    2.16    1.32
 -10  -1   8    0.19    0.45
 -10  -1   7   33.98    4.57
 -10  -1   6    8.25    2.19
 -10  -1   5    2.36    1.12
 -10  -1   4   18.13    3.35
 -10  -1   3   40.48    5.01
 -10  -1   2    7.76    2.13
 -10  -1   1    2.08    1.08
 -10  -1   0   16.55    3.25
 -10  -1  -1   21.08    3.78
 -10  -1  -2   -0.22    0.43
 -10  -1  -3    9.98    2.72
 -10  -1  -4   28.28    4.45
 -10  -1  -5    7.95    2.31
 -10  -1  -6    0.47    0.37
 -10  -1  -7    1.06    0.60
  10   2 -14   -0.32    0.58
  10   2 -13    2.08    1.60
  10   2 -12    0.33    1.12
 -10  -2  10    2.51    1.20
 -10  -2   9    1.51    0.67
 -10  -2   8    1.06    0.71
 -10  -2   7    0.57    0.81
 -10  -2   6    3.93    1.39
 -10  -2   5    5.18    1.65
 -10  -2   4    1.62    1.05
 -10  -2   3    0.18    0.66
 -10  -2   2   -0.57    0.89
 -10  -2   1    0.63    0.44
 -10  -2   0    1.04    0.82
 -10  -2  -1   -0.05    0.34
 -10  -2  -2   -0.18    0.64
 -10  -2  -3    1.24    0.73
 -10  -2  -4    1.12    0.87
 -10  -2  -5    4.44    1.94
  10   3 -13    5.48    2.25
  10   3 -12    1.86    1.34
  10   3 -11    3.24    1.82
 -10  -3  10    1.24    0.77
  10   3 -10    2.17    1.04
 -10  -3   9    6.70    1.95
 -10  -3   8   21.28    3.54
 -10  -3   7   28.76    4.02
 -10  -3   6    2.97    1.67
 -10  -3   5   10.96    2.65
 -10  -3   4   16.54    3.09
 -10  -3   3    0.40    0.52
 -10  -3   2   11.11    2.66
 -10  -3   1   25.89    4.14
 -10  -3   0   42.23    5.32
 -10  -3  -1    4.37    1.72
 -10  -3  -2    3.25    1.60
 -10  -3  -3    6.79    2.25
  10   4 -13    0.58    0.81
  10   4 -12    1.88    1.06
  10   4 -11    0.90    1.07
  10   4 -10    3.83    1.85
 -10  -4   9    1.94    1.01
  10   4  -9    1.18    0.95
 -10  -4   8    1.40    0.82
 -10  -4   7    4.13    1.61
 -10  -4   6   -0.51    0.54
 -10  -4   5    5.73    1.81
 -10  -4   4    0.47    0.95
 -10  -4   3    2.05    1.19
 -10  -4   2    1.27    0.89
 -10  -4   1    0.55    0.66
 -10  -4   0    0.35    0.36
 -10  -4  -1    6.06    2.07
  10   4   4    1.58    1.09
  10   4   5    0.61    0.66
  10   4   6    0.69    0.68
  10   5 -12    4.62    2.11
  10   5 -11   10.10    3.04
  10   5 -10    6.05    2.40
  10   5  -9   21.83    4.04
 -10  -5   8   29.85    4.17
  10   5  -8   25.86    4.43
 -10  -5   7    1.19    0.86
 -10  -5   6    1.57    1.04
 -10  -5   5    6.58    1.90
 -10  -5   4    2.09    1.34
  10   5  -4    2.16    1.34
  10   5  -3    9.18    2.78
  10   5  -2   13.70    3.14
  10   5  -1   15.26    3.38
  10   5   0   18.09    3.72
  10   5   1    0.54    0.48
  10   5   2    1.52    1.25
  10   5   3    1.42    1.14
  10   5   4    4.54    1.76
  10   5   5   20.00    3.72
  10   5   6   26.32    4.28
  10   6 -11    0.69    0.78
  10   6 -10    0.25    0.64
  10   6  -9    0.22    0.72
  10   6  -8    1.21    1.19
  10   6  -8    0.03    0.46
  10   6  -7    1.06    1.19
  10   6  -7    0.96    0.50
  10   6  -6   -0.05    0.77
  10   6  -5   -0.88    1.42
  10   6  -4   -0.16    0.59
  10   6  -3    0.85    1.18
  10   6  -2    0.13    0.44
  10   6  -1    4.03    1.62
  10   6   0    0.97    1.20
  10   6   1    1.04    1.14
  10   6   2    1.90    1.26
  10   6   3    1.75    0.86
  10   6   4    2.20    1.21
  10   7  -9    4.18    1.85
  10   7  -9    3.13    1.86
  10   7  -8    5.75    2.73
  10   7  -7   21.68    5.03
  10   7  -6   26.87    5.40
  10   7  -5    3.67    2.04
  10   7  -4    5.80    2.29
  10   7  -3    6.70    2.58
  10   7  -2   12.89    3.47
  10   7  -1    2.89    1.50
  10   7   0    3.11    1.76
  10   7   1   25.83    4.78
  10   7   2    5.28    2.24
  10   7   3   -0.15    0.67
  10   8  -6    1.54    1.32
  10   8  -5    0.37    0.39
  10   8  -4   -1.46    1.27
  10   8  -3    2.04    1.86
  10   8  -2   -0.28    0.71
  10   8  -1    1.01    0.88
  10   8   0    6.52    2.39
 -11   6   6    3.73    1.84
 -11   6   5   12.22    2.99
 -11   6   4    3.11    1.45
 -11   6   3    1.96    1.40
 -11   6   2    0.99    0.94
 -11   6   1    8.32    2.68
 -11   5   8   -0.75    1.14
 -11   5   7    1.10    0.90
 -11   5   6   -0.49    0.86
 -11   5   5    1.27    0.91
 -11   5   4    0.62    0.70
 -11   5   3   -0.41    0.08
 -11   5   2   -0.22    0.52
 -11   5   1    7.54    2.35
 -11   5   0    1.34    0.98
 -11   5  -1    0.99    0.75
 -11   5  -2    6.73    2.67
 -11   4   9   12.82    3.07
 -11   4   8    3.68    1.86
 -11   4   7    7.34    2.36
 -11   4   6    2.03    1.27
 -11   4   5    4.65    1.61
 -11   4   4    0.59    0.32
 -11   4   3   16.40    3.55
 -11   4   2   11.26    2.96
 -11   4   1    7.79    2.48
 -11   4   0    1.74    1.06
 -11   4  -1    2.14    1.11
 -11   4  -2    4.01    1.62
 -11   4  -3    0.43    0.39
 -11   3  10    1.03    0.97
 -11   3   9   -0.55    0.98
 -11   3   8    9.26    2.66
 -11   3   7    0.76    0.57
 -11   3   6    1.31    0.95
 -11   3   5    1.23    1.04
 -11   3   4    0.86    0.85
 -11   3   3    0.33    0.20
 -11   3   2    3.16    1.31
 -11   3   1    0.16    0.16
 -11   3   0    4.32    1.76
 -11   3  -1    2.86    1.48
 -11   3  -2    2.80    1.51
 -11   3  -3    0.69    1.03
 -11   2  10   12.70    3.07
 -11   2   9    1.38    0.57
 -11   2   8    3.29    1.34
 -11   2   7    5.39    1.99
 -11   2   6    1.74    1.18
 -11   2   5   -0.04    0.15
 -11   2   4   16.13    3.32
 -11   2   3   28.72    4.67
 -11   2   2   12.56    3.03
 -11   2   1    0.10    0.64
 -11   2   0    1.26    1.28
 -11   2  -1    0.37    0.23
 -11   2  -2    1.90    1.00
 -11   2  -3    5.75    2.24
 -11   2  -4   20.43    3.91
 -11   1  11    0.47    0.58
 -11   1  10    0.17    0.55
 -11   1   9    3.17    1.24
 -11   1   8    3.42    1.70
 -11   1   7    0.62    0.84
 -11   1   6    0.37    0.68
 -11   1   5    0.52    0.22
 -11   1   4    1.61    0.94
 -11   1   3    0.51    0.93
 -11   1   2    0.48    0.74
 -11   1   1    3.59    1.59
 -11   1   0    0.01    0.61
 -11   1  -1   -0.28    0.42
 -11   1  -2    2.27    1.30
 -11   1  -3    3.34    1.69
 -11   1  -4    2.89    1.76
 -11   0  11    7.62    2.26
 -11   0  10    2.42    1.17
 -11   0   9    1.93    1.39
 -11   0   8   12.77    3.04
 -11   0   7   20.71    3.67
 -11   0   6    3.56    1.43
 -11   0   5    1.24    1.05
 -11   0   4   13.91    3.05
 -11   0   3   12.69    3.03
 -11   0   2    0.07    0.68
 -11   0   1    4.32    1.73
 -11   0   0    4.14    1.77
 -11   0  -1    8.23    2.38
 -11   0  -2    9.57    2.70
 -11   0  -3    9.76    2.78
 -11   0  -4    7.90    2.56
 -11  -1  11    0.87    0.78
 -11  -1  10   -0.41    0.42
 -11  -1   9   -0.68    0.49
 -11  -1   8    0.40    0.17
 -11  -1   7   -0.55    1.04
 -11  -1   6    8.67    2.43
 -11  -1   5    0.76    0.74
 -11  -1   4    3.18    1.48
 -11  -1   3    0.42    0.98
 -11  -1   2    1.35    1.37
 -11  -1   1    0.18    0.35
 -11  -1   0   -0.03    0.45
 -11  -1  -1    6.02    2.38
 -11  -1  -2    5.19    1.91
 -11  -1  -3    0.87    1.22
 -11  -1  -4    2.02    1.42
 -11  -2  10    3.06    1.23
 -11  -2   9   18.51    3.49
 -11  -2   8   18.39    3.41
 -11  -2   7    6.77    2.16
 -11  -2   6   -0.85    1.15
 -11  -2   5    1.87    1.10
 -11  -2   4    1.86    0.93
 -11  -2   3    0.99    0.96
 -11  -2   2   36.78    5.17
 -11  -2   1   18.58    3.73
 -11  -2   0    3.69    1.81
 -11  -2  -1   13.71    3.26
 -11  -2  -2   -0.75    0.80
 -11  -2  -3    3.05    1.64
 -11  -2  -4    0.20    0.44
 -11  -3   9    0.09    0.40
 -11  -3   8    0.45    0.56
 -11  -3   7    5.59    1.86
 -11  -3   6    0.36    0.52
 -11  -3   5    1.62    0.99
 -11  -3   4    0.19    0.38
 -11  -3   3    0.82    1.10
 -11  -3   2    0.51    0.45
 -11  -3   1   -0.06    0.54
 -11  -3   0    0.72    1.15
 -11  -3  -1    2.54    1.50
 -11  -3  -2    0.40    0.71
 -11  -3  -3    7.29    2.59
 -11  -4   8    6.30    2.16
 -11  -4   7   -0.03    0.17
 -11  -4   6    0.58    0.56
 -11  -4   5    6.45    2.07
 -11  -4   4    4.54    1.48
 -11  -4   3   11.09    2.71
 -11  -4   2   18.02    3.60
 -11  -4   1    4.20    1.66
 -11  -4   0    1.41    0.45
 -11  -5   7    1.01    0.91
 -11  -5   6    0.97    0.70
 -11  -5   5    0.18    0.64
   0   0   0    0.00    0.00
;
_shelx_hkl_checksum              73744
_olex2_submission_special_instructions 'No special instructions were received'
#END Tags that were not found in dictionaries
loop_
_space_group_symop_operation_xyz
'x, y, z'
'-x, -y, -z'
loop_
_atom_site_label
_atom_site_type_symbol
_atom_site_fract_x
_atom_site_fract_y
_atom_site_fract_z
_atom_site_U_iso_or_equiv
_atom_site_adp_type
_atom_site_occupancy
_atom_site_site_symmetry_order
_atom_site_calc_flag
_atom_site_refinement_flags_posn
Br1 Br 0.05419(11) 0.16640(8) 0.93281(6) 0.0352(3) Uani 1 1 d .
Br2 Br 0.69516(10) 0.68256(9) 0.93488(6) 0.0376(3) Uani 1 1 d .
S3 S 0.4719(2) 0.70545(19) 0.78554(14) 0.0292(6) Uani 1 1 d .
S4 S 0.2207(2) 0.20105(18) 0.79439(14) 0.0287(5) Uani 1 1 d .
O5 O 0.4705(6) 0.0408(5) 0.6686(4) 0.0281(15) Uani 1 1 d .
O6 O 0.1309(6) 0.5431(5) 0.6650(4) 0.0322(16) Uani 1 1 d .
O7 O 0.4864(7) 0.3545(5) 0.6095(4) 0.0321(15) Uani 1 1 d .
O8 O 0.0914(7) 0.8490(5) 0.5978(4) 0.0349(16) Uani 1 1 d .
O9 O 0.4386(6) 0.2241(5) 0.6831(4) 0.0274(14) Uani 1 1 d .
N10 N 0.2788(8) 0.6212(6) 0.5814(4) 0.0243(16) Uani 1 1 d .
N11 N 0.2827(7) 0.1246(6) 0.5849(4) 0.0227(16) Uani 1 1 d .
O12 O 0.0483(8) 0.4084(6) 0.5908(4) 0.0437(19) Uani 1 1 d .
O13 O 0.1839(6) 0.7254(5) 0.6759(4) 0.0275(14) Uani 1 1 d .
O14 O -0.2798(9) 0.1488(6) 0.5894(5) 0.047(2) Uani 1 1 d .
O15 O -0.1853(10) -0.3508(6) 0.5874(5) 0.053(2) Uani 1 1 d .
C16 C 0.1252(10) 0.4831(7) 0.6029(6) 0.031(2) Uani 1 1 d .
O17 O 0.5015(8) -0.0915(5) 0.5913(5) 0.0431(19) Uani 1 1 d .
C18 C 0.1460(9) 0.7676(7) 0.6074(6) 0.028(2) Uani 1 1 d .
C19 C 0.2396(10) 0.0121(7) 0.7713(5) 0.029(2) Uani 1 1 d .
H19 H 0.2625 -0.0516 0.7504 0.035 Uiso 1 1 calc R
C20 C 0.2336(10) 0.5174(7) 0.5524(6) 0.030(2) Uani 1 1 d .
H20A H 0.3161 0.4716 0.5584 0.036 Uiso 1 1 calc R
H20B H 0.1896 0.5181 0.4966 0.036 Uiso 1 1 calc R
C21 C 0.3051(10) 0.0215(7) 0.5531(6) 0.028(2) Uani 1 1 d .
H21A H 0.3209 0.0253 0.4981 0.034 Uiso 1 1 calc R
H21B H 0.2215 -0.0242 0.5554 0.034 Uiso 1 1 calc R
C22 C 0.1387(12) -0.3619(8) 0.8794(7) 0.041(3) Uani 1 1 d .
H22A H 0.1122 -0.3699 0.8220 0.050 Uiso 1 1 calc R
H22B H 0.2438 -0.3675 0.8924 0.050 Uiso 1 1 calc R
C23 C 0.0985(11) -0.2556(8) 0.9033(6) 0.036(2) Uani 1 1 d .
H23A H -0.0070 -0.2510 0.8925 0.043 Uiso 1 1 calc R
H23B H 0.1291 -0.2463 0.9604 0.043 Uiso 1 1 calc R
C24 C 0.3607(10) 0.2065(7) 0.5494(6) 0.028(2) Uani 1 1 d .
H24A H 0.2931 0.2476 0.5139 0.034 Uiso 1 1 calc R
H24B H 0.4305 0.1768 0.5194 0.034 Uiso 1 1 calc R
C25 C 0.1628(9) 0.0193(7) 0.8349(6) 0.027(2) Uani 1 1 d .
C26 C 0.1473(9) 0.1180(8) 0.8531(5) 0.027(2) Uani 1 1 d .
C27 C 0.2782(9) 0.1020(7) 0.7422(5) 0.025(2) Uani 1 1 d .
C28 C 0.4304(10) 0.6453(8) 0.5756(6) 0.034(2) Uani 1 1 d .
H28A H 0.4433 0.6415 0.5207 0.051 Uiso 1 1 calc GR
H28B H 0.4921 0.5961 0.6058 0.051 Uiso 1 1 calc GR
H28C H 0.4559 0.7143 0.5966 0.051 Uiso 1 1 calc GR
C29 C 0.1842(10) 0.7012(7) 0.5424(6) 0.029(2) Uani 1 1 d .
H29A H 0.0971 0.6696 0.5111 0.035 Uiso 1 1 calc R
H29B H 0.2350 0.7419 0.5073 0.035 Uiso 1 1 calc R
C30 C 0.1266(10) 0.1467(8) 0.5775(6) 0.034(2) Uani 1 1 d .
H30A H 0.0825 0.1421 0.5223 0.052 Uiso 1 1 calc GR
H30B H 0.1152 0.2155 0.5980 0.052 Uiso 1 1 calc GR
H30C H 0.0800 0.0968 0.6072 0.052 Uiso 1 1 calc GR
C31 C -0.2194(10) 0.1497(8) 0.6577(6) 0.035(2) Uani 1 1 d .
C32 C 0.6285(16) -0.0340(10) 0.8924(9) 0.069(4) Uani 1 1 d .
H32A H 0.5751 -0.0902 0.9119 0.104 Uiso 1 1 calc GR
H32B H 0.7313 -0.0445 0.9072 0.104 Uiso 1 1 calc GR
H32C H 0.6040 -0.0320 0.8353 0.104 Uiso 1 1 calc GR
C33 C 0.5582(9) 0.6278(8) 0.8550(6) 0.030(2) Uani 1 1 d .
C34 C 0.4355(9) 0.2708(7) 0.6161(6) 0.027(2) Uani 1 1 d .
C35 C 0.5863(13) 0.2545(9) 0.9206(7) 0.050(3) Uani 1 1 d .
H35A H 0.6517 0.2667 0.9707 0.060 Uiso 1 1 calc R
H35B H 0.4881 0.2464 0.9326 0.060 Uiso 1 1 calc R
C36 C 0.1631(11) -0.1688(7) 0.8620(6) 0.034(2) Uani 1 1 d .
H36A H 0.2678 -0.1660 0.8798 0.040 Uiso 1 1 calc R
H36B H 0.1461 -0.1838 0.8051 0.040 Uiso 1 1 calc R
C37 C 0.3687(9) 0.6055(7) 0.7400(6) 0.028(2) Uani 1 1 d .
C38 C -0.1905(10) -0.3461(8) 0.6569(6) 0.035(2) Uani 1 1 d .
C39 C 0.4372(10) -0.0163(8) 0.6053(6) 0.032(2) Uani 1 1 d .
C40 C 0.5111(11) 0.5298(8) 0.8476(6) 0.035(2) Uani 1 1 d .
C41 C 0.1045(12) -0.0669(8) 0.8763(7) 0.041(3) Uani 1 1 d .
H41A H -0.0006 -0.0707 0.8602 0.050 Uiso 1 1 calc R
H41B H 0.1240 -0.0515 0.9332 0.050 Uiso 1 1 calc R
C42 C 0.0703(12) -0.4479(9) 0.9170(7) 0.048(3) Uani 1 1 d .
H42A H 0.1084 -0.4467 0.9737 0.057 Uiso 1 1 calc R
H42B H -0.0339 -0.4371 0.9109 0.057 Uiso 1 1 calc R
C43 C 0.0948(14) -0.5503(9) 0.8835(8) 0.051(3) Uani 1 1 d .
H43A H 0.0531 -0.5533 0.8279 0.077 Uiso 1 1 calc GR
H43B H 0.0496 -0.6032 0.9113 0.077 Uiso 1 1 calc GR
H43C H 0.1977 -0.5616 0.8893 0.077 Uiso 1 1 calc GR
C44 C 0.4011(10) 0.5184(8) 0.7793(6) 0.031(2) Uani 1 1 d .
H44 H 0.3551 0.4547 0.7633 0.038 Uiso 1 1 calc R
C45 C 0.5928(12) 0.3476(9) 0.8696(6) 0.043(3) Uani 1 1 d .
H45A H 0.6920 0.3577 0.8597 0.051 Uiso 1 1 calc R
H45B H 0.5309 0.3341 0.8185 0.051 Uiso 1 1 calc R
C46 C 0.5463(15) 0.4446(9) 0.9051(7) 0.053(3) Uani 1 1 d .
H46A H 0.6236 0.4690 0.9472 0.064 Uiso 1 1 calc R
H46B H 0.4610 0.4288 0.9294 0.064 Uiso 1 1 calc R
C47 C -0.2104(13) -0.4414(10) 0.7025(8) 0.056(3) Uani 1 1 d .
H47A H -0.1231 -0.4529 0.7398 0.084 Uiso 1 1 calc GR
H47B H -0.2303 -0.5000 0.6663 0.084 Uiso 1 1 calc GR
H47C H -0.2908 -0.4329 0.7309 0.084 Uiso 1 1 calc GR
B48 B 0.2429(10) 0.6252(8) 0.6708(6) 0.024(2) Uani 1 1 d .
C49 C 0.5898(16) 0.0665(9) 0.9279(8) 0.058(3) Uani 1 1 d .
H49A H 0.4859 0.0651 0.9297 0.069 Uiso 1 1 calc R
H49B H 0.6408 0.0728 0.9824 0.069 Uiso 1 1 calc R
C52 C -0.1779(12) 0.0553(10) 0.6991(8) 0.056(3) Uani 1 1 d .
H52A H -0.1997 -0.0032 0.6630 0.084 Uiso 1 1 calc GR
H52B H -0.2312 0.0477 0.7427 0.084 Uiso 1 1 calc GR
H52C H -0.0752 0.0585 0.7194 0.084 Uiso 1 1 calc GR
B53 B 0.3686(10) 0.1233(8) 0.6754(6) 0.025(2) Uani 1 1 d .
C54 C 0.6254(12) 0.1581(9) 0.8842(7) 0.048(3) Uani 1 1 d .
H54A H 0.7293 0.1601 0.8824 0.058 Uiso 1 1 calc R
H54B H 0.5741 0.1525 0.8298 0.058 Uiso 1 1 calc R
C1 C -0.1863(12) 0.2491(10) 0.7005(8) 0.054(3) Uani 1 1 d .
H1A H -0.2354 0.3037 0.6697 0.081 Uiso 1 1 calc GR
H1B H -0.0828 0.2629 0.7085 0.081 Uiso 1 1 calc GR
H1C H -0.2187 0.2460 0.7513 0.081 Uiso 1 1 calc GR
C2 C -0.1765(13) -0.2480(10) 0.6986(8) 0.055(3) Uani 1 1 d .
H2A H -0.2694 -0.2151 0.6914 0.082 Uiso 1 1 calc GR
H2B H -0.1068 -0.2042 0.6780 0.082 Uiso 1 1 calc GR
H2C H -0.1440 -0.2587 0.7544 0.082 Uiso 1 1 calc GR
loop_
_atom_site_aniso_label
_atom_site_aniso_U_11
_atom_site_aniso_U_22
_atom_site_aniso_U_33
_atom_site_aniso_U_23
_atom_site_aniso_U_13
_atom_site_aniso_U_12
Br1 0.0336(5) 0.0361(6) 0.0392(6) -0.0117(4) 0.0181(4) -0.0038(4)
Br2 0.0262(5) 0.0435(7) 0.0389(6) -0.0080(5) -0.0062(4) -0.0024(4)
S3 0.0228(11) 0.0284(13) 0.0347(13) -0.0066(10) 0.0007(9) -0.0017(10)
S4 0.0267(12) 0.0254(12) 0.0358(13) -0.0062(10) 0.0111(10) -0.0007(10)
O5 0.024(3) 0.027(4) 0.036(4) -0.001(3) 0.011(3) 0.006(3)
O6 0.019(3) 0.039(4) 0.038(4) -0.006(3) 0.004(3) -0.005(3)
O7 0.034(4) 0.023(4) 0.040(4) 0.001(3) 0.011(3) -0.004(3)
O8 0.029(4) 0.023(4) 0.050(4) -0.002(3) -0.002(3) 0.002(3)
O9 0.023(3) 0.029(4) 0.031(4) -0.006(3) 0.005(3) -0.002(3)
N10 0.025(4) 0.023(4) 0.024(4) -0.002(3) 0.002(3) -0.003(3)
N11 0.018(4) 0.022(4) 0.028(4) -0.001(3) 0.004(3) 0.002(3)
O12 0.042(4) 0.034(4) 0.050(5) -0.001(4) -0.004(3) -0.017(4)
O13 0.024(3) 0.030(4) 0.028(4) -0.002(3) 0.002(3) 0.002(3)
O14 0.054(5) 0.048(5) 0.041(5) -0.001(4) 0.012(4) -0.003(4)
O15 0.076(6) 0.046(5) 0.035(5) -0.001(4) -0.001(4) 0.011(4)
C16 0.034(5) 0.018(5) 0.037(6) 0.006(4) -0.008(4) -0.002(4)
O17 0.050(4) 0.029(4) 0.055(5) -0.003(3) 0.022(4) 0.013(4)
C18 0.019(4) 0.029(5) 0.034(5) -0.002(4) -0.003(4) -0.002(4)
C19 0.032(5) 0.024(5) 0.031(5) -0.007(4) 0.007(4) 0.005(4)
C20 0.031(5) 0.025(5) 0.032(5) -0.003(4) 0.001(4) 0.000(4)
C21 0.030(5) 0.019(5) 0.036(5) -0.008(4) 0.008(4) -0.006(4)
C22 0.039(6) 0.042(7) 0.046(7) -0.007(5) 0.015(5) 0.004(5)
C23 0.042(6) 0.034(6) 0.036(6) -0.003(5) 0.019(5) -0.007(5)
C24 0.029(5) 0.024(5) 0.033(5) 0.002(4) 0.012(4) -0.003(4)
C25 0.021(4) 0.026(5) 0.034(5) 0.003(4) 0.010(4) -0.001(4)
C26 0.018(4) 0.036(6) 0.029(5) -0.007(4) 0.006(4) -0.001(4)
C27 0.019(4) 0.027(5) 0.029(5) -0.006(4) 0.006(4) 0.002(4)
C28 0.028(5) 0.044(6) 0.032(5) -0.002(5) 0.013(4) -0.008(5)
C29 0.035(5) 0.020(5) 0.032(5) -0.003(4) 0.002(4) 0.000(4)
C30 0.023(5) 0.041(6) 0.038(6) -0.003(5) 0.002(4) 0.004(4)
C31 0.022(5) 0.043(6) 0.044(7) -0.003(5) 0.016(4) -0.003(4)
C32 0.076(10) 0.046(8) 0.085(11) -0.002(7) 0.011(8) 0.012(7)
C33 0.018(4) 0.032(6) 0.039(6) -0.009(4) 0.002(4) -0.002(4)
C34 0.024(5) 0.022(5) 0.038(6) -0.005(4) 0.008(4) 0.003(4)
C35 0.052(7) 0.054(8) 0.045(7) -0.009(6) 0.011(5) -0.010(6)
C36 0.035(5) 0.024(5) 0.044(6) 0.006(4) 0.016(5) 0.000(4)
C37 0.022(4) 0.027(5) 0.032(5) -0.007(4) 0.000(4) -0.004(4)
C38 0.021(5) 0.040(6) 0.043(7) 0.007(5) 0.002(4) 0.004(4)
C39 0.034(5) 0.025(5) 0.039(6) 0.002(4) 0.011(4) -0.003(4)
C40 0.036(5) 0.028(5) 0.038(6) 0.000(4) -0.008(4) 0.007(4)
C41 0.038(6) 0.039(6) 0.052(7) -0.001(5) 0.021(5) 0.005(5)
C42 0.042(6) 0.049(7) 0.058(8) -0.002(6) 0.023(5) 0.003(6)
C43 0.057(7) 0.034(6) 0.063(8) 0.006(6) 0.007(6) 0.006(6)
C44 0.029(5) 0.028(5) 0.033(5) -0.010(4) -0.006(4) -0.005(4)
C45 0.048(6) 0.041(7) 0.038(6) -0.002(5) 0.007(5) 0.006(5)
C46 0.076(9) 0.031(6) 0.047(7) 0.005(5) -0.009(6) 0.001(6)
C47 0.050(7) 0.055(8) 0.069(9) 0.013(7) 0.029(6) 0.010(6)
B48 0.017(5) 0.029(6) 0.029(6) -0.003(5) 0.008(4) -0.001(4)
C49 0.078(9) 0.034(7) 0.061(8) 0.005(6) 0.010(7) 0.007(6)
C52 0.033(6) 0.052(8) 0.081(10) 0.001(7) 0.003(6) 0.007(6)
B53 0.017(5) 0.027(6) 0.031(6) -0.006(5) 0.004(4) 0.003(4)
C54 0.039(6) 0.043(7) 0.062(8) 0.012(6) 0.008(6) 0.006(5)
C1 0.034(6) 0.059(8) 0.067(8) -0.012(7) 0.006(6) -0.003(6)
C2 0.042(7) 0.063(9) 0.060(8) -0.015(7) 0.019(6) -0.016(6)
loop_
_atom_type_symbol
_atom_type_description
_atom_type_scat_dispersion_real
_atom_type_scat_dispersion_imag
_atom_type_scat_source
C C 0.0033 0.0016 'International Tables Vol C Tables 4.2.6.8 and 6.1.1.4'
H H 0.0000 0.0000 'International Tables Vol C Tables 4.2.6.8 and 6.1.1.4'
B B 0.0013 0.0007 'International Tables Vol C Tables 4.2.6.8 and 6.1.1.4'
Br Br -0.2901 2.4595 'International Tables Vol C Tables 4.2.6.8 and 6.1.1.4'
N N 0.0061 0.0033 'International Tables Vol C Tables 4.2.6.8 and 6.1.1.4'
O O 0.0106 0.0060 'International Tables Vol C Tables 4.2.6.8 and 6.1.1.4'
S S 0.1246 0.1234 'International Tables Vol C Tables 4.2.6.8 and 6.1.1.4'
loop_
_geom_angle_atom_site_label_1
_geom_angle_atom_site_label_2
_geom_angle_atom_site_label_3
_geom_angle
C33 S3 C37 92.1(5)
C26 S4 C27 91.6(5)
C39 O5 B53 114.0(7)
C16 O6 B48 113.6(8)
C34 O9 B53 113.7(7)
C20 N10 C28 112.5(7)
C20 N10 C29 112.7(7)
C20 N10 B48 104.4(7)
C28 N10 C29 110.3(8)
C28 N10 B48 114.3(7)
C29 N10 B48 102.1(7)
C21 N11 C24 112.7(7)
C21 N11 C30 111.4(7)
C21 N11 B53 104.0(7)
C24 N11 C30 111.0(7)
C24 N11 B53 102.6(7)
C30 N11 B53 114.7(7)
C18 O13 B48 113.5(7)
O6 C16 C20 111.1(8)
O12 C16 O6 123.5(10)
O12 C16 C20 125.3(10)
O8 C18 O13 124.7(9)
O8 C18 C29 124.3(9)
O13 C18 C29 111.0(8)
C25 C19 H19 122.1
C27 C19 H19 122.1
C27 C19 C25 115.8(8)
N10 C20 C16 104.7(7)
N10 C20 H20A 110.8
N10 C20 H20B 110.8
C16 C20 H20A 110.8
C16 C20 H20B 110.8
H20A C20 H20B 108.9
N11 C21 H21A 110.8
N11 C21 H21B 110.8
N11 C21 C39 104.8(7)
H21A C21 H21B 108.9
C39 C21 H21A 110.8
C39 C21 H21B 110.8
H22A C22 H22B 107.5
C23 C22 H22A 108.5
C23 C22 H22B 108.5
C42 C22 H22A 108.5
C42 C22 H22B 108.5
C42 C22 C23 115.0(9)
C22 C23 H23A 108.6
C22 C23 H23B 108.6
H23A C23 H23B 107.6
C36 C23 C22 114.7(8)
C36 C23 H23A 108.6
C36 C23 H23B 108.6
N11 C24 H24A 110.5
N11 C24 H24B 110.5
N11 C24 C34 105.9(8)
H24A C24 H24B 108.7
C34 C24 H24A 110.5
C34 C24 H24B 110.5
C19 C25 C41 126.9(9)
C26 C25 C19 109.6(8)
C26 C25 C41 123.4(9)
S4 C26 Br1 120.7(6)
C25 C26 Br1 125.7(7)
C25 C26 S4 113.6(7)
C19 C27 S4 109.4(7)
C19 C27 B53 129.7(8)
B53 C27 S4 120.8(7)
N10 C28 H28A 109.5
N10 C28 H28B 109.5
N10 C28 H28C 109.5
H28A C28 H28B 109.5
H28A C28 H28C 109.5
H28B C28 H28C 109.5
N10 C29 C18 105.9(8)
N10 C29 H29A 110.5
N10 C29 H29B 110.5
C18 C29 H29A 110.5
C18 C29 H29B 110.5
H29A C29 H29B 108.7
N11 C30 H30A 109.5
N11 C30 H30B 109.5
N11 C30 H30C 109.5
H30A C30 H30B 109.5
H30A C30 H30C 109.5
H30B C30 H30C 109.5
O14 C31 C52 122.0(11)
O14 C31 C1 119.5(11)
C52 C31 C1 118.5(11)
H32A C32 H32B 109.5
H32A C32 H32C 109.5
H32B C32 H32C 109.5
C49 C32 H32A 109.5
C49 C32 H32B 109.5
C49 C32 H32C 109.5
S3 C33 Br2 120.0(6)
C40 C33 Br2 126.1(8)
C40 C33 S3 113.8(7)
O7 C34 O9 124.4(9)
O7 C34 C24 124.3(9)
O9 C34 C24 111.2(8)
H35A C35 H35B 107.7
C45 C35 H35A 108.8
C45 C35 H35B 108.8
C54 C35 H35A 108.8
C54 C35 H35B 108.8
C54 C35 C45 113.9(10)
C23 C36 H36A 108.8
C23 C36 H36B 108.8
H36A C36 H36B 107.7
C41 C36 C23 113.9(8)
C41 C36 H36A 108.8
C41 C36 H36B 108.8
C44 C37 S3 109.8(7)
C44 C37 B48 129.0(9)
B48 C37 S3 120.6(7)
O15 C38 C47 121.1(11)
O15 C38 C2 120.6(11)
C2 C38 C47 118.3(11)
O5 C39 C21 111.4(8)
O17 C39 O5 124.1(9)
O17 C39 C21 124.4(9)
C33 C40 C44 109.3(9)
C33 C40 C46 127.9(10)
C44 C40 C46 122.2(10)
C25 C41 C36 115.2(8)
C25 C41 H41A 108.5
C25 C41 H41B 108.5
C36 C41 H41A 108.5
C36 C41 H41B 108.5
H41A C41 H41B 107.5
C22 C42 H42A 108.9
C22 C42 H42B 108.9
H42A C42 H42B 107.7
C43 C42 C22 113.4(10)
C43 C42 H42A 108.9
C43 C42 H42B 108.9
C42 C43 H43A 109.5
C42 C43 H43B 109.5
C42 C43 H43C 109.5
H43A C43 H43B 109.5
H43A C43 H43C 109.5
H43B C43 H43C 109.5
C37 C44 C40 114.9(9)
C37 C44 H44 122.5
C40 C44 H44 122.5
C35 C45 H45A 108.8
C35 C45 H45B 108.8
H45A C45 H45B 107.7
C46 C45 C35 113.7(10)
C46 C45 H45A 108.8
C46 C45 H45B 108.8
C40 C46 H46A 108.7
C40 C46 H46B 108.7
C45 C46 C40 114.4(10)
C45 C46 H46A 108.7
C45 C46 H46B 108.7
H46A C46 H46B 107.6
C38 C47 H47A 109.5
C38 C47 H47B 109.5
C38 C47 H47C 109.5
H47A C47 H47B 109.5
H47A C47 H47C 109.5
H47B C47 H47C 109.5
O6 B48 N10 100.2(7)
O6 B48 C37 111.0(8)
O13 B48 O6 111.9(7)
O13 B48 N10 102.7(7)
O13 B48 C37 112.5(8)
C37 B48 N10 117.8(7)
C32 C49 H49A 108.8
C32 C49 H49B 108.8
H49A C49 H49B 107.7
C54 C49 C32 113.8(12)
C54 C49 H49A 108.8
C54 C49 H49B 108.8
C31 C52 H52A 109.5
C31 C52 H52B 109.5
C31 C52 H52C 109.5
H52A C52 H52B 109.5
H52A C52 H52C 109.5
H52B C52 H52C 109.5
O5 B53 N11 100.3(7)
O5 B53 C27 111.6(8)
O9 B53 O5 112.3(7)
O9 B53 N11 101.6(8)
O9 B53 C27 112.6(8)
C27 B53 N11 117.6(7)
C35 C54 C49 112.2(11)
C35 C54 H54A 109.2
C35 C54 H54B 109.2
C49 C54 H54A 109.2
C49 C54 H54B 109.2
H54A C54 H54B 107.9
C31 C1 H1A 109.5
C31 C1 H1B 109.5
C31 C1 H1C 109.5
H1A C1 H1B 109.5
H1A C1 H1C 109.5
H1B C1 H1C 109.5
C38 C2 H2A 109.5
C38 C2 H2B 109.5
C38 C2 H2C 109.5
H2A C2 H2B 109.5
H2A C2 H2C 109.5
H2B C2 H2C 109.5
loop_
_geom_bond_atom_site_label_1
_geom_bond_atom_site_label_2
_geom_bond_distance
Br1 C26 1.867(9)
Br2 C33 1.860(9)
S3 C33 1.706(10)
S3 C37 1.720(9)
S4 C26 1.714(10)
S4 C27 1.720(9)
O5 C39 1.310(12)
O5 B53 1.483(11)
O6 C16 1.317(12)
O6 B48 1.486(12)
O7 C34 1.203(11)
O8 C18 1.199(11)
O9 C34 1.318(12)
O9 B53 1.460(13)
N10 C20 1.473(12)
N10 C28 1.485(11)
N10 C29 1.493(12)
N10 B48 1.640(12)
N11 C21 1.485(11)
N11 C24 1.487(11)
N11 C30 1.500(11)
N11 B53 1.647(12)
O12 C16 1.203(12)
O13 C18 1.318(11)
O13 B48 1.447(12)
O14 C31 1.229(12)
O15 C38 1.214(13)
C16 C20 1.520(14)
O17 C39 1.213(12)
C18 C29 1.509(13)
C19 H19 0.9500
C19 C25 1.420(13)
C19 C27 1.355(14)
C20 H20A 0.9900
C20 H20B 0.9900
C21 H21A 0.9900
C21 H21B 0.9900
C21 C39 1.519(14)
C22 H22A 0.9900
C22 H22B 0.9900
C22 C23 1.523(14)
C22 C42 1.498(16)
C23 H23A 0.9900
C23 H23B 0.9900
C23 C36 1.522(14)
C24 H24A 0.9900
C24 H24B 0.9900
C24 C34 1.492(13)
C25 C26 1.345(13)
C25 C41 1.491(14)
C27 B53 1.573(14)
C28 H28A 0.9800
C28 H28B 0.9800
C28 H28C 0.9800
C29 H29A 0.9900
C29 H29B 0.9900
C30 H30A 0.9800
C30 H30B 0.9800
C30 H30C 0.9800
C31 C52 1.470(16)
C31 C1 1.491(15)
C32 H32A 0.9800
C32 H32B 0.9800
C32 H32C 0.9800
C32 C49 1.525(17)
C33 C40 1.348(14)
C35 H35A 0.9900
C35 H35B 0.9900
C35 C45 1.525(17)
C35 C54 1.486(16)
C36 H36A 0.9900
C36 H36B 0.9900
C36 C41 1.492(14)
C37 C44 1.355(14)
C37 B48 1.576(13)
C38 C47 1.514(16)
C38 C2 1.459(16)
C40 C44 1.448(13)
C40 C46 1.516(15)
C41 H41A 0.9900
C41 H41B 0.9900
C42 H42A 0.9900
C42 H42B 0.9900
C42 C43 1.493(16)
C43 H43A 0.9800
C43 H43B 0.9800
C43 H43C 0.9800
C44 H44 0.9500
C45 H45A 0.9900
C45 H45B 0.9900
C45 C46 1.510(15)
C46 H46A 0.9900
C46 H46B 0.9900
C47 H47A 0.9800
C47 H47B 0.9800
C47 H47C 0.9800
C49 H49A 0.9900
C49 H49B 0.9900
C49 C54 1.490(17)
C52 H52A 0.9800
C52 H52B 0.9800
C52 H52C 0.9800
C54 H54A 0.9900
C54 H54B 0.9900
C1 H1A 0.9800
C1 H1B 0.9800
C1 H1C 0.9800
C2 H2A 0.9800
C2 H2B 0.9800
C2 H2C 0.9800
loop_
_geom_torsion_atom_site_label_1
_geom_torsion_atom_site_label_2
_geom_torsion_atom_site_label_3
_geom_torsion_atom_site_label_4
_geom_torsion
Br2 C33 C40 C44 178.0(7)
Br2 C33 C40 C46 6.4(17)
S3 C33 C40 C44 1.9(12)
S3 C33 C40 C46 -169.7(10)
S3 C37 C44 C40 -0.2(11)
S3 C37 B48 O6 -153.7(7)
S3 C37 B48 N10 91.8(9)
S3 C37 B48 O13 -27.4(11)
S4 C27 B53 O5 148.5(7)
S4 C27 B53 O9 21.1(11)
S4 C27 B53 N11 -96.5(9)
O6 C16 C20 N10 -14.5(10)
O8 C18 C29 N10 167.0(9)
N11 C21 C39 O5 13.1(10)
N11 C21 C39 O17 -169.0(9)
N11 C24 C34 O7 -165.1(8)
N11 C24 C34 O9 14.9(10)
O12 C16 C20 N10 169.0(9)
O13 C18 C29 N10 -11.4(10)
C16 O6 B48 N10 15.3(9)
C16 O6 B48 O13 123.6(8)
C16 O6 B48 C37 -109.9(9)
C18 O13 B48 O6 -91.0(9)
C18 O13 B48 N10 15.6(9)
C18 O13 B48 C37 143.2(8)
C19 C25 C26 Br1 -179.9(7)
C19 C25 C26 S4 1.0(11)
C19 C25 C41 C36 15.8(16)
C19 C27 B53 O5 -27.7(13)
C19 C27 B53 O9 -155.1(9)
C19 C27 B53 N11 87.3(12)
C20 N10 C29 C18 130.6(8)
C20 N10 B48 O6 -23.1(8)
C20 N10 B48 O13 -138.5(7)
C20 N10 B48 C37 97.3(9)
C21 N11 C24 C34 -132.2(8)
C21 N11 B53 O5 22.4(8)
C21 N11 B53 O9 138.0(7)
C21 N11 B53 C27 -98.7(9)
C22 C23 C36 C41 170.7(9)
C23 C22 C42 C43 171.4(10)
C23 C36 C41 C25 -178.3(9)
C24 N11 C21 C39 89.0(9)
C24 N11 B53 O5 -95.2(8)
C24 N11 B53 O9 20.3(8)
C24 N11 B53 C27 143.7(8)
C25 C19 C27 S4 0.5(11)
C25 C19 C27 B53 177.0(9)
C26 S4 C27 C19 0.1(7)
C26 S4 C27 B53 -176.9(7)
C26 C25 C41 C36 -165.1(10)
C27 S4 C26 Br1 -179.8(6)
C27 S4 C26 C25 -0.6(8)
C27 C19 C25 C26 -0.9(12)
C27 C19 C25 C41 178.3(10)
C28 N10 C20 C16 147.1(8)
C28 N10 C29 C18 -102.7(8)
C28 N10 B48 O6 -146.5(8)
C28 N10 B48 O13 98.1(8)
C28 N10 B48 C37 -26.1(12)
C29 N10 C20 C16 -87.4(9)
C29 N10 B48 O6 94.5(8)
C29 N10 B48 O13 -21.0(8)
C29 N10 B48 C37 -145.2(8)
C30 N11 C21 C39 -145.4(8)
C30 N11 C24 C34 102.1(8)
C30 N11 B53 O5 144.3(8)
C30 N11 B53 O9 -100.1(8)
C30 N11 B53 C27 23.2(12)
C32 C49 C54 C35 -179.9(11)
C33 S3 C37 C44 1.1(8)
C33 S3 C37 B48 172.9(8)
C33 C40 C44 C37 -1.1(13)
C33 C40 C46 C45 -130.5(12)
C34 O9 B53 O5 93.6(9)
C34 O9 B53 N11 -12.7(9)
C34 O9 B53 C27 -139.4(8)
C35 C45 C46 C40 -163.3(10)
C37 S3 C33 Br2 -178.2(6)
C37 S3 C33 C40 -1.8(8)
C39 O5 B53 O9 -123.0(9)
C39 O5 B53 N11 -15.8(10)
C39 O5 B53 C27 109.5(9)
C41 C25 C26 Br1 0.8(14)
C41 C25 C26 S4 -178.3(8)
C42 C22 C23 C36 -177.4(10)
C44 C37 B48 O6 16.4(14)
C44 C37 B48 N10 -98.2(12)
C44 C37 B48 O13 142.6(10)
C44 C40 C46 C45 58.9(16)
C45 C35 C54 C49 -168.4(11)
C46 C40 C44 C37 171.1(10)
B48 O6 C16 O12 174.8(9)
B48 O6 C16 C20 -1.7(11)
B48 N10 C20 C16 22.6(9)
B48 N10 C29 C18 19.2(9)
B48 O13 C18 O8 177.9(9)
B48 O13 C18 C29 -3.7(10)
B48 C37 C44 C40 -171.1(9)
B53 O5 C39 O17 -175.1(9)
B53 O5 C39 C21 2.9(11)
B53 O9 C34 O7 179.7(8)
B53 O9 C34 C24 -0.3(10)
B53 N11 C21 C39 -21.4(9)
B53 N11 C24 C34 -20.9(8)
C54 C35 C45 C46 177.3(10)
