#------------------------------------------------------------------------------
#$Date: 2019-03-18 09:35:25 +0200 (Mon, 18 Mar 2019) $
#$Revision: 214153 $
#$URL: file:///home/coder/svn-repositories/cod/cif/1/51/80/1518013.cif $
#------------------------------------------------------------------------------
#
# This file is available in the Crystallography Open Database (COD),
# http://www.crystallography.net/
#
# All data on this site have been placed in the public domain by the
# contributors.
#
data_1518013
loop_
_publ_author_name
'Rout, Subhrajit'
'Ray, Sumit K.'
'Unhale, Rajshekhar A.'
'Singh, Vinod K.'
_publ_section_title
;
 Asymmetric direct vinylogous Michael addition to 2-enoylpyridine N-oxides
 catalyzed by bifunctional thio-urea.
;
_journal_issue                   21
_journal_name_full               'Organic letters'
_journal_page_first              5568
_journal_page_last               5571
_journal_paper_doi               10.1021/ol5025794
_journal_volume                  16
_journal_year                    2014
_chemical_formula_sum            'C28 H25 N3 O3 S'
_chemical_formula_weight         483.57
_space_group_crystal_system      monoclinic
_space_group_IT_number           4
_space_group_name_Hall           'P 2yb'
_space_group_name_H-M_alt        'P 1 21 1'
_symmetry_space_group_name_Hall  'P 2yb'
_symmetry_space_group_name_H-M   'P 1 21 1'
_atom_sites_solution_hydrogens   geom
_audit_creation_method           SHELXL-2014/7
_cell_angle_alpha                90.000(5)
_cell_angle_beta                 98.979(5)
_cell_angle_gamma                90.000(5)
_cell_formula_units_Z            4
_cell_length_a                   5.844(5)
_cell_length_b                   24.190(5)
_cell_length_c                   17.139(5)
_cell_measurement_temperature    100(2)
_cell_volume                     2393(2)
_computing_cell_refinement       'Bruker SMART'
_computing_data_collection       'Bruker SMART'
_computing_data_reduction        'Bruker SAINT'
_computing_structure_refinement  'SHELXL-2014/7 (Sheldrick, 2014)'
_diffrn_ambient_temperature      100(2)
_diffrn_measured_fraction_theta_full 0.995
_diffrn_measured_fraction_theta_max 0.994
_diffrn_measurement_device_type  'CCD area detector'
_diffrn_measurement_method       'phi and omega scans'
_diffrn_radiation_monochromator  graphite
_diffrn_radiation_source         'fine-focus sealed tube'
_diffrn_radiation_type           MoK\a
_diffrn_radiation_wavelength     0.71069
_diffrn_reflns_av_R_equivalents  0.0943
_diffrn_reflns_av_unetI/netI     0.1123
_diffrn_reflns_Laue_measured_fraction_full 0.995
_diffrn_reflns_Laue_measured_fraction_max 0.994
_diffrn_reflns_limit_h_max       7
_diffrn_reflns_limit_h_min       -7
_diffrn_reflns_limit_k_max       29
_diffrn_reflns_limit_k_min       -26
_diffrn_reflns_limit_l_max       18
_diffrn_reflns_limit_l_min       -20
_diffrn_reflns_number            12422
_diffrn_reflns_point_group_measured_fraction_full 0.891
_diffrn_reflns_point_group_measured_fraction_max 0.886
_diffrn_reflns_theta_full        25.240
_diffrn_reflns_theta_max         25.499
_diffrn_reflns_theta_min         1.203
_exptl_absorpt_coefficient_mu    0.171
_exptl_absorpt_correction_type   none
_exptl_crystal_colour            Colourless
_exptl_crystal_density_diffrn    1.342
_exptl_crystal_description       Block
_exptl_crystal_F_000             1016
_exptl_crystal_size_max          0.21
_exptl_crystal_size_mid          0.16
_exptl_crystal_size_min          0.11
_refine_diff_density_max         0.510
_refine_diff_density_min         -0.451
_refine_diff_density_rms         0.095
_refine_ls_abs_structure_details
;
 Flack x determined using 1774 quotients [(I+)-(I-)]/[(I+)+(I-)]
 (Parsons, Flack and Wagner, Acta Cryst. B69 (2013) 249-259).
;
_refine_ls_abs_structure_Flack   0.14(13)
_refine_ls_extinction_method     none
_refine_ls_goodness_of_fit_ref   1.078
_refine_ls_hydrogen_treatment    constr
_refine_ls_matrix_type           full
_refine_ls_number_parameters     578
_refine_ls_number_reflns         7872
_refine_ls_number_restraints     1
_refine_ls_restrained_S_all      1.078
_refine_ls_R_factor_all          0.1002
_refine_ls_R_factor_gt           0.0727
_refine_ls_shift/su_max          0.011
_refine_ls_shift/su_mean         0.000
_refine_ls_structure_factor_coef Fsqd
_refine_ls_weighting_details
'w=1/[\s^2^(Fo^2^)+(0.1108P)^2^+1.1733P] where P=(Fo^2^+2Fc^2^)/3'
_refine_ls_weighting_scheme      calc
_refine_ls_wR_factor_gt          0.1871
_refine_ls_wR_factor_ref         0.2208
_reflns_Friedel_coverage         0.740
_reflns_Friedel_fraction_full    0.781
_reflns_Friedel_fraction_max     0.774
_reflns_number_gt                5893
_reflns_number_total             7872
_reflns_threshold_expression     'I > 2\s(I)'
_cod_data_source_file            ol5025794_si_003.cif
_cod_data_source_block           shelx
_cod_depositor_comments
;
Adding full bibliography for 1518012--1518013.cif.

2019-02-11
Z value and formula fixed to values more according to usual
chemical conventions.                 miguel
;
_cod_original_formula_sum            'C56 H50 N6 O6 S2'
_cod_original_formula_weight         967.14
_cod_original_formula_units_Z            2
_cod_database_code               1518013
#BEGIN Tags that were not found in dictionaries:
_shelx_shelxl_version_number     2014/7
_shelx_space_group_comment
;
The symmetry employed for this shelxl refinement is uniquely defined
by the following loop, which should always be used as a source of
symmetry information in preference to the above space-group names.
They are only intended as comments.
;
_shelx_res_file
;

    shelx.res created by SHELXL-2014/7

TITL 4ca in P 21    2 ethanols squeezed
CELL  0.71069   5.8440  24.1900  17.1390   90.000   98.979   90.000
ZERR     2.00   0.0050   0.0050   0.0050    0.005    0.005    0.005
LATT  -1
SYMM  - X, 1/2 + Y, - Z
SFAC  C    H    N    O    S
UNIT  112  100   12   12    4
MERG   2
OMIT    -3.00  51.00
ABIN
FMAP   2
PLAN    5
ACTA
L.S.  10
WGHT    0.110800    1.173300
FVAR       0.21116   0.75003
S1    5    0.090605    0.716218    0.352249    11.00000    0.03659    0.03195 =
         0.02336    0.00152    0.00654   -0.00504
S2    5    0.607990    0.812150    0.401319    11.00000    0.04418    0.02840 =
         0.02363   -0.00400    0.00289    0.00338
O1    4   -0.119237    0.646288   -0.072073    11.00000    0.02976    0.06183 =
         0.03366   -0.00817    0.00027    0.01095
O2    4   -0.532400    0.721864    0.066738    11.00000    0.03393    0.04385 =
         0.02383    0.00021    0.00694    0.00325
O3    4    0.845049    0.794158    0.837893    11.00000    0.02973    0.05694 =
         0.04930    0.01132    0.00043    0.00620
O4    4    0.287330    0.811167    0.691256    11.00000    0.02684    0.03477 =
         0.02265    0.00316    0.00264   -0.00236
N1    3   -0.310294    0.670587   -0.102329    11.00000    0.03745    0.04363 =
         0.01768    0.00162   -0.00226   -0.00148
N2    3    0.444568    0.591266    0.083398    11.00000    0.05518    0.04425 =
         0.05285   -0.00962    0.02058   -0.00144
N3    3    0.145904    0.475190    0.225172    11.00000    0.05303    0.03305 =
         0.05317    0.00239    0.01355   -0.00447
N4    3    0.686164    0.824616    0.861424    11.00000    0.04951    0.04397 =
         0.02528    0.00968   -0.00779   -0.01203
N5    3    1.261356    0.935386    0.660768    11.00000    0.03698    0.03531 =
         0.04421    0.00047    0.00284   -0.00309
N6    3    0.834851    1.052391    0.524189    11.00000    0.03539    0.02618 =
         0.05155   -0.00253    0.00301   -0.00311
C13   1   -0.452310    0.697214   -0.057489    11.00000    0.02535    0.03114 =
         0.02387   -0.00214    0.00886   -0.00293
C14   1   -0.663253    0.720013   -0.092508    11.00000    0.03318    0.04345 =
         0.02847    0.00661    0.00260   -0.00481
AFIX  43
H14   2   -0.759873    0.736758   -0.061224    11.00000   -1.20000
AFIX   0
C15   1   -0.729136    0.717734   -0.174035    11.00000    0.04572    0.04979 =
         0.02801    0.00393   -0.00624   -0.01388
AFIX  43
H15   2   -0.869120    0.732569   -0.198312    11.00000   -1.20000
AFIX   0
C16   1   -0.575847    0.692148   -0.218136    11.00000    0.03671    0.06257 =
         0.02331    0.00479   -0.00311   -0.00035
AFIX  43
H16   2   -0.612485    0.690994   -0.272902    11.00000   -1.20000
AFIX   0
C17   1   -0.375809    0.669141   -0.182422    11.00000    0.05191    0.06299 =
         0.02358   -0.00915    0.01273   -0.00712
AFIX  43
H17   2   -0.279744    0.651781   -0.213327    11.00000   -1.20000
AFIX   0
C12   1   -0.385631    0.703549    0.030137    11.00000    0.03216    0.02089 =
         0.01756   -0.00400    0.01030   -0.00165
C11   1   -0.145129    0.689225    0.071944    11.00000    0.02760    0.02870 =
         0.02061    0.00010   -0.00056    0.00104
AFIX  23
H11A  2   -0.031538    0.704715    0.042471    11.00000   -1.20000
H11B  2   -0.126737    0.649368    0.072495    11.00000   -1.20000
AFIX   0
C10   1   -0.096671    0.710925    0.157613    11.00000    0.02464    0.02905 =
         0.02092    0.00274    0.00080   -0.00086
AFIX  13
H10   2   -0.224470    0.699571    0.184872    11.00000   -1.20000
AFIX   0
C18   1   -0.081463    0.774110    0.159179    11.00000    0.02197    0.03659 =
         0.01777    0.00159    0.00039   -0.00428
C19   1    0.083605    0.801609    0.126348    11.00000    0.02580    0.02805 =
         0.03185   -0.00080    0.00959    0.00623
AFIX  43
H19   2    0.190839    0.781684    0.102914    11.00000   -1.20000
AFIX   0
C20   1    0.093908    0.859711    0.127441    11.00000    0.03912    0.03642 =
         0.02944    0.00238    0.00919   -0.00886
AFIX  43
H20   2    0.209142    0.877768    0.105491    11.00000   -1.20000
AFIX   0
C21   1   -0.066703    0.890332    0.161053    11.00000    0.04846    0.03249 =
         0.02358    0.00495   -0.00166    0.00270
AFIX  43
H21   2   -0.062301    0.928764    0.161287    11.00000   -1.20000
AFIX   0
C22   1   -0.236508    0.861437    0.194785    11.00000    0.04225    0.03652 =
         0.02722    0.00009    0.00065    0.00945
AFIX  43
H22   2   -0.346715    0.880839    0.217499    11.00000   -1.20000
AFIX   0
C23   1   -0.239471    0.803943    0.194148    11.00000    0.03340    0.02953 =
         0.02701   -0.00637    0.00574    0.00276
AFIX  43
H23   2   -0.349892    0.785265    0.217706    11.00000   -1.20000
AFIX   0
C9    1    0.127505    0.682357    0.197872    11.00000    0.03295    0.02907 =
         0.01396    0.00034    0.00685    0.00416
AFIX  13
H9    2    0.233927    0.680119    0.159096    11.00000   -1.20000
AFIX   0
C8    1    0.255746    0.709998    0.271617    11.00000    0.01987    0.04282 =
         0.03241    0.00249    0.00304   -0.00275
AFIX  23
H8A   2    0.302865    0.746666    0.257608    11.00000   -1.20000
H8B   2    0.395280    0.689012    0.289874    11.00000   -1.20000
AFIX   0
C1    1    0.073624    0.622917    0.221653    11.00000    0.02474    0.02795 =
         0.01983   -0.00267   -0.00218    0.00032
C24   1    0.166732    0.578624    0.186891    11.00000    0.03530    0.02547 =
         0.02730    0.00006    0.00548   -0.00390
C25   1    0.311760    0.586722    0.128301    11.00000    0.03616    0.03906 =
         0.03358   -0.00137    0.01215    0.00264
C26   1    0.147430    0.521865    0.208748    11.00000    0.03779    0.04148 =
         0.03571    0.00464    0.01355    0.00358
C2    1   -0.080189    0.616298    0.281232    11.00000    0.02916    0.03548 =
         0.01736    0.00214    0.00370    0.00218
C3    1   -0.230261    0.571653    0.279402    11.00000    0.02176    0.03512 =
         0.02900   -0.00389    0.00245   -0.00051
AFIX  43
H3    2   -0.230096    0.544930    0.240400    11.00000   -1.20000
AFIX   0
C4    1   -0.379915    0.565763    0.333857    11.00000    0.02662    0.02779 =
         0.02770    0.00474    0.00106   -0.00076
AFIX  43
H4    2   -0.480565    0.535790    0.330867    11.00000   -1.20000
AFIX   0
C5    1   -0.378590    0.605592    0.393949    11.00000    0.03719    0.04162 =
         0.02278    0.00540    0.00043   -0.00049
AFIX  43
H5    2   -0.477223    0.602266    0.431348    11.00000   -1.20000
AFIX   0
C6    1   -0.226494    0.649973    0.396066    11.00000    0.02994    0.03311 =
         0.02428    0.00381   -0.00075    0.00026
AFIX  43
H6    2   -0.223604    0.675951    0.436207    11.00000   -1.20000
AFIX   0
C7    1   -0.078694    0.657155    0.340775    11.00000    0.02286    0.02716 =
         0.02046    0.00477    0.00182    0.00322
C27   1    0.495326    0.842458    0.810963    11.00000    0.02155    0.04986 =
         0.02145    0.00513    0.00313   -0.00177
C28   1    0.710551    0.839142    0.938348    11.00000    0.05101    0.10305 =
         0.01533    0.00222   -0.00728   -0.02198
AFIX  43
H28   2    0.844698    0.828966    0.971885    11.00000   -1.20000
AFIX   0
C29   1    0.547221    0.867789    0.967836    11.00000    0.04999    0.14242 =
         0.02469   -0.00080    0.00185   -0.02370
AFIX  43
H29   2    0.567709    0.875812    1.021544    11.00000   -1.20000
AFIX   0
C30   1    0.342948    0.886132    0.918298    11.00000    0.05854    0.14185 =
         0.03421   -0.02385    0.00281    0.00074
AFIX  43
H30   2    0.229558    0.906586    0.937807    11.00000   -1.20000
AFIX   0
C31   1    0.323131    0.871746    0.839519    11.00000    0.04132    0.07952 =
         0.02552   -0.01432    0.01045   -0.00635
AFIX  43
H31   2    0.191060    0.881997    0.804987    11.00000   -1.20000
AFIX   0
C32   1    0.472237    0.829304    0.724317    11.00000    0.01966    0.03067 =
         0.02169    0.00139    0.00432   -0.00164
C33   1    0.670410    0.842255    0.680425    11.00000    0.02666    0.03113 =
         0.01999   -0.00265    0.00358   -0.00186
AFIX  23
H33A  2    0.811844    0.827070    0.709740    11.00000   -1.20000
H33B  2    0.688902    0.882056    0.678489    11.00000   -1.20000
AFIX   0
C34   1    0.641312    0.756336    0.595527    11.00000    0.02940    0.01922 =
         0.02607   -0.00483    0.00399   -0.00354
C35   1    0.840017    0.727571    0.628829    11.00000    0.02666    0.03311 =
         0.02726   -0.00258   -0.00181   -0.00061
AFIX  43
H35   2    0.973145    0.746783    0.650012    11.00000   -1.20000
AFIX   0
C36   1    0.837969    0.670359    0.630172    11.00000    0.02684    0.03260 =
         0.03025    0.00234    0.00113    0.00552
AFIX  43
H36   2    0.969740    0.651318    0.653076    11.00000   -1.20000
AFIX   0
C37   1    0.643339    0.641263    0.598033    11.00000    0.04878    0.02497 =
         0.02790   -0.00356    0.00297    0.00249
AFIX  43
H37   2    0.643986    0.602830    0.599424    11.00000   -1.20000
AFIX   0
C38   1    0.445291    0.669529    0.563402    11.00000    0.03772    0.03675 =
         0.02280    0.00049    0.00772   -0.00018
AFIX  43
H38   2    0.313248    0.650170    0.541538    11.00000   -1.20000
AFIX   0
C39   1    0.447589    0.726959    0.561951    11.00000    0.02303    0.02219 =
         0.03480   -0.00345    0.00660   -0.00651
AFIX  43
H39   2    0.316864    0.745949    0.538037    11.00000   -1.20000
AFIX   0
C40   1    0.817621    0.847217    0.551722    11.00000    0.02038    0.01956 =
         0.03518   -0.00234    0.00402   -0.00115
AFIX  13
H40   2    0.965008    0.848249    0.587908    11.00000   -1.20000
AFIX   0
C41   1    0.859261    0.817277    0.475973    11.00000    0.03467    0.03413 =
         0.01800   -0.00053    0.00257   -0.00262
AFIX  23
H41A  2    0.915609    0.780294    0.489845    11.00000   -1.20000
H41B  2    0.979788    0.836683    0.454013    11.00000   -1.20000
AFIX   0
C42   1    0.884572    0.948898    0.562714    11.00000    0.03260    0.02492 =
         0.02382    0.00142    0.00750    0.00434
C43   1    1.089303    0.940059    0.617529    11.00000    0.02745    0.03173 =
         0.03468    0.00118    0.00943    0.00393
C44   1    0.849568    1.006090    0.540666    11.00000    0.02279    0.02816 =
         0.03992   -0.00358    0.00206    0.00936
C45   1    0.750203    0.905950    0.529157    11.00000    0.02287    0.02542 =
         0.01808   -0.00522    0.00839   -0.00173
C46   1    0.542428    0.915020    0.469341    11.00000    0.03024    0.02355 =
         0.02144   -0.00204    0.00664   -0.00412
C47   1    0.466466    0.875091    0.411559    11.00000    0.03347    0.02577 =
         0.03040    0.00571    0.01003   -0.00434
C48   1    0.270885    0.884361    0.355422    11.00000    0.03420    0.04363 =
         0.03034    0.00007    0.00407   -0.00559
AFIX  43
H48   2    0.224683    0.857962    0.316715    11.00000   -1.20000
AFIX   0
C49   1    0.142402    0.933680    0.357023    11.00000    0.02359    0.05215 =
         0.03472    0.00250   -0.00090    0.00223
AFIX  43
H49   2    0.015254    0.940298    0.318267    11.00000   -1.20000
AFIX   0
C50   1    0.205096    0.971919    0.415815    11.00000    0.03657    0.04196 =
         0.02778    0.01540    0.00413    0.00210
AFIX  43
H50   2    0.117195    1.003751    0.418171    11.00000   -1.20000
AFIX   0
C51   1    0.401580    0.962670    0.471975    11.00000    0.02058    0.03967 =
         0.02670    0.00659    0.00791   -0.00080
AFIX  43
H51   2    0.441316    0.988370    0.512162    11.00000   -1.20000
AFIX   0
C52   1    0.638175    0.819214    0.594759    11.00000    0.02848    0.02555 =
         0.01650   -0.00118   -0.00550    0.00034
AFIX  13
H52   2    0.484634    0.830801    0.568480    11.00000   -1.20000
AFIX   0
HKLF    4

REM  4ca in P 21    2 ethanols squeezed
REM R1 =  0.0727 for    5893 Fo > 4sig(Fo)  and  0.1002 for all    7872 data
REM    578 parameters refined using      1 restraints

END

WGHT      0.1104      1.1913

REM Highest difference peak  0.510,  deepest hole -0.451,  1-sigma level  0.095
Q1    1  -0.0264  0.9859  1.0014  11.00000  0.05    0.51
Q2    1   0.4441  0.9814  1.0765  11.00000  0.05    0.46
Q3    1  -0.9635  0.7753 -0.0436  11.00000  0.05    0.41
Q4    1  -0.1300  0.5410 -0.2206  11.00000  0.05    0.40
Q5    1   1.1700  0.5680  0.7917  11.00000  0.05    0.39
;
_shelx_res_checksum              67609
_shelx_hkl_file
;
   1   0   0    0.28    0.15
   2   0   0   42.98    1.77
   3   0   0   80.82    3.14
  -4   0   0  111.54    5.12
  -4   0   0  104.26    5.24
  -5   0   0   38.25    2.91
  -5   0   0   35.97    3.02
  -6   0   0    8.10    1.94
  -6   0   0    6.18    1.55
  -7   0   0    2.90    0.94
  -7   0  -1    4.12    1.41
  -5   0  -1    6.60    1.59
  -5   0  -1    5.34    1.43
  -4   0  -1   24.33    2.40
  -4   0  -1   23.25    2.53
  -3   0  -1    1.98    0.86
  -3   0  -1    1.88    0.80
  -2   0  -1   69.28    2.92
  -2   0  -1   66.53    3.01
  -1   0  -1    7.69    0.80
  -1   0  -1    8.69    0.81
   0   0  -1   -0.05    0.09
   0   0  -1    0.14    0.09
   1   0  -1   53.21    1.82
   2   0  -1  339.21    9.61
   3   0  -1   43.73    2.14
   4   0  -1    1.48    0.69
  -5   0   1  111.47    5.72
  -5   0   1  107.13    5.33
  -6   0   1    1.12    0.86
  -6   0   1    2.31    1.10
  -7   0   1    5.70    1.45
  -7   0  -2    3.90    1.33
  -5   0  -2    2.20    0.87
  -4   0  -2    1.42    0.84
  -3   0  -2   38.02    2.41
  -3   0  -2   39.08    2.53
  -2   0  -2  442.34   12.79
  -1   0  -2  247.95    7.20
   0   0  -2    0.20    0.29
   0   0  -2    1.07    0.28
  -1   0   2  247.36   14.58
   1   0  -2  246.25    6.96
   2   0  -2   -0.47    0.40
   3   0  -2    2.93    0.74
   4   0  -2   22.55    1.70
   5   0  -2   54.17    3.09
  -6   0   2    0.47    0.66
  -6   0   2    1.26    0.96
  -7   0  -3    4.72    1.47
  -5   0  -3    3.41    1.27
  -4   0  -3    1.24    0.81
  -3   0  -3   63.61    3.27
  -2   0  -3    5.51    0.94
  -1   0  -3  373.86   10.55
   0   0  -3   79.42    2.97
   0   0  -3   76.75    2.51
  -1   0   3  119.20    8.49
   1   0  -3  129.93    3.95
   1   0  -3  131.67    4.32
   2   0  -3   12.93    1.09
  -2   0   3   23.89    5.10
   3   0  -3   69.80    3.01
   4   0  -3    4.26    1.01
   5   0  -3   10.56    1.60
  -7   0  -4    2.01    1.20
  -6   0  -4    8.54    2.12
  -5   0  -4   19.80    2.49
  -4   0  -4   49.24    3.24
  -3   0  -4  100.69    4.36
  -2   0  -4   87.07    3.54
  -1   0  -4   49.49    2.19
   0   0  -4  420.15   11.52
   0   0  -4  416.49   13.69
   2   0  -4   33.76    1.78
  -3   0   4    0.61    6.37
   3   0  -4    5.40    0.97
   4   0  -4   34.62    2.25
   5   0  -4  141.75    5.82
   6   0  -4    6.86    1.60
  -7   0  -5   -0.04    1.06
  -6   0  -5    1.71    0.94
  -5   0  -5   11.24    1.93
  -4   0  -5   14.39    1.95
  -3   0  -5    8.34    1.36
  -2   0  -5    7.02    1.05
  -1   0  -5   15.79    1.19
   0   0  -5  212.95    6.29
   0   0  -5  207.78    7.37
  -1   0   5   71.95    7.91
   1   0  -5   80.83    2.90
  -2   0   5   38.56    6.30
   2   0  -5   27.06    1.67
   3   0  -5   35.52    2.14
  -3   0   5   60.38    9.72
   4   0  -5   48.99    2.70
  -4   0   5   42.64    7.76
   5   0  -5   66.48    3.62
  -5   0   5   71.70    9.36
   6   0  -5    1.16    0.98
  -6   0  -6    7.67    2.17
  -5   0  -6   21.34    2.50
  -4   0  -6    1.95    1.03
  -2   0  -6   59.86    2.91
  -1   0  -6  319.99    9.39
  -1   0  -6  310.42   11.48
   0   0  -6    3.24    0.66
   0   0  -6    3.81    0.78
  -1   0   6  480.97   28.44
   1   0  -6  482.82   13.56
  -2   0   6    6.86    5.44
   3   0  -6   46.78    2.48
  -3   0   6   40.58    6.49
  -4   0   6   -1.56    5.81
   4   0  -6    0.62    0.62
  -5   0   6    9.53    7.14
   5   0  -6    8.42    1.63
   6   0  -6   36.45    2.81
  -6   0  -7    4.23    1.39
  -5   0  -7   18.50    3.38
  -4   0  -7   71.48    3.87
  -3   0  -7   25.95    2.13
  -2   0  -7    0.63    0.63
  -1   0  -7    5.65    0.91
  -1   0  -7    5.59    1.36
   0   0  -7   62.56    2.93
   0   0  -7   57.99    2.54
   1   0  -7   72.93    2.91
   1   0  -7   70.84    2.78
  -1   0   7   59.48    8.05
  -2   0   7   -2.16    6.24
   2   0  -7   -0.08    0.54
   3   0  -7  114.99    4.57
  -3   0   7  115.72   10.59
   4   0  -7   -0.08    0.62
  -4   0   7    1.85    5.65
  -5   0   7    6.18    6.65
   6   0  -7    2.80    1.14
  -6   0  -8    1.12    1.16
  -5   0  -8    0.21    1.26
  -4   0  -8    1.04    0.69
  -4   0  -8    0.77    1.19
  -3   0  -8  101.78    4.67
  -3   0  -8   98.84    6.00
  -2   0  -8   54.35    3.71
  -2   0  -8   49.53    2.72
  -1   0  -8  307.82    9.46
  -1   0  -8  305.67   11.57
   0   0  -8  117.22    4.16
   0   0  -8  109.24    4.70
   2   0  -8   57.97    2.78
  -3   0   8    0.38    4.64
   3   0  -8    0.72    0.64
   4   0  -8   16.12    1.83
  -4   0   8   20.26    8.55
  -5   0   8    1.10    6.60
   5   0  -8    1.14    0.84
   6   0  -8    1.64    0.99
  -6   0  -9    2.71    1.58
  -5   0  -9    7.45    2.58
  -4   0  -9   -0.04    1.17
  -4   0  -9    1.89    0.80
  -3   0  -9    7.08    1.28
  -3   0  -9    5.47    1.83
  -2   0  -9    0.77    0.82
  -2   0  -9   -0.04    0.48
  -1   0  -9   -0.05    0.46
  -1   0  -9    1.19    0.70
   0   0  -9   20.99    1.71
   0   0  -9   19.92    1.53
   1   0  -9  272.72    9.29
   1   0  -9  268.87    8.50
   2   0  -9   21.30    1.75
  -2   0   9   28.40    7.96
  -3   0   9   16.01    7.59
   3   0  -9   14.72    1.68
   4   0  -9    1.56    0.89
  -4   0   9    1.70    6.45
   5   0  -9    1.59    0.87
   6   0  -9    2.10    1.11
   7   0  -9    1.63    1.15
  -6   0 -10    2.74    2.67
  -5   0 -10   20.01    3.91
  -4   0 -10   36.61    3.92
  -4   0 -10   35.58    2.70
  -3   0 -10   17.80    1.95
  -3   0 -10   26.28    3.46
  -2   0 -10   33.55    3.06
  -2   0 -10   33.30    2.29
  -1   0 -10   40.54    2.87
   0   0 -10    6.89    1.10
   0   0 -10    6.72    1.19
   1   0 -10   29.04    1.82
   1   0 -10   27.35    1.90
  -2   0  10    1.87    5.07
   2   0 -10    0.59    0.70
  -3   0  10   27.06    8.19
   3   0 -10   25.12    2.03
  -4   0  10   35.10   10.41
   4   0 -10   30.03    2.41
   5   0 -10   16.50    2.09
   6   0 -10    1.74    0.97
   7   0 -10    1.07    1.43
  -5   0 -11    2.65    2.02
  -4   0 -11   -0.30    1.15
  -4   0 -11    1.29    0.80
  -3   0 -11   22.67    3.42
  -3   0 -11   24.43    2.05
  -2   0 -11   11.15    2.22
  -2   0 -11   10.38    1.48
   0   0 -11   11.29    1.55
   0   0 -11   12.57    1.53
   1   0 -11   28.27    2.03
   1   0 -11   32.48    2.04
   2   0 -11    0.13    0.58
  -2   0  11    2.00    6.32
   3   0 -11   34.35    2.47
  -3   0  11   48.27    8.68
  -4   0  11   22.01    9.07
   4   0 -11   20.72    2.23
   5   0 -11   14.50    2.00
   6   0 -11    1.31    0.96
   7   0 -11    5.52    1.58
  -5   0 -12    2.63    2.06
  -4   0 -12    1.01    0.72
  -4   0 -12    4.79    1.78
  -3   0 -12    2.88    0.94
  -3   0 -12    3.83    1.64
  -2   0 -12    1.21    1.21
  -2   0 -12    5.63    1.24
  -1   0 -12   12.83    1.61
  -1   0 -12    7.38    1.54
   0   0 -12    0.27    0.75
   0   0 -12    0.55    0.59
   1   0 -12    2.37    0.78
   2   0 -12   52.70    3.04
  -2   0  12   50.38    9.24
  -3   0  12   45.19    8.66
   3   0 -12   59.06    3.36
   4   0 -12    0.89    0.88
  -4   0  12    0.66    5.85
   5   0 -12    2.41    1.06
   6   0 -12    0.82    0.93
   7   0 -12   14.75    2.60
  -5   0 -13    0.28    1.74
  -4   0 -13    1.36    1.50
  -3   0 -13   15.49    1.98
  -3   0 -13   19.74    3.31
  -2   0 -13   16.33    2.73
  -2   0 -13   14.11    1.84
  -1   0 -13   31.12    2.24
  -1   0 -13   33.60    2.85
   0   0 -13    1.34    0.72
   0   0 -13    1.80    0.99
   1   0 -13   20.13    2.01
   2   0 -13   16.15    1.92
   3   0 -13    7.67    1.60
  -3   0  13   16.59    7.63
   4   0 -13   26.92    2.68
  -4   0  13   23.35    9.03
   5   0 -13    7.51    1.67
   6   0 -13   13.11    2.22
   7   0 -13    9.15    2.50
  -5   0 -14   -0.37    2.33
  -4   0 -14   17.34    3.58
  -3   0 -14    5.28    1.33
  -3   0 -14    7.06    2.27
  -2   0 -14    1.02    1.02
  -2   0 -14    0.83    0.71
  -1   0 -14   68.32    4.38
  -1   0 -14   59.88    3.38
   0   0 -14   15.34    1.88
   1   0 -14   34.05    2.47
   2   0 -14   31.45    2.44
   3   0 -14   49.72    3.28
  -3   0  14   51.79    8.93
   4   0 -14   24.47    2.62
   5   0 -14   30.07    3.03
   6   0 -14    0.61    1.01
  -4   0 -15    1.28    1.67
  -3   0 -15    2.15    1.39
  -3   0 -15    3.69    1.01
  -2   0 -15    2.40    0.89
  -2   0 -15    5.69    1.87
  -1   0 -15   21.71    2.81
  -1   0 -15   20.59    1.90
   0   0 -15   59.06    3.40
   1   0 -15   10.29    1.65
   2   0 -15    2.10    0.91
  -3   0  15    6.89    8.27
   4   0 -15   -0.09    0.78
   5   0 -15   12.65    2.23
   6   0 -15    0.69    1.01
  -4   0 -16    4.56    2.48
  -3   0 -16   -1.19    1.21
  -3   0 -16    0.73    0.83
  -2   0 -16    0.42    0.66
  -2   0 -16    0.51    1.11
  -1   0 -16   10.28    1.51
   0   0 -16   73.89    3.96
   1   0 -16    2.75    1.02
   2   0 -16    0.64    0.61
   3   0 -16   15.91    2.24
   4   0 -16   20.81    2.66
   5   0 -16    3.38    1.38
   6   0 -16   -0.99    1.19
  -4   0 -17    0.23    2.43
  -3   0 -17   13.20    3.16
  -2   0 -17    1.25    0.74
  -1   0 -17    4.05    1.11
   0   0 -17   17.75    1.99
   1   0 -17   23.53    2.54
   2   0 -17    0.50    0.72
   3   0 -17   16.93    2.41
   4   0 -17    1.57    0.98
   5   0 -17   -0.44    0.82
  -2   0 -18   -0.04    0.58
  -1   0 -18    1.11    0.76
   0   0 -18    0.85    0.64
   1   0 -18    7.87    1.73
   2   0 -18   12.71    1.99
   3   0 -18   21.51    2.70
   4   0 -18    5.05    1.53
   5   0 -18    0.25    1.13
  -2   0 -19    0.61    0.75
   0   0 -19    2.88    1.08
   1   0 -19    2.88    0.98
   2   0 -19    5.62    1.47
   3   0 -19    7.10    1.75
   4   0 -19    1.00    0.98
  -2   0 -20    0.82    1.01
  -1   0 -20    6.89    1.34
   0   0 -20    1.11    0.96
   1   0 -20   11.00    2.06
   2   0 -20   -0.44    0.72
   3   0 -20    9.35    1.93
   4   0 -20   -0.61    1.23
  -1   0 -21    2.65    1.17
   0   0 -21   15.40    2.54
   1   0 -21    6.76    1.66
   2   0 -21   -0.78    0.85
   3   0 -21    3.30    1.18
   1   1 -22    2.23    1.24
   0   1 -22    5.43    1.49
   3   1 -21    2.21    1.23
   2   1 -21    5.10    1.56
   1   1 -21    2.34    1.12
   0   1 -21    3.10    1.22
  -1   1 -21    4.97    1.53
   3   1 -20    2.60    1.27
   2   1 -20    6.92    1.77
   1   1 -20    0.97    0.77
   0   1 -20   11.53    2.17
  -1   1 -20    3.54    1.16
   4   1 -19   -0.30    0.92
   3   1 -19    7.61    1.69
   2   1 -19   10.99    2.09
   1   1 -19    0.31    0.72
   0   1 -19   13.97    2.12
  -1   1 -19    0.04    0.64
   5   1 -18    0.51    1.24
   4   1 -18    0.54    1.13
   3   1 -18    1.51    0.87
   2   1 -18   15.76    2.30
   1   1 -18    3.10    1.19
   0   1 -18   20.54    2.38
  -1   1 -18    0.48    0.84
  -2   1 -18    2.08    0.89
   5   1 -17    0.40    0.95
   4   1 -17    2.55    1.31
   3   1 -17    4.69    1.38
   2   1 -17   22.84    2.56
   1   1 -17    2.16    1.03
   0   1 -17    7.86    1.55
  -1   1 -17    3.35    1.10
  -2   1 -17    4.96    1.16
  -3   1 -17    3.23    1.89
  -4   1 -17    3.56    3.02
   6   1 -16    0.88    1.51
   5   1 -16    2.50    1.30
   4   1 -16    3.76    1.29
   3   1 -16   11.57    1.98
   2   1 -16    1.62    0.91
   1   1 -16   21.35    2.35
   0   1 -16   15.47    1.91
  -1   1 -16    0.29    0.71
  -2   1 -16    7.16    1.22
  -2   1 -16    8.14    2.45
  -3   1 -16   17.81    3.39
  -4   1 -16   -2.80    1.23
   6   1 -15    0.76    1.38
   5   1 -15    6.03    1.56
   4   1 -15    0.76    0.79
   3   1 -15   17.30    2.25
   2   1 -15   14.74    1.99
   1   1 -15   38.65    2.74
   0   1 -15   32.41    2.36
  -1   1 -15    6.10    1.84
  -1   1 -15    3.83    1.21
  -2   1 -15   40.16    3.76
  -3   1 -15    3.13    1.01
  -3   1 -15    2.55    1.72
  -4   1 -15    1.97    1.67
   6   1 -14    1.91    1.22
   5   1 -14    1.10    0.93
   4   1 -14   17.66    2.32
   3   1 -14   12.41    1.94
  -3  -1  14   14.05    8.18
   2   1 -14   66.72    3.74
   1   1 -14   29.36    2.31
   0   1 -14   67.04    3.51
  -1   1 -14   10.13    1.56
  -1   1 -14   10.18    2.03
  -2   1 -14    5.90    1.24
  -2   1 -14    4.97    1.64
  -3   1 -14   39.99    4.02
  -3   1 -14   44.75    3.04
  -4   1 -14    3.69    1.84
  -5   1 -14    0.33    2.25
   6   1 -13    6.06    1.74
   5   1 -13   10.57    1.86
   4   1 -13    0.97    0.89
   3   1 -13    0.77    0.89
  -3  -1  13    2.59    6.46
   2   1 -13   92.22    4.44
   1   1 -13    3.63    1.04
   0   1 -13    3.13    0.94
   0   1 -13    2.92    1.16
  -1   1 -13   23.47    2.40
  -2   1 -13   17.29    1.92
  -2   1 -13   19.94    2.90
  -3   1 -13   37.28    3.83
  -3   1 -13   37.02    2.70
  -4   1 -13    0.00    1.33
  -5   1 -13   -0.06    1.70
   7   1 -12    3.44    1.78
   6   1 -12    6.57    1.69
   5   1 -12   12.24    1.98
   4   1 -12   17.50    2.17
  -3  -1  12   64.06    9.43
   3   1 -12   76.62    3.89
   2   1 -12   30.45    2.33
   1   1 -12   61.08    3.18
   0   1 -12    0.04    0.68
   0   1 -12    0.82    0.62
  -2   1 -12   79.88    5.16
  -2   1 -12   80.10    3.90
  -3   1 -12    5.24    1.23
  -3   1 -12    3.21    1.62
  -4   1 -12    3.37    1.72
  -5   1 -12   -0.73    1.84
   7   1 -11    4.28    1.53
   6   1 -11    2.35    1.07
   5   1 -11   16.60    2.08
   4   1 -11    7.01    1.46
  -4  -1  11   13.69    7.44
   3   1 -11   15.27    1.87
   2   1 -11   28.36    2.19
  -2  -1  11   47.78    8.09
   1   1 -11   54.12    2.88
   1   1 -11   56.04    2.91
   0   1 -11    4.69    1.12
   0   1 -11    3.43    0.97
  -1   1 -11    3.17    1.00
  -1   1 -11    7.67    1.25
  -2   1 -11   93.30    5.55
  -2   1 -11   91.22    4.17
  -3   1 -11   13.40    1.73
  -3   1 -11   13.73    2.66
  -4   1 -11    1.20    0.70
  -4   1 -11    2.49    1.57
  -5   1 -11    4.43    2.04
   7   1 -10   10.57    2.11
   6   1 -10    8.71    1.70
   5   1 -10    1.70    0.99
   4   1 -10    2.34    0.98
  -4  -1  10    4.28    8.21
  -3  -1  10   16.37    7.29
   3   1 -10    9.74    1.53
   2   1 -10   48.73    2.74
  -2  -1  10   44.43    7.21
   1   1 -10   23.91    1.76
   1   1 -10   22.54    1.74
   0   1 -10    3.27    1.02
   0   1 -10    2.49    0.84
  -1   1 -10    8.17    1.55
  -1   1 -10    9.30    1.28
  -2   1 -10   26.80    3.04
  -2   1 -10   20.49    1.77
  -3   1 -10   13.43    2.69
  -3   1 -10   11.57    1.56
  -4   1 -10    3.04    1.67
  -4   1 -10    4.58    1.05
  -5   1 -10    3.83    2.04
  -6   1 -10    1.82    2.52
   7   1  -9    2.10    1.37
   6   1  -9    1.87    1.09
   5   1  -9   18.97    2.16
  -4  -1   9   20.22    8.15
   4   1  -9   12.99    1.73
   3   1  -9   18.31    1.84
  -3  -1   9   30.08    8.45
  -2  -1   9   40.10    7.18
   2   1  -9   37.78    2.27
   1   1  -9   41.18    2.30
   1   1  -9   44.46    2.37
   0   1  -9   52.35    2.95
   0   1  -9   52.52    2.58
  -1   1  -9   85.58    3.57
  -1   1  -9   81.28    4.43
  -2   1  -9   13.31    1.50
  -2   1  -9   15.21    2.37
  -3   1  -9  140.12    5.70
  -3   1  -9  138.68    7.55
  -4   1  -9   10.83    2.70
  -4   1  -9   12.23    1.81
  -5   1  -9   21.67    4.14
  -6   1  -9    3.18    1.52
   7   1  -8    1.54    1.32
   6   1  -8    4.96    1.34
   5   1  -8   11.35    1.79
  -4  -1   8   13.44    7.53
   4   1  -8    6.63    1.35
  -3  -1   8   13.93    5.42
   3   1  -8    8.37    1.32
   2   1  -8   92.92    3.84
   2   1  -8   96.95    3.79
   1   1  -8    7.96    1.07
   0   1  -8    4.13    0.84
   0   1  -8    5.66    1.12
  -1   1  -8   24.99    2.20
  -1   1  -8   26.91    1.72
  -2   1  -8   16.57    1.50
  -2   1  -8   22.68    2.61
  -3   1  -8    9.41    2.21
  -3   1  -8   10.05    1.56
  -4   1  -8   16.94    1.99
  -4   1  -8   11.38    2.73
  -5   1  -8   14.37    3.20
  -6   1  -8    2.80    1.46
   7   1  -7    7.31    1.72
   6   1  -7   16.75    2.16
   5   1  -7    2.99    1.06
   4   1  -7    8.75    1.41
  -4  -1   7   15.07    7.21
   3   1  -7   50.08    2.67
  -3  -1   7   49.10    6.83
   1   1  -7   88.08    3.42
  -1  -1   7   91.46    9.19
   1   1  -7   88.40    3.50
   0   1  -7   82.56    3.17
   0   1  -7   82.79    3.72
  -1   1  -7   27.84    1.67
  -1   1  -7   27.96    2.28
  -2   1  -7   27.41    2.53
  -2   1  -7   27.58    1.83
  -3   1  -7   25.83    2.05
  -3   1  -7   25.62    2.74
  -4   1  -7   32.82    3.95
  -4   1  -7   28.42    2.29
  -5   1  -7    2.14    1.20
  -6   1  -7    1.26    1.15
   7   1  -6    8.97    1.93
   6   1  -6    5.57    1.36
  -5  -1   6   11.49    8.10
   5   1  -6    8.80    1.64
   4   1  -6    2.49    0.97
  -4  -1   6   -1.17    5.55
   3   1  -6   22.35    1.71
  -3  -1   6   32.46    6.90
   1   1  -6  113.04    4.11
  -1  -1   6  108.09    9.42
   1   1  -6  113.74    3.95
   0   1  -6   26.32    1.71
   0   1  -6   25.09    1.46
  -1   1  -6    0.30    0.48
  -1   1  -6    2.22    0.93
  -2   1  -6  128.37    6.16
  -2   1  -6  127.39    4.78
  -3   1  -6    2.45    0.93
  -4   1  -6    6.96    1.56
  -4   1  -6    7.74    2.12
  -5   1  -6    8.42    2.33
  -6   1  -6    0.68    0.94
   6   1  -5   60.27    3.68
   5   1  -5    9.26    1.72
  -5  -1   5    9.82    7.33
   4   1  -5    2.04    0.83
  -4  -1   5   -1.84    5.61
  -3  -1   5  140.47   11.22
   3   1  -5  116.68    4.68
  -2  -1   5  375.41   22.90
   2   1  -5  388.93   11.13
  -1  -1   5   73.07    7.48
   1   1  -5   65.00    2.56
   1   1  -5   63.95    2.63
   0   1  -5   62.03    2.80
   0   1  -5   60.08    2.33
  -1   1  -5  363.88   12.97
  -1   1  -5  369.36   10.50
  -2   1  -5   18.61    1.47
  -3   1  -5    2.42    0.86
  -4   1  -5   11.20    1.76
  -5   1  -5   13.51    2.81
  -6   1  -5    1.83    1.18
  -7   1  -5    7.28    1.76
   6   1  -4    3.99    1.38
   5   1  -4   13.08    1.87
   4   1  -4    5.12    1.12
   3   1  -4   20.08    1.53
  -3  -1   4   28.72    7.97
   2   1  -4  179.53    5.81
  -2  -1   4  183.37   12.54
  -1  -1   4  630.35   37.42
   1   1  -4  703.11   21.62
   1   1  -4  701.75   18.38
   0   1  -4   29.38    1.31
   0   1  -4   22.72    1.45
  -1   1  -4   22.47    1.83
  -1   1  -4   24.10    1.35
  -2   1  -4   71.28    2.97
  -3   1  -4   32.51    2.15
  -4   1  -4   10.05    1.65
  -5   1  -4    3.39    1.08
  -6   1  -4   13.80    2.55
  -7   1  -4    1.68    1.09
   5   1  -3    3.95    1.21
   4   1  -3   20.94    1.69
   3   1  -3    2.73    0.76
  -2  -1   3   59.94    6.21
   2   1  -3   70.80    2.74
   1   1  -3  564.60   17.86
  -1  -1   3  552.74   30.92
   1   1  -3  562.69   15.17
  -1   1  -3  260.60    7.53
  -2   1  -3  429.33   12.39
  -3   1  -3   65.16    3.23
  -4   1  -3   11.70    1.79
  -5   1  -3   10.75    1.90
  -6   1  -3   10.51    2.38
  -7   1  -3    1.06    1.01
  -6  -1   2   10.51    1.98
  -6  -1   2   11.60    1.92
   5   1  -2    1.16    0.87
   4   1  -2    3.03    0.91
   3   1  -2    4.99    0.91
   2   1  -2   11.68    1.06
   1   1  -2  410.38   13.33
  -1  -1   2  405.99   23.07
   1   1  -2  427.06   11.36
  -1   1  -2  106.79    3.43
  -2   1  -2    3.21    0.74
  -3   1  -2   19.78    1.66
  -3   1  -2   19.97    1.77
  -4   1  -2    1.48    0.85
  -5   1  -2    4.42    1.40
  -6   1  -2    9.23    2.12
  -7   1  -2    4.00    1.47
  -6  -1   1   79.75    4.77
  -6  -1   1   87.47    5.17
  -5  -1   1   24.53    2.56
  -5  -1   1   20.64    2.60
   4   1  -1    8.64    1.25
   3   1  -1   12.27    1.14
   2   1  -1  143.92    4.59
   1   1  -1  246.87    6.90
   0   1  -1    7.02    0.46
  -1   1  -1  459.74   12.95
  -1   1  -1  469.98   12.66
  -2   1  -1   14.06    1.28
  -2   1  -1   16.63    1.29
  -3   1  -1   12.51    1.56
  -3   1  -1   13.74    1.52
  -4   1  -1    8.62    1.68
  -4   1  -1    6.59    1.42
  -5   1  -1   12.84    2.12
  -5   1  -1   13.48    2.07
  -7   1  -1    6.63    1.74
  -6  -1   0   22.44    3.01
  -6  -1   0   24.25    2.87
  -5  -1   0   27.67    2.50
  -5  -1   0   35.37    2.96
  -4  -1   0    4.45    1.30
  -4  -1   0    2.58    1.22
   3   1   0   10.87    1.13
   2   1   0   48.55    2.01
   1   1   0  196.28    5.54
   0   1   0   -0.02    0.06
   1  -1   0  200.15    5.53
   2  -1   0   31.01    1.41
   3  -1   0    2.80    0.59
  -4   1   0    4.63    1.25
  -4   1   0    4.86    1.37
  -5   1   0   35.00    2.73
  -5   1   0   32.07    2.77
  -7   1   0    5.30    1.55
  -6  -1  -1   15.98    2.53
  -5  -1  -1   12.27    2.03
  -5  -1  -1   13.99    2.26
  -4  -1  -1    7.18    1.66
  -4  -1  -1    9.27    1.63
  -3  -1  -1   12.66    1.59
  -3  -1  -1   10.19    1.54
  -2  -1  -1   15.64    1.38
  -2  -1  -1   15.09    1.42
  -1  -1  -1  455.50   13.09
  -1  -1  -1  466.90   12.76
   0  -1  -1   17.58    0.69
   0   1   1   17.34    0.73
   1  -1  -1    0.01    0.11
   2  -1  -1    0.24    0.16
   3  -1  -1   -0.12    0.18
   4  -1  -1    0.05    0.31
  -5   1   1   24.58    2.22
  -5   1   1   25.18    2.73
  -7   1   1    6.97    1.90
  -6  -1  -2   12.46    2.20
  -5  -1  -2    6.74    1.68
  -4  -1  -2    0.32    0.69
  -4  -1  -2    2.41    1.05
  -3  -1  -2   19.64    1.86
  -3  -1  -2   19.55    1.91
  -2  -1  -2    3.79    0.86
  -1  -1  -2  113.54    3.82
   0  -1  -2   79.82    2.50
   0   1   2   79.62    5.64
   1  -1  -2  428.75   11.50
  -1   1   2  418.98   24.10
   2  -1  -2    9.07    0.81
   3  -1  -2    4.31    0.75
   4  -1  -2    2.82    0.75
   5  -1  -2    0.82    0.46
  -6   1   2   12.01    1.88
  -6   1   2   10.84    2.00
  -7  -1  -3    2.71    0.99
  -5  -1  -3    7.27    1.68
  -4  -1  -3    9.54    1.72
  -3  -1  -3   71.00    3.56
  -2  -1  -3  437.18   12.88
  -1  -1  -3  264.60    7.81
   0  -1  -3   30.18    1.33
   1  -1  -3  587.73   15.38
  -1   1   3  549.35   31.80
   2  -1  -3   63.58    2.56
  -2   1   3   68.21    6.74
   3  -1  -3    3.23    0.76
   4  -1  -3   21.46    1.66
   5  -1  -3    3.56    1.06
   6  -1  -3   -1.36    0.63
  -7  -1  -4    1.50    1.03
  -5  -1  -4    2.91    1.15
  -4  -1  -4   11.26    1.83
  -3  -1  -4   30.40    2.20
  -2  -1  -4   73.66    3.27
  -1  -1  -4   26.83    1.58
   0  -1  -4   31.59    1.49
  -1   1   4  702.06   39.42
   1  -1  -4  696.05   18.86
  -2   1   4  166.26   11.95
   2  -1  -4  157.37    5.17
   3  -1  -4   18.21    1.41
  -3   1   4   21.84    8.07
  -4   1   4   -4.20    7.03
   4  -1  -4    6.91    1.20
   5  -1  -4   17.27    1.95
   6  -1  -4    5.00    1.29
  -5  -1  -5   13.80    2.10
  -4  -1  -5    8.65    1.72
  -3  -1  -5    1.30    0.95
  -2  -1  -5   17.24    1.54
  -1  -1  -5  390.15   11.38
   0  -1  -5   56.64    2.31
   0  -1  -5   59.23    2.64
   1  -1  -5   66.25    2.56
   2  -1  -5  396.19   11.26
  -2   1   5  384.65   23.88
  -3   1   5  123.32   11.56
   3  -1  -5  116.77    4.46
   4  -1  -5    0.86    0.69
  -4   1   5    1.35    6.20
  -5   1   5    9.94    7.67
   5  -1  -5    9.35    1.60
   6  -1  -5   63.02    3.74
  -6  -1  -6    1.76    1.23
  -5  -1  -6    4.72    1.27
  -4  -1  -6    5.19    1.16
  -3  -1  -6    2.99    1.04
  -2  -1  -6  131.51    5.03
  -1  -1  -6    0.44    0.52
   0  -1  -6   22.99    1.56
   0  -1  -6   25.43    1.47
   1  -1  -6  107.99    3.75
  -1   1   6  103.00    9.66
  -2   1   6   50.47    8.54
   3  -1  -6   22.80    1.70
  -3   1   6   33.77    7.20
  -4   1   6   -1.11    6.05
   4  -1  -6    3.52    0.99
   5  -1  -6   13.59    1.90
  -5   1   6    5.27    7.47
   6  -1  -6    5.31    1.35
  -6  -1  -7    4.29    1.35
  -5  -1  -7    2.69    0.83
  -4  -1  -7   24.74    2.13
  -3  -1  -7   26.74    2.23
  -2  -1  -7   29.31    2.08
  -1  -1  -7   30.06    1.83
   0  -1  -7   87.38    3.31
   0  -1  -7   81.17    3.63
  -1   1   7   84.69    9.35
   1  -1  -7   88.63    3.35
  -2   1   7   16.47    7.95
   2  -1  -7   12.63    1.31
  -3   1   7   49.90    7.49
   3  -1  -7   47.87    2.61
  -4   1   7    9.09    7.14
   4  -1  -7    7.84    1.32
   5  -1  -7    3.58    1.16
  -5   1   7   -3.89    6.41
   6  -1  -7   14.07    2.02
  -6  -1  -8    3.47    1.33
  -5  -1  -8   13.81    3.16
  -5  -1  -8   13.57    2.15
  -4  -1  -8   11.66    1.79
  -3  -1  -8   11.98    1.74
  -2  -1  -8   19.51    1.84
  -1  -1  -8   26.55    1.81
  -1  -1  -8   25.87    2.19
   0  -1  -8    2.92    0.80
   0  -1  -8    4.65    0.85
  -1   1   8    6.82    8.73
   1  -1  -8   10.36    1.16
   2  -1  -8  102.77    4.08
  -2   1   8   95.18   10.50
   3  -1  -8    6.84    1.19
  -3   1   8   13.75    6.03
  -4   1   8    5.27    7.88
   4  -1  -8    4.65    1.14
  -5   1   8   15.43    8.12
   5  -1  -8   10.54    1.68
   6  -1  -8    5.76    1.46
  -6  -1  -9   -0.20    1.14
  -5  -1  -9   20.87    3.93
  -4  -1  -9   13.17    2.95
  -4  -1  -9   10.57    1.82
  -3  -1  -9  138.63    5.86
  -2  -1  -9   13.46    1.60
  -2  -1  -9   15.34    2.33
  -1  -1  -9   50.25    3.19
   0  -1  -9   47.00    2.41
   0  -1  -9   46.22    2.61
   1  -1  -9   40.78    2.22
  -2   1   9   44.75    7.45
   2  -1  -9   38.28    2.33
  -3   1   9   30.36    9.11
   3  -1  -9   21.35    1.81
  -4   1   9   18.65    8.39
   4  -1  -9   11.36    1.64
  -5   1   9   32.52    9.66
   5  -1  -9   19.47    2.22
   6  -1  -9    2.73    1.16
  -6  -1 -10    1.95    2.61
  -5  -1 -10    1.07    1.75
  -4  -1 -10    2.92    1.00
  -4  -1 -10    6.29    2.28
  -3  -1 -10   10.14    1.54
  -3  -1 -10   16.35    2.95
  -2  -1 -10   22.94    2.83
  -2  -1 -10   20.39    1.82
  -1  -1 -10    7.72    1.23
   0  -1 -10    3.33    0.88
   0  -1 -10    2.49    0.82
   1  -1 -10   23.19    1.54
   1  -1 -10   19.54    1.63
   2  -1 -10   46.33    2.69
  -2   1  10   50.45    8.13
   3  -1 -10   12.61    1.60
  -3   1  10   24.25    8.56
   4  -1 -10    3.33    1.04
  -4   1  10    8.20    8.45
   5  -1 -10    0.59    0.68
   6  -1 -10    8.78    1.75
  -5  -1 -11    5.33    2.12
  -4  -1 -11    1.87    1.36
  -4  -1 -11    2.33    0.74
  -3  -1 -11    9.16    2.41
  -3  -1 -11   14.86    1.87
  -2  -1 -11   93.21    5.60
  -2  -1 -11   92.46    4.34
  -1  -1 -11    5.92    1.23
  -1  -1 -11    3.92    1.19
   0  -1 -11    3.21    0.97
   0  -1 -11    4.18    1.03
   1  -1 -11   50.81    2.77
   1  -1 -11   53.67    2.64
  -2   1  11   40.59   10.25
   2  -1 -11   26.55    2.06
  -3   1  11   16.20    8.40
   3  -1 -11   15.44    1.87
   4  -1 -11    7.62    1.51
  -4   1  11   11.97    8.23
   5  -1 -11   16.56    2.15
   6  -1 -11   -0.10    0.82
   7  -1 -11    5.42    1.71
  -5  -1 -12    0.50    2.09
  -4  -1 -12    2.92    1.07
  -4  -1 -12    2.32    1.65
  -3  -1 -12    3.32    1.81
  -3  -1 -12    4.34    1.14
  -2  -1 -12   84.33    5.42
  -2  -1 -12   85.08    4.18
  -1  -1 -12   31.45    2.23
  -1  -1 -12   31.66    2.70
   0  -1 -12    1.15    0.67
   0  -1 -12   -0.38    0.52
   1  -1 -12   58.57    3.04
  -2   1  12   84.30   11.08
  -3   1  12   68.17   10.13
   3  -1 -12   79.63    4.00
  -4   1  12   16.58    7.71
   4  -1 -12   14.92    2.02
   5  -1 -12   11.02    1.85
   6  -1 -12    4.09    1.41
   7  -1 -12    3.58    1.70
  -5  -1 -13    2.43    1.96
  -4  -1 -13    1.50    0.88
  -4  -1 -13    3.05    1.65
  -3  -1 -13   32.72    3.62
  -3  -1 -13   33.37    2.65
  -2  -1 -13   22.22    1.99
  -2  -1 -13   16.69    2.78
  -1  -1 -13   42.62    3.23
  -1  -1 -13   39.95    2.65
   0  -1 -13    3.44    1.10
   0  -1 -13    0.36    0.67
   1  -1 -13    2.27    0.79
   2  -1 -13   85.55    4.21
  -2   1  13   86.60   11.33
   3  -1 -13    0.53    0.78
  -3   1  13   -3.98    6.57
  -4   1  13    4.18    7.42
   4  -1 -13    2.42    1.00
   5  -1 -13   10.68    1.92
   6  -1 -13    4.98    1.45
   7  -1 -13    1.99    1.97
  -5  -1 -14    0.51    2.60
  -4  -1 -14    1.71    1.12
  -4  -1 -14    4.11    2.06
  -3  -1 -14   38.40    2.88
  -3  -1 -14   38.32    4.01
  -2  -1 -14    4.27    1.77
  -2  -1 -14    6.21    1.36
  -1  -1 -14    7.91    1.78
  -1  -1 -14    7.62    1.43
   0  -1 -14   64.19    3.49
   1  -1 -14   30.52    2.27
   2  -1 -14   57.70    3.43
  -3   1  14   12.21    7.87
   3  -1 -14   13.53    1.97
  -4   1  14   12.83    8.89
   4  -1 -14   16.07    2.19
   5  -1 -14    0.65    0.92
   6  -1 -14    1.15    1.20
  -4  -1 -15    2.08    1.77
  -3  -1 -15    2.51    1.58
  -3  -1 -15    4.05    1.15
  -2  -1 -15   43.96    3.90
  -1  -1 -15    4.12    1.18
   0  -1 -15   31.58    2.40
   1  -1 -15   27.66    2.24
   2  -1 -15   14.94    1.99
  -3   1  15   10.22    8.72
   3  -1 -15   14.28    2.02
  -4   1  15    1.41    6.67
   4  -1 -15    0.10    0.78
   5  -1 -15    3.76    1.27
  -4  -1 -16   -0.75    1.70
  -3  -1 -16    7.48    1.28
  -3  -1 -16   16.83    3.24
  -2  -1 -16   12.62    2.65
  -2  -1 -16    6.32    1.07
  -1  -1 -16    0.40    0.62
   0  -1 -16   11.51    1.75
   1  -1 -16   20.76    2.32
   2  -1 -16    0.36    0.61
   3  -1 -16   13.16    2.04
   4  -1 -16    1.65    0.96
   5  -1 -16    2.17    1.15
   6  -1 -16    0.57    1.34
  -4  -1 -17    4.71    2.81
  -3  -1 -17    1.43    0.74
  -3  -1 -17    1.65    1.69
  -2  -1 -17    2.25    0.82
  -1  -1 -17    3.01    0.98
   0  -1 -17    6.62    1.34
   1  -1 -17    4.66    1.23
   2  -1 -17   23.78    2.55
   3  -1 -17    5.86    1.53
   4  -1 -17    3.59    1.34
   5  -1 -17    0.49    1.48
  -3  -1 -18    2.24    0.91
  -2  -1 -18   -0.76    0.55
  -1  -1 -18    1.59    0.82
   0  -1 -18   24.04    2.18
   1  -1 -18    3.99    1.23
   2  -1 -18   15.05    2.22
   3  -1 -18    1.59    1.02
   4  -1 -18    0.99    1.02
   5  -1 -18    0.53    1.11
  -2  -1 -19    5.87    1.13
  -1  -1 -19    0.38    0.77
   0  -1 -19   11.96    1.95
   1  -1 -19   -0.28    0.79
   2  -1 -19    8.02    1.65
   3  -1 -19    5.34    1.59
   4  -1 -19    0.34    0.88
  -1  -1 -20    2.80    0.89
   0  -1 -20    9.84    1.91
   1  -1 -20   -0.23    0.67
   2  -1 -20    6.53    1.58
   3  -1 -20    0.51    0.81
   4  -1 -20    1.60    1.49
  -1  -1 -21    0.51    0.78
   0  -1 -21    8.05    1.81
   1  -1 -21    3.17    1.19
   2  -1 -21    6.82    1.55
   3  -1 -21    1.42    1.33
   1   2 -22    4.67    1.44
   0   2 -22    0.71    0.99
   3   2 -21    2.12    1.01
   2   2 -21   -0.23    0.87
   1   2 -21    1.10    0.92
   0   2 -21   17.70    2.57
  -1   2 -21    2.66    1.27
   3   2 -20    6.18    1.59
   2   2 -20    3.43    1.29
   1   2 -20    1.94    1.05
   0   2 -20   14.07    2.39
  -1   2 -20    1.07    0.85
   4   2 -19    0.71    1.13
   3   2 -19   11.87    2.24
   2   2 -19   16.77    2.48
   1   2 -19    6.48    1.57
   0   2 -19    4.61    1.29
  -1   2 -19   -0.21    0.70
  -2   2 -19    0.24    0.83
   5   2 -18   -0.54    1.23
   4   2 -18    3.09    1.57
   3   2 -18    8.53    1.82
   2   2 -18   15.63    2.32
   1   2 -18   15.62    2.22
   0   2 -18   16.09    2.26
  -1   2 -18    6.17    1.24
  -2   2 -18    3.62    1.13
  -3   2 -18    9.38    3.24
   5   2 -17    0.54    0.89
   4   2 -17    6.87    1.76
   3   2 -17   10.36    1.97
   2   2 -17    7.53    1.73
   1   2 -17   13.77    2.02
   0   2 -17    5.86    1.41
  -1   2 -17    3.61    1.10
  -2   2 -17    1.55    0.79
  -3   2 -17    8.78    2.90
  -4   2 -17    7.78    3.65
   5   2 -16   10.18    2.08
   4   2 -16   16.43    2.41
   3   2 -16   33.56    2.77
   2   2 -16    8.99    1.76
   1   2 -16   24.62    2.21
   0   2 -16    1.97    0.79
  -1   2 -16   13.57    1.71
  -2   2 -16    5.49    1.23
  -2   2 -16    4.10    1.93
  -3   2 -16    2.32    1.68
   6   2 -15    0.51    1.39
   5   2 -15    3.71    1.46
   4   2 -15    3.64    1.40
   3   2 -15    4.60    1.34
   2   2 -15    2.46    0.97
   1   2 -15    9.09    1.65
   0   2 -15    1.37    0.78
  -1   2 -15   13.63    1.79
  -1   2 -15   14.47    2.48
  -2   2 -15    1.16    1.38
  -2   2 -15    1.22    0.79
  -3   2 -15    9.12    2.52
  -4   2 -15    8.58    2.79
   6   2 -14    2.41    1.34
   5   2 -14    8.11    1.73
   4   2 -14   14.72    2.19
   3   2 -14   38.75    2.86
   2   2 -14   29.51    2.44
   1   2 -14    1.47    0.83
   0   2 -14   22.03    1.85
  -1   2 -14    9.97    1.59
  -1   2 -14    7.65    1.87
  -2   2 -14    9.42    1.56
  -2   2 -14    8.35    2.29
  -3   2 -14    7.20    1.42
  -3   2 -14    5.47    2.03
  -4   2 -14   22.83    3.89
   6   2 -13    3.01    1.48
   5   2 -13    0.80    0.83
   4   2 -13    8.64    1.74
  -3  -2  13   13.00    8.41
   3   2 -13    9.96    1.72
   2   2 -13   24.79    2.18
   1   2 -13   22.89    1.97
   0   2 -13    9.69    1.46
   0   2 -13   16.58    2.19
  -1   2 -13   13.27    1.65
  -2   2 -13   11.38    2.36
  -2   2 -13   10.09    1.50
  -3   2 -13   16.29    1.98
  -3   2 -13   15.06    2.94
  -4   2 -13    1.38    1.63
  -5   2 -13   -0.35    1.66
   7   2 -12    8.23    2.17
   6   2 -12    2.32    1.21
   5   2 -12    5.93    1.44
   4   2 -12    4.98    1.28
   3   2 -12   31.62    2.52
  -3  -2  12   41.91    9.56
   2   2 -12   10.99    1.61
   1   2 -12   21.24    2.04
   1   2 -12   20.76    1.80
   0   2 -12   10.78    1.73
   0   2 -12    8.23    1.36
  -1   2 -12    5.80    1.15
  -1   2 -12    3.57    1.14
  -2   2 -12   19.30    1.76
  -2   2 -12   18.63    2.80
  -3   2 -12   11.01    2.50
  -3   2 -12    8.19    1.47
  -4   2 -12   12.47    2.90
  -5   2 -12   -1.56    1.62
   7   2 -11    2.54    1.54
   6   2 -11    4.19    1.32
   5   2 -11    7.61    1.68
   4   2 -11   25.25    2.50
  -3  -2  11   13.68    7.53
   3   2 -11   10.98    1.68
   2   2 -11    1.48    0.74
   1   2 -11    6.13    1.22
   1   2 -11    4.29    1.10
   0   2 -11   20.01    1.74
   0   2 -11   25.67    2.12
  -1   2 -11   52.72    2.78
  -1   2 -11   51.53    3.52
  -2   2 -11   13.06    1.62
  -2   2 -11   11.92    2.28
  -3   2 -11   19.67    1.82
  -3   2 -11   22.65    3.33
  -4   2 -11    1.62    1.40
  -5   2 -11    2.76    2.19
   7   2 -10    0.13    1.16
   6   2 -10   10.77    1.95
   5   2 -10    4.15    1.28
   4   2 -10    6.08    1.34
  -3  -2  10   45.00    7.85
   3   2 -10   55.02    3.07
   2   2 -10   60.38    3.06
   2   2 -10   59.21    2.69
  -2  -2  10   55.59    7.73
   1   2 -10   92.35    4.02
   1   2 -10   88.73    3.84
   0   2 -10   13.55    1.45
   0   2 -10   12.32    1.64
  -1   2 -10   55.28    3.53
  -1   2 -10   52.76    2.73
  -2   2 -10   26.36    1.94
  -2   2 -10   24.17    2.61
  -3   2 -10   40.35    3.83
  -3   2 -10   51.96    2.89
  -4   2 -10    7.33    2.26
  -5   2 -10   16.74    3.70
   7   2  -9    3.60    1.48
   6   2  -9    3.02    1.22
   5   2  -9    5.03    1.23
  -4  -2   9    8.09    6.54
   4   2  -9    7.04    1.42
   3   2  -9   12.90    1.64
  -3  -2   9   21.89    7.08
   2   2  -9   83.41    3.62
  -2  -2   9   75.39    8.41
   2   2  -9   80.63    3.34
   1   2  -9   86.26    3.84
   1   2  -9   87.18    3.62
   0   2  -9  154.24    6.24
   0   2  -9  141.92    5.15
  -1   2  -9   31.69    1.92
  -1   2  -9   31.13    2.50
  -2   2  -9    9.40    1.27
  -2   2  -9    8.25    1.87
  -3   2  -9    5.76    1.20
  -3   2  -9    9.11    2.30
  -4   2  -9    4.19    1.95
  -4   2  -9    5.37    1.19
  -5   2  -9    9.82    3.00
  -6   2  -9    1.87    1.12
   7   2  -8    3.08    1.39
   6   2  -8    7.01    1.64
   5   2  -8    9.00    1.66
  -4  -2   8   61.53    8.44
   4   2  -8   53.34    3.13
  -3  -2   8   20.34    6.44
   3   2  -8   11.48    1.49
  -2  -2   8  170.05   13.91
   2   2  -8  177.15    6.07
   2   2  -8  145.04    5.64
   1   2  -8  115.49    4.30
   1   2  -8  116.36    4.66
   0   2  -8   39.02    2.51
   0   2  -8   37.81    2.02
  -1   2  -8    7.38    1.01
  -1   2  -8    7.11    1.37
  -2   2  -8    2.38    0.75
  -2   2  -8    3.58    1.30
  -3   2  -8    8.95    2.16
  -3   2  -8    8.66    1.36
  -4   2  -8   13.44    1.72
  -4   2  -8   10.33    2.66
  -5   2  -8   10.85    2.75
  -6   2  -8    1.64    1.04
   7   2  -7    5.98    1.75
   6   2  -7    2.69    1.04
   5   2  -7   14.71    2.03
  -4  -2   7   45.41    7.62
   4   2  -7   45.28    2.78
   3   2  -7   10.06    1.35
  -3  -2   7   24.62    5.95
   1   2  -7  173.95    6.31
   1   2  -7  177.37    5.76
   0   2  -7  133.88    5.42
   0   2  -7  132.49    4.50
  -1   2  -7   32.34    1.79
  -1   2  -7   34.62    2.49
  -2   2  -7  118.61    6.07
  -2   2  -7  122.18    4.53
  -3   2  -7   28.92    3.29
  -3   2  -7   27.47    2.07
  -4   2  -7   33.33    2.59
  -4   2  -7   31.47    3.97
  -5   2  -7    2.13    1.25
  -6   2  -7    2.67    1.36
   7   2  -6   13.14    2.31
   6   2  -6   13.83    2.10
   5   2  -6   22.69    2.33
   4   2  -6    8.93    1.42
  -4  -2   6    9.82    6.06
   3   2  -6   16.97    1.52
  -3  -2   6   28.25    6.41
   2   2  -6  129.49    5.13
  -2  -2   6  152.78   11.37
   2   2  -6  129.16    4.76
   1   2  -6  210.96    6.46
   1   2  -6  208.75    7.24
  -1  -2   6  204.86   14.43
   0   2  -6  143.38    4.55
   0   2  -6  135.24    5.42
  -1   2  -6  170.17    5.43
  -1   2  -6  168.40    6.94
  -2   2  -6   29.24    2.55
  -2   2  -6   27.61    1.77
  -3   2  -6   49.98    2.77
  -3   2  -6   49.00    3.77
  -4   2  -6   17.14    2.92
  -4   2  -6   14.02    1.89
  -5   2  -6   12.74    2.83
  -6   2  -6    1.97    0.88
   6   2  -5    1.59    1.10
   5   2  -5   40.32    2.76
   4   2  -5    3.50    1.03
  -4  -2   5    8.23    5.68
   3   2  -5   28.18    1.91
  -3  -2   5   38.88    6.48
  -2  -2   5   37.15    4.99
   2   2  -5   35.28    1.94
   2   2  -5   37.26    1.99
   1   2  -5  790.61   21.65
  -1  -2   5  812.20   44.37
   1   2  -5  799.16   25.49
  -1   2  -5   68.52    3.52
  -1   2  -5   65.22    2.56
  -2   2  -5   41.39    3.00
  -2   2  -5   41.58    2.14
  -3   2  -5   60.24    4.16
  -3   2  -5   64.12    3.13
  -4   2  -5   10.51    1.68
  -4   2  -5   13.43    2.58
  -5   2  -5    1.00    0.91
  -6   2  -5    6.94    1.90
  -7   2  -5    2.95    1.55
  -7  -2   4    2.14    0.86
  -7  -2   4    1.31    0.91
   6   2  -4   17.95    2.35
   5   2  -4   16.62    2.03
   4   2  -4   27.20    1.99
  -3  -2   4   36.33    8.50
   2   2  -4   31.19    1.76
   2   2  -4   30.38    1.92
  -2  -2   4   40.31    5.69
  -1   2  -4  749.82   24.48
  -1   2  -4  731.36   19.94
  -2   2  -4   14.79    1.27
  -2   2  -4   18.56    2.13
  -3   2  -4   12.84    1.46
  -4   2  -4   53.33    3.17
  -4   2  -4   44.19    3.80
  -5   2  -4    6.37    1.83
  -6   2  -4    2.17    1.14
  -7   2  -4    3.04    1.10
   5   2  -3    4.51    1.22
   4   2  -3    0.05    0.61
   3   2  -3   14.77    1.44
  -2  -2   3   43.09    4.95
   2   2  -3   40.06    1.97
   1   2  -3   47.12    2.10
   1   2  -3   49.21    1.96
  -1  -2   3   47.01    4.39
   0   2  -3   40.04    1.36
   0   2  -3   29.42    1.65
  -1   2  -3   84.06    3.90
  -1   2  -3   87.66    2.91
  -2   2  -3   41.51    2.83
  -2   2  -3   44.17    2.09
  -3   2  -3   39.69    2.35
  -4   2  -3   25.34    2.24
  -5   2  -3    2.20    1.15
  -6   2  -3    6.46    1.90
  -7   2  -3    5.24    1.62
  -6  -2   2    6.82    1.43
  -6  -2   2    6.16    1.63
   5   2  -2    5.45    1.42
   4   2  -2   36.31    2.27
   3   2  -2    7.85    1.05
   2   2  -2   42.62    1.98
   0   2  -2  137.66    3.93
   0   2  -2  140.57    4.89
  -1   2  -2  217.24    7.83
  -1   2  -2  213.17    6.11
  -2   2  -2    9.11    0.99
  -3   2  -2    1.81    0.69
  -4   2  -2    7.15    1.41
  -5   2  -2    1.41    0.88
  -5   2  -2    2.48    1.28
  -6   2  -2    9.30    2.35
  -7   2  -2    0.22    1.11
  -6  -2   1    2.50    1.13
  -6  -2   1    1.65    0.84
  -5  -2   1    1.90    0.81
  -5  -2   1    1.70    0.96
   4   2  -1   18.99    1.62
   3   2  -1   13.58    1.22
   2   2  -1   19.23    1.24
   1   2  -1    6.87    0.76
   1   2  -1    7.31    0.68
   0   2  -1  150.21    4.14
   0   2  -1  148.24    5.07
  -1   2  -1   29.38    1.19
  -1   2  -1   26.15    1.70
  -2   2  -1   21.77    1.47
  -2   2  -1   21.98    1.41
  -3   2  -1   18.46    1.58
  -3   2  -1   16.45    1.70
  -4   2  -1   14.59    1.84
  -4   2  -1   11.76    1.84
  -5   2  -1    3.78    1.26
  -5   2  -1    2.06    1.25
  -6   2  -1    1.25    0.89
  -7   2  -1    0.50    1.16
  -6  -2   0    3.13    1.09
  -6  -2   0    3.12    1.31
  -5  -2   0   12.52    2.03
  -5  -2   0   13.01    2.18
  -4  -2   0   29.02    2.66
  -4  -2   0   31.72    2.60
   3   2   0   25.70    1.63
   2   2   0   10.75    0.98
   1   2   0  193.66    5.54
   1  -2   0  193.83    5.30
  -1   2   0  191.50    6.78
   2  -2   0   10.27    0.79
   3  -2   0   22.66    1.39
  -4   2   0   32.18    2.68
  -4   2   0   34.56    2.60
  -5   2   0   12.16    1.96
  -5   2   0   15.67    2.24
  -6   2   0    8.08    1.96
  -7   2   0    1.91    1.17
  -6  -2  -1    0.59    1.00
  -5  -2  -1    2.64    1.01
  -5  -2  -1    1.28    1.08
  -4  -2  -1    9.36    1.71
  -4  -2  -1   14.73    2.14
  -3  -2  -1   17.78    1.87
  -3  -2  -1   19.60    2.04
  -2  -2  -1   21.19    1.72
  -2  -2  -1   24.98    1.75
  -1  -2  -1   27.22    1.50
  -1  -2  -1   29.39    1.59
   0   2   1  135.94    8.04
   0   2   1  136.77    4.50
   0  -2  -1  131.93    3.88
  -1   2   1    6.52    0.77
   1  -2  -1    7.01    0.58
   2  -2  -1   20.04    1.16
   3  -2  -1   16.66    1.22
   4  -2  -1   16.45    1.39
  -5   2   1    1.73    1.01
  -6   2   1    3.30    1.09
  -7   2   1    2.34    1.29
  -6  -2  -2    7.94    2.05
  -5  -2  -2    1.68    0.82
  -4  -2  -2    9.44    1.84
  -4  -2  -2    7.66    1.65
  -3  -2  -2    3.14    1.06
  -3  -2  -2    1.70    0.80
  -2  -2  -2   10.58    1.26
  -1  -2  -2  225.19    6.88
   0   2   2  122.15    8.00
   0  -2  -2  123.51    3.68
  -1   2   2  106.52    3.76
  -1   2   2  104.21    7.78
   2  -2  -2    7.99    0.74
   3  -2  -2    2.56    0.62
   4  -2  -2   21.73    1.63
   5  -2  -2    6.59    1.26
  -6   2   2   10.45    2.25
  -6  -2  -3    5.69    1.50
  -5  -2  -3    3.68    1.18
  -4  -2  -3   27.27    2.65
  -3  -2  -3   36.83    2.50
  -2  -2  -3   49.78    2.62
  -1  -2  -3   80.01    3.09
   0   2   3   44.62    4.85
   0  -2  -3   41.03    1.69
   1  -2  -3   50.97    1.91
  -1   2   3   47.55    5.47
  -2   2   3   47.23    6.08
   2  -2  -3   33.93    1.67
   3  -2  -3    0.81    0.32
   4  -2  -3   -0.43    0.25
   5  -2  -3    0.21    0.42
  -6   2   3    2.09    1.13
  -7  -2  -4    3.41    1.22
  -5  -2  -4    3.26    1.19
  -4  -2  -4   50.34    3.40
  -3  -2  -4   13.73    1.69
  -2  -2  -4   15.06    1.51
  -1  -2  -4  738.71   20.37
   0   2   4  630.61   35.90
   0  -2  -4  640.20   17.27
  -1   2   4   -2.28    5.04
   1  -2  -4    5.58    0.73
   2  -2  -4   30.04    1.66
  -2   2   4   43.69    7.90
   3  -2  -4   13.01    1.29
  -3   2   4   13.44    8.24
  -4   2   4   30.43   10.21
   4  -2  -4   27.35    1.88
   5  -2  -4    6.74    1.24
  -6   2   4   17.77   10.23
  -5  -2  -5    2.44    0.91
  -4  -2  -5   12.82    1.80
  -3  -2  -5   64.40    3.48
  -2  -2  -5   42.04    2.44
  -1  -2  -5   66.12    2.91
   0  -2  -5   11.60    1.02
   1  -2  -5  760.58   20.11
  -1   2   5  723.60   41.74
   2  -2  -5   38.13    1.93
  -2   2   5   33.73    6.10
   3  -2  -5   31.37    1.92
  -3   2   5   40.02    9.24
   4  -2  -5    3.61    0.85
  -4   2   5    2.44    6.87
   5  -2  -5   48.30    2.90
  -5   2   5   45.51    8.37
  -6   2   5   10.93    8.09
  -5  -2  -6   11.91    2.13
  -4  -2  -6   12.30    1.84
  -3  -2  -6   52.56    3.12
  -2  -2  -6   27.83    2.04
  -1  -2  -6  165.34    5.66
   0  -2  -6  141.61    4.73
  -1   2   6  185.20   13.50
   1  -2  -6  186.03    5.79
  -2   2   6  149.84   12.53
   2  -2  -6  121.40    4.49
  -3   2   6   27.63    6.98
   3  -2  -6   14.69    1.36
  -4   2   6   15.60    7.80
   4  -2  -6   10.00    1.39
   5  -2  -6   22.52    2.07
  -5   2   6   23.54    9.18
   6  -2  -6   13.81    2.01
  -5  -2  -7    1.36    0.95
  -4  -2  -7   28.91    2.38
  -3  -2  -7   26.85    2.21
  -2  -2  -7  121.40    4.94
  -1  -2  -7   31.65    1.93
   0  -2  -7  129.77    5.07
   0  -2  -7  125.91    4.48
   1  -2  -7  160.47    5.21
  -1   2   7  154.39   12.63
  -2   2   7   66.96    9.75
   2  -2  -7   51.85    2.60
   3  -2  -7    9.91    1.29
  -3   2   7   16.05    6.74
  -4   2   7   54.48   10.90
   4  -2  -7   42.85    2.65
  -5   2   7    7.52    8.06
   5  -2  -7   10.62    1.68
   6  -2  -7    1.50    1.06
  -6  -2  -8    4.45    1.44
  -5  -2  -8   13.34    2.14
  -4  -2  -8   10.10    1.73
  -3  -2  -8    9.15    1.51
  -2  -2  -8    2.16    0.86
  -1  -2  -8    5.62    1.02
   0  -2  -8   37.87    2.05
   0  -2  -8   34.63    2.16
   1  -2  -8  105.68    3.94
   2  -2  -8  148.41    5.30
   3  -2  -8    9.09    1.33
  -3   2   8   15.94    6.78
   4  -2  -8   60.38    3.29
  -4   2   8   67.94   10.06
  -5   2   8    8.64    7.55
   5  -2  -8    5.98    1.35
   6  -2  -8   13.37    2.08
  -6  -2  -9    0.93    1.49
  -5  -2  -9   11.65    3.01
  -5  -2  -9    5.25    1.30
  -4  -2  -9    4.93    1.26
  -3  -2  -9    9.69    1.61
  -2  -2  -9    7.89    1.34
  -1  -2  -9   32.39    2.12
   0  -2  -9  144.71    5.87
   0  -2  -9  146.40    5.26
   1  -2  -9   77.25    3.28
   2  -2  -9   75.63    3.38
  -2   2   9   67.35    8.44
  -3   2   9   24.09    8.66
   3  -2  -9   11.54    1.48
  -4   2   9    6.97    7.65
   4  -2  -9    4.86    1.16
  -5   2   9   10.25    8.15
   5  -2  -9    7.11    1.47
   6  -2  -9    3.18    1.24
  -5  -2 -10    9.37    1.91
  -5  -2 -10   12.22    3.16
  -4  -2 -10    8.96    1.77
  -4  -2 -10    7.69    2.58
  -3  -2 -10   43.35    2.89
  -2  -2 -10   27.52    2.08
   0  -2 -10   11.98    1.41
   0  -2 -10   11.22    1.35
  -1   2  10   85.23   10.97
   1  -2 -10   86.91    3.65
  -2   2  10   58.69    8.98
   2  -2 -10   65.33    3.23
   3  -2 -10   54.37    3.09
  -3   2  10   62.36    9.75
   4  -2 -10    5.88    1.31
  -4   2  10    1.75    8.03
   5  -2 -10    3.00    1.03
  -5   2  10    8.70    8.18
   6  -2 -10   13.01    1.98
  -5  -2 -11    7.18    2.57
  -4  -2 -11    1.83    0.73
  -4  -2 -11    2.41    1.36
  -3  -2 -11   17.71    3.06
  -3  -2 -11   20.59    2.20
  -2  -2 -11    9.06    1.46
  -2  -2 -11   13.74    2.43
  -1  -2 -11   54.98    3.61
  -1  -2 -11   53.08    2.95
   0  -2 -11   21.41    1.77
   0  -2 -11   23.95    1.88
   1  -2 -11    4.74    1.01
   2  -2 -11    0.10    0.61
  -2   2  11  -10.18    7.25
   3  -2 -11   12.23    1.66
  -3   2  11    9.27    7.37
   4  -2 -11   23.47    2.36
  -4   2  11   29.84   10.10
   5  -2 -11    9.26    1.64
  -5   2  11   17.62    8.78
   6  -2 -11    3.21    1.18
  -5  -2 -12   -0.85    1.58
  -4  -2 -12   12.53    1.98
  -4  -2 -12   15.79    3.35
  -3  -2 -12    4.76    1.26
  -3  -2 -12    5.41    2.03
  -2  -2 -12   18.60    2.82
  -2  -2 -12   21.40    2.14
  -1  -2 -12    6.43    1.34
  -1  -2 -12    5.10    1.38
   0  -2 -12    9.48    1.42
   0  -2 -12   10.87    1.49
   1  -2 -12   16.73    1.68
   2  -2 -12    9.38    1.55
  -2   2  12   11.43    8.94
   3  -2 -12   29.44    2.34
  -3   2  12   34.83   10.15
   4  -2 -12    5.49    1.30
  -4   2  12    7.00    7.81
   5  -2 -12    4.18    1.30
   6  -2 -12    1.68    1.01
  -5  -2 -13    2.28    1.99
  -4  -2 -13    3.85    1.27
  -4  -2 -13    3.68    1.89
  -3  -2 -13   13.08    1.93
  -3  -2 -13   18.62    3.27
  -2  -2 -13   13.35    2.58
  -2  -2 -13   12.72    1.90
  -1  -2 -13   12.94    1.73
  -1  -2 -13   13.49    2.09
   0  -2 -13   10.60    1.53
   1  -2 -13   21.09    1.81
   2  -2 -13   23.48    2.30
  -2   2  13   28.00   10.04
   3  -2 -13   16.45    2.01
  -3   2  13   18.08    8.89
   4  -2 -13    5.38    1.34
  -4   2  13    4.79    6.88
   5  -2 -13    0.78    0.88
   6  -2 -13    2.77    1.31
  -5  -2 -14    3.26    2.86
  -4  -2 -14   23.98    4.12
  -4  -2 -14   30.27    2.77
  -3  -2 -14    6.73    1.46
  -3  -2 -14    8.07    2.32
  -2  -2 -14    8.26    1.54
  -2  -2 -14    9.68    2.31
  -1  -2 -14   11.45    2.00
  -1  -2 -14    8.56    1.57
   0  -2 -14   22.27    2.22
   1  -2 -14    0.81    0.71
   2  -2 -14   33.08    2.56
  -3   2  14   40.47   10.62
   3  -2 -14   42.47    2.95
  -4   2  14   13.70    9.68
   4  -2 -14   14.53    2.10
   5  -2 -14   10.87    1.98
   6  -2 -14    2.41    1.18
  -4  -2 -15    7.77    2.75
  -4  -2 -15    8.26    1.72
  -3  -2 -15   11.34    2.92
  -3  -2 -15    5.82    1.42
  -2  -2 -15    3.49    1.64
  -2  -2 -15    0.85    0.67
  -1  -2 -15    9.41    1.45
   0  -2 -15    1.38    0.86
   1  -2 -15    9.91    1.65
   2  -2 -15    1.04    0.82
  -3   2  15   20.48    8.81
  -4   2  15    5.69    7.43
   4  -2 -15    3.92    1.31
   5  -2 -15    2.56    1.05
   6  -2 -15    0.13    0.93
  -4  -2 -16    6.64    2.85
  -3  -2 -16    6.18    1.56
  -3  -2 -16    4.03    1.91
  -2  -2 -16    4.23    1.01
  -1  -2 -16    7.99    1.31
   0  -2 -16   -0.73    0.52
   1  -2 -16   24.23    2.15
   2  -2 -16    8.75    1.75
  -3   2  16   41.59   11.71
   3  -2 -16   29.09    2.59
  -4   2  16    7.19    7.84
   4  -2 -16   14.65    2.23
   5  -2 -16   13.52    2.35
   6  -2 -16    2.83    1.74
  -4  -2 -17    0.89    2.36
  -3  -2 -17   10.75    2.73
  -2  -2 -17   -0.11    0.58
  -1  -2 -17    0.09    0.63
   0  -2 -17    2.07    0.87
   1  -2 -17   12.23    1.97
   2  -2 -17    6.96    1.62
   3  -2 -17   11.97    2.07
   4  -2 -17    9.16    1.85
   5  -2 -17    3.51    1.46
  -3  -2 -18    3.51    0.96
  -2  -2 -18    0.91    0.63
  -1  -2 -18    6.79    1.26
   0  -2 -18   11.99    1.62
   1  -2 -18   20.74    2.58
   2  -2 -18   12.74    2.06
   3  -2 -18    4.02    1.50
   4  -2 -18   13.23    2.27
   5  -2 -18    0.74    1.25
  -3  -2 -19    0.38    1.20
  -2  -2 -19   -0.53    0.60
  -1  -2 -19    1.68    0.78
   0  -2 -19    3.61    1.19
   1  -2 -19    4.09    1.33
   2  -2 -19   10.51    1.96
   3  -2 -19    5.63    1.72
   4  -2 -19   -0.21    0.80
  -2  -2 -20   -0.77    0.59
  -1  -2 -20    0.32    0.79
   0  -2 -20   10.50    1.97
   1  -2 -20    0.82    0.95
   2  -2 -20    2.34    1.04
   3  -2 -20   -0.40    0.73
   4  -2 -20   -0.51    1.22
  -1  -2 -21    0.88    0.71
   0  -2 -21   16.65    2.47
   1  -2 -21   -0.08    1.02
   2  -2 -21    0.33    0.84
   1   3 -22    4.82    1.42
   0   3 -22    3.10    1.26
   3   3 -21    2.88    1.37
   2   3 -21    5.86    1.76
   1   3 -21    6.67    1.76
   0   3 -21    3.57    1.34
  -1   3 -21   16.15    2.56
   3   3 -20    4.57    1.50
   2   3 -20    9.97    1.92
   1   3 -20    1.12    0.84
   0   3 -20    0.03    0.94
  -1   3 -20    3.91    1.32
   4   3 -19   -0.87    0.88
   3   3 -19    3.06    1.18
   2   3 -19    6.07    1.61
   1   3 -19    4.91    1.34
   0   3 -19    2.40    0.99
   5   3 -18    0.29    1.39
   4   3 -18    2.55    1.32
   3   3 -18    5.43    1.46
   2   3 -18    7.63    1.67
   1   3 -18    8.41    1.74
   0   3 -18   -0.05    0.83
  -1   3 -18    6.51    1.49
  -2   3 -18   -0.82    0.70
  -3   3 -18    4.91    2.63
   5   3 -17    1.19    0.99
   4   3 -17    3.85    1.62
   3   3 -17    2.82    1.11
   2   3 -17    1.90    0.98
   1   3 -17   21.03    2.45
   0   3 -17    0.59    0.71
  -1   3 -17   10.53    1.60
  -2   3 -17   14.16    3.03
  -2   3 -17   11.52    1.73
  -3   3 -17    5.28    2.42
  -4   3 -17    1.08    2.82
   5   3 -16    1.95    1.18
   4   3 -16    2.17    1.08
   3   3 -16   16.52    2.31
   2   3 -16    2.03    0.91
   1   3 -16    3.23    1.00
   0   3 -16    4.54    1.09
  -1   3 -16   10.43    1.64
  -2   3 -16   16.82    3.13
  -2   3 -16   11.67    1.70
  -3   3 -16   11.81    3.11
  -4   3 -16    3.03    2.29
   6   3 -15    1.04    1.30
   5   3 -15    3.42    1.30
   4   3 -15    7.41    1.84
   3   3 -15    4.54    1.22
   2   3 -15   39.56    2.86
   1   3 -15    3.75    1.17
   0   3 -15   16.23    1.95
  -1   3 -15   20.33    2.88
  -1   3 -15   25.06    2.07
  -2   3 -15   14.36    2.90
  -2   3 -15   12.88    1.73
  -3   3 -15    5.39    2.20
  -4   3 -15    2.54    1.89
   6   3 -14    1.85    1.30
   5   3 -14    0.94    0.90
   4   3 -14    3.06    1.11
   3   3 -14   21.35    2.40
   2   3 -14    3.66    1.12
   1   3 -14    2.95    1.09
   0   3 -14    1.60    0.78
   0   3 -14    0.46    1.04
  -1   3 -14    2.14    0.80
  -1   3 -14   -0.51    0.54
  -2   3 -14    8.89    1.48
  -2   3 -14    8.75    2.31
  -3   3 -14    9.51    2.58
  -4   3 -14    2.02    1.70
   6   3 -13    2.14    1.17
   5   3 -13    1.24    0.89
   4   3 -13    9.92    1.82
   3   3 -13   46.78    3.17
  -3  -3  13   50.00   11.06
   2   3 -13   22.45    2.03
   1   3 -13    9.38    1.48
   0   3 -13    4.96    1.10
   0   3 -13    8.48    1.74
  -1   3 -13    0.49    0.59
  -1   3 -13    1.11    0.91
  -2   3 -13   22.56    3.11
  -2   3 -13   16.06    1.85
  -3   3 -13    6.78    2.11
  -3   3 -13    8.93    1.53
  -4   3 -13   -1.17    1.26
  -5   3 -13    1.30    2.12
   7   3 -12    1.77    1.73
   6   3 -12    1.06    1.03
   5   3 -12    2.25    0.98
   4   3 -12    5.92    1.47
  -3  -3  12   49.22    9.79
   3   3 -12   24.80    2.47
   2   3 -12   33.60    2.37
   1   3 -12    0.90    1.17
   1   3 -12    0.09    0.63
   0   3 -12   -0.27    0.99
   0   3 -12    0.37    0.67
  -1   3 -12   11.12    1.99
  -1   3 -12   11.26    1.52
  -2   3 -12   29.05    3.00
  -2   3 -12   26.94    2.00
  -3   3 -12   11.30    2.49
  -3   3 -12   10.87    1.60
  -4   3 -12   14.04    3.05
  -5   3 -12   -0.53    1.57
   7   3 -11    3.27    1.72
   6   3 -11    0.06    0.91
   5   3 -11    2.19    1.13
   4   3 -11   11.09    1.79
  -3  -3  11    9.96    6.68
   2   3 -11    3.44    1.00
   1   3 -11   13.81    1.70
   1   3 -11   14.21    1.64
   0   3 -11   29.46    1.98
   0   3 -11   33.43    2.57
  -1   3 -11   22.09    2.33
  -1   3 -11   21.67    1.75
  -2   3 -11   29.44    2.94
  -2   3 -11   29.82    2.14
  -3   3 -11    6.52    1.24
  -3   3 -11    4.61    1.83
  -4   3 -11   15.37    3.22
  -5   3 -11   21.41    4.21
   7   3 -10    3.06    1.50
   6   3 -10    1.61    1.11
   5   3 -10   13.88    2.05
   4   3 -10    5.36    1.33
  -3  -3  10    3.07    5.82
   3   3 -10    0.97    0.78
   2   3 -10    5.67    1.16
   2   3 -10    9.54    1.21
   1   3 -10   33.05    2.16
   1   3 -10   35.12    2.32
   0   3 -10    4.30    1.18
   0   3 -10    2.57    0.83
  -1   3 -10   13.19    1.45
  -1   3 -10   17.84    2.22
  -2   3 -10   24.54    2.58
  -2   3 -10   23.22    1.78
  -3   3 -10   53.53    3.01
  -3   3 -10   46.33    4.07
  -4   3 -10   12.65    2.89
  -5   3 -10    2.34    1.97
   7   3  -9    8.62    1.94
   6   3  -9    7.62    1.65
   5   3  -9    7.42    1.61
   4   3  -9    3.72    1.11
  -3  -3   9   37.35    6.42
   3   3  -9   31.93    2.28
   3   3  -9   31.84    2.16
   2   3  -9   14.82    1.57
  -2  -3   9   13.14    6.22
   2   3  -9   11.92    1.26
   1   3  -9   21.55    1.65
   1   3  -9   20.17    2.11
   0   3  -9   12.28    1.74
   0   3  -9    9.18    1.12
  -1   3  -9   27.09    1.73
  -1   3  -9   23.00    2.24
  -2   3  -9    5.50    1.56
  -2   3  -9    2.82    0.80
  -3   3  -9   37.56    3.48
  -3   3  -9   40.35    2.47
  -4   3  -9    6.20    2.18
  -5   3  -9   15.06    3.53
  -6   3  -9   11.92    2.82
   7   3  -8    5.00    1.63
   6   3  -8   13.29    2.01
   5   3  -8    6.55    1.49
   4   3  -8    0.85    0.78
  -3  -3   8   19.83    6.58
   3   3  -8   16.54    1.73
   2   3  -8   62.45    3.06
   2   3  -8   62.98    2.97
   1   3  -8   23.22    1.64
   1   3  -8   24.92    1.89
   0   3  -8   49.53    2.92
   0   3  -8   48.64    2.28
  -1   3  -8   86.40    4.49
  -1   3  -8   82.77    3.31
  -2   3  -8   69.15    3.12
  -2   3  -8   70.63    4.40
  -3   3  -8    1.27    0.69
  -3   3  -8    1.51    1.25
  -4   3  -8   12.12    2.77
  -5   3  -8    4.85    1.66
  -6   3  -8    2.87    1.53
   7   3  -7    5.05    1.67
   6   3  -7   -0.16    0.81
   5   3  -7   16.22    2.10
   4   3  -7    9.14    1.45
  -4  -3   7   11.02    7.10
   3   3  -7   38.94    2.35
  -3  -3   7   35.24    5.58
   2   3  -7   15.98    1.41
   2   3  -7   12.25    1.61
   1   3  -7   26.86    1.80
   1   3  -7   23.28    1.60
  -1   3  -7    2.67    0.65
  -1   3  -7    3.12    1.03
  -2   3  -7    5.73    0.91
  -2   3  -7    5.92    1.55
  -3   3  -7    0.94    1.04
  -3   3  -7    2.05    0.80
  -4   3  -7   41.95    2.85
  -4   3  -7   40.19    3.81
  -5   3  -7   18.26    3.50
  -6   3  -7    2.78    1.16
   7   3  -6   -0.38    1.18
   6   3  -6    7.71    1.65
   5   3  -6   10.80    1.78
  -4  -3   6   17.66    6.52
   4   3  -6   18.72    1.92
   3   3  -6   17.56    1.68
  -3  -3   6   22.81    5.46
  -2  -3   6  162.74   10.66
   2   3  -6  125.61    4.80
   2   3  -6  130.17    5.39
   1   3  -6   40.18    2.24
   1   3  -6   41.05    1.99
  -1   3  -6  111.14    5.15
  -1   3  -6  115.37    3.89
  -2   3  -6  143.69    6.76
  -2   3  -6  144.78    4.98
  -3   3  -6   26.49    3.06
  -3   3  -6   23.94    1.80
  -4   3  -6    0.28    0.85
  -4   3  -6    0.53    0.87
  -5   3  -6   14.02    2.84
  -6   3  -6    4.46    1.52
   6   3  -5   15.59    2.25
   5   3  -5    6.73    1.46
  -4  -3   5   11.68    6.04
   4   3  -5    9.29    1.50
   3   3  -5    1.05    0.68
  -3  -3   5    0.51    3.86
   2   3  -5   40.82    2.15
   2   3  -5   45.77    2.33
  -2  -3   5   42.61    5.19
   1   3  -5  116.22    4.42
   1   3  -5  116.72    3.94
   0   3  -5    6.83    0.95
  -1   3  -5   21.29    1.24
  -1   3  -5   20.77    1.81
  -2   3  -5   59.26    3.76
  -2   3  -5   62.12    2.66
  -3   3  -5   13.29    2.28
  -3   3  -5   11.20    1.34
  -4   3  -5   11.38    2.44
  -4   3  -5   11.16    1.59
  -5   3  -5    9.79    2.42
  -6   3  -5    2.34    1.28
  -7   3  -5    4.65    1.88
  -7  -3   4    3.51    1.20
  -7  -3   4    1.84    0.85
   6   3  -4    9.29    1.74
   5   3  -4    4.94    1.36
  -4  -3   4   16.15    6.48
   4   3  -4   11.10    1.52
   3   3  -4   31.26    1.98
  -3  -3   4   36.57    8.41
  -2  -3   4    8.21    3.72
   2   3  -4    2.69    0.73
   2   3  -4    3.28    0.91
   1   3  -4  344.49   11.42
   1   3  -4  339.77    9.73
   0   3  -4  467.50   15.49
   0   3  -4  467.81   12.71
  -1   3  -4   64.93    3.35
  -1   3  -4   67.21    2.39
  -2   3  -4   18.47    1.31
  -2   3  -4   22.46    2.16
  -3   3  -4   19.49    2.60
  -3   3  -4   21.03    1.65
  -4   3  -4    3.48    0.99
  -4   3  -4    3.34    1.39
  -5   3  -4    1.43    0.98
  -6   3  -4    6.49    1.67
  -7   3  -4    2.69    1.06
  -7  -3   3    0.96    0.78
  -7  -3   3    2.17    1.16
   5   3  -3   28.37    2.29
   4   3  -3   17.36    1.80
   3   3  -3   38.14    2.18
   2   3  -3   33.85    1.77
  -2  -3   3   30.60    4.73
   0   3  -3   66.12    2.17
   0   3  -3   64.51    2.84
  -1   3  -3  241.78    6.88
  -1   3  -3  247.92    8.91
  -2   3  -3   78.02    3.01
  -2   3  -3   83.48    4.28
  -3   3  -3   22.77    2.40
  -3   3  -3   24.55    1.75
  -4   3  -3   12.24    2.40
  -4   3  -3   12.12    1.69
  -5   3  -3    4.83    1.90
  -6   3  -3    2.94    1.38
  -7   3  -3    3.84    1.47
  -7  -3   2    2.32    1.06
  -7  -3   2    2.60    1.19
  -6  -3   2   15.90    2.25
  -6  -3   2   17.39    2.66
   5   3  -2    2.16    0.97
   4   3  -2    0.38    0.61
   3   3  -2   20.56    1.54
   2   3  -2  150.17    4.96
   1   3  -2  179.97    6.36
   1   3  -2  187.25    5.46
   0   3  -2   58.70    2.47
   0   3  -2   57.63    1.84
  -1   3  -2  175.96    6.53
  -1   3  -2  170.60    4.92
  -2   3  -2   16.62    1.77
  -2   3  -2   16.03    1.15
  -3   3  -2   26.08    1.78
  -3   3  -2   26.39    2.53
  -4   3  -2   11.12    1.61
  -4   3  -2   10.43    2.13
  -5   3  -2   14.60    2.83
  -6   3  -2    2.76    1.34
  -7   3  -2    8.59    2.09
  -6  -3   1   10.87    2.00
  -6  -3   1    9.67    2.04
  -5  -3   1   26.13    3.00
  -5  -3   1   28.50    2.55
   4   3  -1    6.93    1.25
   3   3  -1   79.42    3.28
   2   3  -1    3.40    0.70
   1   3  -1  100.74    3.20
   1   3  -1   99.03    3.80
   0   3  -1  129.01    4.58
   0   3  -1  130.93    3.64
  -1   3  -1   28.86    1.13
  -1   3  -1   30.49    1.81
  -2   3  -1    6.81    0.85
  -2   3  -1    8.41    1.38
  -2   3  -1    7.40    0.90
  -3   3  -1   77.13    4.41
  -3   3  -1   71.55    3.27
  -3   3  -1   70.79    3.39
  -4   3  -1    1.87    0.97
  -4   3  -1    2.43    1.36
  -4   3  -1    0.75    0.84
  -5   3  -1   28.22    3.54
  -6   3  -1    1.92    1.11
  -7   3  -1    0.41    1.09
  -6  -3   0    3.33    1.09
  -6  -3   0    1.34    1.02
  -5  -3   0   21.51    2.56
  -5  -3   0   18.90    2.62
  -4  -3   0   13.61    2.17
  -4  -3   0   14.57    2.07
   2   3   0  148.03    4.78
   1   3   0   65.37    2.77
   1   3   0   67.97    2.34
   0  -3   0   -1.08    0.27
   0  -3   0   -0.84    0.26
   0   3   0   -0.75    0.34
   0   3   0   -0.22    1.02
   1  -3   0   65.46    1.92
  -1   3   0   62.87    2.77
  -2   3   0  146.75    6.00
   2  -3   0  143.92    4.34
   3  -3   0    0.02    0.40
  -4   3   0   16.86    2.00
  -4   3   0   18.56    2.16
  -5   3   0   28.01    2.95
  -5   3   0   27.70    3.47
  -5   3   0   23.31    2.65
  -6   3   0    1.86    1.21
  -7   3   0    1.36    1.28
  -6  -3  -1    2.25    1.06
  -5  -3  -1   25.69    2.80
  -5  -3  -1   24.98    2.96
  -4  -3  -1    3.45    1.22
  -4  -3  -1    2.30    1.14
  -3  -3  -1   64.80    3.51
  -3  -3  -1   68.70    3.71
  -2  -3  -1    7.86    1.24
  -2  -3  -1   10.14    1.29
  -1  -3  -1   29.47    1.63
  -1  -3  -1   27.40    1.65
   0   3   1   90.38    5.82
   1  -3  -1  107.43    3.11
  -1   3   1  104.79    3.94
  -2   3   1    5.38    1.07
   2  -3  -1    6.41    0.68
   3  -3  -1   82.37    3.10
   4  -3  -1    6.43    0.97
  -5   3   1   31.43    2.82
  -5   3   1   25.52    2.64
  -5   3   1   31.79    3.15
  -6   3   1   13.88    2.84
  -6  -3  -2    3.01    1.34
  -5  -3  -2   14.76    2.28
  -4  -3  -2    9.72    1.76
  -4  -3  -2    6.40    1.61
  -3  -3  -2   20.34    1.89
  -3  -3  -2   24.99    2.15
  -2  -3  -2   17.24    1.61
  -1  -3  -2  173.94    5.65
   0  -3  -2   52.40    1.93
   0   3   2   52.63    2.00
   0   3   2   45.76    4.29
   1  -3  -2  187.79    5.39
  -1   3   2  188.34   12.43
  -1   3   2  193.23    6.42
  -2   3   2  138.60    5.64
   2  -3  -2  151.57    4.58
   3  -3  -2   25.43    1.55
   4  -3  -2    2.28    0.78
  -5   3   2    4.10    1.53
   5  -3  -2    2.31    0.92
  -6   3   2   19.54    3.29
  -6  -3  -3    1.10    0.84
  -5  -3  -3    6.88    1.75
  -4  -3  -3    8.57    1.69
  -3  -3  -3   22.64    2.01
  -2  -3  -3   81.39    3.62
  -1  -3  -3  241.28    7.48
   0   3   3   58.97    5.91
   0  -3  -3   58.29    2.21
  -2   3   3   32.46    1.95
  -2   3   3   47.41    8.24
   3  -3  -3   34.03    1.83
   4  -3  -3   14.44    1.48
  -5   3   3   24.71    2.67
   5  -3  -3   26.95    2.03
  -6   3   3   11.79    2.56
  -6  -3  -4    8.27    1.77
  -5  -3  -4    0.01    0.65
  -4  -3  -4    6.05    1.36
  -3  -3  -4   20.38    2.10
  -2  -3  -4   19.15    1.65
  -1  -3  -4   67.77    2.91
   0  -3  -4  429.21   12.00
   1  -3  -4  308.68    8.82
  -1   3   4  320.12   20.17
   2  -3  -4    3.77    0.63
  -2   3   4    2.67    0.65
  -2   3   4    4.67    4.65
  -3   3   4   43.91   11.60
  -4   3   4    7.31    8.27
   5  -3  -4    5.20    1.18
  -5   3   4    5.42    1.67
  -5   3   4    4.31    7.92
  -6   3   4   13.56    9.09
  -6  -3  -5    6.88    1.76
  -5  -3  -5   11.12    2.05
  -4  -3  -5   11.99    1.84
  -3  -3  -5    8.30    1.50
  -2  -3  -5   52.72    2.79
  -1  -3  -5   16.85    1.43
  -1   3   5  107.61    9.35
   1  -3  -5  115.73    3.80
  -2   3   5   48.92    7.02
   2  -3  -5   47.25    2.18
  -3   3   5    0.55    5.65
   3  -3  -5    2.05    0.64
  -4   3   5   17.21    8.60
  -5   3   5    6.41    7.76
  -6   3   5   30.29   10.41
  -5  -3  -6   16.62    2.36
  -4  -3  -6   -0.03    0.54
  -3  -3  -6   22.46    2.02
  -2  -3  -6  145.10    5.55
  -1  -3  -6  123.40    4.66
   0  -3  -6   48.80    2.27
   1  -3  -6   36.21    1.90
  -1   3   6   54.29    7.42
   2  -3  -6  129.09    4.69
  -2   3   6  147.15   13.39
   3  -3  -6   14.84    1.37
  -3   3   6   20.85    6.95
  -4   3   6   17.87    8.37
   4  -3  -6   15.41    1.62
  -5   3   6    6.12    8.03
   5  -3  -6    9.60    1.57
  -6   3   6    9.17    8.87
  -5  -3  -7   16.09    2.33
  -4  -3  -7   37.02    2.77
  -3  -3  -7    0.15    0.64
  -2  -3  -7    4.76    1.17
  -1  -3  -7    1.10    0.64
   0  -3  -7   57.97    2.62
  -1   3   7   38.74    8.78
   1  -3  -7   22.26    1.52
   2  -3  -7   15.82    1.38
  -2   3   7   27.10   10.12
  -3   3   7   52.87    9.97
   3  -3  -7   40.58    2.36
  -4   3   7   14.00    8.52
   4  -3  -7    8.54    1.30
   5  -3  -7   15.53    1.92
  -5   3   7   12.03    8.58
   6  -3  -7    0.66    0.86
  -6   3   7  -14.69    7.39
  -5  -3  -8    4.85    1.30
  -4  -3  -8    9.05    1.65
  -3  -3  -8    2.00    0.68
  -2  -3  -8   72.69    3.74
  -1  -3  -8   82.31    3.61
   0  -3  -8   45.43    2.37
  -1   3   8   35.14   10.72
   1  -3  -8   24.72    1.67
  -2   3   8   82.40   11.09
   2  -3  -8   70.89    3.23
  -3   3   8   26.48    7.79
   3  -3  -8   15.73    1.63
   4  -3  -8    2.41    0.93
  -4   3   8    1.73    7.36
   5  -3  -8    4.97    1.23
  -5   3   8    8.09    8.02
   6  -3  -8   16.70    2.24
  -6  -3  -9    3.55    2.13
  -5  -3  -9   11.52    2.13
  -4  -3  -9    8.09    1.70
  -3  -3  -9   39.83    2.79
  -2  -3  -9    3.67    1.09
  -1  -3  -9   21.36    1.75
   0  -3  -9   10.82    1.35
   0  -3  -9   10.00    1.26
  -1   3   9   56.19   13.40
   1  -3  -9   20.48    1.61
  -2   3   9   18.59    7.22
   2  -3  -9   12.26    1.42
   3  -3  -9   30.58    2.16
  -3   3   9   36.54   10.82
  -4   3   9    2.71    7.63
   4  -3  -9    3.65    1.03
   5  -3  -9    6.10    1.32
  -5   3   9   15.23    8.66
   6  -3  -9    5.34    1.45
  -5  -3 -10    3.59    1.89
  -5  -3 -10    4.90    1.28
  -4  -3 -10   11.62    1.96
  -3  -3 -10   51.64    3.25
  -2  -3 -10   21.69    1.87
  -1  -3 -10    9.64    1.41
   0  -3 -10    2.41    0.79
   0  -3 -10    2.99    0.91
   1  -3 -10   32.22    2.12
  -1   3  10   57.14   12.34
  -2   3  10   10.06    7.52
   2  -3 -10    9.54    1.39
  -3   3  10   16.57    9.11
  -4   3  10    0.88    8.29
   4  -3 -10    6.04    1.32
   5  -3 -10   14.36    1.92
  -5   3  10   17.93    9.31
   6  -3 -10    1.15    0.89
  -5  -3 -11   21.02    4.02
  -5  -3 -11   20.35    2.71
  -4  -3 -11   10.45    1.87
  -3  -3 -11    4.83    1.14
  -2  -3 -11   26.24    2.13
  -1  -3 -11   19.19    2.09
  -1  -3 -11   20.64    1.78
   0  -3 -11   27.93    2.03
   0  -3 -11   25.82    1.95
   1  -3 -11   12.79    1.50
  -1   3  11   11.48    8.96
   2  -3 -11    3.70    1.02
  -2   3  11   -6.61    8.63
   3  -3 -11    9.18    1.49
  -3   3  11   11.10    8.03
   4  -3 -11   12.91    1.79
  -4   3  11   22.59    9.08
  -5   3  11   10.88    8.59
   6  -3 -11    1.68    0.92
  -5  -3 -12    1.76    1.93
  -4  -3 -12   11.14    1.83
  -4  -3 -12   15.54    3.18
  -3  -3 -12   10.41    2.64
  -3  -3 -12    8.79    1.63
  -2  -3 -12   25.99    2.22
  -2  -3 -12   27.52    2.94
  -1  -3 -12   10.28    1.55
  -1  -3 -12   12.02    1.98
   0  -3 -12    0.34    0.51
   0  -3 -12    0.71    0.57
   1  -3 -12    2.72    0.90
   2  -3 -12   33.06    2.40
  -2   3  12   48.94   11.90
  -3   3  12   69.99   10.57
  -4   3  12    9.07    8.99
   4  -3 -12    7.07    1.55
  -5   3  12   11.23    8.24
   6  -3 -12    3.09    1.22
  -5  -3 -13    0.33    1.89
  -4  -3 -13    0.79    0.71
  -4  -3 -13    2.24    1.49
  -3  -3 -13    7.04    2.11
  -3  -3 -13    8.22    1.58
  -2  -3 -13   19.43    2.98
  -2  -3 -13   17.07    2.11
  -1  -3 -13    0.86    0.78
  -1  -3 -13    0.39    0.84
   0  -3 -13    6.76    1.36
   1  -3 -13    8.01    1.34
   2  -3 -13   20.72    2.18
  -2   3  13   36.46   10.98
   3  -3 -13   41.99    2.89
  -3   3  13   46.80   11.68
  -4   3  13    8.10    7.32
   4  -3 -13    8.98    1.68
   5  -3 -13    1.03    0.81
   6  -3 -13    0.66    0.93
  -5  -3 -14    4.66    3.05
  -4  -3 -14    2.40    1.82
  -4  -3 -14    2.22    1.01
  -3  -3 -14   10.30    2.64
  -3  -3 -14   11.67    1.88
  -2  -3 -14    7.74    2.12
  -2  -3 -14    9.33    1.70
  -1  -3 -14    1.21    0.91
  -1  -3 -14    0.61    0.68
   0  -3 -14    0.34    0.59
   1  -3 -14    3.02    0.95
  -2   3  14    3.84    8.93
   2  -3 -14    2.71    1.06
  -3   3  14   19.06    9.21
   3  -3 -14   17.26    2.14
   4  -3 -14    2.74    1.14
  -4   3  14   -1.93    7.75
   5  -3 -14   -0.36    0.67
   6  -3 -14    2.75    1.35
  -4  -3 -15    2.37    1.68
  -4  -3 -15    0.10    0.90
  -3  -3 -15    5.82    1.51
  -3  -3 -15    6.37    2.10
  -2  -3 -15   14.53    2.79
  -2  -3 -15    9.86    1.48
  -1  -3 -15   28.15    2.36
   0  -3 -15   14.25    1.95
   1  -3 -15    3.21    1.01
   2  -3 -15   44.97    3.06
  -3   3  15    6.27    7.94
   3  -3 -15    4.87    1.40
  -4   3  15   -1.47    7.32
   4  -3 -15    6.26    1.47
   5  -3 -15    6.38    1.57
   6  -3 -15    9.60    2.10
  -4  -3 -16    5.48    1.52
  -4  -3 -16    5.34    3.01
  -3  -3 -16    7.44    1.35
  -3  -3 -16   11.56    2.90
  -1  -3 -16    6.52    1.23
   0  -3 -16    1.85    0.93
   1  -3 -16    1.05    0.70
   2  -3 -16    0.56    0.75
   3  -3 -16   13.22    2.07
  -3   3  16   19.03    9.98
   4  -3 -16    1.51    1.02
  -4   3  16    0.91    6.35
   5  -3 -16    1.41    1.04
   6  -3 -16    7.27    2.15
  -4  -3 -17    4.43    2.87
  -3  -3 -17    3.10    0.94
   0  -3 -17   -0.55    0.64
   1  -3 -17   19.71    2.36
   2  -3 -17    0.79    0.92
  -3   3  17   -0.14    8.27
   3  -3 -17    2.84    1.09
  -4   3  17   -0.51    7.39
   4  -3 -17    2.50    1.11
   5  -3 -17    3.16    1.38
  -3  -3 -18    0.99    0.66
  -2  -3 -18    1.22    0.67
  -1  -3 -18    1.94    0.81
   0  -3 -18    1.49    0.75
   1  -3 -18    7.20    1.62
   2  -3 -18    8.27    1.83
   3  -3 -18    0.71    0.95
   4  -3 -18    5.42    1.63
   5  -3 -18    1.63    1.46
  -3  -3 -19   -0.06    0.86
  -2  -3 -19    2.51    0.79
  -1  -3 -19    1.52    0.86
   0  -3 -19    0.76    0.68
   1  -3 -19    3.20    1.07
   2  -3 -19    7.15    1.79
   3  -3 -19    2.74    1.30
   4  -3 -19   -0.04    0.89
  -2  -3 -20   -0.06    0.67
  -1  -3 -20    1.03    0.70
   0  -3 -20    0.37    0.68
   1  -3 -20   -0.54    0.75
   2  -3 -20   10.97    2.01
   3  -3 -20   -0.50    0.84
   4  -3 -20    0.02    1.31
  -1  -3 -21    7.19    1.26
   0  -3 -21    5.55    1.38
   1  -3 -21    6.58    1.80
   2  -3 -21    9.56    1.97
   1   4 -22    5.84    1.56
   0   4 -22    7.21    1.71
   2   4 -21    1.74    1.02
   1   4 -21    2.73    1.14
   0   4 -21    0.08    0.83
  -1   4 -21    9.81    2.13
   3   4 -20    0.84    1.08
   2   4 -20    4.10    1.29
   1   4 -20   30.57    3.14
   0   4 -20    1.67    0.97
  -1   4 -20    9.12    1.88
   4   4 -19    4.79    1.73
   3   4 -19    4.50    1.36
   2   4 -19    2.31    1.04
   1   4 -19   23.08    2.68
   0   4 -19   12.93    2.11
  -1   4 -19    0.66    0.88
   5   4 -18    0.17    1.29
   4   4 -18   11.14    2.23
   3   4 -18   14.08    2.30
   2   4 -18    9.83    1.96
   1   4 -18    0.25    0.81
   0   4 -18    1.33    0.75
  -1   4 -18    0.91    0.81
  -3   4 -18   15.26    3.70
   5   4 -17    1.12    1.09
   4   4 -17    3.88    1.52
   3   4 -17    4.77    1.36
   2   4 -17   15.30    2.17
   1   4 -17    0.86    0.76
   0   4 -17    2.66    1.03
  -1   4 -17    7.21    1.43
  -2   4 -17   11.38    2.84
  -3   4 -17   -1.00    1.74
  -4   4 -17    0.64    3.04
   5   4 -16    1.82    1.17
   4   4 -16   22.56    2.86
   3   4 -16    9.33    1.97
   2   4 -16    0.15    0.66
   1   4 -16   12.08    1.87
   0   4 -16    0.94    0.70
  -1   4 -16    4.56    1.05
  -1   4 -16    4.19    1.73
  -2   4 -16   34.15    4.12
  -2   4 -16   31.61    2.49
  -3   4 -16    7.45    2.55
  -4   4 -16    6.21    2.89
   6   4 -15   -0.32    1.26
   5   4 -15    0.63    1.00
   4   4 -15   30.40    3.10
   3   4 -15    6.68    1.59
   2   4 -15   26.52    2.56
   1   4 -15   19.98    2.21
   0   4 -15   44.52    2.88
  -1   4 -15   11.93    1.69
  -2   4 -15    7.68    2.34
  -2   4 -15    6.07    1.43
  -3   4 -15    8.72    2.65
  -4   4 -15    7.58    2.97
   6   4 -14   -0.38    0.96
   5   4 -14    5.61    1.57
   4   4 -14    1.64    0.97
   3   4 -14   36.85    2.86
   2   4 -14   22.41    2.08
   1   4 -14    5.74    1.35
   0   4 -14   30.57    2.94
   0   4 -14   32.06    2.31
  -1   4 -14   12.26    1.67
  -1   4 -14   11.93    2.16
  -2   4 -14    3.63    1.84
  -2   4 -14    6.17    1.30
  -3   4 -14    0.04    1.18
  -4   4 -14   34.50    4.67
   6   4 -13    5.22    1.77
   5   4 -13    1.78    0.94
   4   4 -13    3.52    1.30
   3   4 -13   15.12    2.09
   2   4 -13   13.24    1.79
   1   4 -13    4.20    1.19
   0   4 -13    2.74    0.84
   0   4 -13    2.13    1.40
  -1   4 -13    1.39    1.28
  -1   4 -13    2.45    0.88
  -2   4 -13   46.93    4.03
  -2   4 -13   45.95    2.74
  -3   4 -13   15.54    3.15
  -4   4 -13    4.23    1.91
  -5   4 -13   -0.38    1.68
   6   4 -12    4.83    1.48
   5   4 -12   13.05    2.13
   4   4 -12   62.53    3.77
   3   4 -12    3.76    1.25
   2   4 -12   27.50    2.15
   1   4 -12   55.80    3.47
   1   4 -12   63.55    3.23
   0   4 -12    8.25    1.31
   0   4 -12    9.87    1.83
  -1   4 -12    0.16    0.79
  -1   4 -12    2.17    1.29
  -2   4 -12   66.09    3.33
  -2   4 -12   70.17    4.92
  -3   4 -12    3.03    1.49
  -4   4 -12    4.61    1.89
  -5   4 -12   -1.58    1.30
   7   4 -11    2.05    1.61
   6   4 -11    2.15    1.28
   5   4 -11    9.65    1.86
   4   4 -11   35.96    2.71
   3   4 -11    4.66    1.27
  -3  -4  11    5.46    6.13
   2   4 -11   19.20    1.78
   2   4 -11   19.04    1.91
   1   4 -11   21.26    1.80
   1   4 -11   21.25    2.05
   0   4 -11  112.94    4.54
   0   4 -11  122.30    5.65
  -1   4 -11   14.37    2.25
  -1   4 -11   16.29    1.67
  -2   4 -11    1.39    0.79
  -2   4 -11   -0.04    0.81
  -3   4 -11   63.56    3.34
  -3   4 -11   64.83    4.89
  -4   4 -11   26.40    3.86
  -5   4 -11    1.51    1.91
   7   4 -10    0.17    1.19
   6   4 -10   14.04    2.17
   5   4 -10    2.46    1.08
   4   4 -10    2.88    1.15
  -3  -4  10   -0.88    4.98
   3   4 -10    0.88    0.79
   2   4 -10    2.93    0.94
   2   4 -10    2.28    0.95
   1   4 -10   12.36    1.68
   1   4 -10   13.85    1.51
   0   4 -10  124.22    5.59
   0   4 -10  116.03    4.47
  -1   4 -10   36.38    3.06
  -1   4 -10   55.91    2.63
  -2   4 -10   36.41    2.23
  -2   4 -10   35.50    3.17
  -3   4 -10   39.51    2.47
  -3   4 -10   36.65    3.55
  -4   4 -10    4.86    1.95
  -5   4 -10    5.12    2.50
   7   4  -9    2.43    1.41
   6   4  -9    1.84    1.06
   5   4  -9    3.04    1.15
   4   4  -9    4.93    1.33
   3   4  -9   13.12    1.63
   3   4  -9   12.59    1.60
  -3  -4   9   20.75    7.02
   2   4  -9   24.19    1.84
   2   4  -9   25.84    1.83
   1   4  -9   34.14    2.57
   1   4  -9   36.24    2.13
   0   4  -9   27.69    2.34
   0   4  -9   33.18    1.88
  -1   4  -9    5.03    1.41
  -1   4  -9    5.26    0.90
  -2   4  -9   14.20    2.28
  -2   4  -9   14.17    1.42
  -3   4  -9   10.22    2.32
  -3   4  -9    9.11    1.31
  -4   4  -9    4.83    1.85
  -5   4  -9    3.63    1.68
  -6   4  -9    1.72    1.34
   7   4  -8   -0.80    1.13
   6   4  -8    7.32    1.52
   5   4  -8    5.47    1.42
   4   4  -8    3.01    1.04
  -3  -4   8   38.04    6.88
   3   4  -8   31.98    2.23
   3   4  -8   29.99    2.16
  -2  -4   8  132.71   11.45
   2   4  -8  136.85    5.04
   2   4  -8  130.60    5.28
   1   4  -8   27.01    1.82
   1   4  -8   31.48    2.38
  -1   4  -8   21.48    1.46
  -1   4  -8   22.27    2.17
  -2   4  -8    5.36    0.89
  -2   4  -8    6.02    1.63
  -3   4  -8   23.09    1.75
  -3   4  -8   31.11    3.51
  -4   4  -8   26.70    3.74
  -5   4  -8    5.12    1.78
  -6   4  -8    0.84    1.09
   7   4  -7    2.30    1.44
   6   4  -7    6.89    1.61
   5   4  -7   18.98    2.24
   4   4  -7   35.81    2.46
   3   4  -7   26.50    2.01
   3   4  -7   23.16    1.86
  -3  -4   7   40.47    6.82
   2   4  -7    5.79    1.00
  -2  -4   7    3.41    5.43
   1   4  -7   12.82    1.22
   1   4  -7    9.35    1.40
  -1   4  -7   38.22    2.74
  -1   4  -7   36.73    1.84
  -2   4  -7   21.29    1.48
  -2   4  -7   21.47    2.24
  -3   4  -7   -0.15    0.50
  -3   4  -7    0.70    0.94
  -4   4  -7    2.44    1.26
  -5   4  -7    2.85    1.48
  -6   4  -7    0.01    1.11
   7   4  -6    0.74    1.65
   6   4  -6   18.53    2.32
   5   4  -6    1.38    0.94
   4   4  -6   15.42    1.79
   3   4  -6  130.43    4.88
  -3  -4   6  121.56    9.71
  -2  -4   6   65.71    7.79
   2   4  -6   70.10    3.03
   2   4  -6   66.31    3.25
   1   4  -6  114.36    4.66
   1   4  -6  115.40    4.04
   0   4  -6    7.06    1.23
   0   4  -6    6.86    0.82
  -1   4  -6   14.61    1.77
  -1   4  -6   10.87    0.95
  -2   4  -6    4.01    1.29
  -2   4  -6    3.29    0.67
  -3   4  -6    2.88    0.77
  -3   4  -6    3.99    1.56
  -4   4  -6    1.15    0.97
  -5   4  -6    7.67    2.20
  -6   4  -6    4.22    1.62
   6   4  -5    3.72    1.23
   5   4  -5    3.17    1.29
  -4  -4   5   33.37    6.03
   4   4  -5   32.35    2.33
   3   4  -5   16.28    1.56
  -3  -4   5   15.94    4.62
   2   4  -5   22.62    1.56
   2   4  -5   20.60    1.73
   1   4  -5  259.61    9.09
   1   4  -5  267.50    7.82
   0   4  -5   12.44    1.41
   0   4  -5   10.92    0.89
  -1   4  -5   99.30    4.76
  -1   4  -5  106.64    3.43
  -2   4  -5   15.31    2.05
  -2   4  -5   10.57    1.03
  -3   4  -5    4.23    1.57
  -3   4  -5    7.73    1.10
  -4   4  -5    0.70    0.94
  -4   4  -5    2.24    0.96
  -5   4  -5   25.15    3.56
  -6   4  -5    1.14    0.95
  -7  -4   4    5.08    1.16
  -7  -4   4    3.52    1.26
   6   4  -4   18.85    2.50
   5   4  -4   57.26    3.41
   4   4  -4    5.65    1.25
  -4  -4   4    7.76    5.72
  -3  -4   4  100.97    8.94
   3   4  -4   99.10    4.03
   2   4  -4   45.02    2.55
   2   4  -4   61.61    2.52
   0   4  -4  162.05    6.17
   0   4  -4  159.45    4.78
  -1   4  -4  369.39   13.11
  -1   4  -4  373.43   10.24
  -2   4  -4   20.75    2.08
  -2   4  -4   21.46    1.31
  -3   4  -4   32.12    2.96
  -3   4  -4   35.60    2.03
  -4   4  -4    3.80    1.14
  -4   4  -4    3.27    1.39
  -5   4  -4    8.90    2.30
  -6   4  -4    3.10    1.22
  -7   4  -4    5.20    1.71
  -7  -4   3    1.06    1.03
  -7  -4   3    1.13    0.86
   5   4  -3   16.06    2.05
   4   4  -3   23.18    1.89
   3   4  -3   29.60    1.90
   2   4  -3    1.77    0.82
   2   4  -3    1.34    0.58
   2   4  -3    1.74    0.83
   1   4  -3  141.09    5.24
   1   4  -3  137.32    4.42
   0   4  -3  189.85    6.85
   0   4  -3  191.13    5.42
  -1   4  -3  731.26   19.02
  -1   4  -3  697.11   23.56
  -2   4  -3   24.74    1.40
  -2   4  -3   20.69    2.04
  -3   4  -3  160.54    7.65
  -3   4  -3  169.54    5.75
  -4   4  -3    7.48    1.37
  -4   4  -3    4.80    1.57
  -5   4  -3   -0.43    0.76
  -6   4  -3    2.97    1.42
  -7   4  -3    0.35    1.18
  -7  -4   2    2.42    1.10
  -7  -4   2    1.97    0.84
  -6  -4   2    0.19    0.76
  -6  -4   2    1.77    0.81
   5   4  -2    3.87    1.22
   4   4  -2   14.60    1.64
   3   4  -2   41.71    2.28
   2   4  -2   10.61    1.09
   2   4  -2    9.99    1.31
   1   4  -2  519.46   14.16
   1   4  -2  518.38   16.90
   0   4  -2  321.48    8.52
   0   4  -2  303.68   10.46
  -1   4  -2  136.33    5.45
  -2   4  -2  136.11    4.55
  -2   4  -2  155.98    6.39
  -3   4  -2   45.42    3.35
  -3   4  -2   45.93    2.35
  -4   4  -2   28.94    2.87
  -4   4  -2   28.55    2.19
  -5   4  -2   22.39    3.17
  -6   4  -2    0.33    0.99
  -7   4  -2    7.01    2.01
  -7  -4   1    1.29    1.04
  -7  -4   1    3.43    1.29
  -6  -4   1    2.62    1.13
  -6  -4   1    3.86    1.17
  -5  -4   1   19.10    2.39
  -5  -4   1   18.91    2.61
   4   4  -1   26.04    1.95
   3   4  -1   21.35    1.54
   2   4  -1   77.44    2.98
   1   4  -1    0.97    0.46
   1   4  -1    0.09    0.66
   0   4  -1   29.30    1.58
   0   4  -1   30.53    1.09
  -1   4  -1  322.33   11.10
  -2   4  -1   26.95    1.39
  -2   4  -1   25.78    1.44
  -2   4  -1   25.24    2.07
  -3   4  -1   19.53    1.59
  -3   4  -1   20.98    1.55
  -3   4  -1   21.58    2.49
  -4   4  -1   44.44    2.96
  -4   4  -1   47.46    3.81
  -4   4  -1   45.90    2.83
  -5   4  -1    3.67    1.40
  -6   4  -1    7.03    1.89
  -7   4  -1    4.06    1.62
  -7  -4   0    3.07    1.17
  -6  -4   0   14.16    2.33
  -6  -4   0    7.69    1.96
  -5  -4   0    6.75    1.62
  -5  -4   0   13.29    2.09
  -4  -4   0    8.94    1.79
  -4  -4   0   10.68    2.04
   2   4   0   80.24    3.05
   1   4   0  101.56    3.35
   1   4   0  104.64    4.05
   0  -4   0    7.35    0.69
   0   4   0    8.15    0.83
   0   4   0   12.24    2.31
   0  -4   0    7.71    0.69
  -1   4   0  103.65    4.12
   2  -4   0   84.08    2.70
  -2   4   0   84.22    4.03
   3  -4   0   31.75    1.56
  -3   4   0   30.93    2.61
  -4   4   0   10.37    1.67
  -4   4   0    9.47    1.51
  -4   4   0    9.66    2.15
  -5   4   0   13.42    2.62
  -6   4   0   10.46    2.34
  -7   4   0    5.92    1.66
  -6  -4  -1    2.71    1.20
  -5  -4  -1    6.65    1.70
  -5  -4  -1    5.94    1.41
  -4  -4  -1   41.03    3.22
  -4  -4  -1   40.94    3.04
  -3  -4  -1   19.92    2.17
  -3  -4  -1   18.73    2.01
  -2  -4  -1   26.59    1.96
  -2  -4  -1   29.91    2.11
   1   4   1  305.33   10.20
  -1  -4  -1  299.85    9.20
  -1  -4  -1  294.37    8.90
   1  -4  -1    0.28    0.30
  -1   4   1    2.82    0.65
   2  -4  -1   84.42    2.75
  -2   4   1   80.25    3.80
   3  -4  -1   24.03    1.39
  -3   4   1   24.93    2.26
  -4   4   1   25.42    2.67
   4  -4  -1   23.58    1.58
  -5   4   1   25.57    3.40
  -6   4   1    6.84    1.92
  -6  -4  -2   -0.26    0.77
  -5  -4  -2   20.57    2.60
  -4  -4  -2   29.25    2.67
  -4  -4  -2   27.50    2.48
  -3  -4  -2   43.73    2.95
  -3  -4  -2   41.99    2.79
  -2  -4  -2  137.80    5.19
  -1  -4  -2  128.45    4.55
   0   4   2  272.19   16.47
   0   4   2  284.97    9.24
   0  -4  -2  284.57    8.01
  -1   4   2  531.51   17.19
   1  -4  -2  540.69   14.30
  -1   4   2  530.65   30.90
   2  -4  -2   12.08    0.90
  -2   4   2   12.66    1.36
   3  -4  -2   44.61    2.06
  -3   4   2   41.65    2.88
   4  -4  -2   14.51    1.30
  -4   4   2   16.05    2.35
  -5   4   2    4.59    1.59
   5  -4  -2    5.70    1.14
  -6   4   2    1.42    1.20
  -6  -4  -3    8.66    1.93
  -5  -4  -3   -0.41    0.62
  -4  -4  -3    5.04    1.28
  -3  -4  -3  157.76    6.33
  -2  -4  -3   19.13    1.71
  -1  -4  -3  664.04   18.58
   0   4   3  171.95    5.85
   0  -4  -3  176.41    5.29
   0   4   3  164.60   11.44
  -1   4   3  152.80    5.24
  -2   4   3    1.36    0.63
  -2   4   3   -2.97    5.56
   2  -4  -3    0.90    0.47
   3  -4  -3   32.64    1.80
  -3   4   3   32.47    2.41
  -4   4   3   23.36    2.71
   4  -4  -3   24.45    1.68
  -5   4   3   17.03    2.69
   5  -4  -3   17.08    1.75
  -6  -4  -4    2.82    1.35
  -5  -4  -4   13.29    2.34
  -4  -4  -4    2.71    0.98
  -3  -4  -4   33.71    2.49
  -2  -4  -4   18.15    1.64
  -1  -4  -4  361.49   10.78
  -1   4   4  234.32   16.39
   1  -4  -4  250.56    7.10
  -2   4   4   64.47    2.75
  -2   4   4   66.38    7.59
  -3   4   4  104.75    4.69
   3  -4  -4  106.80    3.85
  -3   4   4   80.37   11.07
   4  -4  -4    4.76    0.96
  -4   4   4    3.84    7.93
  -4   4   4    5.74    1.51
  -5   4   4   58.69    4.48
   5  -4  -4   64.29    3.31
  -5   4   4   62.59   10.11
  -6   4   4   17.84    9.46
  -6  -4  -5   -0.13    0.91
  -5  -4  -5   24.69    2.90
  -4  -4  -5    1.10    0.76
  -3  -4  -5    6.64    1.43
  -2  -4  -5    9.30    1.38
  -1  -4  -5   99.61    4.00
   0  -4  -5   12.90    1.19
   0   4   5   29.32    6.98
   1  -4  -5  262.33    7.59
  -1   4   5  248.12   16.82
  -2   4   5   28.98    7.84
   2  -4  -5   20.36    1.37
  -3   4   5   22.23    7.25
  -3   4   5   13.04    1.36
  -4   4   5   45.20   10.53
  -4   4   5   32.82    2.70
   5  -4  -5    3.20    0.97
  -5   4   5    4.12    7.63
  -6   4   5   13.81    8.32
  -6  -4  -6   10.93    2.36
  -5  -4  -6    6.43    1.57
  -4  -4  -6    2.75    0.76
  -3  -4  -6    2.74    1.06
  -2  -4  -6    4.01    1.10
  -1  -4  -6   11.50    1.41
   0   4   6   22.46    7.87
  -1   4   6  119.39   10.56
   1  -4  -6  114.20    4.06
   2  -4  -6   72.84    2.99
  -3   4   6  118.11   11.79
  -3   4   6  135.01    5.32
   3  -4  -6  147.26    5.00
  -4   4   6   17.84    8.65
  -5   4   6    5.53    7.92
  -6   4   6   14.31    9.21
  -6  -4  -7    0.42    0.91
  -5  -4  -7    3.06    1.12
  -4  -4  -7    0.42    0.61
  -3  -4  -7    0.54    0.47
  -2  -4  -7   18.78    1.93
  -1  -4  -7   33.44    2.14
   0  -4  -7  268.93    8.36
   2  -4  -7    6.18    0.99
  -2   4   7    3.42    7.26
   3  -4  -7   26.83    1.90
  -3   4   7   39.24    9.30
  -4   4   7   48.32   11.00
   4  -4  -7   36.82    2.37
   5  -4  -7   17.59    1.90
  -5   4   7   10.25    8.72
  -6   4   7    0.45    8.73
  -5  -4  -8    2.71    1.03
  -4  -4  -8   21.04    2.41
  -3  -4  -8   22.33    2.26
  -2  -4  -8    3.77    1.12
  -1  -4  -8   19.57    1.64
   0  -4  -8   15.58    1.38
  -2   4   8  138.81   13.50
   2  -4  -8  133.08    4.96
  -3   4   8   50.20    9.83
   3  -4  -8   29.24    2.06
  -4   4   8    9.86    7.96
   4  -4  -8    3.48    0.99
   5  -4  -8    6.43    1.38
  -5   4   8    4.29    7.61
  -6   4   8   -0.57    7.90
  -5  -4  -9    5.41    1.50
  -4  -4  -9    4.37    1.20
  -3  -4  -9   11.57    1.74
  -2  -4  -9   14.49    1.82
  -1  -4  -9    3.21    0.96
   0  -4  -9   36.20    2.20
   2  -4  -9   23.56    1.81
  -2   4   9   35.47    8.56
  -3   4   9   20.72    9.25
   3  -4  -9   13.08    1.56
   4  -4  -9    3.82    1.12
  -4   4   9    8.25    8.75
   5  -4  -9    1.17    0.72
  -5   4   9    1.07    8.00
   6  -4  -9    1.51    0.94
  -5  -4 -10   12.53    2.24
  -4  -4 -10    0.69    0.77
  -3  -4 -10   33.18    2.62
  -2  -4 -10   35.45    2.48
  -1  -4 -10   34.80    2.38
   0  -4 -10  112.39    4.97
   0  -4 -10  117.78    4.65
  -1   4  10   18.64    9.56
   1  -4 -10   11.07    1.38
   2  -4 -10    2.31    0.87
  -2   4  10    5.04    7.07
  -3   4  10    6.77    7.97
  -4   4  10    7.26    8.58
   4  -4 -10    4.68    1.19
   5  -4 -10    2.28    0.90
  -5   4  10    5.92    8.44
   6  -4 -10   11.48    1.93
  -5  -4 -11    2.41    1.29
  -5  -4 -11    8.96    2.56
  -4  -4 -11   19.74    2.38
  -3  -4 -11   63.37    3.79
  -2  -4 -11    1.08    0.60
  -1  -4 -11   12.19    1.64
   0  -4 -11  112.03    4.98
   0  -4 -11  106.83    4.59
   1  -4 -11   17.07    1.74
  -1   4  11   34.90   11.08
  -2   4  11   34.47   11.64
   2  -4 -11   19.65    1.94
  -3   4  11    9.30    7.77
  -4   4  11   36.79   10.30
   4  -4 -11   35.12    2.61
   5  -4 -11    6.71    1.43
  -5   4  11    1.89    8.56
   6  -4 -11    1.40    1.02
  -5  -4 -12    2.54    1.88
  -5  -4 -12    3.36    1.12
  -4  -4 -12    3.26    1.09
  -4  -4 -12    3.78    1.62
  -3  -4 -12    1.60    0.75
  -2  -4 -12   66.65    3.77
  -1  -4 -12    0.50    0.81
  -1  -4 -12    2.75    0.88
   0  -4 -12    8.45    1.33
   0  -4 -12    8.22    1.37
   1  -4 -12   60.40    3.22
  -2   4  12   33.46   11.79
   2  -4 -12   26.89    2.16
  -3   4  12    6.52    7.63
   3  -4 -12    2.21    1.06
  -4   4  12   48.52   12.70
   4  -4 -12   59.80    3.53
  -5   4  12   16.01    8.44
   5  -4 -12   14.77    2.02
   6  -4 -12    8.17    1.73
  -5  -4 -13    0.86    0.99
  -5  -4 -13    3.86    2.20
  -4  -4 -13    3.28    1.04
  -4  -4 -13    6.31    2.30
  -3  -4 -13   15.20    3.10
  -3  -4 -13   11.30    1.75
  -2  -4 -13   45.82    3.09
  -2  -4 -13   44.97    3.87
  -1  -4 -13    1.81    0.98
  -1  -4 -13    4.02    1.13
   0  -4 -13    0.63    0.66
   1  -4 -13    3.52    0.95
   2  -4 -13   14.51    1.87
  -2   4  13   21.78   10.29
  -3   4  13   13.96    9.69
   3  -4 -13   15.58    2.01
   4  -4 -13    4.70    1.27
  -4   4  13    4.65    7.35
   5  -4 -13    1.16    0.77
  -5   4  13    4.23    8.49
   6  -4 -13    5.48    1.54
  -5  -4 -14    6.92    3.65
  -4  -4 -14   28.82    4.55
  -4  -4 -14   36.67    3.01
  -3  -4 -14    2.94    1.44
  -3  -4 -14   -0.20    0.65
  -2  -4 -14   10.71    2.34
  -2  -4 -14    7.31    1.67
  -1  -4 -14   11.34    1.73
  -1  -4 -14   10.97    2.02
   0  -4 -14   30.65    2.33
   1  -4 -14    4.21    1.19
  -2   4  14   30.53   11.34
   2  -4 -14   23.42    2.17
  -3   4  14   30.71   10.39
   3  -4 -14   39.88    2.92
  -4   4  14    1.03    7.37
   4  -4 -14    1.47    0.81
  -5   4  14    5.06    8.06
   5  -4 -14    2.73    1.06
   6  -4 -14    1.79    1.00
  -4  -4 -15    5.86    2.24
  -4  -4 -15    3.56    1.41
  -3  -4 -15    4.08    1.79
  -3  -4 -15    4.72    1.31
  -2  -4 -15    1.71    0.84
  -2  -4 -15    5.04    1.24
  -1  -4 -15    9.83    1.52
   0  -4 -15   41.12    2.81
   1  -4 -15   18.43    2.06
   2  -4 -15   25.16    2.30
  -2   4  15   26.30   11.19
   3  -4 -15    5.42    1.46
  -3   4  15    1.15    7.05
   4  -4 -15   29.27    2.60
  -4   4  15   21.00    9.83
   5  -4 -15   -0.30    0.78
   6  -4 -15    1.97    1.08
  -4  -4 -16   11.30    3.20
  -4  -4 -16    3.80    1.31
  -3  -4 -16    8.58    2.59
  -3  -4 -16    5.52    1.23
  -1  -4 -16    2.45    0.87
   0  -4 -16    1.33    0.82
   1  -4 -16    9.97    1.67
   2  -4 -16   -0.54    0.62
   3  -4 -16   10.37    1.94
  -3   4  16    1.37    8.06
  -4   4  16    9.34    7.86
   4  -4 -16   22.72    2.60
   5  -4 -16    8.62    1.96
   6  -4 -16    4.70    1.95
  -4  -4 -17    4.74    3.06
  -4  -4 -17    5.20    2.35
  -3  -4 -17    0.80    0.83
  -1  -4 -17    1.68    0.78
   0  -4 -17    1.55    0.91
   1  -4 -17    0.53    0.62
   2  -4 -17   14.02    2.15
  -3   4  17    0.42    8.44
   3  -4 -17    3.80    1.29
  -4   4  17   -0.25    7.29
   4  -4 -17    3.40    1.35
   5  -4 -17    2.02    1.22
  -2  -4 -18    0.73    0.76
  -1  -4 -18    1.38    0.67
   0  -4 -18   -0.19    0.65
   1  -4 -18    0.69    0.76
   2  -4 -18    8.34    1.85
   3  -4 -18   16.78    2.46
  -4   4  18   -4.02    8.14
   4  -4 -18    6.02    1.77
   5  -4 -18    0.74    1.37
  -3  -4 -19   -0.57    0.75
  -2  -4 -19    2.76    0.82
  -1  -4 -19    0.32    0.74
   0  -4 -19    7.59    1.50
   1  -4 -19   21.79    2.67
   2  -4 -19    3.55    1.39
   3  -4 -19    2.50    1.33
   4  -4 -19   -0.88    0.73
  -4   4  19   -5.02    8.97
  -2  -4 -20    1.68    0.85
  -1  -4 -20    1.14    0.77
   0  -4 -20    0.73    0.79
   1  -4 -20   21.01    2.70
   2  -4 -20   -0.01    0.99
   3  -4 -20    0.58    0.88
   0  -4 -21    0.13    0.77
   1  -4 -21    1.38    0.99
   2  -4 -21    0.49    0.95
   1   5 -22   16.81    2.67
   0   5 -22    4.31    1.58
   2   5 -21    5.72    1.67
   1   5 -21   18.24    2.73
   0   5 -21    2.19    1.19
   3   5 -20   18.61    2.64
   2   5 -20    1.85    0.91
   1   5 -20    8.97    1.95
   0   5 -20   15.41    2.40
  -1   5 -20   21.34    2.73
   4   5 -19    4.55    1.43
   3   5 -19    2.62    1.28
   2   5 -19    5.21    1.44
   1   5 -19    2.35    1.07
   0   5 -19   14.04    2.20
  -1   5 -19   29.26    2.59
   4   5 -18   10.02    2.08
   3   5 -18    4.83    1.32
   2   5 -18   14.65    2.24
   1   5 -18    4.26    1.36
   0   5 -18    1.51    0.85
  -1   5 -18   12.74    1.98
  -3   5 -18    6.86    3.31
   5   5 -17    1.95    1.21
   4   5 -17    1.98    1.14
   3   5 -17    3.09    1.21
   2   5 -17    3.42    1.19
   1   5 -17   13.35    1.99
   0   5 -17    9.60    1.74
  -1   5 -17    4.61    1.15
  -2   5 -17    1.22    1.71
  -3   5 -17   15.75    3.63
   5   5 -16    0.69    1.02
   4   5 -16    5.00    1.53
   3   5 -16    2.19    1.11
   2   5 -16    4.70    1.21
   1   5 -16   25.41    2.27
   0   5 -16    2.87    0.93
  -1   5 -16   19.30    2.12
  -2   5 -16   -0.87    1.27
  -3   5 -16   10.62    2.93
  -4   5 -16   -2.28    2.24
   6   5 -15    0.33    1.39
   5   5 -15    2.25    1.26
   4   5 -15    3.33    1.18
   3   5 -15   10.73    1.93
   2   5 -15    8.83    1.69
   1   5 -15   13.74    1.93
   0   5 -15    8.99    1.57
  -1   5 -15   46.60    2.76
  -1   5 -15   41.74    3.72
  -2   5 -15    1.93    1.68
  -2   5 -15    5.23    1.23
  -3   5 -15    0.70    1.57
  -4   5 -15    1.39    1.86
   6   5 -14   -0.28    1.02
   5   5 -14    2.30    1.07
   4   5 -14    3.90    1.22
   3   5 -14    0.51    0.86
   2   5 -14   26.55    2.57
   1   5 -14    3.87    1.15
   0   5 -14    1.48    0.79
   0   5 -14   -0.71    1.25
  -1   5 -14   10.00    2.22
  -1   5 -14   10.64    1.51
  -2   5 -14    1.47    1.43
  -2   5 -14    1.47    0.87
  -3   5 -14   -0.80    1.20
  -4   5 -14   -1.02    1.64
   6   5 -13   -0.06    1.13
   5   5 -13    8.14    1.81
   4   5 -13    6.83    1.64
   3   5 -13    3.32    1.24
   2   5 -13   41.05    2.80
   1   5 -13   12.70    1.68
   1   5 -13   12.59    2.03
   0   5 -13   12.59    1.59
   0   5 -13   13.55    2.23
  -1   5 -13    0.94    0.66
  -1   5 -13    1.24    1.30
  -2   5 -13   -0.10    1.24
  -2   5 -13   -0.18    0.58
  -3   5 -13    0.09    1.37
  -4   5 -13    9.08    2.83
  -5   5 -13    1.77    2.34
   6   5 -12   12.44    2.15
   5   5 -12    1.79    1.08
   4   5 -12   19.24    2.34
   3   5 -12    9.56    1.68
   2   5 -12   38.47    2.62
   1   5 -12    2.59    1.36
   1   5 -12    2.74    0.95
   0   5 -12    1.35    1.25
   0   5 -12    2.99    0.94
  -1   5 -12   10.55    2.16
  -1   5 -12   13.53    1.64
  -2   5 -12    7.90    1.30
  -2   5 -12    7.91    2.26
  -3   5 -12    7.00    2.06
  -4   5 -12    3.37    1.76
  -5   5 -12    1.20    1.45
   7   5 -11    2.95    1.72
   6   5 -11   12.25    2.13
   5   5 -11    5.20    1.43
   4   5 -11    9.34    1.72
   3   5 -11   15.44    1.96
   2   5 -11   48.05    2.81
   2   5 -11   45.76    2.84
   1   5 -11   72.14    3.87
   1   5 -11   70.41    3.47
   0   5 -11   63.05    3.89
   0   5 -11   65.07    3.14
  -1   5 -11   11.06    1.44
  -1   5 -11   11.05    2.04
  -2   5 -11   46.30    2.58
  -2   5 -11   41.54    3.71
  -3   5 -11    5.30    1.94
  -4   5 -11   36.91    4.05
  -5   5 -11   -0.96    1.65
   7   5 -10    2.27    1.62
   6   5 -10    6.17    1.67
   5   5 -10   14.16    2.10
   4   5 -10    3.02    1.13
   3   5 -10   29.55    2.27
   2   5 -10    2.59    1.06
   2   5 -10    0.61    0.73
   1   5 -10   15.66    1.64
   1   5 -10   15.11    1.83
  -1   5 -10    2.12    1.19
  -1   5 -10    1.29    0.78
  -2   5 -10  100.12    5.96
  -2   5 -10  108.26    4.24
  -3   5 -10   40.74    3.78
  -4   5 -10    5.64    2.03
  -5   5 -10    1.79    1.79
   6   5  -9    0.21    0.97
   5   5  -9    2.13    1.10
   4   5  -9    5.81    1.35
   3   5  -9    6.50    1.31
   3   5  -9    6.01    1.27
   2   5  -9    6.01    1.23
   2   5  -9    5.81    1.15
   1   5  -9   17.63    1.63
   1   5  -9   17.28    2.00
  -1   5  -9   34.51    1.97
  -1   5  -9   31.95    2.76
  -2   5  -9   26.33    2.73
  -2   5  -9   26.63    1.76
  -3   5  -9   17.85    2.91
  -3   5  -9   16.10    1.62
  -4   5  -9   13.57    3.01
  -5   5  -9    3.05    1.45
  -6   5  -9   11.16    2.67
   7   5  -8    0.37    1.16
   6   5  -8   -0.01    0.75
   5   5  -8    0.12    0.91
   4   5  -8    1.77    0.91
   2   5  -8    4.17    0.99
   2   5  -8    3.68    1.10
   1   5  -8   68.56    2.96
   1   5  -8   64.79    3.65
   0   5  -8    3.72    1.37
   0   5  -8    4.28    0.82
  -1   5  -8   11.90    1.18
  -1   5  -8   12.20    1.95
  -2   5  -8   12.31    1.21
  -2   5  -8    8.64    1.85
  -3   5  -8   10.30    1.26
  -3   5  -8   11.78    2.35
  -4   5  -8   19.74    3.29
  -5   5  -8    3.64    1.58
  -6   5  -8    2.07    1.40
   7   5  -7    5.60    1.94
   6   5  -7    4.01    1.31
   5   5  -7    7.13    1.61
   4   5  -7    7.23    1.43
   3   5  -7   19.23    1.76
   3   5  -7   18.90    1.83
   2   5  -7  168.77    5.79
  -2  -5   7  166.24   12.47
   2   5  -7  155.92    6.28
   1   5  -7    3.13    1.55
   1   5  -7    5.70    0.91
   0   5  -7  208.24    6.51
   0   5  -7  210.98    8.18
  -1   5  -7   75.18    4.20
  -1   5  -7   73.51    2.86
  -2   5  -7    8.72    0.92
  -2   5  -7    9.05    1.78
  -3   5  -7   26.98    1.80
  -3   5  -7   26.90    2.87
  -4   5  -7   56.22    4.53
  -5   5  -7    0.43    0.98
  -6   5  -7    3.63    1.39
   7   5  -6    2.08    1.46
   6   5  -6    4.99    1.38
   5   5  -6   18.19    2.17
   4   5  -6   10.56    1.61
   3   5  -6    4.00    1.13
   3   5  -6    5.79    1.11
   2   5  -6   81.71    3.85
   2   5  -6   82.98    3.46
   1   5  -6   32.60    2.08
   1   5  -6   33.02    1.77
   0   5  -6   54.71    3.07
   0   5  -6   54.18    2.25
  -1   5  -6   42.67    2.91
  -1   5  -6   37.13    1.74
  -2   5  -6  145.48    4.78
  -2   5  -6  140.68    6.74
  -3   5  -6    3.05    1.23
  -3   5  -6    1.91    0.65
  -4   5  -6   -0.23    0.68
  -5   5  -6    3.46    1.70
  -6   5  -6    2.19    1.06
   6   5  -5   37.92    2.96
   5   5  -5    1.11    0.91
   4   5  -5   44.23    2.76
   3   5  -5   26.71    2.11
   3   5  -5   24.38    1.79
   2   5  -5   23.22    1.64
   2   5  -5   25.97    2.15
   0   5  -5   59.02    3.03
   0   5  -5   55.35    2.18
  -1   5  -5   63.84    2.26
  -1   5  -5   57.50    3.39
  -2   5  -5   93.17    3.31
  -2   5  -5   94.58    4.97
  -3   5  -5   45.83    2.33
  -3   5  -5   45.54    3.59
  -4   5  -5    3.76    1.56
  -5   5  -5   14.71    2.91
  -6   5  -5    2.85    1.42
  -7  -5   4    3.98    1.07
  -7  -5   4   -0.55    0.74
   6   5  -4    3.62    1.36
   5   5  -4    0.92    0.98
   4   5  -4    1.89    0.89
   3   5  -4   19.36    1.62
   1   5  -4   75.14    2.83
   1   5  -4   74.70    3.33
   0   5  -4  137.13    5.60
   0   5  -4  143.04    4.27
  -1   5  -4   65.33    3.44
  -1   5  -4   61.83    2.14
  -2   5  -4   37.80    1.73
  -2   5  -4   37.76    2.80
  -3   5  -4    3.89    1.48
  -3   5  -4    5.64    0.90
  -4   5  -4    6.68    1.82
  -5   5  -4    6.93    1.89
  -6   5  -4    6.35    1.96
  -7   5  -4    3.66    1.45
  -7  -5   3    1.58    1.11
  -7  -5   3    1.94    0.97
   5   5  -3   23.81    2.44
   4   5  -3   44.94    2.72
   3   5  -3   64.34    3.01
   2   5  -3   39.07    2.04
   2   5  -3   41.08    2.40
   1   5  -3   82.94    3.65
   1   5  -3   79.86    2.94
   0   5  -3  266.47    7.44
   0   5  -3  267.45    9.42
  -1   5  -3  139.94    5.97
  -1   5  -3  152.52    4.21
  -2   5  -3   18.45    1.10
  -2   5  -3   18.61    1.93
  -3   5  -3   25.05    1.62
  -3   5  -3   25.75    2.57
  -4   5  -3   28.80    2.93
  -5   5  -3    2.41    1.17
  -6   5  -3    4.53    1.69
  -7   5  -3    4.57    1.67
  -7  -5   2    1.07    0.83
  -7  -5   2    1.85    1.02
  -6  -5   2    0.91    0.63
  -6  -5   2    1.07    0.78
   4   5  -2   56.69    3.05
   3   5  -2   34.39    2.07
   2   5  -2    1.59    0.95
   2   5  -2    1.36    0.60
   1   5  -2  362.17   11.96
   1   5  -2  341.46    9.87
   0   5  -2   79.73    3.39
   0   5  -2   79.36    2.50
  -1   5  -2   12.89    1.54
  -2   5  -2    7.36    0.72
  -2   5  -2    6.21    1.30
  -3   5  -2   31.70    1.85
  -3   5  -2   33.01    2.81
  -4   5  -2   11.00    1.54
  -4   5  -2   10.60    2.19
  -5   5  -2   23.80    3.42
  -6   5  -2    3.31    1.41
  -7   5  -2    1.23    1.27
  -7  -5   1    2.41    1.18
  -7  -5   1    1.53    1.04
  -6  -5   1   25.03    2.88
  -6  -5   1   20.52    2.86
  -5  -5   1   21.17    2.52
  -5  -5   1   24.90    2.98
   3   5  -1   39.62    2.21
   2   5  -1  129.10    4.42
   2   5  -1  130.34    5.36
   1   5  -1  481.30   15.94
   1   5  -1  484.58   13.26
   0   5  -1   18.38    1.36
   0   5  -1   17.73    0.84
  -1   5  -1  332.48   11.52
  -2   5  -1   40.51    1.77
  -2   5  -1   38.96    2.61
  -2   5  -1   41.97    1.71
  -3   5  -1  208.48    8.89
  -3   5  -1  211.43    7.07
  -3   5  -1  209.56    6.80
  -4   5  -1    7.06    1.96
  -4   5  -1    6.46    1.38
  -4   5  -1    7.07    1.30
  -5   5  -1   10.94    2.48
  -6   5  -1    3.12    1.43
  -7   5  -1    7.27    2.15
  -7  -5   0    6.17    1.62
  -6  -5   0   -0.42    0.67
  -6  -5   0    2.13    1.08
  -5  -5   0    4.83    1.46
  -5  -5   0    5.45    1.33
  -4  -5   0    2.97    1.14
  -4  -5   0    2.65    0.96
  -3  -5   0   24.61    2.50
   1   5   0  865.53   27.82
   0   5   0    0.46    0.56
   0  -5   0   -0.23    0.38
   0   5   0    0.33    1.69
   0  -5   0   -0.53    0.39
  -1   5   0  936.61   30.08
   2  -5   0    0.92    0.34
  -2   5   0    1.73    0.82
   3  -5   0   22.01    1.23
  -3   5   0   21.30    2.40
  -4   5   0    2.62    0.93
  -4   5   0    3.31    1.48
  -4   5   0    3.76    1.20
  -5   5   0    6.62    1.87
  -6   5   0    1.85    1.07
  -7   5   0    2.16    1.49
  -7  -5  -1    8.44    1.95
  -6  -5  -1    0.53    0.92
  -5  -5  -1    8.41    1.91
  -5  -5  -1    9.12    1.87
  -4  -5  -1    4.63    1.31
  -4  -5  -1    3.56    1.11
  -3  -5  -1  191.97    7.39
  -3  -5  -1  202.64    7.77
  -2  -5  -1   40.98    2.55
  -2  -5  -1   36.59    2.35
   1   5   1  305.36   10.37
  -1  -5  -1  301.43    9.34
  -1  -5  -1  297.09    9.06
  -1   5   1  510.96   16.91
   1  -5  -1  523.95   13.78
   2  -5  -1  138.88    4.11
  -2   5   1  132.51    5.51
   3  -5  -1   39.35    1.80
  -3   5   1   38.43    2.83
  -4   5   1    2.92    1.31
  -5   5   1   29.41    3.10
  -6   5   1   36.01    3.75
  -7  -5  -2    8.38    2.06
  -6  -5  -2    4.30    1.26
  -5  -5  -2   21.18    2.70
  -4  -5  -2   11.10    1.86
  -4  -5  -2   10.81    1.98
  -3  -5  -2   29.49    2.50
  -3  -5  -2   30.94    2.44
  -2  -5  -2    4.88    1.08
  -1  -5  -2   10.92    1.24
   1   5   2   10.53    1.43
   0   5   2   79.82    3.04
   0  -5  -2   74.66    2.72
   0   5   2   68.75    6.20
  -1   5   2  353.28   11.60
   1  -5  -2  344.62    9.54
  -1   5   2  353.47   22.22
  -2   5   2    1.23    0.64
   2  -5  -2    1.20    0.44
  -3   5   2   33.76    2.54
   3  -5  -2   36.35    1.78
  -4   5   2   58.76    4.08
   4  -5  -2   59.55    2.72
  -5   5   2   47.91    4.00
  -6   5   2    1.97    1.07
  -6  -5  -3    6.74    1.74
  -5  -5  -3    1.98    1.02
  -4  -5  -3   26.09    2.70
  -3  -5  -3   24.79    2.18
  -2  -5  -3   20.56    1.96
  -1  -5  -3  128.17    4.69
   0   5   3  334.28   18.61
   0  -5  -3  258.08    8.49
  -1   5   3   87.59    3.19
   1  -5  -3   80.61    2.70
  -1   5   3   57.18    9.21
   2  -5  -3   38.81    1.74
  -2   5   3   40.22    2.17
  -2   5   3   54.33    8.80
   3  -5  -3   76.91    3.03
  -3   5   3   77.86    3.97
  -4   5   3   48.09    3.55
   4  -5  -3   49.86    2.50
  -5   5   3   31.96    3.09
  -7   5   3    9.90    8.63
  -6  -5  -4   13.50    2.50
  -5  -5  -4    6.76    1.70
  -4  -5  -4    8.06    1.61
  -3  -5  -4    5.19    1.33
  -2  -5  -4   37.06    2.39
  -1  -5  -4   58.18    2.83
   0  -5  -4  129.09    4.34
   0   5   4  126.36    4.65
  -1   5   4   75.55    7.62
   1  -5  -4   74.20    2.70
  -1   5   4   77.64    2.86
  -2   5   4  187.92    6.52
  -2   5   4  170.28   13.68
   2  -5  -4  185.90    5.65
  -3   5   4   21.18    1.78
  -3   5   4   19.15    8.65
   3  -5  -4   25.43    1.57
   4  -5  -4    3.16    0.85
  -4   5   4    1.67    1.09
  -4   5   4   -1.79    8.13
  -5   5   4    2.30    7.91
  -5   5   4    1.27    1.41
   5  -5  -4    1.81    0.77
  -6   5   4   12.38    8.03
  -7   5   4    6.75    8.27
  -6  -5  -5    6.99    1.65
  -5  -5  -5    8.93    1.87
  -4  -5  -5    2.47    1.02
  -3  -5  -5   39.15    2.78
  -2  -5  -5   89.67    4.10
  -1  -5  -5   57.72    2.89
   0   5   5   55.67    7.41
   0  -5  -5   53.58    2.40
  -1   5   5  130.00   11.32
   1  -5  -5  138.16    4.45
  -3   5   5   26.04    1.83
  -3   5   5   36.56    8.79
   3  -5  -5   24.65    1.64
  -4   5   5   45.11   11.37
   4  -5  -5   44.96    2.50
  -4   5   5   47.70    3.21
  -5   5   5    2.87    7.52
   5  -5  -5    1.64    0.89
  -6   5   5   17.24    8.39
  -6  -5  -6    3.85    1.32
  -5  -5  -6    6.41    1.62
  -4  -5  -6    0.38    0.67
  -3  -5  -6    0.92    0.84
  -2  -5  -6  131.09    5.34
  -1  -5  -6   38.16    2.35
   0  -5  -6   51.48    2.43
   0   5   6   46.09    8.52
   1  -5  -6   35.94    1.90
  -1   5   6   52.36    8.47
   2  -5  -6   82.44    3.22
  -2   5   6   73.62   11.56
  -3   5   6    3.06    5.71
  -3   5   6    5.26    0.86
   3  -5  -6    0.55    0.52
  -4   5   6   20.58    9.08
  -5   5   6    9.34    8.46
   5  -5  -6   18.44    1.92
  -6   5   6    4.30    7.81
  -6  -5  -7   13.64    2.29
  -5  -5  -7    1.49    0.80
  -4  -5  -7   49.81    3.36
  -3  -5  -7   27.06    2.20
  -2  -5  -7    8.74    1.51
  -1  -5  -7   61.96    3.12
   0  -5  -7  186.40    6.18
   0   5   7  176.93   16.06
  -1   5   7   -5.55    8.39
   2  -5  -7  162.98    5.49
  -2   5   7  152.85   14.51
   3  -5  -7   17.69    1.49
  -3   5   7   27.26    8.53
  -4   5   7   24.16    9.71
  -5   5   7    1.83    7.69
   5  -5  -7    1.30    0.56
  -6   5   7   -7.31    7.79
  -6  -5  -8    4.06    1.35
  -5  -5  -8    3.86    1.13
  -4  -5  -8   16.97    2.23
  -3  -5  -8   10.56    1.73
  -2  -5  -8    6.01    1.35
  -1  -5  -8    8.44    1.29
   0  -5  -8    3.24    0.85
   2  -5  -8    4.36    0.96
  -2   5   8    8.66    6.83
  -3   5   8   -0.25    6.82
   3  -5  -8    1.96    0.79
  -4   5   8    6.71    8.07
   4  -5  -8    3.01    0.88
   5  -5  -8    1.20    0.77
  -5   5   8    2.80    7.62
  -6   5   8   -3.43    7.40
  -5  -5  -9    4.26    1.16
  -4  -5  -9   12.46    2.00
  -3  -5  -9   23.07    2.42
  -2  -5  -9   25.06    2.07
  -1  -5  -9   29.28    2.11
   0  -5  -9   42.53    2.43
   2  -5  -9    8.46    1.26
  -2   5   9   11.81    7.19
  -3   5   9   10.54    7.93
   3  -5  -9    5.67    1.13
  -4   5   9   15.82    9.89
   4  -5  -9    7.32    1.34
   5  -5  -9    2.11    0.83
  -5   5   9   -2.37    7.96
  -6   5   9   -6.20    7.30
  -5  -5 -10    2.30    0.98
  -4  -5 -10    5.14    1.31
  -3  -5 -10   43.61    3.16
  -2  -5 -10  101.30    4.76
  -1  -5 -10    2.65    0.97
   0  -5 -10   44.35    2.61
   1  -5 -10   13.35    1.53
  -1   5  10   21.64   10.16
  -2   5  10    4.76    6.45
   2  -5 -10    2.15    0.89
  -3   5  10   46.88   11.43
   3  -5 -10   33.37    2.30
  -4   5  10   -0.55    7.70
   4  -5 -10    2.31    0.91
  -5   5  10   11.27    8.53
   5  -5 -10    9.82    1.65
  -6   5  10    7.15    8.33
  -5  -5 -11    5.49    1.54
  -4  -5 -11   36.08    3.06
  -3  -5 -11    4.14    1.14
  -2  -5 -11   45.57    2.94
  -1  -5 -11   10.01    1.51
   0  -5 -11   64.97    3.30
   0  -5 -11   63.89    3.43
  -1   5  11   62.35   11.01
   1  -5 -11   58.17    3.08
   2  -5 -11   45.94    2.78
  -2   5  11   73.35   11.25
   3  -5 -11   10.45    1.60
  -3   5  11   17.69    9.31
  -4   5  11   13.86    8.58
   4  -5 -11   13.92    1.84
   5  -5 -11    5.22    1.29
  -5   5  11    7.88    8.17
  -5  -5 -12    3.84    1.45
  -5  -5 -12    3.48    1.26
  -4  -5 -12    1.16    0.66
  -3  -5 -12    6.40    1.46
  -2  -5 -12    6.97    1.41
  -1  -5 -12   10.84    1.70
   0  -5 -12    2.21    0.96
   1  -5 -12    2.89    0.89
   2  -5 -12   40.17    2.61
  -2   5  12   32.92   13.08
   3  -5 -12   10.42    1.65
  -3   5  12   11.39    8.11
  -4   5  12   15.35    9.74
   4  -5 -12   21.26    2.29
  -5   5  12    2.05    7.31
   5  -5 -12    0.93    0.80
   6  -5 -12   16.01    2.33
  -5  -5 -13    3.10    2.22
  -5  -5 -13    7.73    1.68
  -4  -5 -13    7.51    1.68
  -4  -5 -13   17.45    3.38
  -3  -5 -13    1.90    0.84
  -2  -5 -13    0.57    0.76
  -1  -5 -13    0.69    0.99
  -1  -5 -13    1.86    0.95
   0  -5 -13   13.27    1.75
   1  -5 -13   13.74    1.76
  -2   5  13   51.85   13.84
   2  -5 -13   39.56    2.69
   3  -5 -13    3.62    1.14
  -3   5  13   -0.45    8.11
   4  -5 -13    5.18    1.31
  -4   5  13    5.40    8.10
   5  -5 -13    8.69    1.59
  -5   5  13    3.52    7.74
   6  -5 -13    4.86    1.30
  -5  -5 -14   12.13    2.58
  -4  -5 -14    0.10    0.77
  -4  -5 -14    3.34    1.72
  -3  -5 -14    3.07    1.38
  -3  -5 -14    0.76    0.71
  -2  -5 -14    2.72    1.00
  -2  -5 -14    1.28    0.86
  -1  -5 -14   11.26    1.82
   0  -5 -14   -0.95    0.57
   1  -5 -14    5.60    1.35
  -2   5  14   28.44   11.53
   2  -5 -14   23.26    2.35
  -3   5  14   -0.55    7.76
   3  -5 -14    0.88    0.82
   4  -5 -14    4.55    1.31
  -4   5  14    2.40    7.54
   5  -5 -14    2.46    0.96
  -5   5  14   -1.78    8.31
   6  -5 -14    1.37    0.98
  -4  -5 -15    0.90    0.92
  -4  -5 -15    1.18    1.65
  -3  -5 -15    2.95    1.51
  -3  -5 -15    0.98    0.78
  -2  -5 -15    1.03    0.84
  -2  -5 -15    4.23    1.12
  -1  -5 -15   41.66    2.95
   0  -5 -15    8.94    1.65
   1  -5 -15   12.90    1.89
  -2   5  15    9.37    9.66
   2  -5 -15    5.94    1.47
  -3   5  15    6.14    8.17
   3  -5 -15   10.22    1.87
   4  -5 -15    3.25    1.13
  -4   5  15    0.25    7.98
  -5   5  15    5.22    7.77
   5  -5 -15    1.54    0.92
   6  -5 -15    4.80    1.45
  -4  -5 -16   -1.22    0.81
  -4  -5 -16    0.32    2.00
  -3  -5 -16   10.45    2.81
  -3  -5 -16    8.29    1.72
  -2  -5 -16    1.82    0.77
  -1  -5 -16   10.31    1.47
   0  -5 -16    1.12    0.91
   1  -5 -16   20.77    2.33
   2  -5 -16    2.27    1.08
   3  -5 -16    2.02    1.00
  -3   5  16   -6.90    7.20
   4  -5 -16    5.13    1.35
  -4   5  16    0.36    7.14
   5  -5 -16    9.63    1.99
   6  -5 -16    7.19    2.02
  -4  -5 -17    3.37    2.85
  -4  -5 -17   -0.08    1.58
  -2  -5 -17    0.19    0.54
  -1  -5 -17    0.63    0.71
   0  -5 -17    6.75    1.64
   1  -5 -17   13.40    2.03
   2  -5 -17    1.37    0.96
  -3   5  17   -1.53    8.76
   3  -5 -17    2.49    1.12
   4  -5 -17    1.88    1.02
  -4   5  17   -2.26    6.91
   5  -5 -17    1.98    1.12
  -1  -5 -18    4.33    0.98
   0  -5 -18    0.29    0.73
   1  -5 -18    4.72    1.26
   2  -5 -18   11.21    2.04
   3  -5 -18    2.56    1.16
  -4   5  18    6.77    8.23
   4  -5 -18    8.60    1.99
   5  -5 -18    8.72    2.21
  -2  -5 -19   -0.45    0.58
   0  -5 -19    8.77    1.65
   1  -5 -19    2.55    1.11
   2  -5 -19    2.38    1.25
   3  -5 -19    1.50    1.18
   4  -5 -19    0.02    0.95
  -4   5  19   -2.10    8.93
   1  -5 -20   10.80    1.96
   2  -5 -20   -0.35    0.97
   3  -5 -20   -0.41    0.89
   0  -5 -21    2.46    1.00
   1  -5 -21   23.57    3.04
   2  -5 -21    0.44    1.16
   1   6 -22    1.24    0.94
   0   6 -22    2.19    1.75
   2   6 -21    4.38    1.41
   1   6 -21    1.28    0.95
   0   6 -21    0.66    1.09
   3   6 -20    5.29    1.51
   2   6 -20    2.05    1.02
   1   6 -20   20.88    2.70
   0   6 -20    3.73    1.31
   4   6 -19    3.11    1.19
   3   6 -19    5.68    1.48
   2   6 -19    7.64    1.81
   1   6 -19    8.07    1.84
   0   6 -19    3.53    1.16
   4   6 -18    2.49    1.20
   3   6 -18   10.80    2.04
   2   6 -18    4.44    1.36
   1   6 -18    8.75    1.81
   0   6 -18    0.63    0.72
  -1   6 -18   13.31    2.01
  -3   6 -18    0.91    1.97
   5   6 -17    0.31    1.18
   4   6 -17   12.34    2.14
   3   6 -17   11.28    2.04
   2   6 -17    1.89    0.99
   1   6 -17    7.74    1.72
   0   6 -17    0.55    0.70
  -1   6 -17    7.82    1.52
  -2   6 -17    7.89    2.74
  -3   6 -17    0.09    2.56
   5   6 -16    0.47    1.09
   4   6 -16    8.13    1.94
   3   6 -16    9.16    1.93
   2   6 -16    3.06    1.11
   1   6 -16   12.59    1.93
   0   6 -16    9.67    1.68
  -1   6 -16    8.38    1.55
  -1   6 -16    6.43    2.03
  -2   6 -16    8.97    2.45
  -3   6 -16    0.49    1.76
  -4   6 -16    4.91    2.85
   5   6 -15   -0.83    0.96
   4   6 -15   15.48    2.36
   3   6 -15   21.25    2.47
   2   6 -15   12.23    1.92
   1   6 -15    8.50    1.64
   0   6 -15   27.41    2.24
   0   6 -15   25.18    3.04
  -1   6 -15   17.11    2.86
  -1   6 -15   19.72    2.04
  -2   6 -15   11.59    2.81
  -3   6 -15   16.50    3.52
  -4   6 -15    1.66    2.25
   6   6 -14    0.09    1.17
   5   6 -14   -0.31    0.89
   4   6 -14    4.57    1.27
   3   6 -14   17.58    2.20
   2   6 -14    8.03    1.58
   1   6 -14   24.64    2.18
   0   6 -14   19.88    2.78
   0   6 -14   21.74    2.13
  -1   6 -14    6.68    1.25
  -1   6 -14    4.38    1.98
  -2   6 -14   -0.55    1.34
  -3   6 -14   13.86    3.07
  -4   6 -14    2.51    2.23
   6   6 -13    0.46    1.14
   5   6 -13    2.80    1.34
   4   6 -13    1.60    0.93
   3   6 -13    2.69    1.11
   2   6 -13   45.99    2.96
   1   6 -13    3.73    1.60
   1   6 -13    2.04    0.91
   0   6 -13   33.30    2.33
   0   6 -13   31.87    2.99
  -1   6 -13   17.19    1.73
  -1   6 -13   18.39    2.84
  -2   6 -13    4.78    1.92
  -2   6 -13    1.32    0.66
  -3   6 -13    0.48    1.49
  -4   6 -13    4.13    2.36
  -5   6 -13   -1.56    2.08
   6   6 -12    0.15    1.03
   5   6 -12    6.38    1.67
   4   6 -12   12.37    2.01
   3   6 -12   14.81    2.02
   2   6 -12   38.54    2.61
   1   6 -12    1.67    0.85
   1   6 -12    2.27    1.39
   0   6 -12   10.41    1.49
   0   6 -12    7.61    1.75
  -1   6 -12    0.20    0.65
  -1   6 -12    0.99    1.18
  -2   6 -12   21.19    3.16
  -2   6 -12   18.93    1.75
  -3   6 -12   11.81    2.77
  -4   6 -12    7.04    2.38
  -5   6 -12    0.25    1.67
   6   6 -11    2.57    1.34
   5   6 -11    9.04    1.84
   4   6 -11   10.94    1.83
   3   6 -11   16.82    2.03
   2   6 -11   31.65    2.48
   2   6 -11   31.07    2.29
   1   6 -11   24.89    2.38
   1   6 -11   19.81    1.80
  -1   6 -11   22.37    1.75
  -1   6 -11   23.85    2.61
  -2   6 -11   56.73    4.42
  -2   6 -11   58.02    2.91
  -3   6 -11   17.54    3.18
  -4   6 -11    1.10    1.51
  -5   6 -11   -0.90    1.82
   7   6 -10    2.04    1.71
   6   6 -10    6.47    1.66
   5   6 -10    2.12    1.08
   4   6 -10    2.83    1.05
   3   6 -10   23.22    2.23
   3   6 -10   22.18    2.16
   2   6 -10   24.82    1.99
   2   6 -10   26.26    2.17
   1   6 -10    1.42    1.14
   1   6 -10    1.74    0.84
   0   6 -10   65.08    3.80
  -1   6 -10    7.55    1.14
  -1   6 -10    8.54    1.85
  -2   6 -10    2.79    1.48
  -2   6 -10    1.58    0.67
  -3   6 -10    9.98    2.48
  -4   6 -10    4.43    1.86
  -5   6 -10    1.92    2.00
   7   6  -9    1.98    1.48
   6   6  -9    1.22    1.09
   5   6  -9    4.18    1.30
   4   6  -9   21.89    2.27
   3   6  -9   -0.35    0.87
   3   6  -9    0.27    0.65
   2   6  -9   49.83    2.86
   2   6  -9   48.88    2.72
   1   6  -9   38.56    2.69
   1   6  -9   40.74    2.28
   0   6  -9   10.62    1.22
   0   6  -9    9.97    1.72
  -1   6  -9   59.14    2.69
  -1   6  -9   56.31    3.82
  -2   6  -9   15.17    2.50
  -2   6  -9   17.65    1.39
  -3   6  -9    0.75    1.18
  -4   6  -9   36.26    4.43
  -5   6  -9   12.20    2.87
  -6   6  -9    1.66    1.26
   7   6  -8    1.54    1.28
   6   6  -8    0.54    0.92
   5   6  -8   17.06    2.20
   4   6  -8    9.84    1.63
   3   6  -8   14.76    1.90
   3   6  -8   13.35    1.63
   2   6  -8  187.02    7.22
   2   6  -8  187.74    6.54
   1   6  -8    0.26    0.52
   1   6  -8    1.13    1.10
   0   6  -8   42.16    3.04
   0   6  -8   48.54    2.29
  -1   6  -8   83.42    3.25
  -1   6  -8   85.21    4.70
  -2   6  -8   22.91    2.77
  -2   6  -8   18.59    1.35
  -3   6  -8   13.34    2.54
  -4   6  -8    8.76    2.33
  -5   6  -8    8.64    2.29
  -6   6  -8    2.86    1.35
   6   6  -7    5.48    1.46
   5   6  -7    3.50    1.24
   4   6  -7   24.78    2.12
   3   6  -7   16.73    1.89
   3   6  -7   18.90    1.83
   2   6  -7    5.13    1.02
   1   6  -7    7.41    1.29
   1   6  -7   12.18    1.22
   0   6  -7  115.39    4.12
   0   6  -7  125.60    5.54
  -1   6  -7   18.46    1.27
  -1   6  -7   21.69    2.37
  -2   6  -7   34.01    1.80
  -2   6  -7   39.52    3.17
  -3   6  -7   19.46    2.81
  -3   6  -7   14.97    1.27
  -4   6  -7   15.25    2.88
  -5   6  -7   -0.48    0.84
  -6   6  -7    0.06    0.86
   7   6  -6   10.67    2.31
   6   6  -6   12.36    2.12
   5   6  -6    4.99    1.34
   4   6  -6   33.28    2.48
   3   6  -6   19.75    1.66
   3   6  -6   22.08    1.97
   2   6  -6    6.78    1.64
   2   6  -6    8.46    1.16
   0   6  -6   69.42    2.66
   0   6  -6   70.06    3.62
  -1   6  -6    5.31    0.72
  -1   6  -6    6.62    1.50
  -2   6  -6    2.50    1.13
  -2   6  -6    5.16    0.72
  -3   6  -6    6.66    1.71
  -3   6  -6    5.07    0.85
  -4   6  -6   16.56    2.87
  -5   6  -6    1.12    0.95
  -6   6  -6    4.52    1.66
   6   6  -5    5.48    1.51
   5   6  -5   17.05    2.19
   4   6  -5    3.16    1.04
   1   6  -5    8.63    1.00
   1   6  -5   10.48    1.53
   0   6  -5   61.75    2.30
   0   6  -5   58.88    3.22
  -1   6  -5   59.63    2.14
  -1   6  -5   53.07    3.30
  -2   6  -5   34.44    1.61
  -2   6  -5   37.72    2.91
  -3   6  -5   -0.02    0.43
  -3   6  -5    0.47    0.78
  -4   6  -5   24.79    3.31
  -5   6  -5   14.09    2.85
  -6   6  -5    2.07    1.37
  -7  -6   4    2.34    0.78
  -7  -6   4    0.73    0.89
   6   6  -4    6.70    1.67
   5   6  -4   63.93    3.69
   4   6  -4    7.09    1.38
   3   6  -4   40.61    2.36
   3   6  -4   37.89    2.66
   2   6  -4   31.24    2.33
   2   6  -4   26.82    1.73
   1   6  -4   48.41    2.13
   1   6  -4   47.29    2.60
   0   6  -4   51.35    2.82
   0   6  -4   54.53    2.01
  -1   6  -4  113.75    5.20
  -1   6  -4  115.95    3.47
  -2   6  -4  114.41    3.59
  -2   6  -4  106.59    5.45
  -3   6  -4    5.09    1.53
  -3   6  -4    7.12    0.94
  -4   6  -4   13.67    2.56
  -5   6  -4    1.89    1.06
  -6   6  -4    2.34    1.39
  -7   6  -4   -0.23    1.18
  -7  -6   3    1.73    0.88
  -7  -6   3    0.76    0.93
  -6  -6   3    2.91    0.90
  -6  -6   3    3.40    1.12
   5   6  -3    6.99    1.64
   4   6  -3   22.34    2.11
   3   6  -3    3.32    0.85
   2   6  -3    6.86    1.29
   2   6  -3    6.72    0.99
   1   6  -3   25.49    1.42
   1   6  -3   24.43    1.80
   0   6  -3    2.55    0.49
  -1   6  -3    3.49    1.00
  -2   6  -3   22.24    1.14
  -2   6  -3   24.55    2.22
  -3   6  -3   15.24    2.27
  -3   6  -3   11.90    1.16
  -4   6  -3    0.52    0.81
  -5   6  -3    9.64    2.27
  -6   6  -3    2.13    1.17
  -7   6  -3   -0.53    1.08
  -7  -6   2    2.24    1.04
  -7  -6   2    2.14    1.14
  -6  -6   2    7.82    1.80
  -6  -6   2    6.57    1.58
   4   6  -2    6.85    1.29
   3   6  -2   65.68    3.07
   2   6  -2    4.03    0.81
   2   6  -2    2.50    1.01
   1   6  -2  931.56   24.98
   1   6  -2  931.59   29.95
   0   6  -2   71.40    2.28
   0   6  -2   68.37    3.47
  -1   6  -2  252.41    9.27
  -2   6  -2   64.07    3.64
  -3   6  -2   14.42    1.16
  -3   6  -2   16.69    2.27
  -4   6  -2   54.48    4.07
  -5   6  -2    1.50    1.16
  -6   6  -2    1.29    1.26
  -7   6  -2    5.63    2.15
  -7  -6   1   -0.40    0.85
  -7  -6   1    3.70    1.34
  -6  -6   1    3.04    1.17
  -6  -6   1    1.33    0.84
  -5  -6   1   29.25    2.99
  -5  -6   1   24.59    3.02
   3   6  -1   18.64    1.54
   2   6  -1   11.42    1.15
   2   6  -1   13.32    1.57
   1   6  -1  284.72    8.36
   1   6  -1  300.86   10.21
   0   6  -1  363.42   12.18
   0   6  -1  357.88    9.77
  -1   6  -1  116.82    4.91
  -2   6  -1   15.60    1.85
  -3   6  -1   12.19    1.08
  -3   6  -1   12.14    1.95
  -3   6  -1   13.12    1.28
  -4   6  -1   10.49    2.13
  -5   6  -1    0.07    0.91
  -6   6  -1    4.41    1.64
  -7   6  -1    2.55    1.47
  -7  -6   0    2.40    1.18
  -6  -6   0    6.81    1.81
  -6  -6   0    5.35    1.60
  -5  -6   0    8.34    1.88
  -5  -6   0    8.36    1.75
  -4  -6   0   25.37    2.78
  -4  -6   0   18.76    2.32
  -3  -6   0   22.01    2.30
  -3  -6   0   20.86    2.40
   2   6   0    5.47    1.18
  -1  -6   0   44.24    2.35
   1   6   0   47.74    2.73
  -1  -6   0   48.20    2.53
   0  -6   0  955.64   26.03
   0  -6   0  939.93   25.35
   0   6   0  928.35   30.22
   0   6   0  971.38   51.76
  -1   6   0   50.00    2.70
  -2   6   0    6.44    1.23
  -3   6   0   19.85    2.05
  -4   6   0   22.78    1.97
  -4   6   0   20.77    2.16
  -4   6   0   28.80    3.19
  -5   6   0    8.53    2.20
  -6   6   0    6.00    1.99
  -7   6   0    3.56    1.56
  -7  -6  -1   -0.84    0.95
  -6  -6  -1    1.15    1.00
  -5  -6  -1    0.43    0.63
  -5  -6  -1    0.08    0.73
  -4  -6  -1   11.21    1.90
  -4  -6  -1    8.60    1.84
  -3  -6  -1   13.13    1.82
  -3  -6  -1    9.85    1.80
  -2  -6  -1   15.21    1.65
  -2  -6  -1   11.88    1.64
   1   6   1  105.11    4.42
  -1  -6  -1  107.86    4.06
  -1  -6  -1  103.79    4.12
   0  -6  -1  204.49    6.13
   1  -6  -1  313.14    8.37
  -1   6   1  303.97   10.56
  -2   6   1   12.99    1.50
   2  -6  -1   11.15    0.75
   3  -6  -1   19.91    1.16
  -3   6   1   19.30    1.93
  -4   6   1   16.43    2.42
   4  -6  -1   15.06    1.20
  -5   6   1   32.56    3.28
  -6   6   1    2.95    1.36
  -7  -6  -2    5.42    1.74
  -6  -6  -2   -1.41    0.80
  -5  -6  -2    1.43    0.87
  -4  -6  -2   51.90    3.71
  -4  -6  -2   52.35    3.54
  -3  -6  -2   12.19    1.91
  -3  -6  -2   13.44    1.88
  -2  -6  -2   57.82    3.08
  -1  -6  -2  232.96    7.41
   1   6   2  221.65    8.11
   0   6   2   77.04    3.36
  -1   6   2  942.17   29.76
  -1   6   2  929.58   52.41
   1  -6  -2  930.23   24.69
   2  -6  -2    2.91    0.51
  -2   6   2    2.67    0.84
   3  -6  -2   75.13    2.79
  -3   6   2   67.90    3.82
  -4   6   2    5.44    1.62
  -5   6   2    4.98    1.57
  -6   6   2   10.07    2.18
  -7  -6  -3    1.44    1.28
  -6  -6  -3    1.62    1.10
  -5  -6  -3    8.09    1.88
  -4  -6  -3    0.01    0.78
  -3  -6  -3   13.52    1.88
  -2  -6  -3   21.73    1.93
  -1  -6  -3    3.12    0.87
   1  -6  -3   26.18    1.27
  -1   6   3   40.97    6.27
  -1   6   3   26.12    1.54
  -2   6   3    6.59    1.00
  -2   6   3   10.93    5.63
   2  -6  -3    6.05    0.72
  -3   6   3    4.03    1.07
   3  -6  -3    3.67    0.69
  -4   6   3   22.08    2.35
   4  -6  -3   22.21    1.59
  -5   6   3    9.96    2.12
  -7   6   3    6.49    9.26
  -6  -6  -4    3.36    1.27
  -5  -6  -4    2.32    1.06
  -4  -6  -4    8.43    1.69
  -3  -6  -4    5.82    1.47
  -2  -6  -4   99.78    4.41
  -1  -6  -4  102.70    4.13
   0   6   4   46.19    2.23
   0   6   4   50.65    6.60
   0  -6  -4   50.00    2.26
  -1   6   4   42.44    6.46
  -1   6   4   46.92    2.07
   2  -6  -4   29.25    1.58
  -2   6   4   44.35    9.62
  -2   6   4   28.03    1.79
  -3   6   4   40.68    2.51
  -3   6   4   46.22    9.65
   3  -6  -4   40.30    2.05
  -4   6   4    9.04    1.69
   4  -6  -4    8.00    1.14
  -4   6   4    9.40    8.72
  -5   6   4   65.79   10.49
  -6   6   4    5.60    7.47
  -7   6   4   11.05    8.06
  -6  -6  -5    0.77    0.91
  -5  -6  -5   15.55    2.42
  -4  -6  -5   21.78    2.53
  -3  -6  -5   -0.67    0.61
  -2  -6  -5   30.44    2.28
  -1  -6  -5   48.07    2.62
   0  -6  -5   56.25    2.55
  -1   6   5    8.73    0.88
   1  -6  -5    9.91    0.95
  -1   6   5   25.63    7.52
  -2   6   5   39.94    1.95
  -2   6   5   41.92    9.21
  -3   6   5   79.19    3.65
   3  -6  -5   79.72    3.19
  -3   6   5   68.62    9.10
  -4   6   5    2.74    1.11
   4  -6  -5    3.87    0.92
  -4   6   5    4.74    7.60
  -5   6   5   19.53    8.76
  -6   6   5    3.23    7.38
  -7   6   5   12.45    8.52
  -5  -6  -6    0.16    0.66
  -4  -6  -6   12.47    2.04
  -3  -6  -6    6.12    1.29
  -2  -6  -6    3.40    1.07
  -1  -6  -6    6.13    1.16
   0   6   6   65.84    8.74
   0  -6  -6   62.54    2.85
   1  -6  -6   24.91    1.54
  -1   6   6   43.12    8.10
   2  -6  -6    9.58    1.07
  -2   6   6    3.59    8.80
  -3   6   6   23.02    1.61
  -3   6   6   29.03    8.57
   4  -6  -6   31.90    2.12
  -4   6   6   49.29   11.62
   5  -6  -6    7.56    1.30
  -5   6   6    2.13    7.87
  -6   6   6    2.65    7.44
  -6  -6  -7   -0.28    0.92
  -5  -6  -7    1.70    0.85
  -4  -6  -7   14.95    2.10
  -3  -6  -7   17.05    2.04
  -2  -6  -7   28.89    2.35
  -1  -6  -7   20.13    1.91
   0  -6  -7  109.24    4.27
  -1   6   7   11.57    7.47
   1  -6  -7   13.65    1.28
  -2   6   7   15.56    9.65
   3  -6  -7   19.38    1.53
  -3   6   7   26.69    9.01
  -4   6   7   27.75   10.04
  -5   6   7    1.29    7.78
   5  -6  -7    1.93    0.87
  -6   6   7   -0.83    7.67
  -6  -6  -8    2.17    1.35
  -5  -6  -8    5.77    1.44
  -4  -6  -8    7.15    1.55
  -3  -6  -8   13.02    1.87
  -2  -6  -8   16.77    1.99
  -1  -6  -8   78.25    3.77
  -1   6   8   -1.76    8.51
   1  -6  -8    0.79    0.53
   2  -6  -8  200.79    6.55
  -2   6   8  181.80   15.57
   3  -6  -8   13.62    1.52
  -3   6   8   12.37    9.26
  -4   6   8   18.57    9.77
   4  -6  -8   13.16    1.56
  -5   6   8   11.51    8.69
  -6   6   8   -6.39    7.15
  -6  -6  -9    3.00    1.12
  -5  -6  -9    6.86    1.64
  -4  -6  -9   34.20    2.85
  -3  -6  -9   -0.26    0.50
  -2  -6  -9   17.33    2.04
  -1  -6  -9   51.36    2.94
   0  -6  -9    9.10    1.31
  -1   6   9   34.59   10.78
   1  -6  -9   39.21    2.26
  -2   6   9   49.43    8.82
   2  -6  -9   49.35    2.64
  -3   6   9   -3.51    6.92
   3  -6  -9    0.66    0.69
   4  -6  -9   20.22    1.81
  -4   6   9   19.26   10.75
   5  -6  -9    3.22    0.96
  -5   6   9    3.06    8.69
  -6   6   9    1.84    7.69
  -6  -6 -10    9.29    2.52
  -5  -6 -10    2.98    1.20
  -4  -6 -10    4.40    1.24
  -3  -6 -10    5.11    1.28
  -2  -6 -10    2.75    0.88
  -1  -6 -10    8.48    1.36
   0  -6 -10  131.23    5.21
   1  -6 -10    3.12    0.93
  -1   6  10    6.48    8.50
   2  -6 -10   26.61    2.00
  -2   6  10   31.54    9.32
  -3   6  10   32.99   10.91
   3  -6 -10   24.54    2.01
  -4   6  10   20.23    9.68
  -5   6  10    2.86    8.33
   5  -6 -10    4.59    1.19
  -6   6  10    2.94    7.32
  -5  -6 -11    4.86    1.50
  -4  -6 -11    0.92    0.80
  -3  -6 -11   15.38    2.08
  -2  -6 -11   50.44    3.23
  -1  -6 -11   22.26    2.18
   0  -6 -11   58.30    3.14
   2  -6 -11   30.02    2.20
  -2   6  11   60.99   13.73
  -3   6  11   15.29   10.27
   3  -6 -11   18.47    1.97
  -4   6  11   20.39    9.12
   4  -6 -11    8.96    1.59
  -5   6  11    7.68    7.36
   5  -6 -11    8.69    1.54
  -6   6  11    0.85    6.82
  -5  -6 -12    8.53    1.81
  -4  -6 -12    7.22    1.50
  -3  -6 -12    7.88    1.60
  -2  -6 -12   19.90    2.24
  -1  -6 -12    1.13    0.74
   0  -6 -12    9.19    1.46
  -1   6  12   10.54   10.73
   2  -6 -12   39.12    2.61
  -2   6  12   63.79   15.00
   3  -6 -12   12.35    1.78
  -3   6  12   24.32    9.82
   4  -6 -12   12.73    1.83
  -4   6  12   16.02    9.09
   5  -6 -12    4.59    1.27
  -5   6  12    4.33    7.22
  -5  -6 -13    1.96    1.04
  -5  -6 -13    4.15    2.13
  -4  -6 -13    6.76    1.51
  -3  -6 -13    0.37    0.60
  -2  -6 -13    0.91    0.79
  -1  -6 -13   18.73    2.19
   0  -6 -13   26.46    2.20
   1  -6 -13    2.47    0.95
  -2   6  13   42.25   13.41
   2  -6 -13   39.37    2.70
  -3   6  13   -3.67    7.70
   3  -6 -13    1.82    0.91
  -4   6  13   -3.71    7.91
   4  -6 -13    1.03    0.84
   5  -6 -13    6.20    1.48
  -5   6  13    1.11    7.42
  -5  -6 -14    2.46    1.54
  -4  -6 -14    5.41    2.24
  -4  -6 -14    2.52    1.00
  -3  -6 -14   10.24    1.85
  -2  -6 -14    0.62    0.68
  -2  -6 -14    2.28    0.78
  -1  -6 -14    6.30    1.40
   0  -6 -14   15.29    1.97
   1  -6 -14   25.59    2.21
  -2   6  14   14.53   10.58
   2  -6 -14    9.44    1.60
   3  -6 -14   15.63    2.09
  -3   6  14    6.02    8.67
   4  -6 -14    4.03    1.18
  -4   6  14    3.30    7.29
   5  -6 -14    1.94    0.98
  -5   6  14   -3.19    8.98
  -4  -6 -15    6.92    2.40
  -3  -6 -15    9.30    1.74
  -3  -6 -15   17.93    3.37
  -2  -6 -15   11.95    1.89
  -1  -6 -15   15.04    1.87
   0  -6 -15   26.84    2.29
   1  -6 -15    7.78    1.56
  -2   6  15   13.81   10.20
   2  -6 -15   10.81    1.77
   3  -6 -15   19.89    2.33
  -3   6  15   10.14    9.38
  -4   6  15    2.18    8.15
   5  -6 -15    2.08    1.01
  -5   6  15    5.66    7.44
   6  -6 -15   -0.11    0.94
  -4  -6 -16    2.73    2.02
  -4  -6 -16    0.09    0.91
  -3  -6 -16    1.60    1.60
  -3  -6 -16    1.47    1.00
  -2  -6 -16    4.88    1.09
  -1  -6 -16    2.14    0.93
   0  -6 -16    5.69    1.41
   1  -6 -16   11.48    1.84
   2  -6 -16    2.23    1.10
   3  -6 -16    8.59    1.71
  -3   6  16   10.71    8.80
   4  -6 -16    4.45    1.22
  -4   6  16   -3.67    7.14
  -5   6  16   -1.03    8.42
   5  -6 -16   15.36    2.36
   6  -6 -16    5.34    1.87
  -4  -6 -17    4.54    3.42
  -3  -6 -17    3.16    1.13
  -2  -6 -17    2.15    0.71
  -1  -6 -17    3.28    1.00
   0  -6 -17    1.44    0.82
   1  -6 -17    8.50    1.74
   2  -6 -17    1.41    0.98
  -3   6  17    6.76    8.94
   3  -6 -17   12.98    2.12
   4  -6 -17   10.23    2.03
  -4   6  17    6.80    7.42
   5  -6 -17   12.90    2.31
  -3  -6 -18    1.46    0.79
  -2  -6 -18   -0.34    0.57
  -1  -6 -18    3.52    0.88
   0  -6 -18    0.67    0.73
   1  -6 -18    7.89    1.71
   2  -6 -18    5.41    1.51
   3  -6 -18    9.89    2.04
  -3   6  18   -4.50    8.56
  -4   6  18   -3.48    7.39
   4  -6 -18    4.95    1.48
   5  -6 -18    6.30    2.05
  -2  -6 -19    0.30    0.67
  -1  -6 -19    2.33    0.84
   0  -6 -19    0.65    0.82
   1  -6 -19    9.56    1.91
   2  -6 -19    6.44    1.70
   3  -6 -19    3.91    1.62
   4  -6 -19    0.48    1.10
  -4   6  19    2.61    9.17
  -1  -6 -20    3.42    0.98
   0  -6 -20    1.36    0.82
   1  -6 -20   15.44    2.44
   2  -6 -20   -0.29    0.77
   3  -6 -20   -0.25    1.05
  -4   6  20   -2.88   10.54
   0  -6 -21    1.15    0.89
   1  -6 -21    2.51    0.99
   2  -6 -21    0.24    1.16
   1   7 -22    9.88    2.11
   2   7 -21    2.27    0.96
   1   7 -21    4.15    1.42
   0   7 -21    1.19    1.21
   3   7 -20    4.21    1.49
   1   7 -20    0.86    0.96
   0   7 -20    0.86    0.82
   4   7 -19    6.12    1.61
   3   7 -19    1.51    0.91
   2   7 -19   -0.57    0.66
   1   7 -19    4.49    1.23
   0   7 -19   16.78    2.33
   4   7 -18    2.68    1.14
   3   7 -18    2.67    1.06
   2   7 -18    6.83    1.71
   1   7 -18    3.65    1.24
   0   7 -18    7.70    1.62
  -3   7 -18   -1.27    1.74
   5   7 -17    0.05    1.31
   4   7 -17    4.10    1.28
   3   7 -17   11.71    1.91
   2   7 -17    0.29    0.77
   1   7 -17   20.93    2.48
   0   7 -17    8.52    1.58
  -1   7 -17   18.27    2.18
  -2   7 -17   -1.84    1.54
  -3   7 -17    9.18    2.98
   5   7 -16    0.20    0.87
   4   7 -16   10.34    2.00
   3   7 -16    2.31    1.04
   2   7 -16    1.78    1.06
   1   7 -16    1.84    0.96
   0   7 -16    4.94    1.25
  -1   7 -16   11.39    2.66
  -1   7 -16   16.32    1.98
  -2   7 -16    1.71    1.79
  -3   7 -16    0.87    1.97
  -4   7 -16   -2.42    2.49
   5   7 -15    2.88    1.42
   4   7 -15   11.51    2.02
   3   7 -15   14.32    2.10
   2   7 -15   19.27    2.34
   1   7 -15    3.98    1.17
   0   7 -15   15.36    1.91
   0   7 -15    8.98    2.25
  -1   7 -15    4.30    1.92
  -1   7 -15    4.39    1.14
  -2   7 -15    0.84    1.45
  -3   7 -15   -2.65    1.35
  -4   7 -15   -0.23    1.82
   6   7 -14    1.31    1.43
   5   7 -14    0.46    1.13
   4   7 -14   16.14    2.27
   3   7 -14   18.75    2.28
   2   7 -14   11.14    1.86
   1   7 -14   18.60    2.11
   0   7 -14   28.34    3.01
   0   7 -14   31.63    2.36
  -1   7 -14   25.50    3.29
  -1   7 -14   18.53    1.92
  -2   7 -14   12.34    2.81
  -3   7 -14   12.40    2.94
  -4   7 -14    2.55    2.34
   6   7 -13    1.43    1.12
   5   7 -13    2.50    1.21
   4   7 -13   13.35    2.04
   3   7 -13    3.49    1.22
   2   7 -13   20.92    2.27
   1   7 -13    5.69    1.34
   1   7 -13    3.62    1.73
  -1   7 -13    7.49    1.22
  -1   7 -13    7.60    2.14
  -2   7 -13   29.41    3.71
  -3   7 -13    6.83    2.28
  -4   7 -13   13.53    3.83
  -5   7 -13   -0.53    2.25
   6   7 -12    0.72    1.42
   5   7 -12    3.62    1.42
   4   7 -12    0.81    0.79
   3   7 -12   14.19    2.00
   2   7 -12    9.47    1.62
   2   7 -12    8.08    1.74
   1   7 -12   24.44    1.95
   1   7 -12   22.27    2.65
   0   7 -12   18.19    1.87
  -1   7 -12   38.71    3.49
  -1   7 -12   34.10    2.23
  -2   7 -12    3.37    1.84
  -3   7 -12   18.57    3.43
  -4   7 -12    3.40    2.12
  -5   7 -12   -2.26    1.83
   6   7 -11    7.69    1.84
   5   7 -11    1.75    1.20
   4   7 -11    1.37    0.91
   3   7 -11   24.36    2.17
   2   7 -11   12.65    1.69
   2   7 -11    9.59    1.73
   1   7 -11   14.85    1.69
   1   7 -11   15.77    2.20
   0   7 -11   29.91    2.72
   0   7 -11   27.09    2.00
  -1   7 -11    4.11    1.68
  -1   7 -11    4.13    0.97
  -2   7 -11   10.23    2.45
  -2   7 -11   12.89    1.52
  -3   7 -11   21.82    3.45
  -4   7 -11   19.10    3.75
  -5   7 -11   -0.01    2.07
   7   7 -10    2.80    1.89
   6   7 -10    2.33    1.17
   5   7 -10    8.24    1.71
   4   7 -10   19.14    2.24
   3   7 -10   27.35    2.39
   3   7 -10   25.85    2.18
   2   7 -10   19.86    2.20
   2   7 -10   20.82    1.98
   1   7 -10   44.19    3.06
   1   7 -10   46.32    2.58
   0   7 -10   23.13    2.53
  -1   7 -10   -0.09    1.15
  -1   7 -10    0.63    0.60
  -2   7 -10   74.40    3.24
  -2   7 -10   67.50    4.87
  -3   7 -10    2.36    1.50
  -4   7 -10   13.38    3.11
  -5   7 -10    7.12    2.67
   7   7  -9   -1.46    1.43
   6   7  -9   -0.41    0.98
   5   7  -9    5.10    1.51
   4   7  -9   22.83    2.30
   3   7  -9    4.46    1.16
   3   7  -9    7.17    1.51
   2   7  -9   45.00    2.60
   2   7  -9   41.26    2.77
   1   7  -9   65.20    3.69
   1   7  -9   65.69    3.09
   0   7  -9   -0.13    0.94
   0   7  -9    0.94    0.60
  -1   7  -9   14.27    1.21
  -1   7  -9   14.43    2.26
  -2   7  -9    6.34    0.96
  -2   7  -9    8.15    2.06
  -3   7  -9   22.27    3.32
  -4   7  -9   10.95    2.85
  -5   7  -9    3.52    1.67
  -6   7  -9    3.04    1.45
   7   7  -8    1.30    1.42
   6   7  -8    4.87    1.50
   5   7  -8    7.60    1.65
   4   7  -8   16.88    2.05
   3   7  -8    0.35    1.04
   3   7  -8    1.75    0.81
   2   7  -8    6.81    1.18
   2   7  -8    7.80    1.44
   1   7  -8    9.06    1.18
   0   7  -8    5.76    0.91
   0   7  -8    7.82    1.85
  -1   7  -8   15.50    1.20
  -1   7  -8   19.52    2.38
  -2   7  -8   12.87    2.29
  -2   7  -8   11.05    1.11
  -3   7  -8   28.81    3.15
  -4   7  -8    0.62    0.83
  -5   7  -8    2.62    1.29
  -6   7  -8    8.29    2.32
   7   7  -7    1.50    1.38
   6   7  -7    3.01    1.31
   5   7  -7   26.46    2.63
   4   7  -7    1.55    0.94
   3   7  -7   26.85    2.27
   3   7  -7   27.84    2.06
   2   7  -7   11.88    1.39
   2   7  -7    9.21    1.58
   1   7  -7    5.42    1.25
   0   7  -7    3.29    0.73
   0   7  -7    3.20    1.50
  -1   7  -7   45.68    3.37
  -1   7  -7   48.31    2.05
  -2   7  -7   26.03    2.71
  -2   7  -7   29.41    1.56
  -3   7  -7   21.37    2.99
  -4   7  -7    6.83    1.93
  -5   7  -7    3.53    1.46
  -6   7  -7    2.12    1.36
   7   7  -6    2.64    1.61
   6   7  -6    3.19    1.24
   5   7  -6    1.76    1.03
   4   7  -6   15.26    1.93
   3   7  -6    5.72    1.15
   1   7  -6   50.51    3.22
   1   7  -6   52.95    2.41
   0   7  -6    0.89    0.46
   0   7  -6    0.61    1.02
  -1   7  -6    8.91    0.78
  -1   7  -6    8.06    1.75
  -2   7  -6  141.60    6.96
  -2   7  -6  145.42    4.59
  -3   7  -6   17.49    2.66
  -4   7  -6    1.00    0.90
  -5   7  -6    3.23    1.47
  -6   7  -6    0.46    1.01
  -7  -7   5    1.80    0.96
   6   7  -5    2.54    1.21
   5   7  -5   20.09    2.38
   4   7  -5   17.18    1.96
   3   7  -5   30.04    2.09
   3   7  -5   29.87    2.35
   2   7  -5   49.15    2.49
   1   7  -5   41.41    2.04
   1   7  -5   41.06    2.55
   0   7  -5   33.56    2.42
   0   7  -5   35.94    1.63
  -1   7  -5   16.62    2.17
  -1   7  -5   13.36    0.88
  -2   7  -5   44.24    1.80
  -2   7  -5   45.06    3.34
  -3   7  -5    5.55    1.60
  -4   7  -5    2.33    1.21
  -5   7  -5    3.86    1.59
  -6   7  -5    3.63    1.46
  -7  -7   4    2.04    1.04
  -7  -7   4    2.86    1.09
   6   7  -4    5.82    1.78
   5   7  -4    0.86    0.83
   4   7  -4    8.80    1.54
   3   7  -4    9.18    1.30
   3   7  -4    9.91    1.62
   2   7  -4  320.72   11.49
   2   7  -4  323.53    9.73
   1   7  -4   55.13    3.07
   1   7  -4   52.82    2.32
   0   7  -4  177.36    7.04
   0   7  -4  188.04    5.46
  -1   7  -4  191.96    7.70
  -1   7  -4  184.43    5.33
  -2   7  -4    9.70    1.79
  -2   7  -4    8.94    0.66
  -3   7  -4   43.39    2.02
  -3   7  -4   43.71    3.47
  -4   7  -4    7.77    2.00
  -5   7  -4    1.48    1.00
  -6   7  -4    2.56    1.53
  -7   7  -4    0.70    1.17
  -7  -7   3    1.08    0.92
  -7  -7   3    4.25    1.33
  -6  -7   3    1.55    0.91
  -6  -7   3    1.25    0.77
   5   7  -3   39.72    2.90
   4   7  -3   39.91    2.61
   3   7  -3   32.63    2.52
   3   7  -3   34.73    2.15
   2   7  -3    3.31    0.82
   2   7  -3    5.80    1.64
   1   7  -3  158.77    6.15
   1   7  -3  159.75    5.07
   0   7  -3  223.40    8.32
   0   7  -3  229.15    6.50
  -1   7  -3   79.92    4.06
  -2   7  -3  155.48    6.95
  -3   7  -3   21.42    2.61
  -3   7  -3   16.92    1.19
  -4   7  -3    3.41    1.36
  -5   7  -3    7.67    2.15
  -6   7  -3    2.40    1.37
  -7   7  -3    2.99    1.62
  -7  -7   2    6.48    1.48
  -7  -7   2    7.31    1.71
  -6  -7   2    8.26    1.73
  -6  -7   2    7.38    1.83
   4   7  -2    7.95    1.42
   3   7  -2   25.17    1.81
   2   7  -2   18.33    1.43
   2   7  -2   22.69    1.98
   1   7  -2   42.05    2.43
   1   7  -2   44.23    1.93
   0   7  -2   52.65    2.88
   0   7  -2   49.65    1.84
  -1   7  -2    2.32    0.93
  -2   7  -2    4.41    1.31
  -3   7  -2   48.57    3.43
  -3   7  -2   42.74    2.01
  -4   7  -2   11.97    2.27
  -5   7  -2   13.19    2.62
  -6   7  -2    2.66    1.25
  -7   7  -2    2.83    1.26
  -7  -7   1    4.40    1.55
  -7  -7   1    3.92    1.33
  -6  -7   1    1.50    0.90
  -6  -7   1    1.01    0.80
  -5  -7   1   24.04    3.02
  -5  -7   1   21.31    2.68
   3   7  -1   14.71    1.51
   2   7  -1   29.11    2.13
   2   7  -1   25.78    1.65
   1   7  -1  143.25    4.53
   1   7  -1  140.62    5.56
   0   7  -1  437.14   11.81
   0   7  -1  435.73   14.67
  -1   7  -1  104.05    4.54
  -2   7  -1   14.00    1.84
  -3   7  -1   18.09    1.28
  -3   7  -1   20.04    1.40
  -3   7  -1   20.83    2.41
  -4   7  -1    9.77    1.99
  -5   7  -1   23.78    3.34
  -6   7  -1    6.26    1.75
  -7   7  -1   -0.98    1.28
  -7  -7   0   -0.04    0.79
  -6  -7   0    3.33    1.30
  -6  -7   0    5.31    1.55
  -5  -7   0   16.81    2.63
  -5  -7   0   14.31    2.25
  -4  -7   0    1.44    0.79
  -4  -7   0    2.07    0.89
  -3  -7   0   24.31    2.45
  -3  -7   0   21.11    2.47
   2   7   0    6.33    1.32
  -2  -7   0    4.13    1.16
  -2  -7   0    5.00    1.19
   1   7   0  267.77    9.38
  -1  -7   0  267.12    8.65
  -1  -7   0  256.47    8.28
  -1   7   0  288.59   10.16
  -2   7   0    6.85    1.33
  -3   7   0   23.74    2.26
  -4   7   0    0.52    0.99
  -5   7   0   15.08    2.73
  -6   7   0    7.65    2.13
  -7  -7  -1   -1.40    0.86
  -6  -7  -1   10.38    2.10
  -5  -7  -1   22.76    2.97
  -5  -7  -1   17.41    2.59
  -4  -7  -1    5.49    1.42
  -4  -7  -1    5.76    1.53
  -3  -7  -1   16.65    2.21
  -3  -7  -1   23.35    2.35
   2   7   1    6.30    1.59
  -2  -7  -1    9.88    1.44
  -2  -7  -1    8.22    1.47
  -1  -7  -1   87.93    3.65
   1   7   1   90.47    3.92
  -1  -7  -1   83.96    3.71
   0   7   1  436.81   14.34
   0  -7  -1  421.68   12.06
  -1   7   1  144.48   11.45
   1  -7  -1  154.13    4.28
  -1   7   1  150.25    5.70
  -2   7   1   35.60    2.35
   2  -7  -1   35.67    1.41
  -3   7   1   17.41    2.08
   3  -7  -1   14.07    0.93
  -4   7   1    0.73    0.99
  -5   7   1   27.68    3.41
  -6   7   1    0.77    1.17
  -7  -7  -2    1.31    1.19
  -6  -7  -2    5.51    1.54
  -5  -7  -2    9.28    2.00
  -4  -7  -2    7.10    1.61
  -3  -7  -2   42.52    2.94
  -3  -7  -2   38.78    2.99
  -2  -7  -2    4.10    1.09
   1   7   2    3.68    0.99
  -1  -7  -2    3.70    0.93
   0   7   2   52.33    2.65
   0   7   2   47.85    5.87
   1  -7  -2   41.38    1.64
  -1   7   2   46.86    6.04
  -1   7   2   45.97    2.31
   2  -7  -2   21.74    1.12
  -2   7   2   20.30    1.70
  -3   7   2   33.13    2.49
   3  -7  -2   32.30    1.59
  -4   7   2    7.59    1.76
   4  -7  -2   12.42    1.10
  -5   7   2   16.45    2.65
  -7  -7  -3    4.38    1.64
  -6  -7  -3    2.30    1.07
  -5  -7  -3    6.82    1.72
  -4  -7  -3    1.96    0.90
  -3  -7  -3   15.65    2.05
  -2  -7  -3  139.50    5.65
   1   7   3   66.14    3.26
  -1  -7  -3   65.26    3.10
   0   7   3  206.95    7.16
   0   7   3  194.57   13.35
   0  -7  -3  199.71    6.36
  -1   7   3  164.37    5.73
   1  -7  -3  152.45    4.75
  -1   7   3  151.58   11.93
  -2   7   3   -4.52    7.92
  -2   7   3    3.38    1.08
  -3   7   3   39.56    9.61
   3  -7  -3   37.38    1.84
  -3   7   3   34.84    2.51
   4  -7  -3   44.93    2.31
  -4   7   3   45.36    3.33
  -5   7   3   42.59    3.51
  -7   7   3   -0.21    7.91
  -7  -7  -4    0.86    1.59
  -6  -7  -4   13.64    2.62
  -5  -7  -4   -1.34    0.64
  -4  -7  -4    8.20    1.68
  -3  -7  -4   39.09    2.92
  -2  -7  -4    8.00    1.41
  -1  -7  -4  157.39    5.70
   0  -7  -4  174.26    5.71
   0   7   4  172.55    6.19
   0   7   4  161.84   12.17
  -1   7   4   59.20    8.87
  -1   7   4   51.24    2.47
  -2   7   4  342.10   11.46
   2  -7  -4  346.59    9.65
  -2   7   4  316.72   22.66
  -3   7   4   12.45    7.04
  -3   7   4   12.12    1.54
   3  -7  -4   11.20    1.10
  -4   7   4    5.61    8.66
  -4   7   4    9.33    1.69
   4  -7  -4    8.97    1.13
  -5   7   4    0.10    7.60
  -6   7   4    3.42    7.40
  -7   7   4    5.91    7.94
  -7  -7  -5    1.37    2.69
  -6  -7  -5    5.00    1.35
  -5  -7  -5    3.70    1.19
  -4  -7  -5    1.97    0.95
  -3  -7  -5    2.25    0.77
  -2  -7  -5   37.74    2.60
  -1  -7  -5   13.21    1.53
   0   7   5   30.70    1.84
   0   7   5   49.42    7.78
   0  -7  -5   32.16    1.91
  -1   7   5   40.17    6.95
   1  -7  -5   39.39    1.86
  -1   7   5   39.76    1.93
   2  -7  -5   53.79    2.41
  -2   7   5   61.85    2.77
  -3   7   5   33.37    2.12
  -3   7   5   38.45    9.30
   3  -7  -5   30.94    1.83
  -4   7   5   19.49    2.17
  -4   7   5    4.52    9.16
   4  -7  -5   13.96    1.30
  -5   7   5   14.71    8.24
  -6   7   5    5.80    7.53
  -7   7   5   13.34    8.87
  -6  -7  -6    3.00    1.18
  -5  -7  -6    2.63    1.09
  -4  -7  -6    0.73    0.70
  -3  -7  -6   17.54    2.09
  -2  -7  -6  131.15    5.53
  -1  -7  -6    7.28    1.25
   0  -7  -6    1.68    0.65
   0   7   6   -6.38    7.80
  -1   7   6   45.49    2.24
  -1   7   6   69.35   10.20
   1  -7  -6   50.49    2.29
  -3   7   6    4.61    6.36
   3  -7  -6    4.22    0.87
  -3   7   6    4.34    0.89
   4  -7  -6   16.57    1.59
  -4   7   6   11.12    9.05
  -5   7   6    0.17    8.14
  -6   7   6    3.78    7.69
  -7   7   6   -0.07    8.51
  -6  -7  -7    1.67    1.10
  -5  -7  -7    1.56    0.87
  -4  -7  -7    5.86    1.41
  -3  -7  -7   18.97    2.23
  -2  -7  -7   26.05    2.28
  -1  -7  -7   45.36    2.78
   0  -7  -7    3.48    0.86
  -3   7   7   33.90   10.30
   4  -7  -7    3.69    0.94
  -4   7   7    5.00    8.27
  -5   7   7   11.80    8.64
  -6   7   7   -6.55    6.87
  -7   7   7   -4.33    9.10
  -6  -7  -8    9.85    2.37
  -5  -7  -8    1.40    0.80
  -4  -7  -8    0.28    0.59
  -3  -7  -8   25.84    2.28
  -2  -7  -8   11.26    1.65
  -1  -7  -8   16.59    1.83
   0  -7  -8    5.50    1.04
  -1   7   8   -5.73   10.33
   2  -7  -8    6.96    1.10
  -2   7   8    7.55    6.87
  -3   7   8   10.37    8.58
  -4   7   8   31.09   11.16
  -5   7   8    4.99    8.34
   5  -7  -8    8.36    1.40
  -6   7   8   -3.98    7.41
  -6  -7  -9    8.16    1.91
  -5  -7  -9    0.77    0.86
  -4  -7  -9    9.37    1.85
  -3  -7  -9   18.90    2.33
  -2  -7  -9    7.15    1.46
  -1  -7  -9   14.57    1.78
   0  -7  -9    0.73    0.63
  -1   7   9   57.21    9.76
   1  -7  -9   55.83    2.80
   2  -7  -9   44.44    2.51
  -2   7   9   52.18   10.87
   3  -7  -9    5.37    1.15
  -3   7   9    2.69    7.92
   4  -7  -9   19.84    1.76
  -4   7   9   22.10   10.11
  -5   7   9    6.26    8.23
  -6   7   9   -5.78    6.90
  -6  -7 -10   10.18    2.70
  -5  -7 -10    6.31    1.56
  -4  -7 -10    8.82    1.74
  -3  -7 -10    4.41    1.24
  -2  -7 -10   57.63    3.47
  -1  -7 -10    0.08    0.53
   0  -7 -10   16.43    1.80
   1  -7 -10   45.03    2.54
  -1   7  10   36.25   11.63
  -3   7  10   28.30   11.81
   3  -7 -10   24.00    2.00
   4  -7 -10   24.83    2.08
  -4   7  10   24.88    9.42
  -5   7  10   -1.82    7.46
   5  -7 -10    5.59    1.23
  -6   7  10   -3.04    6.69
  -5  -7 -11    4.00    1.39
  -4  -7 -11   13.90    2.22
  -2  -7 -11    8.99    1.66
  -1  -7 -11    2.95    0.99
   0  -7 -11   22.88    1.92
   1  -7 -11   15.46    1.71
  -1   7  11   25.44   13.14
   2  -7 -11    9.87    1.42
  -2   7  11   16.69   10.29
   3  -7 -11   28.77    2.26
  -3   7  11   39.10   12.60
   4  -7 -11   -0.12    0.73
  -4   7  11    0.38    7.15
   5  -7 -11    1.09    0.81
  -5   7  11    2.36    6.72
  -6   7  11    8.77    7.47
  -5  -7 -12    2.11    1.13
  -4  -7 -12    2.61    0.99
  -3  -7 -12   13.27    1.95
  -2  -7 -12    3.46    0.98
  -1  -7 -12   35.49    2.63
  -1   7  12   31.31   14.22
   1  -7 -12   21.31    1.91
   2  -7 -12    7.77    1.38
  -2   7  12   11.80   11.11
  -3   7  12   15.79    9.48
   3  -7 -12   16.11    1.93
   4  -7 -12    2.34    0.89
  -4   7  12    3.84    8.15
  -5   7  12    1.24    6.77
   5  -7 -12    5.14    1.33
  -6   7  12    8.43    7.62
  -5  -7 -13    4.89    1.47
  -4  -7 -13    8.25    1.68
  -3  -7 -13    5.83    1.24
  -2  -7 -13   25.36    2.33
  -1  -7 -13    6.26    1.55
   0  -7 -13   42.75    2.84
  -1   7  13   10.16   11.26
   1  -7 -13    5.00    1.22
  -2   7  13   20.99   13.11
   2  -7 -13   17.60    2.00
   3  -7 -13    1.68    0.93
  -3   7  13    2.82    8.38
  -4   7  13   10.44   10.13
   4  -7 -13   15.43    2.04
   5  -7 -13    3.44    1.15
  -5   7  13   -0.43    6.93
  -6   7  13    8.98    6.83
  -5  -7 -14    1.72    1.15
  -4  -7 -14    1.51    0.87
  -3  -7 -14    6.79    1.50
  -2  -7 -14    8.35    1.71
  -1  -7 -14   17.36    2.22
   0  -7 -14   29.64    2.40
   1  -7 -14   11.29    1.70
  -2   7  14   13.64   10.22
   2  -7 -14   11.77    1.72
  -3   7  14    3.44    8.63
   3  -7 -14   12.91    1.86
  -4   7  14   17.16    8.12
   4  -7 -14   12.99    1.98
   5  -7 -14    2.36    0.91
  -5   7  14  -11.30    9.23
  -4  -7 -15    6.87    2.65
  -4  -7 -15    2.82    0.93
  -3  -7 -15    2.37    1.28
  -3  -7 -15    0.46    0.88
  -2  -7 -15    2.84    1.26
  -1  -7 -15    3.50    1.22
   0  -7 -15    6.34    1.49
   1  -7 -15    4.93    1.33
  -2   7  15   18.93   10.47
   2  -7 -15   15.08    2.00
   3  -7 -15   14.73    2.06
  -3   7  15    5.95    8.49
   4  -7 -15    9.64    1.83
  -4   7  15    0.02    8.48
  -5   7  15   27.68   10.63
  -4  -7 -16    2.72    1.12
  -4  -7 -16    3.47    1.91
  -2  -7 -16    1.08    0.79
  -1  -7 -16   11.07    1.63
   0  -7 -16    4.67    1.34
   1  -7 -16    3.33    1.22
  -2   7  16   -2.58    9.54
   2  -7 -16    1.05    0.83
  -3   7  16    0.87    7.35
   3  -7 -16    2.74    1.18
   4  -7 -16    7.33    1.65
  -4   7  16    3.43    7.86
  -5   7  16    3.53    8.55
   5  -7 -16    2.66    1.24
  -3  -7 -17    6.06    1.39
  -2  -7 -17    0.02    0.62
  -1  -7 -17    6.49    1.24
   0  -7 -17   10.74    1.92
   1  -7 -17   15.95    2.23
   2  -7 -17    0.73    0.83
   3  -7 -17   12.73    2.13
  -3   7  17   11.41    8.92
  -4   7  17   -1.17    6.82
   4  -7 -17    2.69    1.15
  -5   7  17   -4.41    8.21
   5  -7 -17    0.35    0.96
  -3  -7 -18    1.56    0.86
  -2  -7 -18    0.30    0.58
  -1  -7 -18    0.39    0.63
   0  -7 -18    4.99    1.40
   1  -7 -18    3.75    1.22
   2  -7 -18    9.63    1.90
   3  -7 -18    2.52    1.15
  -3   7  18   -3.82    7.96
  -4   7  18    2.71    7.61
   4  -7 -18    5.87    1.65
   5  -7 -18    2.64    1.64
  -5   7  18   -0.54    8.68
  -2  -7 -19   -0.19    0.59
  -1  -7 -19    3.49    0.99
   0  -7 -19   11.57    1.98
   1  -7 -19    4.18    1.50
   2  -7 -19    1.32    1.01
   3  -7 -19    1.46    1.18
  -4   7  19    2.75    8.79
   4  -7 -19   10.63    2.30
  -1  -7 -20    0.51    0.70
   0  -7 -20   -0.53    0.72
   1  -7 -20    0.24    0.90
   2  -7 -20   -0.31    0.76
   3  -7 -20    0.79    1.14
  -4   7  20   -4.57    9.99
   1  -7 -21    1.47    1.31
   2  -7 -21    0.01    1.12
   1   8 -22    0.31    1.18
   2   8 -21    3.87    1.37
   1   8 -21    0.25    0.92
   3   8 -20   -0.42    0.74
   2   8 -20    2.65    1.24
   1   8 -20    2.18    1.10
   0   8 -20    0.22    0.91
   4   8 -19   -0.54    0.81
   3   8 -19    3.05    1.26
   2   8 -19   11.71    2.24
   1   8 -19   -0.10    0.71
   0   8 -19    5.80    1.61
   4   8 -18    7.38    1.68
   3   8 -18    2.55    1.17
   2   8 -18    4.74    1.52
   1   8 -18   18.99    2.47
   0   8 -18    2.03    0.97
  -2   8 -18    4.52    2.30
  -3   8 -18    1.54    2.62
   5   8 -17    1.18    1.17
   4   8 -17    4.62    1.38
   3   8 -17    1.97    1.19
   2   8 -17    9.96    1.98
   1   8 -17   15.72    2.19
   0   8 -17    1.03    0.71
  -2   8 -17   11.48    2.90
  -3   8 -17    4.41    2.57
   5   8 -16    2.38    1.39
   4   8 -16    3.38    1.25
   3   8 -16   16.09    2.14
   2   8 -16    9.50    1.80
   1   8 -16    0.99    0.81
   0   8 -16   10.35    1.71
  -1   8 -16   13.10    2.95
  -2   8 -16    1.27    1.74
  -3   8 -16    7.85    2.65
  -4   8 -16    0.37    2.88
   5   8 -15   -0.79    1.14
   4   8 -15    7.80    1.66
   3   8 -15   15.14    2.03
   2   8 -15    1.17    0.92
   1   8 -15   16.72    2.05
   0   8 -15   10.50    1.68
   0   8 -15    5.49    2.09
  -1   8 -15    4.35    1.15
  -1   8 -15    3.41    1.80
  -2   8 -15    1.24    1.73
  -3   8 -15    0.11    1.89
  -4   8 -15   -2.38    1.80
   6   8 -14    0.61    1.41
   5   8 -14    8.05    2.03
   4   8 -14   -0.23    0.74
   3   8 -14    4.62    1.31
   2   8 -14   20.30    2.32
   1   8 -14    5.05    1.34
   1   8 -14    5.21    1.88
   0   8 -14   20.46    2.10
  -1   8 -14    7.04    2.23
  -1   8 -14    9.97    1.50
  -2   8 -14    0.55    1.50
  -3   8 -14    5.03    2.28
  -4   8 -14    1.41    2.20
   6   8 -13    0.12    1.09
   5   8 -13    4.71    1.56
   4   8 -13    8.37    1.72
   3   8 -13   20.60    2.27
   2   8 -13   16.49    2.07
   1   8 -13   43.92    2.75
   1   8 -13   36.95    3.35
   0   8 -13   16.76    1.84
  -1   8 -13    1.19    1.42
  -1   8 -13    0.45    0.54
  -2   8 -13    4.24    1.94
  -3   8 -13    6.70    2.42
  -4   8 -13   -0.21    1.76
   6   8 -12   -1.54    1.15
   5   8 -12    1.63    1.26
   4   8 -12    7.48    1.61
   3   8 -12   15.80    2.11
   2   8 -12   46.75    3.33
   2   8 -12   48.21    3.01
   1   8 -12    8.86    1.46
   1   8 -12    8.03    2.12
   0   8 -12    6.89    2.01
   0   8 -12    9.34    1.41
  -1   8 -12    7.18    1.24
  -1   8 -12    4.65    1.90
  -2   8 -12   44.85    4.09
  -3   8 -12   28.66    4.06
  -4   8 -12   -0.91    1.57
  -5   8 -12   -0.55    2.06
   6   8 -11    2.22    1.27
   5   8 -11    8.70    1.81
   4   8 -11    0.53    0.72
   3   8 -11   57.65    3.40
   2   8 -11    2.86    1.46
   2   8 -11    2.28    1.00
   1   8 -11    3.21    1.60
   1   8 -11    4.53    1.14
   0   8 -11   12.31    1.50
   0   8 -11    8.19    2.06
  -1   8 -11   34.76    2.17
  -1   8 -11   35.24    3.31
  -2   8 -11   12.69    2.69
  -3   8 -11    5.47    2.12
  -4   8 -11    2.13    2.07
  -5   8 -11    0.40    2.01
   6   8 -10    3.00    1.45
   5   8 -10    0.77    1.00
   4   8 -10   18.00    2.16
   3   8 -10    2.63    0.97
   3   8 -10    2.91    1.36
   2   8 -10   21.33    1.85
   2   8 -10   22.12    2.37
   1   8 -10   20.61    2.34
   1   8 -10   23.72    1.83
   0   8 -10   11.73    2.06
   0   8 -10   13.73    1.50
  -1   8 -10   18.01    2.65
  -1   8 -10   15.42    1.47
  -2   8 -10   17.56    2.91
  -3   8 -10   14.06    2.98
  -4   8 -10    1.25    1.65
  -5   8 -10    8.41    2.42
   7   8  -9    1.31    1.70
   6   8  -9    3.59    1.34
   5   8  -9    4.79    1.49
   4   8  -9   -0.59    0.66
   4   8  -9    1.02    1.10
   3   8  -9   32.24    2.64
   3   8  -9   26.79    2.16
   2   8  -9    4.45    1.39
   2   8  -9    3.80    1.04
   0   8  -9    7.27    1.65
   0   8  -9    3.59    0.87
  -1   8  -9   21.43    2.70
  -1   8  -9   16.40    1.34
  -2   8  -9    3.39    0.81
  -2   8  -9    5.04    1.77
  -3   8  -9    8.55    2.41
  -4   8  -9   32.01    4.31
  -5   8  -9    2.17    1.46
   7   8  -8    2.37    1.78
   6   8  -8    1.05    1.10
   5   8  -8    3.24    1.22
   4   8  -8   15.98    2.24
   4   8  -8   14.56    1.93
   3   8  -8   18.76    1.70
   3   8  -8   18.65    2.29
   2   8  -8   28.03    2.00
   2   8  -8   28.18    2.28
   1   8  -8   38.51    2.71
   1   8  -8   37.13    2.17
   0   8  -8   11.15    1.84
   0   8  -8    9.22    1.08
  -1   8  -8   23.51    2.53
  -1   8  -8   26.29    1.53
  -2   8  -8   22.76    2.95
  -2   8  -8   20.93    1.43
  -3   8  -8   71.39    5.14
  -4   8  -8   24.26    3.62
  -5   8  -8   -0.24    0.88
  -6   8  -8    1.65    1.33
   7   8  -7    3.31    2.06
   6   8  -7    0.50    1.03
   5   8  -7    0.94    0.87
   4   8  -7    3.77    1.24
   3   8  -7   44.02    3.00
   1   8  -7   20.07    1.51
   1   8  -7   21.20    2.30
   0   8  -7    6.80    0.89
   0   8  -7    7.95    1.69
  -1   8  -7   61.90    4.00
  -1   8  -7   64.60    2.52
  -2   8  -7   20.58    1.30
  -2   8  -7   28.23    3.10
  -3   8  -7   12.07    2.51
  -4   8  -7   11.24    2.54
  -5   8  -7   -0.05    0.96
  -6   8  -7    1.97    1.13
   6   8  -6    1.09    1.05
   5   8  -6    3.16    1.21
   4   8  -6   15.28    1.92
   3   8  -6   63.36    3.22
   3   8  -6   63.01    3.59
   2   8  -6   26.34    2.35
   1   8  -6    7.58    1.52
   1   8  -6    6.71    0.96
   0   8  -6   18.79    1.25
   0   8  -6   17.72    2.19
  -1   8  -6   31.89    2.77
  -1   8  -6   36.54    1.62
  -2   8  -6   59.95    2.27
  -2   8  -6   58.37    4.06
  -3   8  -6   13.24    2.41
  -4   8  -6    7.84    2.24
  -5   8  -6    9.42    2.25
  -6   8  -6    0.14    1.14
  -7  -8   5    4.83    1.33
  -7  -8   5    4.40    1.22
   6   8  -5    0.28    1.15
   5   8  -5   14.59    2.10
   4   8  -5   32.33    2.39
   3   8  -5   30.37    2.17
   3   8  -5   30.76    2.42
   2   8  -5   26.39    2.27
   2   8  -5   26.76    1.79
   1   8  -5   42.16    2.90
   1   8  -5   42.60    2.10
   0   8  -5   16.57    1.11
   0   8  -5   18.93    2.01
  -1   8  -5   20.25    2.27
  -1   8  -5   20.41    1.06
  -2   8  -5   65.61    4.24
  -2   8  -5   70.00    2.38
  -3   8  -5   11.89    2.27
  -4   8  -5   63.58    4.75
  -5   8  -5    2.49    1.18
  -6   8  -5    0.98    1.15
  -7  -8   4    2.53    0.93
  -7  -8   4    0.95    0.83
   5   8  -4   12.63    2.01
   4   8  -4    9.47    1.60
   3   8  -4    6.46    1.49
   3   8  -4    6.91    1.23
   2   8  -4    4.59    1.78
   2   8  -4    7.48    1.11
   1   8  -4  128.38    5.50
   1   8  -4  135.24    4.48
   0   8  -4   10.57    0.85
   0   8  -4   14.72    1.79
  -1   8  -4   17.33    0.87
  -1   8  -4   19.72    2.06
  -2   8  -4   12.10    2.07
  -3   8  -4   28.81    2.84
  -4   8  -4   19.16    2.96
  -5   8  -4    0.46    0.88
  -6   8  -4    2.73    1.27
  -7   8  -4   -0.14    1.17
  -7  -8   3    0.89    0.87
  -7  -8   3    1.49    0.80
  -6  -8   3    9.15    2.07
  -6  -8   3    6.39    1.54
   5   8  -3    4.71    1.47
   4   8  -3   36.72    2.52
   3   8  -3   12.53    1.85
   3   8  -3   10.15    1.39
   2   8  -3   19.07    1.47
   2   8  -3   18.26    2.02
   1   8  -3   50.11    2.89
   1   8  -3   46.89    2.15
   0   8  -3   63.74    3.35
   0   8  -3   67.37    2.32
  -1   8  -3   14.87    1.85
  -2   8  -3   14.36    2.05
  -3   8  -3   57.36    4.05
  -4   8  -3    7.83    1.94
  -5   8  -3   11.68    2.48
  -6   8  -3    0.23    0.91
  -7   8  -3   -1.25    1.41
  -7  -8   2    4.84    1.48
  -7  -8   2    1.75    0.89
  -6  -8   2    0.64    0.91
  -6  -8   2    0.41    0.66
  -5  -8   2    9.61    1.95
  -5  -8   2    7.74    1.89
   4   8  -2   16.96    1.98
   3   8  -2    0.56    0.60
   3   8  -2    0.91    0.97
   2   8  -2   53.88    3.23
   2   8  -2   47.69    2.40
   1   8  -2  251.94    7.52
   1   8  -2  255.12    9.21
   0   8  -2  105.92    3.29
   0   8  -2  104.84    4.55
  -1   8  -2  119.72    5.32
  -2   8  -2  295.84   11.35
  -3   8  -2    2.62    1.20
  -4   8  -2   27.46    2.78
  -5   8  -2    0.87    1.00
  -6   8  -2    1.74    1.18
  -7   8  -2    2.63    1.63
  -7  -8   1    2.65    0.99
  -7  -8   1    2.02    1.11
  -6  -8   1    0.98    0.90
  -6  -8   1    1.72    0.96
  -5  -8   1   13.03    2.17
  -5  -8   1    9.96    2.05
  -4  -8   1   44.08    3.29
  -4  -8   1   44.49    3.53
   3   8  -1   11.03    1.38
   2   8  -1   13.73    1.35
   2   8  -1   21.18    2.23
   1   8  -1   94.89    3.35
   1   8  -1   93.87    4.18
   0  -8   1  101.50    3.63
   0   8  -1  105.45    4.47
   0  -8   1  109.05    3.83
  -1   8  -1  206.92    7.88
  -2   8  -1   63.30    3.66
  -3   8  -1    0.95    0.90
  -4   8  -1    2.28    1.15
  -5   8  -1   16.34    2.95
  -6   8  -1    2.40    1.38
  -7   8  -1    1.70    1.35
  -7  -8   0    5.78    1.56
  -6  -8   0    1.13    1.02
  -6  -8   0    2.26    1.02
  -5  -8   0    3.85    1.30
  -5  -8   0    2.28    0.97
  -4  -8   0   14.25    2.12
  -4  -8   0    8.31    1.88
  -3  -8   0    6.18    1.53
  -3  -8   0    4.49    1.44
   2   8   0   86.08    4.31
  -2  -8   0   84.49    4.04
  -2  -8   0   78.59    4.17
  -1  -8   0   85.44    3.76
  -1  -8   0   83.77    3.59
   1   8   0   84.00    3.83
   0   8   0  562.43   18.96
   0  -8   0  575.23   15.93
   0   8   0  592.29   32.69
  -1   8   0   94.24    4.18
  -2   8   0   95.84    4.64
  -3   8   0    9.06    1.73
  -4   8   0   11.47    2.21
  -5   8   0    2.62    1.21
  -6   8   0    1.59    1.32
  -7  -8  -1   -0.16    0.94
  -6  -8  -1    4.16    1.23
  -5  -8  -1   14.96    2.49
  -5  -8  -1   11.47    2.33
  -4  -8  -1    3.95    1.20
  -4  -8  -1    2.14    1.09
  -3  -8  -1   -0.05    0.82
  -3  -8  -1    0.65    0.80
   2   8   1   60.31    3.33
  -2  -8  -1   53.63    3.23
  -2  -8  -1   51.00    3.02
   1   8   1  191.95   12.44
   1   8   1  192.85    7.37
  -1  -8  -1  196.02    6.86
  -1  -8  -1  197.36    6.64
   0  -8  -1   99.65    3.65
   0   8   1  106.95    4.33
   1  -8  -1   95.46    2.88
  -1   8   1   95.20    9.02
  -1   8   1   92.31    4.04
  -2   8   1   18.62    2.08
  -3   8   1   14.22    1.99
   3  -8  -1   10.98    0.79
  -4   8   1   50.16    3.76
  -5   8   1   15.13    2.70
  -6   8   1    1.93    1.20
  -7  -8  -2    1.21    1.28
  -6  -8  -2   -0.82    0.83
  -5  -8  -2    1.39    0.92
  -4  -8  -2   21.22    2.55
  -3  -8  -2    2.38    1.12
  -2  -8  -2  256.25    8.83
   1   8   2  110.47    4.77
  -1  -8  -2  108.47    4.42
   0   8   2   40.36    4.25
  -1   8   2  262.41    9.03
  -1   8   2  250.10   17.44
   1  -8  -2  252.68    7.22
   2  -8  -2   50.66    1.90
  -2   8   2   53.43   10.02
  -2   8   2   54.86    2.98
   3  -8  -2    1.26    0.47
  -3   8   2    1.74    0.98
  -4   8   2   15.98    2.34
  -5   8   2   13.14    2.48
  -7  -8  -3    4.55    1.59
  -6  -8  -3   -0.07    0.88
  -5  -8  -3   10.80    2.21
  -4  -8  -3    4.60    1.37
  -3  -8  -3   51.09    3.38
  -2  -8  -3   16.83    1.91
   1   8   3   14.47    1.52
  -1  -8  -3   13.12    1.49
   0  -8  -3   72.52    2.95
   0   8   3   64.59    7.11
   0   8   3   68.77    3.13
  -1   8   3   41.54    2.30
  -1   8   3   41.90    7.75
   1  -8  -3   42.45    1.79
   2  -8  -3   24.36    1.28
  -2   8   3   21.45    1.78
  -2   8   3   23.41    8.54
  -3   8   3   10.49    7.91
   3  -8  -3   13.42    1.00
  -3   8   3   12.86    1.72
  -4   8   3   39.09    3.12
  -5   8   3    7.46    1.81
  -6   8   3    2.58    6.78
  -7   8   3    7.31    7.03
  -7  -8  -4   -1.15    1.27
  -6  -8  -4    2.98    1.09
  -5  -8  -4    1.72    0.99
  -4  -8  -4   15.66    2.35
  -3  -8  -4   25.62    2.31
  -2  -8  -4   12.34    1.69
   1   8   4   16.80    1.82
  -1  -8  -4   17.61    1.57
  -1   8   4  137.12    5.05
  -1   8   4  129.34   11.30
   1  -8  -4  130.55    4.33
  -3   8   4    6.64    1.22
  -3   8   4   11.86    7.23
   3  -8  -4    6.53    0.89
  -4   8   4    9.99    1.81
  -4   8   4   -6.91    8.94
   4  -8  -4   10.02    1.15
  -5   8   4    1.56    8.01
  -6   8   4    2.63    6.34
  -7   8   4    8.96    7.93
  -7  -8  -5    6.41    2.57
  -6  -8  -5    3.30    1.45
  -5  -8  -5    0.71    0.82
  -4  -8  -5   75.52    4.54
  -3  -8  -5    6.90    1.47
  -2  -8  -5   62.04    3.50
  -1  -8  -5   17.93    1.66
   0   8   5   15.77    1.37
   0  -8  -5   15.61    1.35
  -1   8   5   44.66    2.31
  -1   8   5   42.01   10.95
  -2   8   5   47.79   10.39
   2  -8  -5   31.55    1.70
  -2   8   5   29.40    1.94
  -3   8   5   36.35    9.52
   3  -8  -5   33.78    1.88
  -3   8   5   33.94    2.22
   4  -8  -5   34.01    2.03
  -4   8   5   34.04   11.21
  -5   8   5    7.45    7.97
  -6   8   5    4.45    6.64
  -7   8   5    9.79    7.50
  -6  -8  -6    7.88    1.92
  -5  -8  -6   10.18    2.04
  -4  -8  -6    8.67    1.80
  -3  -8  -6    8.94    1.67
  -2  -8  -6   54.75    3.31
  -1  -8  -6   28.62    2.13
  -1   8   6    3.56    7.08
   1  -8  -6    7.04    0.94
  -1   8   6    6.63    1.10
  -2   8   6   22.33    9.96
   2  -8  -6   10.46    1.08
  -3   8   6   64.89    9.64
  -3   8   6   67.10    3.16
   3  -8  -6   64.08    2.89
  -4   8   6   17.16    9.39
   4  -8  -6   18.59    1.54
  -5   8   6    0.82    7.69
  -6   8   6    1.07    6.81
  -7   8   6    0.50    8.33
  -6  -8  -7    4.10    1.27
  -5  -8  -7    0.20    0.81
  -4  -8  -7    9.82    1.88
  -3  -8  -7    8.55    1.62
  -2  -8  -7   19.34    2.21
  -1  -8  -7   62.03    3.40
   0   8   7    4.29   10.59
   0  -8  -7    6.54    1.09
   1  -8  -7   16.16    1.34
  -1   8   7   37.97    8.86
  -1   8   7   15.82    1.28
  -2   8   7   52.89    8.62
   2  -8  -7   52.93    2.50
   3  -8  -7   81.24    3.46
  -3   8   7   76.63   11.12
  -4   8   7    6.44    9.65
   4  -8  -7    5.72    1.10
  -5   8   7   -1.31    7.59
  -6   8   7   -5.18    6.75
  -7   8   7  -12.68    7.68
  -6  -8  -8    2.70    1.26
  -5  -8  -8   -0.99    0.76
  -4  -8  -8   22.40    2.63
  -3  -8  -8   56.69    3.60
  -2  -8  -8   17.29    2.04
  -1  -8  -8   25.83    2.11
   0   8   8   10.10    9.42
   0  -8  -8    7.56    1.24
  -1   8   8   45.03   10.11
   1  -8  -8   34.68    2.08
  -2   8   8   41.41    9.88
   2  -8  -8   30.67    1.94
  -3   8   8   30.18   10.72
   4  -8  -8   18.44    1.79
  -4   8   8   10.10   10.07
  -5   8   8   -2.32    6.96
  -6   8   8   -3.33    6.85
  -7   8   8   -8.50    8.50
  -6  -8  -9    0.13    1.28
  -5  -8  -9    5.47    1.49
  -4  -8  -9   31.99    3.20
  -3  -8  -9    5.29    1.42
  -2  -8  -9    6.16    1.39
  -1  -8  -9   16.66    1.93
   0  -8  -9    4.33    1.06
   0   8   9    5.62    8.41
  -1   8   9   54.14   12.23
   1  -8  -9   35.39    2.21
  -2   8   9    7.39    7.36
   2  -8  -9    6.03    1.05
  -3   8   9   40.62   11.90
   3  -8  -9   31.87    2.26
  -4   8   9    1.49    8.39
   4  -8  -9   -0.22    0.33
  -5   8   9    2.87    7.62
  -6   8   9   -0.49    6.83
  -6  -8 -10    4.12    1.71
  -5  -8 -10    3.80    1.38
  -4  -8 -10    1.55    0.80
  -3  -8 -10    8.63    1.75
  -2  -8 -10   12.12    1.87
  -1  -8 -10   13.02    1.75
   0  -8 -10    9.70    1.50
   1  -8 -10   20.38    1.68
  -1   8  10   21.46   10.66
   2  -8 -10   18.10    1.64
  -2   8  10   37.56    9.96
  -3   8  10   -0.38    8.41
   3  -8 -10    5.76    1.21
   4  -8 -10   15.71    1.85
  -4   8  10   18.61    9.27
  -5   8  10    5.57    7.21
  -6   8  10   -0.94    6.37
  -5  -8 -11    0.07    0.92
  -4  -8 -11    4.80    1.44
  -3  -8 -11    3.23    1.01
  -2  -8 -11   15.55    2.11
  -1  -8 -11   36.94    2.68
   0  -8 -11    7.47    1.34
  -1   8  11    2.34   12.04
   1  -8 -11    3.68    1.01
   2  -8 -11    2.55    0.85
  -2   8  11   -1.29    8.57
   3  -8 -11   55.47    3.14
  -3   8  11   48.92   13.50
   4  -8 -11    1.10    0.67
  -4   8  11   -1.65    7.38
   5  -8 -11    8.34    1.50
  -5   8  11    3.93    6.62
  -6   8  11    8.57    7.03
  -5  -8 -12    6.52    1.63
  -4  -8 -12    3.22    1.00
  -3  -8 -12   20.18    2.36
  -2  -8 -12   32.74    2.63
  -1  -8 -12    6.03    1.40
   0  -8 -12    7.90    1.50
  -1   8  12   13.66   13.14
   1  -8 -12    9.02    1.44
   2  -8 -12   38.57    2.54
  -2   8  12   49.96   14.50
   3  -8 -12   17.36    1.96
  -3   8  12   18.46    9.70
  -4   8  12    7.19    8.86
   4  -8 -12   11.77    1.80
  -5   8  12    3.71    6.64
   5  -8 -12    2.73    1.03
  -6   8  12   -0.77    6.50
  -5  -8 -13    0.74    0.86
  -4  -8 -13    0.59    0.68
  -3  -8 -13    2.92    1.14
  -2  -8 -13    3.78    1.14
  -1  -8 -13    0.40    0.69
   0  -8 -13   14.82    1.90
  -1   8  13   47.51   15.81
   1  -8 -13   32.60    2.47
  -2   8  13    5.10   11.84
   2  -8 -13   13.54    1.76
   3  -8 -13   23.72    2.37
  -3   8  13   16.57    9.82
  -4   8  13    4.85   10.23
   4  -8 -13    7.35    1.50
  -5   8  13    4.16    6.88
   5  -8 -13    6.02    1.41
  -6   8  13    3.87    7.08
  -4  -8 -14    3.47    1.27
  -3  -8 -14    7.46    1.63
  -2  -8 -14    1.12    0.84
  -1  -8 -14    7.58    1.73
   0  -8 -14   11.85    1.83
   1  -8 -14    4.15    1.10
   2  -8 -14   19.89    2.14
  -2   8  14   13.16   11.15
  -3   8  14    1.19    8.80
   3  -8 -14    4.28    1.28
  -4   8  14   -0.89    6.17
   4  -8 -14    2.37    0.94
  -5   8  14   -3.42    9.59
   5  -8 -14    6.61    1.56
  -6   8  14    0.27    7.07
  -4  -8 -15   12.09    3.00
  -3  -8 -15    2.15    1.04
  -2  -8 -15    3.42    1.13
  -1  -8 -15    4.25    1.28
   0  -8 -15   10.65    1.84
   1  -8 -15   19.91    2.29
  -2   8  15    3.56    8.79
   2  -8 -15    1.19    0.79
   3  -8 -15   12.89    1.96
  -3   8  15    3.27    8.61
   4  -8 -15   10.78    1.96
  -4   8  15    3.71    8.17
   5  -8 -15    3.31    1.20
  -5   8  15    0.44    7.41
  -4  -8 -16    7.68    2.65
  -4  -8 -16    2.43    1.11
  -3  -8 -16    3.45    1.15
  -2  -8 -16    2.15    0.86
  -1  -8 -16    8.73    1.70
   0  -8 -16    9.08    1.81
   1  -8 -16    0.44    0.74
   2  -8 -16   12.41    1.93
  -2   8  16    6.00   10.43
   3  -8 -16   13.48    2.09
  -3   8  16    9.38    8.39
   4  -8 -16    5.20    1.43
  -4   8  16   -1.83    7.25
  -5   8  16   -0.77    7.31
   5  -8 -16    2.85    1.28
  -3  -8 -17    1.13    1.01
  -2  -8 -17    5.66    1.16
  -1  -8 -17    3.37    1.07
   0  -8 -17   -0.34    0.79
   1  -8 -17   14.88    2.24
   2  -8 -17    7.44    1.63
   3  -8 -17    2.36    1.11
  -3   8  17    1.00    6.95
  -4   8  17    0.87    7.01
   4  -8 -17    4.12    1.29
   5  -8 -17    3.61    1.42
  -5   8  17   -6.01    8.10
  -2  -8 -18    1.76    0.88
  -1  -8 -18    2.73    0.94
   0  -8 -18    0.91    0.85
   1  -8 -18   25.93    2.82
   2  -8 -18    4.30    1.26
   3  -8 -18    2.00    1.22
  -3   8  18   -5.29    7.71
   4  -8 -18    6.19    1.60
  -4   8  18    4.65    8.32
   5  -8 -18    3.33    1.98
  -5   8  18   -3.30    8.75
  -2  -8 -19   -0.11    0.59
  -1  -8 -19   -0.59    0.60
   0  -8 -19    3.31    1.42
   1  -8 -19    1.68    1.00
   2  -8 -19   12.80    2.29
   3  -8 -19    1.32    1.46
  -4   8  19    0.35    8.77
   4  -8 -19    1.11    1.22
  -1  -8 -20    1.23    0.82
   0  -8 -20    0.19    0.89
   1  -8 -20    0.28    0.72
   2  -8 -20   -0.61    0.71
   3  -8 -20    0.76    1.21
   2   9 -21   15.35    2.30
   1   9 -21    3.34    1.29
   3   9 -20    6.67    1.53
   2   9 -20    7.67    1.84
   1   9 -20    1.84    1.11
   3   9 -19    0.53    0.91
   2   9 -19    2.20    1.06
   1   9 -19   10.55    2.00
   0   9 -19    4.42    1.32
   4   9 -18    6.38    1.57
   3   9 -18    1.68    0.89
   2   9 -18    3.72    1.28
   1   9 -18    1.91    1.02
   0   9 -18   18.38    2.43
  -2   9 -18    2.29    2.40
  -3   9 -18   -2.58    2.55
   4   9 -17    4.13    1.31
   3   9 -17   10.16    1.78
   2   9 -17    1.83    1.10
   1   9 -17   15.53    2.17
   0   9 -17    2.94    1.04
  -1   9 -17    1.44    1.85
  -2   9 -17    3.37    2.32
  -3   9 -17    5.60    2.97
   5   9 -16    5.67    1.53
   4   9 -16    5.19    1.33
   3   9 -16    1.15    0.92
   2   9 -16    3.57    1.36
   1   9 -16   28.26    2.45
   0   9 -16   13.39    1.99
  -1   9 -16   20.20    3.38
  -2   9 -16   13.09    2.99
  -3   9 -16   -0.40    1.95
   5   9 -15   13.46    2.23
   4   9 -15   14.46    2.09
   3   9 -15    5.33    1.41
   2   9 -15    5.97    1.45
   1   9 -15   25.14    2.23
   0   9 -15   18.10    2.12
  -1   9 -15    1.42    1.75
  -2   9 -15    3.97    2.38
  -3   9 -15    8.15    2.78
  -4   9 -15   -2.45    1.75
   5   9 -14   -1.08    0.84
   4   9 -14    7.24    1.63
   3   9 -14   61.51    3.78
   2   9 -14    6.05    1.51
   1   9 -14    0.86    0.79
   1   9 -14   -1.22    1.43
   0   9 -14    0.52    1.28
   0   9 -14    2.95    1.05
  -1   9 -14    8.89    2.52
  -1   9 -14    9.81    1.51
  -2   9 -14    5.05    2.28
  -3   9 -14    7.68    2.62
  -4   9 -14   -3.58    1.25
   6   9 -13    1.30    1.44
   5   9 -13    2.59    1.41
   4   9 -13    3.16    1.13
   3   9 -13   14.77    2.06
   2   9 -13   32.73    2.56
   1   9 -13   17.97    2.66
   1   9 -13   14.75    1.87
   0   9 -13    3.88    1.97
   0   9 -13    4.94    1.18
  -1   9 -13   34.62    2.27
  -1   9 -13   30.02    3.31
  -2   9 -13    4.49    2.24
  -3   9 -13   -0.09    1.51
  -4   9 -13    4.14    2.37
   6   9 -12    0.89    1.08
   5   9 -12    4.08    1.49
   4   9 -12   10.00    1.79
   3   9 -12    5.85    1.49
   2   9 -12   13.91    2.20
   2   9 -12   12.68    1.81
   1   9 -12    5.61    1.23
   1   9 -12    5.33    1.83
   0   9 -12    2.08    1.61
   0   9 -12    2.68    1.10
  -1   9 -12   18.34    1.70
  -1   9 -12   21.81    3.18
  -2   9 -12   -0.52    1.33
  -3   9 -12   12.93    3.06
  -4   9 -12   15.38    3.55
  -5   9 -12   -3.34    2.08
   6   9 -11   -0.14    1.11
   5   9 -11    1.48    1.11
   4   9 -11    5.33    1.34
   3   9 -11   17.28    2.26
   3   9 -11   17.41    2.06
   2   9 -11   -0.34    1.35
   2   9 -11   -0.25    0.69
   0   9 -11    9.12    1.35
   0   9 -11    5.35    1.85
  -1   9 -11   11.93    1.42
  -1   9 -11   11.44    2.46
  -2   9 -11   21.09    3.28
  -3   9 -11   27.56    3.90
  -4   9 -11    0.89    1.95
  -5   9 -11   -4.47    1.40
   6   9 -10    1.20    1.12
   5   9 -10    2.37    1.20
   4   9 -10    3.89    1.16
   3   9 -10   23.23    2.32
   3   9 -10   31.82    2.65
   2   9 -10   21.37    1.83
   2   9 -10   20.15    2.40
   1   9 -10   18.78    1.84
   0   9 -10    9.80    2.12
   0   9 -10   13.61    1.47
  -1   9 -10   -0.02    1.23
  -1   9 -10   -0.98    0.49
  -2   9 -10    6.44    2.15
  -3   9 -10   38.76    4.00
  -4   9 -10    3.82    2.23
  -5   9 -10    3.40    1.84
   6   9  -9    1.47    1.11
   5   9  -9    1.22    1.07
   4   9  -9   23.06    2.38
   4   9  -9   21.66    2.00
   3   9  -9   27.03    2.09
   3   9  -9   25.90    2.56
   2   9  -9    5.17    1.21
   2   9  -9    4.39    1.61
   1   9  -9   23.20    1.80
   1   9  -9   22.11    2.29
   0   9  -9   13.27    1.35
   0   9  -9   13.13    2.12
  -1   9  -9   34.38    3.17
  -1   9  -9   34.75    1.93
  -2   9  -9    1.74    1.43
  -3   9  -9    5.53    2.13
  -4   9  -9    3.92    2.16
  -5   9  -9    5.88    2.19
   7   9  -8   -0.26    1.75
   6   9  -8    9.26    1.90
   5   9  -8    7.50    1.73
   4   9  -8    4.10    1.51
   4   9  -8    4.57    1.20
   3   9  -8   29.45    2.58
   3   9  -8   29.46    2.15
   1   9  -8   53.58    3.33
   1   9  -8   48.15    2.55
   0   9  -8   22.21    2.31
   0   9  -8   20.67    1.47
  -1   9  -8   67.84    2.75
  -1   9  -8   63.10    4.19
  -2   9  -8    1.33    1.41
  -3   9  -8   60.55    4.82
  -4   9  -8    5.02    1.76
  -5   9  -8   10.45    2.55
  -6   9  -8    2.07    1.40
   7   9  -7   -0.29    1.73
   6   9  -7    0.78    0.97
   5   9  -7    4.13    1.34
   4   9  -7    4.83    1.35
   3   9  -7   13.83    1.61
   2   9  -7   43.45    2.90
   2   9  -7   43.94    2.51
   1   9  -7   46.27    2.35
   1   9  -7   45.91    3.22
   0   9  -7   17.32    1.28
   0   9  -7   22.57    2.62
  -1   9  -7   21.97    2.61
  -1   9  -7   22.50    1.32
  -2   9  -7    1.35    1.20
  -3   9  -7   58.02    4.49
  -4   9  -7    9.52    2.45
  -5   9  -7    2.35    1.20
  -6   9  -7   -0.74    1.37
   6   9  -6    2.16    1.33
   5   9  -6    0.59    0.91
   4   9  -6   40.86    2.76
   3   9  -6   43.70    2.53
   3   9  -6   37.71    2.95
   2   9  -6    6.20    1.09
   2   9  -6    6.10    1.40
   1   9  -6   14.22    1.23
   1   9  -6   14.78    1.98
   0   9  -6   66.99    3.83
   0   9  -6   49.25    2.26
  -1   9  -6   21.15    1.22
  -1   9  -6   23.17    2.69
  -2   9  -6   24.13    2.84
  -2   9  -6   23.60    1.25
  -3   9  -6   16.20    2.69
  -4   9  -6   15.70    3.00
  -5   9  -6    8.93    2.35
  -6   9  -6    1.31    1.44
  -7  -9   5   -1.45    0.67
  -7  -9   5    2.02    0.80
   6   9  -5    4.78    1.66
   5   9  -5    0.48    0.96
   4   9  -5    0.79    0.89
   3   9  -5   17.57    1.83
   3   9  -5   19.69    2.26
   2   9  -5  116.61    5.28
   2   9  -5  112.70    4.38
   1   9  -5    7.22    1.58
   1   9  -5    7.08    0.94
   0   9  -5   33.28    1.62
   0   9  -5   33.51    2.84
  -1   9  -5   19.38    1.04
  -1   9  -5   19.82    2.56
  -2   9  -5   25.72    2.63
  -3   9  -5   15.96    2.59
  -4   9  -5   25.02    3.47
  -5   9  -5    0.69    1.13
  -6   9  -5   -0.69    0.92
  -7  -9   4    0.46    0.85
  -7  -9   4    1.66    0.95
   5   9  -4   14.97    2.19
   4   9  -4   17.34    1.99
   3   9  -4    4.64    1.39
   3   9  -4    5.43    1.18
   2   9  -4  156.10    5.52
   2   9  -4  156.03    6.58
   1   9  -4   32.08    2.68
   1   9  -4   32.60    1.76
   0   9  -4    2.81    0.56
   0   9  -4    1.22    1.06
  -1   9  -4   12.25    1.92
  -2   9  -4   18.46    2.41
  -3   9  -4   30.85    2.96
  -4   9  -4    3.46    1.59
  -5   9  -4    2.64    1.42
  -6   9  -4    0.46    1.00
  -7  -9   3    1.13    0.98
  -7  -9   3    1.98    0.98
  -6  -9   3    3.15    1.03
  -6  -9   3    3.08    1.32
   5   9  -3    2.38    1.23
   4   9  -3   59.49    3.32
   3   9  -3   12.25    1.54
   3   9  -3   10.17    1.80
   2   9  -3   16.78    2.17
   2   9  -3   19.36    1.49
   1   9  -3  218.57    6.70
   1   9  -3  216.50    8.23
   0   9  -3   58.31    3.26
   0   9  -3   60.01    2.19
  -1   9  -3   38.68    2.85
  -2   9  -3  161.89    7.32
  -3   9  -3   23.10    2.94
  -4   9  -3    6.70    1.87
  -5   9  -3    2.88    1.50
  -6   9  -3   -0.51    1.14
  -7   9  -3   -0.44    1.34
  -7  -9   2    2.18    1.02
  -7  -9   2   -0.57    0.80
  -6  -9   2    3.16    1.17
  -6  -9   2    2.50    1.21
  -5  -9   2    7.78    1.91
  -5  -9   2    5.93    1.62
   4   9  -2    1.76    0.96
   3   9  -2    0.67    0.66
   3   9  -2    0.77    0.92
   2   9  -2   28.93    2.79
   2   9  -2   34.25    1.96
   1   9  -2  116.74    5.10
   1   9  -2  120.18    4.08
   0   9  -2   11.00    0.82
   0   9  -2   12.80    1.87
  -1   9  -2   62.06    3.45
  -2   9  -2    6.56    1.53
  -3   9  -2   26.89    3.01
  -4   9  -2   60.64    4.48
  -5   9  -2    7.10    2.07
  -6   9  -2    1.88    1.41
  -7   9  -2   -0.12    1.52
  -7  -9   1    2.02    1.05
  -7  -9   1   -0.16    0.81
  -6  -9   1    1.59    0.94
  -6  -9   1    0.16    0.67
  -5  -9   1    3.06    1.22
  -5  -9   1    1.04    0.97
  -4  -9   1   11.32    2.00
  -4  -9   1   10.52    2.16
   2   9  -1   16.25    2.18
   2   9  -1   13.59    1.36
   1   9  -1   41.00    1.94
   1   9  -1   37.73    2.53
   0   9  -1   83.00    7.49
   0  -9   1   87.01    3.19
   0   9  -1   81.85    3.91
   0  -9   1   87.38    3.33
  -1   9  -1   76.77    3.82
  -2   9  -1    7.72    1.69
  -3   9  -1    4.04    1.46
  -4   9  -1   67.04    4.64
  -5   9  -1    3.52    1.51
  -6   9  -1    3.25    1.63
  -7   9  -1   -1.52    1.56
  -7  -9   0    0.26    0.89
  -6  -9   0    1.47    0.97
  -6  -9   0    1.65    1.00
  -5  -9   0   12.53    2.44
  -5  -9   0   13.21    2.33
  -4  -9   0   21.60    2.80
  -4  -9   0   23.14    2.66
  -3  -9   0   14.39    2.10
  -3  -9   0   20.12    2.48
  -2  -9   0  107.53    4.82
  -2  -9   0  106.26    5.01
   2   9   0  107.76    5.15
  -1  -9   0   21.85    1.74
  -1  -9   0   21.50    1.77
   1   9   0   19.51    1.84
   0  -9   0   -0.44    0.42
   0   9   0   -0.97    2.90
   0   9   0    0.19    0.81
  -1   9   0   20.13    1.84
  -2   9   0  128.85    5.86
  -3   9   0   20.69    2.25
  -4   9   0   29.25    2.85
  -5   9   0   14.97    2.77
  -6   9   0    2.01    1.55
  -7  -9  -1    4.94    1.56
  -6  -9  -1    2.49    1.12
  -5  -9  -1    1.28    0.91
  -5  -9  -1    3.60    1.40
  -4  -9  -1   58.39    3.92
  -4  -9  -1   60.60    4.18
  -3  -9  -1    2.20    1.08
  -3  -9  -1    1.29    1.12
   2   9   1    6.40    1.78
  -2  -9  -1    3.34    1.06
  -2  -9  -1    4.44    1.23
  -1  -9  -1   72.88    3.35
   1   9   1   72.54    6.66
   1   9   1   70.19    3.53
   0   9   1   79.40    7.56
   0   9   1   82.37    3.78
   0  -9  -1   81.78    3.18
   1  -9  -1   37.44    1.44
  -1   9   1   37.82    2.40
  -1   9   1   39.36    6.88
  -2   9   1   17.70    2.02
  -3   9   1   16.68    2.11
  -4   9   1   13.48    2.39
  -5   9   1    1.62    1.28
  -6   9   1    3.61    1.56
  -7  -9  -2   -0.10    0.92
  -6  -9  -2    5.97    1.66
  -5  -9  -2    5.30    1.45
  -4  -9  -2   47.68    3.51
  -3  -9  -2   20.81    2.37
   2   9   2    7.88    1.67
  -2  -9  -2    8.14    1.44
   1   9   2   58.80    3.21
   1   9   2   64.23    6.56
  -1  -9  -2   60.43    3.10
   0   9   2    2.39    1.45
   0  -9  -2    4.41    0.78
   1  -9  -2  117.24    3.68
  -1   9   2  120.81    4.81
  -1   9   2  108.61   10.23
  -2   9   2   45.26    2.77
   2  -9  -2   33.31    1.45
  -2   9   2   38.54   13.27
   3  -9  -2    1.06    0.42
  -3   9   2    2.09    1.03
  -4   9   2    3.16    1.49
  -5   9   2   10.25    2.34
  -7  -9  -3    0.38    0.99
  -6  -9  -3    3.27    1.35
  -5  -9  -3    2.69    1.25
  -4  -9  -3    3.24    1.14
  -3  -9  -3   24.12    2.53
  -2  -9  -3  133.64    5.69
   1   9   3   29.77    2.35
  -1  -9  -3   27.98    2.03
   0  -9  -3   47.35    2.36
   0   9   3   54.76    2.74
  -1   9   3  212.15   15.47
   1  -9  -3  214.94    6.43
  -1   9   3  221.29    7.82
  -2   9   3   16.60    1.80
  -2   9   3   27.30   10.01
   2  -9  -3   15.53    1.02
   3  -9  -3   13.05    1.01
  -3   9   3   15.45    1.82
  -3   9   3   19.44    8.24
  -4   9   3   58.36    3.95
  -5   9   3    4.77    1.69
  -6   9   3   -0.26    6.75
  -7   9   3    8.31    7.29
  -6  -9  -4    0.01    0.80
  -5  -9  -4    1.84    0.86
  -4  -9  -4    4.87    1.41
  -3  -9  -4   29.57    2.50
  -2  -9  -4   12.82    1.76
   1   9   4    6.45    1.39
  -1  -9  -4    9.75    1.37
   0   9   4    1.12    4.22
   0   9   4    1.73    0.92
   0  -9  -4    1.80    0.70
  -1   9   4   33.70   10.06
   1  -9  -4   36.42    1.77
  -2   9   4  161.45    6.20
   2  -9  -4  158.28    5.06
  -2   9   4  163.78   14.29
  -3   9   4    5.39    6.33
   3  -9  -4    6.55    0.86
  -3   9   4    5.23    1.20
  -4   9   4   -1.28    9.30
  -5   9   4    6.12    9.01
  -6   9   4    3.44    6.74
  -7   9   4   10.82    7.61
  -6  -9  -5    0.27    1.08
  -5  -9  -5   -1.28    0.56
  -4  -9  -5   18.44    2.49
  -3  -9  -5   10.40    1.75
  -2  -9  -5   21.84    2.25
  -1  -9  -5   19.65    1.76
   0   9   5   35.88    2.35
   0  -9  -5   35.57    2.12
  -1   9   5    6.63    1.13
  -1   9   5   14.11    7.91
   2  -9  -5  108.34    3.92
  -2   9   5  146.98   13.63
  -2   9   5  107.06    4.55
  -3   9   5   22.42    8.48
   3  -9  -5   15.52    1.26
  -3   9   5   15.06    1.55
  -4   9   5   -2.99    8.00
  -5   9   5    2.24    7.47
  -6   9   5    3.70    6.82
  -7   9   5    2.10    6.83
  -6  -9  -6    5.10    1.72
  -5  -9  -6    5.82    1.57
  -4  -9  -6   16.80    2.40
  -3  -9  -6   11.33    1.86
  -2  -9  -6   27.70    2.60
  -1  -9  -6   19.20    1.95
  -1   9   6   23.31    9.44
   1  -9  -6   12.47    1.14
  -2   9   6   11.20    6.83
  -2   9   6    6.13    0.99
   2  -9  -6    6.78    0.92
  -3   9   6   67.21   13.06
   3  -9  -6   45.87    2.36
  -4   9   6   46.82   12.42
   4  -9  -6   47.64    2.55
  -5   9   6    0.38    8.02
  -6   9   6    0.29    6.21
  -7   9   6   -4.73    7.63
  -6  -9  -7    1.52    1.21
  -5  -9  -7    0.57    0.80
  -4  -9  -7    9.51    1.83
  -3  -9  -7   48.01    3.27
  -2  -9  -7    2.09    0.75
  -1  -9  -7   21.92    1.97
   0   9   7   44.38   13.11
  -1   9   7   44.04    2.26
   1  -9  -7   48.56    2.39
  -2   9   7   58.45   11.34
   3  -9  -7   13.89    1.42
  -3   9   7   27.26   10.36
   4  -9  -7    4.53    0.98
  -4   9   7   -1.07    9.17
  -5   9   7   -3.27    7.76
  -6   9   7   -7.09    6.96
  -7   9   7   -6.26    8.00
  -6  -9  -8    3.79    1.44
  -5  -9  -8   17.47    2.66
  -4  -9  -8    5.17    1.36
  -3  -9  -8   44.55    3.17
  -2  -9  -8    2.46    0.85
  -1  -9  -8   59.77    3.40
   0   9   8   33.28   10.70
   0  -9  -8   19.92    1.73
  -1   9   8   54.28   10.33
   1  -9  -8   51.71    2.66
  -2   9   8   53.26    9.01
   2  -9  -8   54.46    2.65
  -3   9   8   44.65   11.74
   3  -9  -8   25.16    1.85
  -4   9   8   12.86    9.76
  -5   9   8   -0.03    7.01
  -6   9   8   -3.81    6.53
  -7   9   8   -5.13    8.88
  -6  -9  -9   -0.10    0.98
  -5  -9  -9    4.28    1.38
  -4  -9  -9    3.88    1.10
  -3  -9  -9    3.55    1.06
  -2  -9  -9    2.19    0.91
  -1  -9  -9   31.56    2.43
   0   9   9    9.08    9.23
   0  -9  -9    8.34    1.35
   1  -9  -9   21.92    1.73
  -1   9   9   29.36   10.21
  -2   9   9   17.94    9.28
  -3   9   9   38.46   12.60
  -4   9   9   25.39   10.15
   4  -9  -9   25.68    2.01
  -5   9   9    3.40    7.69
  -6   9   9   -1.68    6.37
  -7   9   9    0.20    8.75
  -5  -9 -10    1.58    1.16
  -4  -9 -10    2.37    0.99
  -3  -9 -10   32.09    2.79
  -2  -9 -10    5.34    1.27
  -1  -9 -10    0.03    0.61
   0  -9 -10   11.80    1.61
   0   9  10    4.02   10.52
   1  -9 -10   17.72    1.60
  -1   9  10   24.81   13.16
  -2   9  10   25.16    9.19
   2  -9 -10   17.99    1.63
  -3   9  10   26.06   11.33
   3  -9 -10   23.62    1.93
  -4   9  10    4.43    8.09
  -5   9  10    3.99    7.09
  -6   9  10    2.75    6.18
  -7   9  10    0.89   10.56
  -5  -9 -11    2.85    1.05
  -4  -9 -11    0.73    0.72
  -3  -9 -11   24.00    2.67
  -2  -9 -11   18.56    2.31
  -1  -9 -11    8.22    1.63
   0  -9 -11    5.07    1.22
  -1   9  11   23.65   13.24
   1  -9 -11   29.31    2.12
  -2   9  11    5.32    9.96
  -3   9  11   25.33   11.51
   3  -9 -11   18.37    1.94
  -4   9  11    7.38    7.95
   4  -9 -11    4.77    1.26
  -5   9  11   -0.51    6.23
  -6   9  11    1.40    5.99
  -5  -9 -12   -0.59    0.75
  -4  -9 -12   11.78    2.01
  -3  -9 -12   11.05    1.94
  -2  -9 -12    0.54    0.58
  -1  -9 -12   15.61    2.12
   0  -9 -12    3.56    1.12
   1  -9 -12    5.41    1.22
  -1   9  12    9.43   13.12
   2  -9 -12   14.61    1.72
  -2   9  12   10.90   12.62
   3  -9 -12    6.87    1.38
  -3   9  12    7.98    8.76
   4  -9 -12    9.52    1.63
  -4   9  12   -3.53    7.57
  -5   9  12    3.78    7.15
  -6   9  12   -3.12    6.26
  -5  -9 -13    0.36    0.89
  -4  -9 -13    2.79    0.87
  -3  -9 -13    0.93    0.77
  -2  -9 -13    1.97    0.89
  -1  -9 -13   35.37    2.79
   0  -9 -13    3.42    1.03
  -1   9  13   13.12   14.07
   1  -9 -13   14.32    1.85
   2  -9 -13   29.47    2.29
  -2   9  13   39.03   14.95
  -3   9  13    9.79    8.80
   3  -9 -13   10.92    1.68
  -4   9  13   -0.24   10.01
   4  -9 -13    2.61    0.96
   5  -9 -13    3.02    1.07
  -5   9  13   -0.44    6.41
  -6   9  13   -0.25    5.69
  -4  -9 -14    1.14    0.82
  -3  -9 -14    5.83    1.45
  -2  -9 -14    3.96    1.40
  -1  -9 -14    9.00    1.78
   0  -9 -14    3.45    1.16
  -1   9  14    2.08   11.27
   1  -9 -14    1.30    0.75
  -2   9  14    8.92   10.59
   2  -9 -14    4.28    1.11
  -3   9  14   18.40   11.06
  -4   9  14   11.81    8.08
   4  -9 -14    8.46    1.60
   5  -9 -14    1.30    0.86
  -5   9  14   -0.26    8.42
  -6   9  14    1.17    7.57
  -4  -9 -15    7.16    1.45
  -3  -9 -15    2.44    1.02
  -2  -9 -15    4.16    1.27
  -1  -9 -15    4.35    1.34
   0  -9 -15   13.45    2.06
   1  -9 -15   26.38    2.36
   2  -9 -15    2.92    1.03
  -2   9  15   -1.31    8.73
   3  -9 -15    4.75    1.43
  -3   9  15   -1.06    8.31
   4  -9 -15   18.20    2.31
  -4   9  15    5.78    7.73
  -5   9  15    5.56    8.07
   5  -9 -15   14.95    2.10
  -6   9  15  -21.42   11.51
  -4  -9 -16    7.03    2.65
  -3  -9 -16    1.98    1.06
  -2  -9 -16    9.16    1.78
  -1  -9 -16   14.28    2.07
   0  -9 -16   13.65    2.11
   1  -9 -16   26.35    2.41
  -2   9  16    3.25    9.67
   2  -9 -16    4.29    1.25
   3  -9 -16   -0.78    0.58
  -3   9  16   -1.63    7.85
   4  -9 -16    6.55    1.54
  -4   9  16   -7.26    7.18
   5  -9 -16    6.30    1.75
  -5   9  16    9.06    7.68
  -3  -9 -17    4.56    1.26
  -2  -9 -17    4.57    1.13
  -1  -9 -17    2.19    0.97
   0  -9 -17    5.66    1.65
   1  -9 -17   15.60    2.32
   2  -9 -17    0.11    0.81
  -2   9  17    0.79    9.68
   3  -9 -17    9.23    1.88
  -3   9  17    5.18    7.84
   4  -9 -17    4.33    1.28
  -4   9  17    0.78    7.90
  -5   9  17   -2.92    8.48
   5  -9 -17    3.55    1.35
  -2  -9 -18    0.50    0.78
  -1  -9 -18    1.74    0.92
   0  -9 -18   13.05    2.23
   1  -9 -18    2.70    1.10
   2  -9 -18    1.56    1.07
   3  -9 -18    1.03    0.99
  -3   9  18   -2.00    7.90
  -4   9  18    1.66    7.99
   4  -9 -18    7.07    1.83
  -5   9  18   -7.84    8.11
   5  -9 -18   -1.01    1.33
  -1  -9 -19    0.37    0.76
   0  -9 -19    2.33    1.14
   1  -9 -19    5.60    1.64
   2  -9 -19    1.10    1.20
   3  -9 -19    0.57    1.19
  -3   9  19    2.50    8.42
   4  -9 -19    2.10    1.47
  -4   9  19   -5.50    7.50
   0  -9 -20    4.13    1.34
   1  -9 -20    0.16    0.82
   2  -9 -20   -0.77    0.80
   3  -9 -20   -0.60    1.08
   2  10 -21    2.44    1.15
   1  10 -21    0.31    1.24
   3  10 -20    5.10    1.29
   2  10 -20    5.03    1.45
   1  10 -20    1.94    0.99
   3  10 -19    3.23    1.10
   2  10 -19   16.00    2.11
   1  10 -19    5.07    1.53
   4  10 -18    2.18    1.12
   3  10 -18    2.24    1.04
   2  10 -18   17.05    2.18
   1  10 -18    1.28    1.02
  -2  10 -18   -1.11    2.30
  -3  10 -18    0.82    2.59
   4  10 -17    3.16    1.10
   3  10 -17    1.42    0.94
   2  10 -17    3.18    1.27
   1  10 -17    0.13    0.73
   0  10 -17    9.29    1.76
  -1  10 -17    6.55    2.35
  -2  10 -17    8.32    3.06
  -3  10 -17    5.71    3.03
   5  10 -16    0.46    0.91
   4  10 -16    5.28    1.39
   3  10 -16    5.82    1.44
   2  10 -16    4.13    1.31
   1  10 -16   -0.12    0.78
   0  10 -16   13.86    2.03
  -1  10 -16    8.96    2.76
  -2  10 -16    1.42    1.71
  -3  10 -16    3.43    2.80
   5  10 -15    1.52    0.99
   4  10 -15    5.68    1.37
   3  10 -15    9.36    1.72
   2  10 -15    8.49    1.68
   1  10 -15    1.76    1.02
   0  10 -15    6.86    1.44
   0  10 -15    8.04    2.35
  -1  10 -15   33.96    4.08
  -2  10 -15    4.88    2.32
  -3  10 -15   -1.29    1.80
  -4  10 -15   -0.19    1.94
   5  10 -14    9.89    1.91
   4  10 -14    5.34    1.35
   3  10 -14    0.84    0.89
   2  10 -14    2.65    1.16
   1  10 -14   11.46    1.82
   1  10 -14    9.05    2.25
   0  10 -14   -0.18    0.67
   0  10 -14   -0.18    1.64
  -1  10 -14    9.60    2.58
  -2  10 -14   12.28    3.04
  -3  10 -14    5.81    2.41
  -4  10 -14   -0.40    1.68
   6  10 -13   -0.32    1.54
   5  10 -13    3.28    1.00
   4  10 -13    5.35    1.34
   3  10 -13   10.06    1.76
   2  10 -13   33.45    2.59
   1  10 -13   71.53    3.66
   1  10 -13   60.67    4.35
   0  10 -13    3.48    1.93
   0  10 -13    5.51    1.22
  -1  10 -13    6.46    2.25
  -2  10 -13   14.81    3.15
  -3  10 -13    6.92    2.49
  -4  10 -13    0.86    2.02
   6  10 -12   -0.30    1.19
   5  10 -12    2.01    0.94
   4  10 -12    3.13    1.05
   3  10 -12   11.87    1.85
   2  10 -12    0.81    1.51
   2  10 -12    0.59    0.76
   0  10 -12   12.36    2.45
   0  10 -12   11.77    1.59
  -1  10 -12   11.05    1.46
  -1  10 -12    6.56    2.27
  -2  10 -12   15.90    3.10
  -3  10 -12   10.49    2.99
  -4  10 -12    4.20    2.60
  -5  10 -12   -0.58    2.47
   6  10 -11   -0.82    1.12
   5  10 -11    7.40    1.79
   4  10 -11    8.78    1.64
   3  10 -11   91.63    4.46
   3  10 -11   80.19    4.55
   2  10 -11   20.13    2.05
   2  10 -11   16.65    2.40
   1  10 -11    8.56    1.46
   0  10 -11    3.14    1.83
   0  10 -11    5.09    1.13
  -1  10 -11   53.20    2.73
  -1  10 -11   49.70    4.15
  -2  10 -11   33.75    4.07
  -3  10 -11   16.43    3.34
  -4  10 -11   15.05    3.64
  -5  10 -11   -1.77    1.82
   6  10 -10    2.42    1.36
   5  10 -10    2.83    1.38
   4  10 -10    4.78    1.21
   3  10 -10   50.58    3.49
   3  10 -10   50.70    3.04
   2  10 -10   12.07    1.65
   2  10 -10    9.90    1.99
   1  10 -10   19.36    2.56
   1  10 -10   18.99    1.73
   0  10 -10    5.07    1.04
   0  10 -10    4.73    1.77
  -1  10 -10   11.90    2.47
  -1  10 -10   11.39    1.35
  -2  10 -10    4.93    2.03
  -3  10 -10   -0.02    1.56
  -4  10 -10    4.28    2.52
  -5  10 -10   16.25    3.47
   6  10  -9    0.50    1.21
   5  10  -9    2.57    1.33
   4  10  -9   35.65    2.63
   4  10  -9   38.47    3.10
   3  10  -9    0.93    1.28
   3  10  -9    1.12    0.71
   2  10  -9    3.51    1.08
   1  10  -9   77.90    3.55
   1  10  -9   80.40    4.50
   0  10  -9   24.89    2.81
   0  10  -9   21.66    1.62
  -1  10  -9   25.74    3.10
  -1  10  -9   21.46    1.52
  -2  10  -9    4.26    1.90
  -3  10  -9   16.85    3.23
  -4  10  -9    3.29    1.92
  -5  10  -9    1.84    1.65
   6  10  -8    2.76    1.28
   5  10  -8    3.92    1.40
   4  10  -8   20.40    2.30
   2  10  -8   21.30    1.98
   2  10  -8   23.77    2.35
   1  10  -8    0.67    0.60
   1  10  -8    0.38    1.16
   0  10  -8    9.57    1.15
   0  10  -8    6.12    1.69
  -1  10  -8    7.03    1.89
  -1  10  -8    8.97    1.04
  -2  10  -8   19.92    2.95
  -3  10  -8   54.95    4.59
  -4  10  -8   23.69    3.72
  -5  10  -8    0.24    1.18
  -6  10  -8   -1.64    1.14
   7  10  -7    0.07    1.95
   6  10  -7    3.60    1.49
   5  10  -7    7.51    1.71
   4  10  -7    1.90    1.29
   4  10  -7    4.09    1.14
   3  10  -7   24.37    2.47
   3  10  -7   25.15    1.96
   2  10  -7    8.58    1.28
   2  10  -7   10.54    1.76
   1  10  -7   48.66    3.15
   1  10  -7   46.83    2.42
   0  10  -7   11.12    1.90
   0  10  -7   10.66    1.12
  -1  10  -7  103.00    3.50
  -1  10  -7   96.68    5.40
  -2  10  -7    2.94    1.53
  -3  10  -7    2.74    1.54
  -4  10  -7    4.37    1.80
  -5  10  -7    4.33    1.64
  -6  10  -7    0.52    1.28
   6  10  -6    5.29    1.51
   5  10  -6    7.26    1.71
   4  10  -6   18.41    2.02
   4  10  -6   16.07    2.54
   3  10  -6    0.94    0.62
   3  10  -6    0.69    1.27
   2  10  -6    9.43    1.27
   2  10  -6    9.73    1.75
   1  10  -6   66.30    2.95
   1  10  -6   68.99    3.99
   0  10  -6    8.48    0.93
  -1  10  -6  122.11    6.14
  -1  10  -6  129.17    4.06
  -2  10  -6   84.93    5.21
  -3  10  -6   45.87    3.92
  -4  10  -6    0.48    1.08
  -5  10  -6   10.97    2.53
  -6  10  -6   -0.40    1.06
  -7 -10   5    2.73    0.99
  -7 -10   5    1.77    1.04
   6  10  -5    6.26    1.73
   5  10  -5   27.25    2.77
   4  10  -5   22.73    2.06
   3  10  -5   12.83    1.54
   3  10  -5   14.59    2.15
   2  10  -5   17.15    1.61
   2  10  -5   19.28    2.12
   1  10  -5   24.11    2.49
   1  10  -5   20.92    1.46
   0  10  -5    3.37    0.63
   0  10  -5    2.43    1.68
  -1  10  -5   40.11    1.63
  -1  10  -5   44.52    3.40
  -2  10  -5   21.04    2.74
  -3  10  -5  113.38    6.50
  -4  10  -5    5.45    1.91
  -5  10  -5    3.69    1.66
  -6  10  -5  853.83   33.22
  -7 -10   4    0.65    0.73
  -7 -10   4    1.80    1.04
   5  10  -4   13.83    2.23
   4  10  -4   -0.29    0.72
   3  10  -4   16.15    2.23
   3  10  -4   18.06    1.80
   2  10  -4   16.55    1.55
   2  10  -4   14.30    2.02
   1  10  -4   18.61    2.20
   1  10  -4   14.72    1.23
   0  10  -4    0.87    1.50
   0  10  -4    2.89    0.57
  -1  10  -4    9.83    2.01
  -2  10  -4   22.92    2.52
  -3  10  -4   26.01    3.19
  -4  10  -4   49.13    4.27
  -5  10  -4    4.76    1.65
  -6  10  -4    0.18    1.15
  -7 -10   3    1.05    0.88
  -7 -10   3    0.81    0.88
  -6 -10   3    3.47    1.31
  -6 -10   3    3.85    1.29
   4  10  -3    2.48    1.11
   3  10  -3    1.94    1.10
   3  10  -3    1.93    0.86
   2  10  -3   16.32    1.45
   1  10  -3   51.05    3.27
   1  10  -3   50.57    2.29
   0  10  -3   87.16    2.98
   0  10  -3   89.26    4.37
  -1  10  -3   55.29    3.46
  -2  10  -3   48.81    3.50
  -3  10  -3    4.36    1.43
  -4  10  -3   29.82    3.61
  -5  10  -3    4.26    1.66
  -6  10  -3    1.39    1.34
  -7  10  -3    0.54    1.56
  -7 -10   2    2.84    1.24
  -7 -10   2    2.79    1.35
  -6 -10   2    2.49    1.00
  -6 -10   2    1.22    0.91
  -5 -10   2   14.70    2.31
  -5 -10   2   14.61    2.58
   3  10  -2   19.42    1.75
   3  10  -2   21.69    2.46
   2  10  -2   45.26    3.16
   2  10  -2   45.26    2.36
   1  10  -2   11.69    1.11
   1  10  -2   11.86    1.82
   0  10  -2   16.23    1.01
   0  10  -2   18.63    1.96
  -1  10  -2   19.80    2.43
  -2  10  -2  105.58    5.46
  -3  10  -2    1.31    1.26
  -4  10  -2   27.24    2.98
  -5  10  -2    8.91    2.28
  -6  10  -2    2.37    1.68
  -7  10  -2    0.32    2.03
  -7 -10   1   -0.49    0.79
  -7 -10   1    3.20    1.30
  -6 -10   1    5.42    1.42
  -6 -10   1    4.97    1.59
  -5 -10   1    6.91    1.73
  -5 -10   1   10.99    2.15
  -4 -10   1   31.22    2.85
  -4 -10   1   33.07    3.46
  -3 -10   1    4.73    1.50
   3  10  -1    6.83    1.68
   2  10  -1   34.93    2.78
   1  10  -1   18.52    1.96
   0 -10   1  274.92    8.35
   0  10  -1  280.28   17.56
   0 -10   1  276.75    8.63
   0  10  -1  281.63   10.11
  -1  10  -1    6.08    1.37
  -2  10  -1   53.04    3.49
  -3  10  -1    7.63    1.83
  -4  10  -1    2.78    1.44
  -5  10  -1    5.08    1.87
  -6  10  -1    5.95    2.17
  -7 -10   0    0.68    0.92
  -6 -10   0    6.67    1.83
  -6 -10   0    7.27    1.92
  -5 -10   0    7.80    2.05
  -5 -10   0   11.88    2.23
  -4 -10   0    0.38    0.86
  -4 -10   0    2.51    1.05
  -3 -10   0    3.27    1.24
  -3 -10   0    1.11    0.97
   2  10   0   21.30    2.26
  -2 -10   0   21.57    2.19
  -2 -10   0   20.81    2.26
   1  10   0   30.18    2.22
  -1 -10   0   31.00    2.19
  -1 -10   0   28.05    2.03
   0  10   0   57.88    6.72
   0  10   0   61.24    3.23
   0 -10   0   60.32    2.62
  -1  10   0   36.99    2.49
  -2  10   0   24.53    2.33
  -3  10   0    4.87    1.52
  -4  10   0    1.66    1.29
  -5  10   0   19.21    3.21
  -6  10   0    7.60    2.37
  -7 -10  -1   -0.30    0.90
  -6 -10  -1    3.47    1.43
  -5 -10  -1    6.14    1.65
  -4 -10  -1    3.58    1.32
  -4 -10  -1    2.37    0.93
  -3 -10  -1    6.48    1.70
  -3 -10  -1    6.15    1.50
  -2 -10  -1   46.60    3.07
   2  10   1   46.27    3.25
  -2 -10  -1   43.23    2.88
  -1 -10  -1    2.51    0.97
   1  10   1    3.55    1.31
   1  10   1    7.16    5.09
   0 -10  -1  283.06    8.53
   0  10   1  269.67   17.66
   0  10   1  283.28   10.06
  -1  10   1   22.86    7.08
  -1  10   1   15.86    1.73
   1 -10  -1   16.57    0.89
  -2  10   1   42.02    2.87
  -3  10   1    7.99    1.67
  -4  10   1   42.13    3.58
  -5  10   1   16.30    2.89
  -7 -10  -2    2.58    1.26
  -6 -10  -2   -0.68    0.85
  -5 -10  -2    5.82    1.61
  -4 -10  -2   24.36    2.80
  -3 -10  -2    0.16    0.56
   2  10   2   86.36    4.55
  -2 -10  -2   90.33    4.37
   1  10   2   27.84    2.50
  -1 -10  -2   18.10    1.86
   1  10   2   35.51    7.94
   0  10   2   17.75    1.81
   0 -10  -2   15.81    1.41
  -2  10   2   57.84   12.15
  -2  10   2   50.48    3.08
   2 -10  -2   48.83    1.82
  -3  10   2   20.71    2.13
  -4  10   2   20.91    2.75
  -5  10   2   25.44    3.34
  -7  10   2    5.72    7.02
  -6 -10  -3    0.22    0.84
  -5 -10  -3    3.44    1.37
  -4 -10  -3   21.93    2.74
  -3 -10  -3    3.15    1.04
  -2 -10  -3   44.00    2.96
  -1 -10  -3   45.16    2.74
   1  10   3   49.56    3.06
   1  10   3   65.45    8.63
   0  10   3   82.38    3.94
   0  10   3   95.26    8.89
  -1  10   3   54.52    3.08
   1 -10  -3   58.86    2.30
   2 -10  -3   19.56    1.16
  -2  10   3   28.21   10.39
  -2  10   3   25.54    2.21
   3 -10  -3    1.64    0.48
  -3  10   3    1.00    0.94
  -3  10   3    0.81    6.59
  -4  10   3    2.94    1.34
  -4  10   3    1.43    9.19
  -5  10   3   11.03    9.67
  -6  10   3    1.59    6.21
  -7  10   3    4.11    6.72
  -6 -10  -4    0.53    0.92
  -5 -10  -4    5.89    1.46
  -4 -10  -4   42.88    3.43
  -3 -10  -4   24.81    2.63
  -2 -10  -4   20.16    2.15
   1  10   4    8.56    1.66
  -1 -10  -4    5.49    1.19
  -1  10   4   16.47    1.91
   1 -10  -4   16.17    1.18
  -2  10   4   14.80    1.62
  -2  10   4   28.06    8.73
   2 -10  -4   12.24    1.00
  -3  10   4   22.95    9.12
  -3  10   4   17.61    1.93
   3 -10  -4   16.37    1.19
  -4  10   4   -0.19    0.97
  -4  10   4   -4.87    8.09
  -5  10   4    5.68    8.02
  -6  10   4    3.34    6.54
  -7  10   4    2.88    6.94
  -6 -10  -5    2.89    1.16
  -5 -10  -5    4.06    1.30
  -4 -10  -5    7.95    1.73
  -3 -10  -5   95.55    4.98
  -2 -10  -5   25.48    2.43
  -1 -10  -5   31.26    2.27
   1  10   5   29.41    2.44
   0 -10  -5    2.26    0.74
   0  10   5    2.24    1.59
   0  10   5  -15.51    8.86
   1 -10  -5   20.59    1.38
  -1  10   5   19.42    1.81
  -1  10   5   43.43   10.75
   2 -10  -5   17.27    1.21
  -2  10   5   28.65    8.28
  -2  10   5   14.82    1.52
  -3  10   5   19.95    9.09
  -3  10   5   13.00    1.77
   3 -10  -5   13.59    1.14
  -4  10   5   16.60   10.74
  -5  10   5   12.05    8.18
  -6  10   5    3.90    6.67
  -7  10   5    0.73    6.41
  -6 -10  -6    4.39    1.34
  -5 -10  -6   12.74    2.38
  -4 -10  -6    1.01    0.77
  -3 -10  -6   40.51    3.06
  -2 -10  -6   78.93    4.19
  -1 -10  -6  112.86    4.97
   0  10   6   13.68   10.28
   0 -10  -6    9.99    1.33
   0  10   6    8.85    1.59
  -1  10   6   87.01   11.37
  -1  10   6   69.18    3.27
   1 -10  -6   65.26    2.91
   2 -10  -6    9.55    1.05
  -2  10   6   13.64    7.93
  -2  10   6    7.70    1.14
  -3  10   6    6.51    7.99
  -4  10   6   20.97   11.06
  -5  10   6   -3.54    7.63
  -6  10   6    0.35    6.78
  -7  10   6   -1.52    7.72
  -6 -10  -7   -0.51    0.87
  -5 -10  -7    6.01    1.62
  -4 -10  -7    2.13    0.88
  -3 -10  -7    1.73    0.75
  -2 -10  -7    3.12    1.12
  -1 -10  -7  101.39    4.76
   0  10   7   11.74    8.69
   0 -10  -7    9.00    1.30
  -1  10   7   42.41    7.91
   1 -10  -7   43.35    2.30
  -1  10   7   42.27    2.23
  -2  10   7   16.00    7.65
  -2  10   7   10.02    1.18
   2 -10  -7   11.61    1.18
   3 -10  -7   24.19    1.76
  -3  10   7   29.28   11.13
  -4  10   7    3.04    8.91
  -5  10   7    1.75    8.13
  -6  10   7   -5.66    6.87
  -7  10   7  -10.17    7.98
  -6 -10  -8    1.54    1.27
  -5 -10  -8    0.84    0.80
  -4 -10  -8   19.47    2.63
  -3 -10  -8   55.03    3.65
  -2 -10  -8   14.16    2.02
  -1 -10  -8    5.39    1.32
   0 -10  -8    6.78    1.26
   0  10   8   18.88    9.38
  -1  10   8    1.32    0.67
   1 -10  -8    1.11    0.58
  -1  10   8    4.48    5.66
  -2  10   8   27.27   10.02
   2 -10  -8   19.36    1.50
   3 -10  -8   74.43    3.47
  -3  10   8   70.04   12.24
   4 -10  -8   22.65    1.79
  -4  10   8   22.15   10.18
  -5  10   8    4.25    7.85
  -6  10   8   -4.95    6.25
  -7  10   8   -8.37    7.12
  -6 -10  -9    1.04    1.08
  -5 -10  -9    0.28    0.73
  -4 -10  -9    2.16    0.86
  -3 -10  -9   13.57    2.17
  -2 -10  -9    1.73    0.86
  -1 -10  -9   18.13    2.10
   0  10   9   28.17   11.79
   0 -10  -9   25.06    2.05
   1 -10  -9   69.96    3.34
  -1  10   9   67.22   10.54
  -2  10   9    9.26    8.53
   2 -10  -9    4.79    0.98
   3 -10  -9   -0.34    0.34
  -3  10   9   -0.71    7.73
  -4  10   9   19.59   10.09
   4 -10  -9   42.94    2.60
  -5  10   9    6.57    7.06
  -6  10   9   -1.19    6.94
  -7  10   9    1.98    8.81
  -4 -10 -10    3.79    1.29
  -3 -10 -10    2.15    0.93
  -2 -10 -10    5.55    1.37
  -1 -10 -10   11.27    1.78
   0  10  10   -0.82   10.65
   0 -10 -10    1.67    0.87
  -1  10  10   18.76   13.02
   1 -10 -10   17.27    1.76
  -2  10  10   13.84    8.98
   2 -10 -10   10.47    1.37
   3 -10 -10   50.73    2.88
  -3  10  10   44.63   13.82
  -4  10  10    3.39    7.83
   4 -10 -10    2.76    0.84
  -5  10  10    0.85    7.03
  -6  10  10    1.90    6.95
  -5 -10 -11    4.98    1.31
  -4 -10 -11   10.18    1.97
  -3 -10 -11   12.32    2.11
  -2 -10 -11   33.28    2.72
  -1 -10 -11   44.45    3.14
   0 -10 -11    3.22    1.04
  -1  10  11   46.30   16.16
   2 -10 -11   16.69    1.73
  -2  10  11   23.53   10.59
  -3  10  11   83.72   12.87
   3 -10 -11   86.38    4.14
   4 -10 -11    6.77    1.33
  -4  10  11    5.07    8.04
  -5  10  11    1.14    6.29
  -6  10  11    2.38    7.05
  -5 -10 -12    1.22    0.96
  -4 -10 -12    3.01    1.03
  -3 -10 -12   12.77    2.09
  -2 -10 -12   15.01    2.21
  -1 -10 -12    7.20    1.66
   0 -10 -12   12.52    1.80
   1 -10 -12   29.74    2.24
  -1  10  12   29.30   16.31
  -2  10  12    0.00   10.92
   2 -10 -12   -0.20    0.51
   3 -10 -12   12.17    1.75
  -3  10  12   16.28   10.82
  -4  10  12    7.20    8.84
   4 -10 -12    2.86    1.06
  -5  10  12    1.02    6.38
  -6  10  12    0.02    6.89
  -4 -10 -13    1.90    1.07
  -3 -10 -13    2.90    0.98
  -2 -10 -13   12.69    2.08
  -1 -10 -13   11.12    1.95
   0 -10 -13    4.13    1.13
  -1  10  13   71.06   18.12
   1 -10 -13   61.55    3.52
  -2  10  13   37.08   14.88
   2 -10 -13   39.21    2.63
  -3  10  13   12.16    8.66
   3 -10 -13   14.30    1.87
  -4  10  13    2.26    9.29
   4 -10 -13    6.35    1.50
  -5  10  13    0.74    6.79
  -6  10  13    6.43    6.58
  -4 -10 -14    3.72    1.19
  -3 -10 -14    5.60    1.24
  -2 -10 -14    9.44    1.91
  -1 -10 -14   10.70    2.03
   0 -10 -14   -0.04    0.64
   1 -10 -14    8.73    1.64
  -1  10  14   12.33   13.60
  -2  10  14   -3.37   10.06
   2 -10 -14    1.67    0.81
   3 -10 -14    1.96    0.88
  -3  10  14   -0.12    9.29
   4 -10 -14    4.55    1.29
  -4  10  14   -0.44    7.34
  -5  10  14   -0.57    8.34
  -6  10  14    2.25    7.55
  -4 -10 -15    1.36    1.01
  -3 -10 -15    1.06    0.89
  -2 -10 -15    5.55    1.43
  -1 -10 -15   30.67    2.71
   0 -10 -15    7.84    1.63
   1 -10 -15    1.18    0.84
   2 -10 -15    7.40    1.51
  -2  10  15    1.08   10.81
  -3  10  15    6.11    9.64
   3 -10 -15   10.59    1.80
  -4  10  15    6.18    7.88
   4 -10 -15   12.01    1.97
  -5  10  15   -0.43    8.37
  -6  10  15   -9.96   11.88
  -3 -10 -16    4.65    1.42
  -2 -10 -16    3.09    1.16
  -1 -10 -16   14.72    2.27
   0 -10 -16   15.13    2.22
   1 -10 -16    0.45    0.66
  -2  10  16    8.20   10.47
  -3  10  16    5.03    8.85
   3 -10 -16   10.31    1.88
  -4  10  16   -0.01    8.16
  -5  10  16    2.26    7.31
  -3 -10 -17    7.44    1.84
  -1 -10 -17    2.98    1.16
   0 -10 -17    6.38    1.62
   1 -10 -17    1.67    0.96
   2 -10 -17    5.21    1.41
  -2  10  17   14.71   10.32
   3 -10 -17    2.12    1.00
  -3  10  17   -2.95    6.75
  -5  10  17   -7.19    7.18
   5 -10 -17    3.71    1.46
  -2 -10 -18    1.40    0.87
  -1 -10 -18    0.02    0.77
   0 -10 -18    3.68    1.40
   1 -10 -18   -0.17    0.80
   2 -10 -18   16.70    2.36
   3 -10 -18    1.33    1.07
  -3  10  18   -6.41    8.00
  -4  10  18    0.58    7.34
   4 -10 -18    2.89    1.37
   5 -10 -18    2.55    1.97
  -1 -10 -19    0.93    0.90
   0 -10 -19    0.14    1.02
   1 -10 -19    1.73    1.02
   2 -10 -19    8.78    1.87
  -3  10  19   -5.18    9.13
   3 -10 -19    3.26    1.37
   4 -10 -19    7.12    2.07
  -4  10  19   -0.80    7.46
   0 -10 -20    0.17    1.37
   1 -10 -20   -0.21    0.84
   2 -10 -20   -0.50    0.94
   3 -10 -20    5.42    1.94
   2  11 -21    4.51    1.42
   3  11 -20    0.39    1.04
   2  11 -20    5.35    1.47
   1  11 -20    3.83    1.49
   3  11 -19    2.15    1.07
   2  11 -19    6.47    1.45
   1  11 -19    3.23    1.37
   4  11 -18   -0.31    0.73
   2  11 -18    5.42    1.36
   1  11 -18    8.21    1.85
  -2  11 -18   -0.53    2.30
   4  11 -17   -0.84    0.78
   3  11 -17    6.76    1.50
   2  11 -17    0.28    0.89
   1  11 -17    5.34    1.57
  -1  11 -17    1.18    1.93
  -2  11 -17    9.47    3.14
  -3  11 -17   -1.21    2.36
   5  11 -16    1.09    0.93
   3  11 -16    2.09    0.96
   2  11 -16   11.43    1.85
   1  11 -16   19.23    2.37
   0  11 -16    6.39    1.45
   0  11 -16    4.25    2.00
  -1  11 -16    4.27    2.21
  -2  11 -16    4.47    2.52
  -3  11 -16    1.37    2.34
   5  11 -15    0.91    0.78
   4  11 -15    1.57    0.84
   3  11 -15    8.71    1.65
   2  11 -15    2.25    1.15
   1  11 -15   49.41    3.21
   0  11 -15    6.63    2.22
   0  11 -15    3.83    1.17
  -1  11 -15    7.66    2.56
  -2  11 -15    3.47    2.22
  -3  11 -15    3.15    2.42
  -4  11 -15   -1.41    2.02
   5  11 -14    2.28    0.91
   4  11 -14    2.87    0.99
   3  11 -14   10.16    1.77
   2  11 -14    6.85    1.51
   1  11 -14    2.81    1.11
   1  11 -14    0.74    1.64
   0  11 -14    7.08    2.27
   0  11 -14    6.47    1.29
  -1  11 -14   14.51    3.06
  -2  11 -14    5.41    2.44
  -3  11 -14    7.69    2.79
  -4  11 -14   -0.39    1.65
   5  11 -13    4.24    1.28
   4  11 -13    1.73    0.87
   3  11 -13   16.93    2.05
   2  11 -13   25.69    3.00
   2  11 -13   25.01    2.21
   1  11 -13   20.41    2.21
   0  11 -13    8.77    2.37
   0  11 -13    9.82    1.48
  -1  11 -13   28.57    3.68
  -2  11 -13    6.76    2.41
  -3  11 -13    3.73    2.33
  -4  11 -13   -0.13    2.10
   6  11 -12   -0.08    1.36
   5  11 -12    4.70    1.28
   4  11 -12    1.65    0.93
   3  11 -12   11.43    1.79
   2  11 -12   22.59    2.24
   2  11 -12   25.44    2.90
   1  11 -12   11.06    2.29
   1  11 -12   11.39    1.72
   0  11 -12    3.63    1.11
   0  11 -12    5.74    2.10
  -1  11 -12   26.31    3.49
  -2  11 -12   11.28    2.83
  -3  11 -12    6.22    2.44
  -4  11 -12    5.67    2.67
   6  11 -11   -0.12    1.09
   5  11 -11   10.27    1.95
   4  11 -11    3.73    1.11
   3  11 -11    5.95    1.34
   3  11 -11    6.06    1.78
   2  11 -11   19.32    2.03
   2  11 -11   17.14    2.44
   1  11 -11   34.11    3.21
   1  11 -11   34.94    2.37
   0  11 -11    5.61    1.16
   0  11 -11    3.69    1.82
  -1  11 -11   20.82    3.21
  -2  11 -11    4.50    2.22
  -3  11 -11    4.50    2.00
  -4  11 -11   17.67    3.88
  -5  11 -11   -2.05    1.90
   6  11 -10    1.39    1.29
   5  11 -10    9.20    1.65
   4  11 -10   10.17    1.69
   4  11 -10    9.32    1.88
   3  11 -10   38.33    3.14
   3  11 -10   42.19    2.77
   2  11 -10    0.63    0.47
   2  11 -10    0.20    0.59
   1  11 -10    4.10    1.08
   1  11 -10    5.24    1.86
   0  11 -10    2.75    1.65
   0  11 -10    4.19    1.02
  -1  11 -10    5.55    2.14
  -2  11 -10   28.46    3.79
  -3  11 -10   33.98    4.32
  -4  11 -10    0.31    2.39
  -5  11 -10   -2.30    1.17
   6  11  -9    0.06    1.21
   5  11  -9   -0.05    1.08
   4  11  -9    8.83    1.89
   4  11  -9   12.18    1.84
   2  11  -9   17.07    2.39
   2  11  -9   17.29    1.84
   1  11  -9    7.98    1.23
   1  11  -9    9.65    2.09
   0  11  -9   19.24    1.60
   0  11  -9   22.42    2.85
  -1  11  -9   57.20    2.56
  -1  11  -9   52.29    4.16
  -2  11  -9   -1.50    1.30
  -3  11  -9   69.39    5.40
  -4  11  -9    2.08    1.76
  -5  11  -9   11.38    2.85
   6  11  -8    1.84    1.23
   5  11  -8   15.30    2.29
   4  11  -8    1.91    1.00
   4  11  -8    4.24    1.30
   3  11  -8   11.71    2.11
   3  11  -8   13.11    1.72
   2  11  -8   16.69    2.35
   2  11  -8   13.31    1.60
   1  11  -8   13.86    2.10
   0  11  -8    2.15    1.44
   0  11  -8    2.28    0.69
  -1  11  -8   42.77    2.05
  -1  11  -8   43.21    3.66
  -2  11  -8   22.21    3.20
  -3  11  -8    1.65    1.75
  -4  11  -8   16.96    3.40
  -5  11  -8    8.23    2.39
   6  11  -7   17.69    2.55
   5  11  -7    5.37    1.60
   4  11  -7   13.88    2.33
   4  11  -7   15.60    1.99
   3  11  -7   40.06    3.18
   3  11  -7   38.77    2.52
   2  11  -7    2.75    1.36
   2  11  -7    2.82    0.93
   1  11  -7    2.87    0.82
   1  11  -7    3.33    1.41
   0  11  -7   10.86    1.11
   0  11  -7    9.48    1.96
  -1  11  -7    4.72    1.73
  -1  11  -7    3.28    0.63
  -2  11  -7   24.89    3.23
  -3  11  -7   68.60    5.11
  -4  11  -7   11.62    2.93
  -5  11  -7    2.79    1.55
  -6  11  -7    1.62    1.48
   6  11  -6   15.03    2.46
   5  11  -6    2.53    1.25
   4  11  -6    8.19    1.54
   4  11  -6    8.28    1.99
   3  11  -6    1.53    0.80
   3  11  -6    1.24    1.40
   2  11  -6   17.12    1.57
   2  11  -6   21.03    2.35
   1  11  -6   46.51    2.37
   1  11  -6   46.94    3.21
   0  11  -6   34.17    2.90
   0  11  -6   33.81    1.76
  -1  11  -6   48.44    3.58
  -1  11  -6   51.63    2.03
  -2  11  -6    9.66    2.18
  -3  11  -6   33.89    3.44
  -4  11  -6    3.82    1.73
  -5  11  -6    1.24    1.40
  -6  11  -6   -1.28    1.13
  -7 -11   5    1.82    0.87
  -7 -11   5   -0.10    0.98
   6  11  -5    5.45    1.81
   5  11  -5    1.73    1.15
   4  11  -5    1.33    1.44
   4  11  -5    1.15    0.75
   3  11  -5    4.00    1.00
   3  11  -5    1.48    1.34
   2  11  -5   13.06    1.92
   2  11  -5   11.66    1.43
   1  11  -5   17.47    2.52
   1  11  -5   18.24    1.39
   0  11  -5    3.64    1.60
   0  11  -5    5.21    0.76
  -1  11  -5  117.57    5.82
  -2  11  -5   14.24    2.35
  -3  11  -5   27.88    3.46
  -4  11  -5    7.69    2.23
  -5  11  -5    6.40    2.10
  -6  11  -5   -0.43    1.10
  -7 -11   4    3.74    1.30
  -7 -11   4    8.69    1.90
  -6 -11   4    1.81    0.88
  -6 -11   4    0.22    0.82
   5  11  -4    3.48    1.42
   4  11  -4   21.68    2.18
   3  11  -4    2.34    0.79
   3  11  -4    2.19    1.41
   2  11  -4   39.77    2.26
   2  11  -4   35.03    2.71
   1  11  -4   52.76    2.46
   1  11  -4   54.01    3.43
   0  11  -4    9.16    0.90
   0  11  -4    9.09    2.11
  -1  11  -4   27.09    2.83
  -2  11  -4   23.71    2.83
  -3  11  -4   12.18    2.46
  -4  11  -4    3.34    1.62
  -5  11  -4    3.21    1.69
  -6  11  -4   -0.61    1.22
  -7 -11   3   -0.69    0.84
  -7 -11   3   -0.25    0.83
  -6 -11   3    6.24    1.63
  -6 -11   3    7.64    1.67
   4  11  -3   19.45    2.16
   3  11  -3    4.24    0.98
   3  11  -3    3.31    1.51
   2  11  -3   31.88    2.02
   2  11  -3   32.31    2.59
   1  11  -3   34.33    1.88
   1  11  -3   38.91    3.07
   0  11  -3  139.14    4.37
   0  11  -3  138.19    6.12
  -1  11  -3   21.08    2.46
  -2  11  -3   16.61    2.32
  -3  11  -3    0.86    1.20
  -4  11  -3   12.20    2.66
  -5  11  -3   -0.78    1.11
  -6  11  -3    5.65    2.24
  -7  11  -3   -2.03    1.95
  -7 -11   2   -0.42    1.01
  -7 -11   2    1.69    1.18
  -6 -11   2    4.58    1.64
  -6 -11   2    5.76    1.66
  -5 -11   2    6.41    1.66
  -5 -11   2    7.22    1.65
   3  11  -2    2.86    1.48
   3  11  -2    1.59    0.71
   2  11  -2    5.16    1.04
   2  11  -2    6.80    1.57
   1  11  -2   23.19    1.49
   1  11  -2   23.36    2.29
   0  11  -2  162.10    6.88
  -1  11  -2  153.21    6.72
  -2  11  -2   27.73    2.58
  -3  11  -2    2.75    1.58
  -4  11  -2    4.24    1.86
  -5  11  -2    4.62    1.84
  -6  11  -2    1.14    1.42
  -7  11  -2    1.29    2.86
  -7 -11   1    2.70    1.11
  -6 -11   1   10.04    2.07
  -6 -11   1    8.23    2.09
  -5 -11   1    6.37    1.79
  -5 -11   1    5.62    1.58
  -4 -11   1    2.90    1.29
  -4 -11   1    4.60    1.26
  -3 -11   1    2.45    1.23
  -3 -11   1    3.43    1.25
   3  11  -1    1.70    1.33
  -2 -11   1  220.83    8.82
   2  11  -1  234.94    9.20
  -2 -11   1  231.92    8.56
  -1 -11   1   47.06    2.69
  -1 -11   1   45.88    2.84
   1  11  -1   43.83    2.97
   0  11  -1  219.33    8.45
   0 -11   1  225.33    7.18
   0 -11   1  221.69    6.91
   0  11  -1  208.80   15.19
  -1  11  -1   13.08    1.90
  -2  11  -1   10.57    1.82
  -3  11  -1    9.35    2.03
  -4  11  -1   28.50    3.42
  -5  11  -1   13.92    2.87
  -6  11  -1    7.32    2.53
  -7 -11   0    0.99    1.03
  -6 -11   0    0.78    1.01
  -6 -11   0    3.18    1.18
  -5 -11   0    6.23    1.63
  -5 -11   0    2.84    1.33
  -4 -11   0   14.74    2.31
  -4 -11   0   19.17    2.79
  -3 -11   0    5.71    1.44
  -3 -11   0    9.30    1.93
   3  11   0    9.10    1.97
  -2 -11   0   31.15    2.60
   2  11   0   33.59    2.66
  -2 -11   0   34.70    2.60
  -1 -11   0   41.14    2.45
   1  11   0   35.62    2.70
  -1 -11   0   38.26    2.51
  -1  11   0   41.83    2.90
  -2  11   0   38.90    2.88
  -3  11   0   11.35    2.14
  -4  11   0   24.82    3.15
  -5  11   0    7.23    2.19
  -6  11   0    2.26    1.77
  -6 -11  -1    9.44    2.09
  -5 -11  -1    9.07    1.97
  -4 -11  -1   22.37    2.96
  -4 -11  -1   17.17    2.57
  -3 -11  -1    6.82    1.54
  -3 -11  -1    5.55    1.55
  -2 -11  -1    9.64    1.72
  -2 -11  -1    9.49    1.65
   2  11   1    7.92    1.64
   1  11   1   12.37    1.88
  -1 -11  -1   12.49    1.56
   1  11   1   13.51    6.68
   0 -11  -1  227.72    7.22
   0  11   1  223.25    8.60
   1 -11  -1   43.64    1.71
  -1  11   1   44.59    2.84
  -1  11   1   45.48    8.52
  -2  11   1  234.97    9.13
  -3  11   1    4.30    1.47
  -4  11   1    4.51    1.56
  -5  11   1    7.84    2.33
  -6 -11  -2    3.73    1.31
  -5 -11  -2    5.31    1.51
  -4 -11  -2    5.27    1.50
  -3 -11  -2    2.33    1.05
  -2 -11  -2   25.42    2.22
   2  11   2   26.81    2.40
  -1 -11  -2  143.14    5.70
   1  11   2  141.91    6.32
   1  11   2  152.48   12.28
   0  11   2  101.29    4.77
   0 -11  -2  101.39    3.91
   1 -11  -2   21.66    1.22
  -1  11   2   23.94    2.16
  -1  11   2   45.25    9.04
   2 -11  -2    5.62    0.57
  -2  11   2   -2.19    6.70
  -2  11   2    5.42    1.32
  -3  11   2    1.39    1.20
  -4  11   2   47.13    3.70
  -5  11   2   12.59    2.55
  -7  11   2    6.10    7.35
  -6 -11  -3   16.26    2.96
  -5 -11  -3    0.66    0.93
  -4 -11  -3    6.05    1.63
  -3 -11  -3    0.34    0.77
  -2 -11  -3   18.24    2.15
   2  11   3   14.72    2.12
   1  11   3   19.83    2.15
  -1 -11  -3   18.72    1.89
   1  11   3   38.95    9.30
   0  11   3  127.80   10.99
   0  11   3  137.31    5.63
  -1  11   3   47.69    2.81
   1 -11  -3   35.67    1.79
  -2  11   3   53.03    9.81
   2 -11  -3   40.49    1.72
  -2  11   3   36.20    2.50
  -3  11   3   -0.13    8.20
  -3  11   3    6.23    1.59
  -4  11   3   20.94    2.67
  -4  11   3   21.16   11.95
  -5  11   3    1.89    8.32
  -6  11   3   11.18    7.33
  -7  11   3    8.49    7.02
  -6 -11  -4    1.75    0.95
  -5 -11  -4    5.04    1.42
  -4 -11  -4    0.47    0.68
  -3 -11  -4    5.21    1.38
  -2 -11  -4   14.05    1.92
   1 -11  -4   52.07    2.35
  -1  11   4   73.32   10.53
  -1  11   4   53.67    3.08
  -2  11   4   40.96    2.55
  -2  11   4   53.87   10.14
   2 -11  -4   39.75    1.82
  -3  11   4   -0.93    7.39
   3 -11  -4    2.14    0.56
  -3  11   4    1.59    1.15
  -4  11   4   24.26   11.77
  -4  11   4   19.23    2.51
  -5  11   4    1.19    7.86
  -6  11   4    1.88    5.91
  -7  11   4   12.69    7.34
  -6 -11  -5    2.20    1.00
  -5 -11  -5    5.09    1.47
  -4 -11  -5    9.25    1.77
  -3 -11  -5   19.66    2.39
  -2 -11  -5   10.15    1.78
  -1 -11  -5  112.75    4.93
   1  11   5  114.04    5.18
   0  11   5    5.97    1.60
   0 -11  -5    4.14    0.99
  -1  11   5   23.75   10.58
  -1  11   5   19.61    1.97
   1 -11  -5   21.35    1.47
   2 -11  -5   12.57    1.03
  -2  11   5   12.11    1.54
  -2  11   5   21.05    8.11
  -3  11   5    2.53    1.21
  -3  11   5    7.80    7.53
   3 -11  -5    2.65    0.70
  -4  11   5    0.37    9.25
  -5  11   5    3.65    8.06
  -6  11   5    3.34    6.28
  -7  11   5    1.57    6.10
  -6 -11  -6    5.74    1.63
  -5 -11  -6    2.02    0.91
  -4 -11  -6    4.69    1.33
  -3 -11  -6   30.58    2.67
  -2 -11  -6   10.89    1.82
  -1 -11  -6   44.24    2.91
   0  11   6   49.06   10.69
   0  11   6   28.61    2.13
   0 -11  -6   29.97    2.09
  -1  11   6   44.75    7.66
  -1  11   6   41.12    2.36
  -2  11   6   26.83    8.73
  -2  11   6   17.67    1.63
   2 -11  -6   16.84    1.26
  -3  11   6    4.94    8.37
   3 -11  -6    2.87    0.78
  -4  11   6    6.83    9.44
  -5  11   6   -0.78    8.43
  -6  11   6    6.75    7.18
  -7  11   6   -4.88    7.09
  -6 -11  -7    1.21    1.08
  -5 -11  -7    2.92    1.22
  -4 -11  -7    9.45    1.87
  -3 -11  -7   49.08    3.43
  -2 -11  -7   15.42    2.10
  -1 -11  -7    2.91    1.00
   0 -11  -7   11.89    1.47
   0  11   7   14.01    8.66
   0  11   7    9.74    1.43
  -1  11   7    2.78    0.97
  -1  11   7    4.95    6.49
   1 -11  -7    3.33    0.85
  -2  11   7    3.42    7.10
   2 -11  -7    3.07    0.78
  -3  11   7   53.52   13.55
   3 -11  -7   43.54    2.42
  -4  11   7   11.72    9.39
  -5  11   7   -2.06    7.31
  -6  11   7   -1.58    6.88
  -7  11   7  -13.10    7.50
  -6 -11  -8    0.77    1.01
  -5 -11  -8    7.13    1.66
  -4 -11  -8    8.62    1.72
  -3 -11  -8    0.63    0.61
  -2 -11  -8   33.35    2.84
  -1 -11  -8   40.94    2.93
   0 -11  -8    2.25    0.90
   0  11   8    0.83    8.10
  -1  11   8   10.45    6.96
   1 -11  -8   11.06    1.35
  -2  11   8   19.06   10.01
  -3  11   8   12.28    9.94
   3 -11  -8   12.01    1.46
  -4  11   8    3.19    8.82
  -5  11   8    6.10    7.63
  -6  11   8   -8.16    6.43
  -7  11   8   -5.52    7.25
  -5 -11  -9    9.81    1.96
  -4 -11  -9    3.58    1.11
  -3 -11  -9   58.36    3.92
  -2 -11  -9    0.00    0.71
  -1 -11  -9   46.63    3.14
   0  11   9   79.98   12.59
  -1  11   9   66.60   11.40
   2 -11  -9   12.82    1.45
  -2  11   9   35.39   11.29
   3 -11  -9   43.06    2.58
  -3  11   9   53.88   14.57
  -4  11   9    8.06    8.81
  -5  11   9    1.41    7.41
  -6  11   9   -3.69    7.38
  -5 -11 -10    0.72    1.01
  -4 -11 -10    3.21    1.06
  -3 -11 -10   21.07    2.63
  -2 -11 -10   28.83    2.97
  -1 -11 -10    1.30    0.99
   0  11  10    2.61   11.01
   0 -11 -10    0.83    0.72
   1 -11 -10    4.07    0.96
  -1  11  10   10.65   11.67
  -2  11  10   -0.30    8.36
   2 -11 -10   -0.16    0.52
  -3  11  10   46.67   13.34
   4 -11 -10    8.93    1.40
  -4  11  10    3.86    7.55
  -5  11  10    5.27    7.24
  -6  11  10    2.16    7.52
  -5 -11 -11    1.53    0.95
  -4 -11 -11    8.48    1.75
  -3 -11 -11    3.76    1.15
  -2 -11 -11    5.54    1.34
  -1 -11 -11   18.68    2.30
   0 -11 -11    1.87    0.93
  -1  11  11   37.86   14.34
   1 -11 -11   33.17    2.33
   2 -11 -11   16.99    1.77
  -2  11  11   25.48   11.36
   3 -11 -11    7.05    1.37
  -3  11  11    6.01    9.88
  -4  11  11    4.34    8.61
  -5  11  11    0.93    5.72
  -6  11  11    4.01    7.22
  -5 -11 -12    3.32    1.30
  -4 -11 -12    5.00    1.55
  -3 -11 -12    4.53    1.30
  -2 -11 -12   12.09    2.03
  -1 -11 -12   21.82    2.56
   0 -11 -12    2.04    0.89
  -1  11  12   32.18   15.17
   2 -11 -12   18.72    1.92
  -2  11  12   32.46   14.33
  -3  11  12   18.31   11.53
   3 -11 -12   12.19    1.78
  -4  11  12   10.97    8.03
   4 -11 -12    4.33    1.22
  -5  11  12    4.40    6.40
  -6  11  12    5.91    6.80
  -4 -11 -13    4.06    1.21
  -3 -11 -13    1.46    0.78
  -2 -11 -13    6.64    1.52
  -1 -11 -13   23.19    2.62
   0 -11 -13    7.47    1.56
  -1  11  13   30.99   16.42
   1 -11 -13   15.51    1.93
   2 -11 -13   22.32    2.18
  -2  11  13   26.32   13.70
   3 -11 -13   17.14    2.08
  -3  11  13    7.02    8.76
   4 -11 -13    6.85    1.49
  -4  11  13    4.47    9.72
  -5  11  13    3.72    6.96
  -6  11  13    8.34    7.25
  -4 -11 -14    1.10    0.83
  -3 -11 -14    4.09    1.20
  -2 -11 -14    5.49    1.48
  -1 -11 -14   11.21    2.16
   0 -11 -14    5.99    1.38
   1 -11 -14    2.32    0.88
  -1  11  14  -10.25   12.32
   2 -11 -14    3.74    1.05
  -2  11  14    2.44   10.97
  -3  11  14   10.22   10.32
   3 -11 -14   11.78    1.86
  -4  11  14    1.34    7.68
   4 -11 -14    4.59    1.21
  -5  11  14    3.11    7.54
  -6  11  14   -1.90    6.56
  -3 -11 -15    5.10    1.38
  -2 -11 -15    5.94    1.54
  -1 -11 -15    7.21    1.82
   0 -11 -15    4.33    1.13
   1 -11 -15   45.04    3.19
  -2  11  15   -2.48   10.82
   2 -11 -15    3.08    1.09
   3 -11 -15    6.72    1.59
  -3  11  15    0.52    9.02
  -4  11  15   -1.84    6.57
   4 -11 -15    2.53    1.03
  -5  11  15   -0.24    8.22
  -3 -11 -16    4.05    1.35
  -2 -11 -16    5.98    1.55
  -1 -11 -16    2.02    1.12
   0 -11 -16    4.50    1.28
   1 -11 -16   14.31    2.14
   2 -11 -16   10.80    1.83
  -2  11  16   11.82   11.16
  -3  11  16    1.61    7.57
   3 -11 -16    1.95    0.90
  -4  11  16    4.73    9.26
  -5  11  16    3.93    7.13
  -2 -11 -17    7.09    1.52
  -1 -11 -17    1.90    1.15
   0 -11 -17    8.10    1.86
   1 -11 -17    2.29    1.03
  -2  11  17  -11.16    8.28
   2 -11 -17    1.08    0.76
  -3  11  17    0.60    7.25
   3 -11 -17    9.12    1.87
  -4  11  17   -0.50    6.90
   4 -11 -17    0.90    0.99
  -5  11  17   -3.00    8.19
  -2 -11 -18    0.66    0.85
  -1 -11 -18    0.64    1.08
   0 -11 -18    1.69    1.24
   1 -11 -18    5.65    1.59
   2 -11 -18    6.12    1.57
   3 -11 -18    7.73    1.87
  -3  11  18    9.90    9.93
   4 -11 -18    1.73    1.12
  -4  11  18   -0.09    7.36
  -1 -11 -19    0.63    0.89
   0 -11 -19    0.36    0.88
   1 -11 -19    0.47    1.02
   2 -11 -19    1.96    1.54
   3 -11 -19    1.26    1.10
  -3  11  19   -2.38   10.06
   4 -11 -19    3.64    1.69
   0 -11 -20   -0.24    1.32
   1 -11 -20   -1.13    0.84
   2 -11 -20    0.21    1.22
   2  12 -21    5.27    1.86
   2  12 -20    2.55    1.26
   3  12 -19    1.24    1.04
   2  12 -19   -0.65    0.93
   4  12 -18    2.25    1.08
   3  12 -18    1.87    0.95
   2  12 -18    7.75    1.66
   1  12 -18    3.71    1.40
  -2  12 -18   -0.39    2.23
   4  12 -17    8.86    1.68
   3  12 -17   -1.14    0.77
   2  12 -17    1.32    1.02
   1  12 -17   14.39    2.18
  -1  12 -17    1.62    2.19
  -2  12 -17    1.30    2.60
  -3  12 -17    0.71    2.69
   4  12 -16   11.88    1.82
   3  12 -16    2.30    1.04
   2  12 -16    3.66    1.18
   1  12 -16    8.30    1.69
   0  12 -16   32.07    3.99
  -1  12 -16    4.67    2.27
  -2  12 -16    1.88    2.14
  -3  12 -16    3.09    2.31
   5  12 -15    3.44    1.18
   4  12 -15    1.02    0.72
   3  12 -15    2.67    1.14
   2  12 -15    6.16    1.45
   1  12 -15    8.01    1.78
   1  12 -15    2.41    1.81
   0  12 -15   20.04    3.33
  -1  12 -15   26.47    3.78
  -2  12 -15    5.45    2.60
  -3  12 -15    2.32    2.24
   5  12 -14   12.42    1.90
   4  12 -14    2.00    0.89
   3  12 -14   13.70    1.82
   2  12 -14    4.80    1.29
   1  12 -14    1.43    0.92
   1  12 -14   -0.47    0.55
   0  12 -14   15.68    1.90
   0  12 -14   13.57    2.84
  -1  12 -14   16.25    3.24
  -2  12 -14   -1.88    1.57
  -3  12 -14    7.65    2.86
  -4  12 -14   -1.23    1.97
   5  12 -13   -0.48    0.85
   4  12 -13    8.50    1.60
   3  12 -13    5.73    1.43
   2  12 -13    5.39    1.41
   2  12 -13    6.13    2.00
   1  12 -13   10.57    2.36
   1  12 -13   15.26    1.93
   0  12 -13    4.42    2.10
   0  12 -13    6.96    1.35
  -1  12 -13   -0.56    1.75
  -2  12 -13    3.11    2.40
  -3  12 -13   -1.23    1.68
  -4  12 -13   -2.10    1.63
   6  12 -12    0.54    1.61
   5  12 -12    1.90    0.99
   4  12 -12   10.61    1.74
   3  12 -12    1.34    0.94
   2  12 -12    3.07    1.16
   2  12 -12    1.94    1.39
   1  12 -12    1.44    0.97
   1  12 -12    1.13    1.66
   0  12 -12   31.90    3.65
   0  12 -12   29.04    2.15
  -1  12 -12   -0.23    1.57
  -2  12 -12   15.82    3.18
  -3  12 -12    2.67    2.31
  -4  12 -12   12.79    3.62
   6  12 -11    1.33    1.38
   5  12 -11    4.12    1.24
   4  12 -11    2.30    0.86
   3  12 -11   21.65    2.15
   3  12 -11   19.29    2.62
   1  12 -11    7.91    2.21
   1  12 -11    8.83    1.44
   0  12 -11   12.21    1.57
   0  12 -11   11.24    2.53
  -1  12 -11   18.26    3.05
  -2  12 -11   18.59    3.34
  -3  12 -11   22.77    3.93
  -4  12 -11    3.95    2.52
  -5  12 -11    1.45    2.21
   6  12 -10    0.00    1.13
   5  12 -10   10.27    1.76
   4  12 -10    7.12    1.85
   4  12 -10    9.14    1.64
   3  12 -10    1.75    0.94
   3  12 -10    0.74    0.62
   2  12 -10   21.62    2.13
   2  12 -10   25.88    2.94
   1  12 -10   11.80    2.54
   1  12 -10   16.45    1.76
   0  12 -10   21.59    3.07
   0  12 -10   23.48    1.81
  -1  12 -10    7.53    2.36
  -2  12 -10   33.02    4.04
  -3  12 -10   29.16    4.29
  -4  12 -10   -1.31    1.62
  -5  12 -10    0.97    2.01
   6  12  -9   -0.60    1.20
   5  12  -9    2.79    1.06
   4  12  -9    0.83    0.53
   4  12  -9    3.05    0.94
   3  12  -9   10.36    2.11
   3  12  -9    6.39    1.33
   2  12  -9    3.72    0.98
   2  12  -9    8.53    2.09
   1  12  -9   81.22    3.66
   1  12  -9   77.81    4.69
   0  12  -9   15.18    1.49
   0  12  -9   15.64    2.68
  -1  12  -9   10.14    2.38
  -2  12  -9   30.43    3.90
  -3  12  -9   13.37    3.22
  -4  12  -9   15.83    3.53
  -5  12  -9    1.31    1.69
   6  12  -8    0.43    1.38
   5  12  -8    7.77    1.66
   4  12  -8   34.25    2.54
   4  12  -8   25.72    2.76
   3  12  -8   24.97    2.73
   3  12  -8   31.89    2.28
   2  12  -8    2.88    0.94
   2  12  -8    3.66    1.62
   1  12  -8    2.53    0.89
   1  12  -8    3.20    1.67
   0  12  -8    4.39    0.86
   0  12  -8    7.23    1.95
  -1  12  -8   23.73    3.07
  -2  12  -8   16.89    2.99
  -3  12  -8   16.58    3.21
  -4  12  -8    8.94    2.52
  -5  12  -8   12.97    2.80
   6  12  -7    1.32    1.43
   5  12  -7    9.94    2.00
   4  12  -7    2.13    1.47
   4  12  -7    3.03    0.96
   3  12  -7    2.45    0.99
   3  12  -7    3.90    1.73
   2  12  -7   25.38    1.95
   2  12  -7   28.05    2.72
   1  12  -7   21.98    2.38
   1  12  -7   20.37    1.59
   0  12  -7   10.17    2.02
   0  12  -7    9.99    1.10
  -1  12  -7    2.50    1.63
  -2  12  -7    2.36    1.51
  -3  12  -7   12.82    2.83
  -4  12  -7    6.05    2.14
  -5  12  -7   -0.08    0.98
  -6  12  -7   -1.39    1.10
   6  12  -6    6.04    1.94
   5  12  -6    4.46    1.46
   4  12  -6    7.79    1.97
   4  12  -6    9.13    1.59
   3  12  -6    1.33    0.74
   3  12  -6    0.19    1.37
   2  12  -6    1.61    1.30
   2  12  -6    2.87    1.00
   1  12  -6   89.48    4.77
   1  12  -6   91.43    3.64
   0  12  -6    7.75    1.79
   0  12  -6    7.44    0.91
  -1  12  -6    6.05    1.78
  -1  12  -6    8.29    0.76
  -2  12  -6   11.41    2.32
  -3  12  -6    0.48    1.31
  -4  12  -6   23.75    3.55
  -5  12  -6    1.79    1.60
  -6  12  -6   -1.68    1.14
   5  12  -5    0.77    1.12
   4  12  -5    2.65    0.96
   4  12  -5    1.95    1.47
   3  12  -5    3.96    1.66
   3  12  -5    4.08    1.07
   2  12  -5   18.61    1.64
   2  12  -5   21.70    2.42
   1  12  -5    0.20    0.48
   1  12  -5    1.41    1.21
   0  12  -5   25.76    2.52
   0  12  -5   26.45    1.48
  -1  12  -5   11.61    2.07
  -2  12  -5    5.82    1.85
  -3  12  -5    2.81    1.63
  -4  12  -5    7.72    2.25
  -5  12  -5    7.69    2.25
  -6  12  -5   -1.49    1.37
  -6 -12   4    1.25    0.97
  -6 -12   4    3.45    1.31
   5  12  -4   13.75    2.29
   4  12  -4    0.42    0.70
   4  12  -4   -0.75    1.24
   3  12  -4   11.72    1.54
   3  12  -4    9.65    2.02
   2  12  -4   33.52    2.15
   2  12  -4   35.44    2.71
   1  12  -4   16.26    1.33
   1  12  -4   22.53    2.41
   0  12  -4   16.21    2.36
   0  12  -4   10.29    0.91
  -1  12  -4   26.84    2.57
  -2  12  -4   68.76    4.48
  -3  12  -4   46.88    4.02
  -4  12  -4   18.69    3.17
  -5  12  -4    0.64    1.46
  -6  12  -4    2.39    1.80
  -6 -12   3    1.38    0.88
  -6 -12   3    2.33    1.19
  -5 -12   3    2.16    0.91
  -5 -12   3    5.61    1.58
   4  12  -3    0.79    0.71
   3  12  -3    2.26    0.84
   3  12  -3    2.63    1.51
   2  12  -3   57.62    2.86
   2  12  -3   57.82    3.59
   1  12  -3   75.20    3.10
   1  12  -3   77.36    4.28
   0  12  -3   17.59    2.26
   0  12  -3   16.94    1.09
  -1  12  -3   14.46    2.27
  -2  12  -3    6.41    1.79
  -3  12  -3    9.33    2.27
  -4  12  -3    8.94    2.28
  -5  12  -3   10.31    2.45
  -6  12  -3   -2.59    1.31
  -6 -12   2    5.12    1.78
  -6 -12   2    9.58    2.07
  -5 -12   2    2.54    1.04
  -5 -12   2   -0.74    0.67
  -4 -12   2   24.51    3.04
  -4 -12   2   28.85    3.44
   3  12  -2   10.41    1.46
   3  12  -2    8.21    1.98
   2  12  -2   34.25    2.15
   2  12  -2   36.32    2.76
   1  12  -2  260.68   10.07
   1  12  -2  265.41    8.06
   0  12  -2   66.59    4.02
   0 -12   2   66.71    2.91
   0 -12   2   62.90    3.01
  -1  12  -2   11.06    2.10
  -2  12  -2   40.01    3.18
  -3  12  -2   12.51    2.33
  -4  12  -2    8.42    2.38
  -5  12  -2   10.40    2.59
  -6  12  -2    0.38    1.43
  -6 -12   1   -0.06    0.87
  -6 -12   1    1.00    0.83
  -5 -12   1   11.53    2.45
  -5 -12   1   11.00    2.21
  -4 -12   1    5.41    1.78
  -4 -12   1    5.63    1.64
  -3 -12   1    1.50    1.04
   3  12  -1    3.59    1.60
  -3 -12   1    0.89    1.12
  -2 -12   1   58.50    3.57
  -2 -12   1   61.91    3.88
   2  12  -1   56.43    3.61
  -1 -12   1   25.39    2.07
  -1 -12   1   22.69    1.87
   1  12  -1   26.21    2.47
   0 -12   1   48.73    2.45
   0  12  -1   53.48    3.33
   0 -12   1   46.54    2.35
  -1  12  -1   78.25    4.26
  -2  12  -1   35.65    2.90
  -3  12  -1   29.21    3.27
  -4  12  -1    4.95    1.74
  -5  12  -1    7.54    2.38
  -6  12  -1    3.33    1.97
  -6 -12   0   17.60    2.82
  -5 -12   0    4.68    1.45
  -5 -12   0    6.28    1.62
  -4 -12   0    3.89    1.27
  -4 -12   0    2.14    1.19
  -3 -12   0   10.17    2.07
   3  12   0   10.28    2.10
  -3 -12   0    9.12    1.83
  -2 -12   0    4.73    1.32
   2  12   0    8.55    1.75
  -2 -12   0    8.68    1.59
   1  12   0   59.93    3.70
  -1 -12   0   66.41    3.49
  -1 -12   0   70.57    3.43
   0  12   0  235.45   15.80
   0 -12   0  218.32    7.18
   0  12   0  217.29    8.64
  -1  12   0   57.71   10.30
  -1  12   0   69.79    3.82
  -2  12   0    8.18    1.68
  -3  12   0    9.76    2.12
  -4  12   0    7.04    1.97
  -5  12   0    8.29    2.37
  -6  12   0   18.12    3.50
  -6 -12  -1    5.57    1.66
  -5 -12  -1    3.50    1.41
  -4 -12  -1    2.41    1.17
  -4 -12  -1    3.65    1.36
  -3 -12  -1   23.40    2.69
  -3 -12  -1   26.74    2.97
  -2 -12  -1   32.36    2.57
  -2 -12  -1   25.06    2.39
   2  12   1   28.44    2.55
  -1 -12  -1   70.54    3.59
   1  12   1   73.91    3.97
   0  12   1   53.13    3.39
   0 -12  -1   54.12    2.59
  -1  12   1   28.16    2.43
   1 -12  -1   26.41    1.29
  -1  12   1   47.78    9.66
  -2  12   1   59.98    3.54
  -3  12   1    2.97    1.46
  -4  12   1   12.92    2.33
  -5  12   1   15.79    2.87
  -6 -12  -2    1.97    1.00
  -5 -12  -2   14.38    2.60
  -4 -12  -2    6.63    1.65
  -3 -12  -2    6.80    1.66
  -2 -12  -2   29.65    2.49
   2  12   2   28.10    2.55
   0  12   2   64.13    3.76
   0 -12  -2   63.03    2.96
   0  12   2   67.16    9.45
   1 -12  -2  263.19    7.52
  -1  12   2  253.00    9.53
  -1  12   2  245.82   18.57
  -2  12   2   41.88    7.43
  -2  12   2   38.41    2.73
  -3  12   2    8.11    1.80
  -3  12   2    3.11    9.66
  -4  12   2   35.10    3.32
  -5  12   2   -0.39    1.12
  -6 -12  -3    1.02    0.96
  -5 -12  -3   10.80    2.26
  -4 -12  -3    7.92    1.89
  -3 -12  -3    3.95    1.38
  -2 -12  -3    4.23    1.31
   2  12   3    5.57    1.56
   1  12   3   12.82    2.07
   1  12   3   10.85    8.43
  -1 -12  -3   12.89    1.65
   0  12   3    4.27    3.59
   0 -12  -3    3.88    0.81
   1 -12  -3   75.49    2.92
  -1  12   3   72.66    3.90
  -1  12   3   88.97   11.41
  -2  12   3   67.77    3.62
  -2  12   3   55.27    8.69
   2 -12  -3   68.82    2.45
  -3  12   3    3.13    1.42
  -3  12   3   -5.18    7.94
  -4  12   3    1.99    1.50
  -4  12   3   -6.29    9.34
  -5  12   3    3.58    9.04
  -6  12   3    6.07    6.96
  -6 -12  -4    2.96    1.15
  -5 -12  -4    0.24    0.82
  -4 -12  -4   17.34    2.62
  -3 -12  -4   45.46    3.41
  -2 -12  -4   57.45    3.55
   1  12   4   27.22    2.32
  -1 -12  -4   24.10    2.04
   1  12   4   45.92    8.94
   0  12   4   19.45    8.38
   0 -12  -4   10.47    1.27
  -1  12   4   38.29    9.71
   1 -12  -4   21.21    1.43
  -1  12   4   23.77    2.14
  -2  12   4   37.62    2.55
  -2  12   4   55.17   10.80
   2 -12  -4   39.72    1.80
  -3  12   4   11.44    1.86
  -3  12   4    5.52    8.83
  -4  12   4   -9.75    8.39
  -5  12   4    5.77    8.15
  -6  12   4    0.41    6.19
  -6 -12  -5    3.68    1.21
  -5 -12  -5   12.59    2.35
  -4 -12  -5    5.35    1.52
  -3 -12  -5    3.24    1.26
  -2 -12  -5    2.60    1.02
  -1 -12  -5   11.55    1.70
   1  12   5   12.96    1.86
   0  12   5   25.55    2.12
   0 -12  -5   26.66    1.98
  -1  12   5    3.67    5.74
  -1  12   5    1.70    0.97
   1 -12  -5    0.45    0.48
   2 -12  -5   20.07    1.30
  -2  12   5   21.10    1.90
  -2  12   5   25.53    8.69
  -3  12   5    6.16    8.08
  -3  12   5    5.81    1.46
  -4  12   5   -2.90    8.56
  -5  12   5    4.36    8.23
  -6  12   5    5.23    6.85
  -6 -12  -6    3.16    1.44
  -5 -12  -6    1.90    1.00
  -4 -12  -6   21.34    2.80
  -3 -12  -6   -0.27    0.52
  -2 -12  -6    7.37    1.66
  -1 -12  -6    7.88    1.51
   1  12   6    6.68    1.50
   0 -12  -6    4.76    1.06
   0  12   6   14.12    8.17
   0  12   6    6.43    1.39
  -1  12   6   91.25    4.10
  -1  12   6   89.92   10.42
  -2  12   6    1.64    1.12
   2 -12  -6    2.71    0.69
  -2  12   6    3.35    7.38
   3 -12  -6    0.68    0.61
  -3  12   6   -1.02    8.08
  -4  12   6   14.17    9.90
  -5  12   6   -2.92    8.12
  -6  12   6   -5.88    6.24
  -6 -12  -7    3.34    1.20
  -5 -12  -7   -0.21    0.68
  -4 -12  -7    3.13    1.21
  -3 -12  -7   12.17    2.11
  -2 -12  -7    1.44    0.84
  -1 -12  -7    1.50    0.82
   0 -12  -7    9.34    1.41
   0  12   7    7.37    8.07
   0  12   7    7.77    1.36
  -1  12   7   20.20    1.74
   1 -12  -7   21.31    1.62
  -1  12   7   26.65    8.45
   2 -12  -7   31.09    1.90
  -2  12   7   56.36   12.46
   3 -12  -7    3.43    0.97
  -3  12   7    7.05    9.56
  -4  12   7    7.95    9.57
  -5  12   7   -2.16    7.51
  -6  12   7   -4.70    7.14
  -5 -12  -8   13.31    2.46
  -4 -12  -8   11.68    2.19
  -3 -12  -8   14.71    2.21
  -2 -12  -8   12.07    2.06
  -1 -12  -8   26.55    2.62
   0 -12  -8    4.22    1.11
   0  12   8   11.22   10.07
  -1  12   8    2.47    1.05
  -1  12   8    0.00    6.90
   1 -12  -8    2.09    0.78
   2 -12  -8    2.25    0.72
  -2  12   8    0.32    8.32
  -3  12   8   36.95   12.42
   3 -12  -8   32.41    2.12
  -4  12   8   26.92   11.25
  -5  12   8    2.42    7.38
  -5 -12  -9    3.46    1.18
  -4 -12  -9    7.34    1.74
  -3 -12  -9   15.84    2.41
  -2 -12  -9   23.71    2.69
  -1 -12  -9    4.41    1.33
   0  12   9   18.23   12.41
   0 -12  -9   16.47    1.90
  -1  12   9   95.66   12.23
   1 -12  -9   80.00    3.79
  -2  12   9   31.86   13.63
   2 -12  -9   28.37    1.98
   3 -12  -9    7.40    1.26
  -3  12   9   13.71   11.35
  -4  12   9   14.83    9.52
  -5  12   9   -1.78    7.38
  -6  12   9 1000.00   63.39
  -5 -12 -10    4.20    1.44
  -4 -12 -10    0.08    0.66
  -3 -12 -10   16.97    2.37
  -2 -12 -10   30.15    3.18
  -1 -12 -10   11.64    1.92
   0  12  10   38.96   14.72
   0 -12 -10   21.32    2.24
   1 -12 -10   15.28    1.73
  -1  12  10   21.20   14.04
   2 -12 -10   23.51    1.86
  -2  12  10   50.15   13.08
   3 -12 -10    0.08    0.40
  -3  12  10    2.07    9.27
  -4  12  10   -1.55    8.20
  -5  12  10    3.74    6.72
  -6  12  10    3.38    7.43
  -5 -12 -11    2.02    0.97
  -4 -12 -11    2.32    0.95
  -3 -12 -11   13.78    2.36
  -2 -12 -11   14.80    2.31
  -1 -12 -11   16.37    2.20
   0  12  11   32.92   13.83
  -1  12  11    3.38   12.16
   1 -12 -11    6.66    1.29
   2 -12 -11   23.91    1.91
  -2  12  11   26.95   11.93
   3 -12 -11   21.36    1.89
  -3  12  11   27.52   11.77
  -4  12  11    5.89    8.46
  -5  12  11    6.83    6.71
  -6  12  11    0.58    6.60
  -4 -12 -12   10.60    2.06
  -3 -12 -12    3.50    0.99
  -2 -12 -12   14.11    2.29
  -1 -12 -12    0.44    0.88
   0 -12 -12   22.94    2.40
  -1  12  12    8.70   14.00
  -2  12  12    3.04   11.42
   2 -12 -12    3.87    1.00
   3 -12 -12    3.86    1.07
  -3  12  12    8.38   10.62
  -4  12  12    8.47    8.46
  -5  12  12    6.24    6.77
  -6  12  12   -0.06    6.36
  -4 -12 -13    3.48    1.02
  -3 -12 -13    4.79    1.23
  -2 -12 -13    5.97    1.46
  -1 -12 -13    0.34    0.83
   0 -12 -13    2.86    1.11
  -1  12  13   18.48   14.56
   1 -12 -13   11.30    1.70
   2 -12 -13    5.68    1.23
  -2  12  13   -4.00   11.23
  -3  12  13    0.21    8.66
   3 -12 -13    9.03    1.64
   4 -12 -13    7.92    1.55
  -4  12  13   10.54    9.96
  -5  12  13    1.26    6.61
  -6  12  13    3.43    6.14
  -4 -12 -14    4.77    1.39
  -3 -12 -14    3.55    1.20
  -2 -12 -14    2.43    0.99
  -1 -12 -14    9.97    2.05
   0 -12 -14   11.73    1.94
   1 -12 -14    1.21    0.77
  -1  12  14   -5.09   13.55
  -2  12  14   -5.11   11.51
   2 -12 -14    5.43    1.20
   3 -12 -14   16.82    2.11
  -3  12  14   12.88   10.53
   4 -12 -14    4.71    1.23
  -4  12  14    0.28    7.79
  -5  12  14  502.62   37.04
  -3 -12 -15   -0.61    0.72
  -2 -12 -15    5.75    1.52
  -1 -12 -15   23.61    2.82
   0 -12 -15   16.25    2.20
  -1  12  15    4.37   13.92
   1 -12 -15    2.98    1.11
  -2  12  15    4.09   11.67
   2 -12 -15    6.83    1.42
   3 -12 -15    3.01    0.98
  -3  12  15   -2.96    9.39
  -4  12  15   -5.05    6.11
   4 -12 -15    0.86    0.89
  -5  12  15    1.22    8.72
  -3 -12 -16    0.82    0.86
  -2 -12 -16    2.69    1.12
  -1 -12 -16    2.61    1.30
   0 -12 -16   31.49    2.78
   1 -12 -16    7.76    1.64
  -2  12  16   -0.57    9.80
   2 -12 -16    2.90    1.06
  -3  12  16    0.76    8.51
   3 -12 -16    6.59    1.55
  -4  12  16    3.10    8.50
   4 -12 -16   14.61    2.11
  -5  12  16    4.44    7.13
  -2 -12 -17    6.04    1.58
  -1 -12 -17    2.08    1.10
   0 -12 -17   14.93    2.34
   1 -12 -17    7.40    1.69
   2 -12 -17    0.18    0.62
  -2  12  17    1.77   10.52
   3 -12 -17    0.30    0.91
  -3  12  17   -1.14    6.99
  -4  12  17    7.37    9.28
   4 -12 -17    9.44    1.99
  -2 -12 -18    3.07    1.24
  -1 -12 -18    0.17    0.86
   0 -12 -18    0.18    1.01
   1 -12 -18    1.48    1.11
   2 -12 -18   11.60    2.06
  -3  12  18   -9.88    7.84
   3 -12 -18   -0.11    1.06
   4 -12 -18    2.97    1.32
  -4  12  18    1.40    7.31
  -1 -12 -19    2.41    1.30
   0 -12 -19    0.23    0.93
   1 -12 -19    0.21    0.79
   2 -12 -19    0.10    0.91
   3 -12 -19    0.15    1.09
  -3  12  19   -6.13    9.00
   4 -12 -19    3.04    1.73
   1 -12 -20    0.91    1.19
   2 -12 -20   -0.35    1.25
   2  13 -20    4.67    1.48
   3  13 -19    1.54    1.02
   2  13 -19    4.65    1.38
   4  13 -18    2.33    1.10
   3  13 -18   -0.81    0.84
   2  13 -18    7.08    1.52
  -2  13 -18   -2.27    2.06
   4  13 -17   -0.26    0.72
   3  13 -17    5.23    1.39
   2  13 -17    3.86    1.34
   1  13 -17   16.58    2.22
  -1  13 -17    2.45    2.52
  -2  13 -17    0.43    2.57
   4  13 -16   10.84    1.65
   3  13 -16   -0.45    0.80
   2  13 -16    1.20    1.01
   1  13 -16   11.28    1.85
   0  13 -16    3.95    2.23
  -1  13 -16   11.48    3.11
  -2  13 -16    7.67    3.12
  -3  13 -16    0.04    2.68
   5  13 -15    5.34    1.36
   4  13 -15    2.08    0.80
   3  13 -15    4.22    1.23
   2  13 -15    7.22    1.61
   1  13 -15    1.09    0.72
   1  13 -15    1.11    0.96
   0  13 -15    4.26    2.25
  -1  13 -15   14.98    3.25
  -2  13 -15    2.90    2.41
  -3  13 -15   -0.19    2.19
   5  13 -14   -0.11    0.86
   4  13 -14    5.54    1.26
   3  13 -14    3.31    1.09
   2  13 -14   14.52    1.94
   1  13 -14    7.54    1.59
   1  13 -14    4.10    2.14
   0  13 -14   59.34    4.74
  -1  13 -14    2.08    2.17
  -2  13 -14    3.28    2.15
  -3  13 -14    0.46    1.95
  -4  13 -14   -1.40    2.14
   5  13 -13    1.85    0.99
   4  13 -13    3.63    1.02
   3  13 -13    0.65    0.78
   2  13 -13    6.41    1.51
   2  13 -13    3.39    1.45
   1  13 -13    4.43    2.02
   1  13 -13    1.63    0.89
   0  13 -13    6.16    2.35
  -1  13 -13    2.94    2.23
  -2  13 -13    3.63    2.27
  -3  13 -13    0.10    1.88
  -4  13 -13   -3.48    1.52
   5  13 -12    3.94    1.05
   4  13 -12    8.08    1.55
   3  13 -12    1.78    0.79
   3  13 -12    0.09    1.42
   2  13 -12   23.65    2.10
   1  13 -12   19.88    2.87
   1  13 -12   14.94    1.85
   0  13 -12   16.81    1.91
   0  13 -12   17.30    2.96
  -1  13 -12    7.24    2.46
  -2  13 -12    1.04    2.00
  -3  13 -12   10.11    3.13
  -4  13 -12    1.64    2.55
   6  13 -11    0.91    1.61
   5  13 -11   -1.11    0.58
   4  13 -11    0.52    0.65
   3  13 -11   14.84    1.87
   2  13 -11   21.88    2.04
   2  13 -11   24.92    2.99
   1  13 -11    3.22    1.07
   1  13 -11    2.89    1.94
   0  13 -11    1.54    1.90
   0  13 -11    1.71    0.84
  -1  13 -11    1.39    1.77
  -2  13 -11    5.64    2.33
  -3  13 -11    5.68    2.45
  -4  13 -11   16.64    4.16
   6  13 -10   -0.32    1.34
   5  13 -10    2.91    0.80
   4  13 -10   17.24    2.14
   3  13 -10    4.39    1.83
   3  13 -10    7.74    1.45
   2  13 -10   31.61    3.19
   2  13 -10   33.81    2.32
   1  13 -10   21.31    2.92
   1  13 -10   20.84    1.83
   0  13 -10    9.33    2.39
   0  13 -10    9.76    1.34
  -1  13 -10    3.43    2.19
  -2  13 -10    6.67    2.40
  -3  13 -10   12.59    3.36
  -4  13 -10    6.17    2.86
  -5  13 -10    2.83    1.86
   6  13  -9    0.69    1.21
   5  13  -9    7.56    1.43
   4  13  -9   21.26    2.75
   4  13  -9   18.43    2.03
   3  13  -9   18.25    2.66
   3  13  -9   20.09    2.04
   2  13  -9   21.68    1.83
   2  13  -9   24.58    2.92
   1  13  -9   18.66    1.84
   1  13  -9   23.25    2.83
   0  13  -9   28.53    3.36
   0  13  -9   31.40    1.97
  -1  13  -9   45.06    3.96
  -2  13  -9   27.11    3.75
  -3  13  -9    3.00    2.19
  -4  13  -9   15.01    3.37
  -5  13  -9    2.78    1.95
   6  13  -8    1.74    1.38
   5  13  -8   -1.31    0.66
   4  13  -8    5.17    1.20
   4  13  -8    4.07    1.64
   3  13  -8   24.63    3.03
   3  13  -8   22.97    2.01
   2  13  -8   11.28    2.32
   2  13  -8   13.58    1.58
   1  13  -8   68.55    4.31
   1  13  -8   69.56    3.22
   0  13  -8    2.07    1.70
   0  13  -8    4.85    0.89
  -1  13  -8   51.99    4.12
  -2  13  -8   45.47    4.16
  -3  13  -8    4.90    2.19
  -4  13  -8   15.74    3.16
  -5  13  -8    5.09    2.05
   6  13  -7    0.39    1.45
   5  13  -7    1.12    0.87
   4  13  -7   -0.10    1.25
   3  13  -7   30.09    2.97
   3  13  -7   29.06    2.21
   2  13  -7   41.93    3.30
   2  13  -7   43.76    2.60
   1  13  -7    2.32    1.70
   1  13  -7    0.76    0.61
   0  13  -7    3.77    0.80
   0  13  -7    2.90    1.72
  -1  13  -7   17.42    2.70
  -2  13  -7   25.66    3.46
  -3  13  -7    1.67    1.51
  -4  13  -7    1.46    1.42
  -5  13  -7    1.55    1.53
   6  13  -6    8.15    2.13
   5  13  -6    4.58    1.28
   4  13  -6    2.58    1.51
   4  13  -6    1.14    0.75
   3  13  -6    0.91    0.59
   3  13  -6   -0.82    1.27
   2  13  -6   29.20    2.10
   2  13  -6   28.65    2.79
   1  13  -6   32.12    1.97
   1  13  -6   32.31    2.90
   0  13  -6   11.68    1.11
   0  13  -6   10.06    2.04
  -1  13  -6   10.14    2.17
  -2  13  -6    7.02    2.14
  -3  13  -6    0.84    1.34
  -4  13  -6   13.89    2.88
  -5  13  -6    3.08    1.58
  -6  13  -6   -0.93    1.18
   5  13  -5   10.50    2.05
   4  13  -5   19.02    2.79
   4  13  -5   20.32    2.20
   3  13  -5   18.03    2.74
   3  13  -5   19.53    1.94
   2  13  -5   29.76    2.07
   2  13  -5   33.16    2.81
   1  13  -5    6.69    1.83
   1  13  -5    8.66    1.14
   0  13  -5   13.33    1.10
   0  13  -5   15.61    2.28
  -1  13  -5   57.30    3.91
  -2  13  -5   38.42    3.49
  -3  13  -5   72.72    5.25
  -4  13  -5   17.43    3.05
  -5  13  -5    7.47    2.30
  -6  13  -5    2.79    1.90
  -6 -13   4    5.85    1.50
  -6 -13   4    6.06    1.75
   4  13  -4   13.17    2.48
   4  13  -4   17.92    2.09
   3  13  -4   10.13    2.08
   3  13  -4    7.42    1.30
   2  13  -4   15.28    2.10
   2  13  -4   17.49    1.72
   1  13  -4   63.47    2.78
   1  13  -4   56.64    3.68
   0  13  -4   26.75    1.45
   0  13  -4   26.69    2.51
  -1  13  -4    2.60    1.36
  -2  13  -4    3.53    1.76
  -3  13  -4   30.67    3.33
  -4  13  -4   18.21    3.07
  -5  13  -4   10.30    2.64
  -6  13  -4    0.53    1.47
  -6 -13   3    1.42    1.29
  -6 -13   3    0.55    1.05
  -5 -13   3    4.83    1.30
  -5 -13   3    1.63    1.14
   4  13  -3    5.03    1.20
   4  13  -3    2.48    1.63
   3  13  -3    2.67    0.82
   3  13  -3    2.12    1.47
   2  13  -3   60.06    2.93
   2  13  -3   52.62    3.52
   1  13  -3   -0.51    0.97
   1  13  -3    0.13    0.46
   0  13  -3    5.85    0.73
   0  13  -3    4.96    1.67
  -1  13  -3   24.69    2.44
  -2  13  -3   40.95    3.44
  -3  13  -3   10.57    2.44
  -4  13  -3   14.24    2.84
  -5  13  -3    1.77    1.58
  -6  13  -3    2.72    1.92
  -6 -13   2    4.61    1.31
  -6 -13   2    2.82    1.15
  -5 -13   2    7.85    1.84
  -5 -13   2    3.78    1.42
  -4 -13   2   35.49    3.62
  -4 -13   2   29.99    3.64
   3  13  -2   26.16    2.96
   2  13  -2   29.16    2.56
   1  13  -2   23.16    2.37
   0  13  -2   54.79    3.55
   0 -13   2   45.33    2.36
   0 -13   2   46.27    2.48
   0  13  -2   43.63    8.26
  -1  13  -2    5.59    1.52
  -2  13  -2   -0.04    1.23
  -3  13  -2    4.52    1.69
  -4  13  -2   -0.95    1.14
  -5  13  -2    1.93    1.53
  -6  13  -2    1.19    1.59
  -6 -13   1    2.60    1.14
  -6 -13   1    6.44    1.95
  -5 -13   1    6.62    1.67
  -5 -13   1    8.66    2.09
  -4 -13   1    5.95    1.74
  -4 -13   1    4.74    1.71
  -3 -13   1   11.06    2.10
  -3 -13   1   18.84    2.71
   3  13  -1   11.18    2.22
  -2 -13   1    6.66    1.62
  -2 -13   1    6.09    1.47
   2  13  -1    7.18    1.69
  -1 -13   1   34.83    2.40
  -1 -13   1   32.58    2.25
   0 -13   1   46.42    2.37
   0  13  -1   48.87    7.83
   0  13  -1   48.35    3.37
  -1  13  -1   14.77    2.08
  -2  13  -1    1.22    1.24
  -3  13  -1   16.57    2.52
  -4  13  -1   10.62    2.58
  -5  13  -1    1.91    1.62
  -6  13  -1   -2.63    1.23
  -6 -13   0    1.42    1.06
  -5 -13   0    4.24    1.48
  -5 -13   0    1.55    1.21
  -4 -13   0   35.44    3.54
  -4 -13   0   32.43    3.69
  -3 -13   0    0.77    0.95
  -3 -13   0    1.19    0.94
   3  13   0    1.19    1.36
  -2 -13   0    7.84    1.62
  -2 -13   0    7.83    1.69
   2  13   0    7.42    1.73
   1  13   0   80.76    4.30
  -1 -13   0   72.44    3.74
  -1 -13   0   80.71    4.01
   0 -13   0    0.18    0.48
   0  13   0   -0.77    1.29
   0  13   0   -1.57    4.70
  -1  13   0   80.18    4.23
  -1  13   0   69.98   10.06
  -2  13   0    6.26    1.61
  -3  13   0    0.44    1.36
  -4  13   0   39.83    3.68
  -5  13   0    2.41    1.59
  -6 -13  -1   -1.75    0.87
  -5 -13  -1    0.77    0.91
  -4 -13  -1   10.65    2.45
  -4 -13  -1   10.84    2.27
  -3 -13  -1   13.88    2.38
   3  13   1   16.23    2.49
  -3 -13  -1   14.56    2.31
   2  13   1   -0.38    1.03
  -2 -13  -1    0.82    0.79
   0 -13  -1   48.08    2.49
   0  13   1   51.79    3.38
   1 -13  -1   53.81    2.07
  -1  13   1   53.64    3.35
  -1  13   1   45.11    8.60
  -2  13   1    5.32    1.50
  -2  13   1    7.58    6.77
  -3  13   1   18.04    2.51
  -4  13   1    6.36    2.16
  -5  13   1   13.22    2.76
  -6 -13  -2    4.88    1.68
  -5 -13  -2    2.32    1.15
  -4 -13  -2   -0.25    0.64
  -3 -13  -2    1.71    1.10
  -2 -13  -2    0.51    0.79
   2  13   2    1.12    1.20
   0  13   2   57.63   11.12
   0 -13  -2   54.79    2.71
   0  13   2   42.71    3.32
   1 -13  -2   25.06    1.37
  -1  13   2   23.36    2.20
  -1  13   2   49.67    9.21
  -2  13   2   31.20    2.52
  -2  13   2   37.45    9.14
  -3  13   2   19.42   10.86
  -3  13   2   23.47    2.49
  -4  13   2   34.79    3.08
  -4  13   2   20.97   12.42
  -6  13   2    8.36    7.78
  -6 -13  -3    4.53    1.48
  -5 -13  -3   -0.28    0.84
  -4 -13  -3   11.57    2.18
  -3 -13  -3   10.50    2.12
   2  13   3   32.78    2.86
  -2 -13  -3   32.94    2.71
  -1 -13  -3   30.60    2.31
   1  13   3   27.91    2.47
   1  13   3   34.92    7.92
   0  13   3    2.01    1.70
   0  13   3    3.69    1.43
   0 -13  -3    6.55    1.08
   1 -13  -3   -0.19    0.34
  -1  13   3   -0.96    4.50
  -1  13   3    0.20    0.98
  -2  13   3   58.39    3.45
   2 -13  -3   65.63    2.34
  -2  13   3   54.35    8.53
  -3  13   3    2.18    1.42
  -3  13   3    3.54    7.87
  -4  13   3    3.69   10.19
  -4  13   3    2.65    1.59
  -5  13   3   -1.02    8.61
  -6  13   3    6.82    6.83
  -6 -13  -4    1.28    1.04
  -5 -13  -4    9.19    2.01
  -4 -13  -4   14.79    2.52
  -3 -13  -4   26.60    2.98
  -2 -13  -4    3.51    1.20
   2  13   4    3.07    1.53
   1  13   4    2.47    6.01
   1  13   4    1.83    1.22
  -1 -13  -4    1.68    0.79
   0  13   4   22.47    2.11
   0  13   4   37.05    7.63
  -1  13   4   61.39    8.97
   1 -13  -4   69.54    2.83
  -1  13   4   62.87    3.52
   2 -13  -4   14.96    1.05
  -2  13   4   28.07    8.87
  -2  13   4   17.72    1.93
  -3  13   4   12.93    9.98
  -3  13   4    8.59    1.83
  -4  13   4   14.88   10.54
  -5  13   4    6.88    8.63
  -6  13   4    4.96    6.54
  -6 -13  -5    7.17    1.69
  -5 -13  -5   10.45    2.27
  -4 -13  -5   13.36    2.29
  -3 -13  -5   55.08    3.87
  -2 -13  -5   32.14    2.71
   0 -13  -5   15.81    1.73
   0  13   5   16.69    2.01
   0  13   5   19.51    6.78
   1 -13  -5    7.17    1.01
  -1  13   5    7.77    1.44
  -1  13   5   14.21    7.25
   2 -13  -5   37.12    1.85
  -2  13   5   32.95    2.50
  -2  13   5   56.57   12.14
  -3  13   5   60.41   14.38
  -4  13   5   17.12   11.07
  -5  13   5    3.51    7.97
  -6  13   5    1.55    6.68
  -6 -13  -6    3.34    1.15
  -5 -13  -6    7.27    1.71
  -4 -13  -6   19.88    2.82
  -3 -13  -6    0.78    0.89
  -2 -13  -6    9.39    1.85
  -1 -13  -6   10.79    1.72
   1  13   6    7.91    1.72
   0 -13  -6    9.65    1.41
   0  13   6   14.78    8.07
   0  13   6   12.29    1.70
  -1  13   6   42.57    9.66
  -1  13   6   27.70    2.15
   1 -13  -6   27.06    1.83
  -2  13   6   53.24   12.91
   2 -13  -6   29.39    1.78
  -2  13   6   31.38    2.39
  -3  13   6    0.40    7.96
  -4  13   6   -3.06    8.84
  -5  13   6   -4.38    8.44
  -6  13   6   -0.49    7.87
  -5 -13  -7    3.81    1.33
  -4 -13  -7    2.23    1.02
  -3 -13  -7    2.26    1.09
  -2 -13  -7   28.86    2.91
  -1 -13  -7   17.12    2.14
   0  13   7    7.04    7.87
   0  13   7    2.42    1.20
   0 -13  -7    1.76    0.86
  -1  13   7    3.28    1.27
  -1  13   7    5.38    7.17
  -2  13   7   62.44   13.17
   2 -13  -7   47.19    2.47
  -3  13   7   63.33   14.97
  -4  13   7    6.62    8.83
  -5  13   7   -1.77    7.91
  -6  13   7   -9.55    6.55
  -5 -13  -8    5.75    1.27
  -4 -13  -8    8.15    1.81
  -3 -13  -8    7.62    1.66
  -2 -13  -8   40.45    3.18
  -1 -13  -8   47.67    3.31
   0  13   8    3.75    1.20
   0 -13  -8    3.37    0.99
   0  13   8    4.51    9.77
  -1  13   8   67.41    3.41
   1 -13  -8   72.65    3.41
  -1  13   8   63.69   10.24
  -2  13   8   24.42   10.79
   2 -13  -8   12.14    1.39
  -3  13   8   24.86   12.94
   3 -13  -8   23.90    1.82
  -4  13   8    4.40    9.51
  -5  13   8   -3.15    7.56
  -6  13   8    0.91    7.03
  -5 -13  -9    6.31    1.74
  -4 -13  -9    7.65    1.75
  -3 -13  -9    2.38    0.97
  -2 -13  -9   22.05    2.72
  -1 -13  -9   40.07    3.00
   0 -13  -9   26.28    2.23
   0  13   9   47.50   13.79
  -1  13   9   33.48   11.86
   1 -13  -9   18.00    1.80
  -2  13   9   29.51   11.96
  -3  13   9   29.22   11.72
   3 -13  -9   19.31    1.86
  -4  13   9   14.84    9.73
  -5  13   9    7.52    8.16
  -6  13   9    0.47    7.30
  -5 -13 -10    6.54    1.67
  -4 -13 -10    5.10    1.49
  -3 -13 -10    5.67    1.46
  -2 -13 -10    4.34    1.48
  -1 -13 -10    4.08    1.34
   0 -13 -10    4.89    1.31
   0  13  10    7.91   11.87
   1 -13 -10   21.55    1.86
  -1  13  10   30.76   13.79
  -2  13  10   65.53   14.94
   2 -13 -10   34.08    2.33
  -3  13  10   18.25   10.69
  -4  13  10   17.30    9.26
  -5  13  10    1.35    6.98
  -6  13  10   -2.03    6.47
  -5 -13 -11    2.19    1.06
  -4 -13 -11   12.47    2.22
  -3 -13 -11    2.85    1.10
  -2 -13 -11    5.23    1.48
  -1 -13 -11    2.62    1.05
   0  13  11    6.94   12.22
   1 -13 -11    5.44    1.22
  -1  13  11    6.00   13.79
   2 -13 -11   20.53    1.84
  -2  13  11   27.18   11.83
  -3  13  11   23.86   12.31
  -4  13  11   -0.40    8.18
  -5  13  11    2.65    6.50
  -6  13  11    1.61    6.50
  -4 -13 -12    2.19    1.00
  -3 -13 -12    2.87    1.05
  -2 -13 -12    1.22    0.94
  -1 -13 -12    4.19    1.47
   0 -13 -12   15.77    2.11
  -1  13  12   16.36   13.96
   1 -13 -12   17.01    1.95
  -2  13  12   26.64   14.26
   2 -13 -12   22.85    2.01
   3 -13 -12    0.78    0.79
  -3  13  12   -4.73   10.17
  -4  13  12    0.64    8.01
  -5  13  12    1.55    6.50
  -6  13  12   -1.62    5.78
  -4 -13 -13    2.88    1.06
  -3 -13 -13    3.83    1.15
  -2 -13 -13    5.04    1.51
  -1 -13 -13    0.13    0.80
   0 -13 -13    3.61    1.14
  -1  13  13    7.87   13.42
   2 -13 -13    5.63    1.25
  -2  13  13   11.99   13.81
   3 -13 -13    2.76    0.99
  -3  13  13   -0.63    9.05
  -4  13  13    1.75    7.92
  -5  13  13    8.01    7.26
  -3 -13 -14    1.91    0.86
  -2 -13 -14    2.65    1.29
  -1 -13 -14    1.71    1.06
   0 -13 -14   59.47    3.81
   1 -13 -14    4.52    1.21
  -1  13  14    4.78   14.29
  -2  13  14   -2.34   12.70
  -3  13  14    1.22    8.82
   3 -13 -14    3.33    1.22
  -4  13  14    1.38    8.27
  -5  13  14   -3.33    7.16
  -3 -13 -15    1.44    0.98
  -2 -13 -15    3.05    1.27
  -1 -13 -15   15.16    2.49
   0 -13 -15    4.25    1.35
   1 -13 -15    2.23    0.85
  -1  13  15    5.10   14.31
   2 -13 -15    6.80    1.35
  -2  13  15    5.87   11.12
  -3  13  15    0.35    9.09
   3 -13 -15    3.72    1.37
  -4  13  15    1.96    6.72
   4 -13 -15    0.35    0.87
  -5  13  15   -0.25    9.30
  -3 -13 -16    0.38    0.96
  -2 -13 -16    8.44    1.96
  -1 -13 -16   12.67    2.26
   0 -13 -16    3.65    1.25
   1 -13 -16   11.26    1.93
  -2  13  16    1.18   11.07
   2 -13 -16    3.62    1.17
   3 -13 -16    1.95    0.96
  -3  13  16    1.65    8.22
   4 -13 -16   16.03    2.28
  -4  13  16   -0.75    8.09
  -2 -13 -17    4.27    1.32
  -1 -13 -17    0.28    0.99
   0 -13 -17    8.38    1.79
   1 -13 -17   14.16    2.26
   2 -13 -17    1.79    0.90
  -2  13  17    0.39   11.01
  -3  13  17    5.31    9.11
   3 -13 -17    9.82    1.91
   4 -13 -17    1.73    1.19
  -4  13  17    0.59    8.48
  -1 -13 -18   -0.47    0.92
   0 -13 -18    0.07    0.91
   1 -13 -18    2.24    1.20
  -2  13  18    8.04   11.96
   2 -13 -18    4.69    1.42
   3 -13 -18    3.49    1.27
  -3  13  18   -1.79    8.83
   4 -13 -18    2.56    1.39
   0 -13 -19    1.66    1.19
   1 -13 -19   -0.25    0.81
   2 -13 -19    2.72    1.35
   3 -13 -19    2.05    1.45
   2  14 -20   -0.22    1.41
   3  14 -19    0.62    0.99
   2  14 -19    0.90    1.00
   3  14 -18    9.31    1.62
   2  14 -18   -0.39    0.82
  -1  14 -18    0.78    2.49
  -2  14 -18   13.70    3.92
   4  14 -17    3.81    1.08
   3  14 -17   10.44    1.70
   2  14 -17   10.57    1.82
  -1  14 -17    2.86    2.53
  -2  14 -17    2.97    2.70
   4  14 -16    2.07    0.95
   3  14 -16    1.45    0.97
   2  14 -16    3.11    1.20
   0  14 -16    4.41    2.30
  -1  14 -16    6.96    2.84
  -2  14 -16   15.79    3.66
  -3  14 -16   -3.27    2.48
   5  14 -15    8.34    1.67
   3  14 -15    4.20    1.14
   2  14 -15    0.51    0.86
   1  14 -15    3.99    1.20
   1  14 -15   -0.61    1.69
   0  14 -15    2.53    2.18
  -1  14 -15    4.88    2.51
  -2  14 -15    3.35    2.54
  -3  14 -15   -2.88    1.50
   5  14 -14    0.77    0.87
   4  14 -14    4.35    1.17
   3  14 -14    1.83    0.83
   2  14 -14    2.03    0.96
   1  14 -14    1.56    1.74
   1  14 -14    0.66    0.77
   0  14 -14    1.88    2.05
  -1  14 -14    0.99    2.12
  -2  14 -14    8.84    2.97
  -3  14 -14   10.58    3.44
   5  14 -13    4.53    1.31
   4  14 -13    2.56    0.92
   3  14 -13    2.16    0.92
   2  14 -13    2.86    1.30
   2  14 -13    8.76    1.63
   1  14 -13   30.61    2.37
   1  14 -13   29.96    3.55
   0  14 -13   14.19    2.80
  -1  14 -13    2.06    2.07
  -2  14 -13    1.91    2.30
  -3  14 -13    0.83    2.38
  -4  14 -13   -2.15    1.72
   5  14 -12    0.91    0.64
   4  14 -12    1.87    0.94
   3  14 -12    1.29    0.85
   3  14 -12    1.25    0.88
   2  14 -12   18.73    2.91
   2  14 -12   19.13    2.15
   1  14 -12    2.48    0.89
   1  14 -12    1.75    1.80
   0  14 -12    2.75    2.06
  -1  14 -12   46.70    4.25
  -2  14 -12   16.50    3.30
  -3  14 -12   -1.09    1.70
  -4  14 -12   -0.45    1.95
   5  14 -11    1.31    0.77
   4  14 -11   11.32    1.81
   3  14 -11    7.35    1.91
   2  14 -11   38.58    3.53
   2  14 -11   44.71    2.80
   1  14 -11    1.45    1.78
   1  14 -11    2.28    0.87
   0  14 -11   34.21    3.84
  -1  14 -11   12.26    2.85
  -2  14 -11    1.35    1.98
  -3  14 -11   -1.70    1.57
  -4  14 -11   -0.11    2.53
   6  14 -10   -0.68    1.09
   5  14 -10    9.07    1.56
   4  14 -10   28.05    2.40
   4  14 -10   31.96    3.02
   3  14 -10    5.40    1.99
   2  14 -10   27.62    2.18
   2  14 -10   31.14    3.40
   1  14 -10   18.52    2.89
   1  14 -10   20.45    1.87
   0  14 -10   56.64    2.90
   0  14 -10   51.58    4.29
  -1  14 -10    7.06    2.48
  -2  14 -10    3.17    2.09
  -3  14 -10    7.14    2.95
  -4  14 -10   14.70    3.75
  -5  14 -10    1.31    1.96
   6  14  -9   -0.46    1.25
   5  14  -9    2.89    0.98
   4  14  -9    7.61    1.38
   4  14  -9    9.80    2.08
   3  14  -9   16.06    1.98
   3  14  -9   14.21    2.50
   2  14  -9   52.62    2.96
   2  14  -9   50.60    3.91
   1  14  -9    6.95    2.02
   1  14  -9    6.12    1.23
   0  14  -9    0.95    1.81
   0  14  -9    2.72    0.85
  -1  14  -9   18.23    3.08
  -2  14  -9   14.69    3.10
  -3  14  -9    5.54    2.52
  -4  14  -9    6.07    2.52
  -5  14  -9    9.91    2.96
   6  14  -8    0.71    1.17
   5  14  -8    0.69    0.74
   4  14  -8    3.57    1.68
   4  14  -8    1.30    0.68
   3  14  -8    1.72    0.84
   3  14  -8    2.47    1.72
   2  14  -8   21.16    1.78
   2  14  -8   28.77    3.13
   1  14  -8   15.66    2.52
   1  14  -8   13.49    1.53
   0  14  -8    2.52    1.68
   0  14  -8    2.06    0.76
  -1  14  -8    8.99    2.48
  -2  14  -8   44.14    4.26
  -3  14  -8    1.19    1.30
  -4  14  -8    3.29    2.20
  -5  14  -8    2.45    1.60
   6  14  -7   -1.22    1.22
   5  14  -7    4.20    1.09
   4  14  -7    7.16    2.03
   4  14  -7    6.77    1.35
   3  14  -7   16.11    2.69
   3  14  -7   16.26    1.82
   2  14  -7    5.81    1.21
   2  14  -7    4.55    1.82
   1  14  -7   29.10    3.15
   1  14  -7   25.42    1.84
   0  14  -7    9.51    1.11
   0  14  -7   11.87    2.38
  -1  14  -7   11.49    2.47
  -2  14  -7   58.10    4.65
  -3  14  -7   32.17    3.56
  -4  14  -7    1.22    1.65
  -5  14  -7    7.89    2.30
   5  14  -6    5.20    1.31
   4  14  -6   11.21    2.33
   4  14  -6   10.58    1.61
   3  14  -6   13.34    2.54
   3  14  -6   10.84    1.56
   2  14  -6   27.10    2.04
   2  14  -6   25.68    2.76
   1  14  -6   21.19    2.78
   1  14  -6   16.93    1.55
   0  14  -6   59.33    2.57
   0  14  -6   58.41    4.06
  -1  14  -6   26.95    3.21
  -2  14  -6   43.03    3.87
  -3  14  -6    3.89    1.93
  -4  14  -6   16.45    3.32
  -5  14  -6    0.42    1.35
  -6  14  -6    0.93    1.33
  -6 -14   5    0.47    0.99
  -6 -14   5    3.90    1.21
   5  14  -5   10.07    1.81
   4  14  -5    6.98    2.12
   3  14  -5   14.60    2.52
   3  14  -5   13.62    1.68
   2  14  -5   29.50    2.81
   2  14  -5   28.22    2.05
   1  14  -5   43.68    2.32
   1  14  -5   43.31    3.35
   0  14  -5   26.88    2.69
   0  14  -5   27.12    1.56
  -1  14  -5    2.35    1.42
  -2  14  -5    7.87    2.16
  -3  14  -5   10.64    2.56
  -4  14  -5   18.63    3.28
  -5  14  -5    5.72    1.94
  -6  14  -5   -2.36    1.08
  -6 -14   4    3.30    1.35
  -6 -14   4    7.00    1.77
   4  14  -4   18.88    2.18
   4  14  -4   17.00    2.71
   3  14  -4   23.14    1.89
   3  14  -4   27.05    3.08
   2  14  -4    5.28    1.12
   2  14  -4   12.28    2.17
   1  14  -4   10.35    1.21
   1  14  -4   12.00    2.05
   0  14  -4  290.94   11.51
   0  14  -4  301.81    8.70
  -1  14  -4  100.31    5.36
  -2  14  -4   21.44    2.97
  -3  14  -4    6.72    2.21
  -4  14  -4    6.81    2.48
  -5  14  -4    2.59    1.56
  -6  14  -4    5.29    2.40
  -6 -14   3   11.12    2.38
  -6 -14   3    8.90    2.08
  -5 -14   3    2.77    1.72
  -5 -14   3    8.50    2.08
   4  14  -3   20.44    3.00
   3  14  -3   35.96    3.26
   3  14  -3   36.79    2.46
   2  14  -3   56.85    2.95
   2  14  -3   57.12    3.76
   1  14  -3   21.85    2.45
   1  14  -3   17.00    1.41
   0  14  -3   26.32    2.59
  -1  14  -3   11.69    2.06
  -2  14  -3   24.88    3.01
  -3  14  -3   19.94    3.05
  -4  14  -3    1.46    1.64
  -5  14  -3    0.08    1.17
  -6  14  -3   -1.47    1.34
  -6 -14   2   10.24    2.25
  -6 -14   2    3.55    1.22
  -5 -14   2    2.00    1.17
  -5 -14   2    4.39    1.32
  -4 -14   2    5.47    1.85
  -4 -14   2    3.58    1.48
  -3 -14   2   16.13    2.68
   3  14  -2   19.64    2.77
  -3 -14   2   14.84    2.42
  -2 -14   2   23.44    2.60
  -2 -14   2   27.68    2.95
   2  14  -2   23.38    2.40
   0 -14   2    2.51    0.70
   0  14  -2    5.44    1.52
   0 -14   2    2.39    0.67
   0  14  -2    7.59    4.56
  -1  14  -2   56.47    3.72
  -2  14  -2   30.51    3.34
  -3  14  -2    9.84    2.31
  -4  14  -2    5.06    1.90
  -5  14  -2    6.05    2.25
  -6  14  -2    2.21    1.85
  -6 -14   1    1.34    0.98
  -6 -14   1    3.33    1.41
  -5 -14   1    5.25    1.73
  -5 -14   1    6.60    1.75
  -4 -14   1    4.86    1.75
  -4 -14   1    4.03    1.38
  -3 -14   1   33.42    3.35
   3  14  -1   31.70    3.15
  -3 -14   1   37.32    3.35
   2  14  -1   10.77    2.02
  -2 -14   1    8.46    1.68
  -2 -14   1    8.30    1.80
   0  14  -1   36.47    5.99
   0 -14   1   33.12    1.99
   0  14  -1   37.37    2.87
  -1  14  -1    6.38    1.69
  -2  14  -1   53.14    3.73
  -3  14  -1   11.05    2.34
  -4  14  -1   10.95    2.56
  -5  14  -1    2.07    1.62
  -6  14  -1    5.82    2.36
  -6 -14   0    1.18    1.04
  -5 -14   0    4.89    1.75
  -5 -14   0    3.39    1.25
  -4 -14   0    4.25    1.46
  -4 -14   0    4.80    1.79
   3  14   0    8.16    2.12
  -3 -14   0    7.19    1.89
  -3 -14   0    6.66    1.64
  -2 -14   0    4.48    1.34
  -2 -14   0    4.45    1.35
   2  14   0    5.70    1.71
   1  14   0   50.14    3.31
  -1 -14   0   51.40    2.99
   0  14   0   42.88    7.27
   0  14   0   25.58    2.51
   0 -14   0   27.63    1.83
  -1  14   0   54.53    7.52
  -1  14   0   46.76    3.27
  -2  14   0    5.68    1.62
  -3  14   0    8.01    2.06
  -4  14   0    1.82    1.54
  -5  14   0    8.55    2.53
  -6 -14  -1    8.13    1.92
  -5 -14  -1    5.02    1.59
  -4 -14  -1    8.91    2.03
  -3 -14  -1    7.24    1.77
   3  14   1    7.89    2.09
  -2 -14  -1   59.43    3.65
   2  14   1   51.14    3.59
   1  14   1    5.03    1.49
   1  14   1    9.14    5.18
  -1 -14  -1    6.18    1.31
   0  14   1   38.65    2.83
   0 -14  -1   38.79    2.24
   0  14   1   39.87    6.47
   1 -14  -1   39.48    1.78
  -1  14   1   61.90   10.00
  -1  14   1   39.95    2.93
  -2  14   1   11.31    1.95
  -2  14   1   15.91    7.81
  -3  14   1   33.00    3.12
  -4  14   1    3.62    1.71
  -5  14   1    5.50    2.19
  -6 -14  -2    4.18    1.54
  -5 -14  -2    3.83    1.40
  -4 -14  -2    4.10    1.51
  -3 -14  -2   10.18    2.05
   2  14   2   25.66    2.84
  -2 -14  -2   24.25    2.62
  -1 -14  -2   55.11    3.23
   1  14   2   59.64    6.97
   1  14   2   51.83    3.41
   0 -14  -2    3.62    0.86
   0  14   2    3.16    1.29
   0  14   2    5.97    5.27
  -1  14   2   22.63    7.36
   1 -14  -2   10.57    0.90
  -1  14   2   15.37    1.99
  -2  14   2   25.19    2.46
  -2  14   2   44.29    9.99
  -3  14   2   16.81    2.54
  -3  14   2   12.72   11.68
  -4  14   2    7.44    2.02
  -4  14   2    9.48   11.10
  -5  14   2    7.96    9.94
  -6  14   2    5.30    7.43
  -6 -14  -3   -1.04    1.04
  -5 -14  -3    2.63    1.25
  -4 -14  -3    0.04    1.04
  -3 -14  -3   16.20    2.53
   2  14   3   17.58    2.42
  -2 -14  -3   24.13    2.60
   1  14   3   15.61    6.42
   1  14   3   10.39    1.89
  -1 -14  -3    8.31    1.49
   0  14   3   23.42    2.27
   0 -14  -3   27.18    1.92
  -1  14   3   19.72    2.09
  -1  14   3   32.32    8.78
   1 -14  -3   17.86    1.26
  -2  14   3   53.78    9.39
  -2  14   3   55.40    3.47
  -3  14   3   46.43    3.34
  -3  14   3   25.70   12.41
  -4  14   3   24.11    2.87
  -4  14   3   24.59   11.68
  -5  14   3    5.75    9.17
  -6  14   3    3.20    5.87
  -6 -14  -4   12.18    2.58
  -5 -14  -4    5.99    1.65
  -4 -14  -4    5.85    1.52
  -3 -14  -4    4.09    1.43
   2  14   4   17.14    2.42
  -2 -14  -4   18.75    2.35
  -1 -14  -4  100.64    4.72
   1  14   4  101.74   10.07
   1  14   4   99.56    5.07
   0  14   4  261.56   18.76
   0  14   4  288.71   10.44
  -1  14   4   20.73    7.83
  -1  14   4   13.81    1.87
   1 -14  -4   11.92    1.10
   2 -14  -4    7.03    0.79
  -2  14   4    8.45    1.74
  -2  14   4   28.67   10.14
  -3  14   4   35.19   11.85
  -3  14   4   22.64    2.56
  -4  14   4   10.12   10.98
  -5  14   4   12.96    9.33
  -6  14   4    8.61    7.03
  -6 -14  -5   -0.10    0.85
  -5 -14  -5    6.41    1.62
  -4 -14  -5   15.24    2.48
  -3 -14  -5    8.56    1.85
  -2 -14  -5    5.54    1.42
   1  14   5    1.37    1.28
  -1 -14  -5    0.89    0.67
   1  14   5    0.39    6.30
   0 -14  -5   26.79    2.07
   0  14   5   32.67    7.30
   0  14   5   24.12    2.22
  -1  14   5   48.62    2.98
  -1  14   5   46.43    8.12
   1 -14  -5   46.80    2.41
  -2  14   5   33.34    2.56
   2 -14  -5   33.41    1.82
  -2  14   5   59.82   13.17
  -3  14   5   17.95   10.64
  -4  14   5    8.98   10.21
  -5  14   5    9.10    9.20
  -6  14   5   -2.44    6.06
  -5 -14  -6    2.79    1.01
  -4 -14  -6   14.33    2.41
  -3 -14  -6    5.32    1.46
  -2 -14  -6   36.07    2.95
  -1 -14  -6   25.21    2.28
   1  14   6   23.59    2.45
   0  14   6   57.24    3.52
   0 -14  -6   60.44    3.28
   0  14   6   69.31    9.60
  -1  14   6   17.25    2.04
  -1  14   6   21.93    9.74
   1 -14  -6   16.85    1.48
   2 -14  -6   29.15    1.77
  -2  14   6   55.70   12.56
  -2  14   6   25.18    2.39
  -3  14   6   25.16   11.31
  -4  14   6   12.03   10.68
  -5  14   6   -5.82    7.98
  -6  14   6   -0.95    7.68
  -5 -14  -7    6.21    1.79
  -4 -14  -7    1.82    0.81
  -3 -14  -7   24.58    2.99
  -2 -14  -7   49.59    3.49
  -1 -14  -7   10.04    1.79
  -1  14   7   25.41    2.23
  -1  14   7   50.22   11.81
   2 -14  -7    3.84    0.88
  -2  14   7    6.18    9.03
  -3  14   7   17.77   12.47
  -4  14   7    3.00    9.87
  -5  14   7   -5.02    7.40
  -6  14   7   -5.29    6.87
  -5 -14  -8    1.32    0.94
  -4 -14  -8    7.71    1.78
  -3 -14  -8    0.15    0.86
  -2 -14  -8   46.03    3.51
  -1 -14  -8    7.12    1.67
   0  14   8    0.76    1.06
   0 -14  -8    2.15    0.89
   0  14   8   -3.83    9.07
   1 -14  -8   16.98    1.74
  -1  14   8    8.43    7.76
   2 -14  -8   24.20    1.84
  -2  14   8   37.39   12.13
  -3  14   8   20.64   11.50
  -4  14   8    2.12    9.54
  -5  14   8   -5.90    6.52
  -6  14   8   -5.24    6.48
  -5 -14  -9    8.75    2.05
  -4 -14  -9    6.74    1.66
  -3 -14  -9    1.91    1.22
  -2 -14  -9    9.68    1.97
  -1 -14  -9   15.30    2.19
   0  14   9   -4.66    9.98
   0 -14  -9    0.34    0.75
  -1  14   9   21.51   11.22
  -2  14   9   79.58   16.27
   2 -14  -9   41.70    2.51
  -3  14   9   11.96   10.62
  -4  14   9   17.27   10.46
  -5  14   9    2.87    7.55
  -6  14   9   -2.23    7.01
  -5 -14 -10    3.56    1.23
  -4 -14 -10   11.87    2.11
  -3 -14 -10    4.66    1.35
  -2 -14 -10    3.42    1.35
  -1 -14 -10    6.21    1.59
   0 -14 -10   51.11    3.34
   0  14  10   77.25   15.89
   1 -14 -10   19.72    1.80
  -1  14  10   36.21   14.44
  -2  14  10   59.65   14.44
   2 -14 -10   31.50    2.20
  -3  14  10    7.19    9.50
  -4  14  10   21.99   10.66
  -5  14  10    7.20    7.28
  -6  14  10   10.12    7.34
  -4 -14 -11    1.15    0.93
  -3 -14 -11    0.64    0.88
  -2 -14 -11    3.03    1.18
  -1 -14 -11   10.47    1.89
   0  14  11   26.13   13.29
   0 -14 -11   24.26    2.51
  -1  14  11   17.81   13.26
  -2  14  11   51.47   13.72
   2 -14 -11   43.34    2.75
  -3  14  11    6.94   10.41
   3 -14 -11    3.62    0.98
  -4  14  11    9.02    8.76
  -5  14  11    2.81    6.91
  -6  14  11    1.73    6.32
  -4 -14 -12    1.62    1.05
  -3 -14 -12    0.16    0.72
  -2 -14 -12    9.16    1.98
  -1 -14 -12   47.28    3.54
   0 -14 -12    2.62    1.03
  -1  14  12    5.99   11.83
   2 -14 -12   20.83    1.90
  -2  14  12   15.06   13.03
  -3  14  12    9.72   11.20
  -4  14  12   12.78    8.28
  -5  14  12    2.80    6.85
  -4 -14 -13    1.22    0.83
  -3 -14 -13    1.15    0.75
  -2 -14 -13    1.74    1.11
  -1 -14 -13    2.16    1.01
   0 -14 -13   14.74    2.12
  -1  14  13   13.83   14.12
   1 -14 -13   29.25    2.38
   2 -14 -13    4.51    1.20
  -2  14  13   -2.70   14.26
   3 -14 -13    2.93    1.09
  -3  14  13    0.06    9.04
  -4  14  13    4.16    8.22
  -5  14  13    2.59    7.09
  -3 -14 -14    5.88    1.55
  -2 -14 -14    3.10    1.54
  -1 -14 -14    4.45    1.49
   0 -14 -14    4.17    1.23
   1 -14 -14    1.15    0.81
  -1  14  14   -4.98   12.69
  -2  14  14    8.98   13.56
   3 -14 -14    2.91    0.97
  -3  14  14   -1.47    9.45
  -4  14  14    9.29    9.16
  -5  14  14    2.31    7.80
  -3 -14 -15    4.62    1.32
  -2 -14 -15    4.76    1.62
  -1 -14 -15    4.18    1.44
   0 -14 -15    2.58    1.03
   1 -14 -15    1.47    0.92
  -1  14  15   -6.98   12.62
   2 -14 -15    2.56    0.91
  -2  14  15   -9.32    9.73
  -3  14  15   -8.94    8.63
   3 -14 -15    2.37    1.01
  -4  14  15    7.95    8.16
  -5  14  15   -6.16    8.66
  -2 -14 -16   -0.26    1.01
  -1 -14 -16    5.12    1.65
   0 -14 -16    5.01    1.37
   1 -14 -16    1.07    0.84
   2 -14 -16    3.09    1.11
  -2  14  16   -2.71   10.38
  -3  14  16   -2.96    8.45
   3 -14 -16    2.65    1.33
  -4  14  16   -0.39    8.40
  -2 -14 -17    1.26    1.26
  -1 -14 -17   -0.21    0.87
   0 -14 -17    1.05    1.04
   1 -14 -17   10.65    1.98
  -2  14  17    4.81   12.23
   2 -14 -17   11.98    2.04
   3 -14 -17   13.45    2.20
  -3  14  17    4.72    9.31
  -4  14  17   -1.66    8.69
  -1 -14 -18    0.20    1.09
   0 -14 -18    0.98    0.81
   1 -14 -18    5.55    1.69
  -2  14  18  -10.16   11.46
   2 -14 -18    1.07    0.88
   3 -14 -18   16.65    2.56
  -3  14  18    8.11   10.72
   0 -14 -19   -1.29    1.04
   1 -14 -19    0.10    1.06
   2 -14 -19    3.53    1.48
   3 -14 -19    1.25    1.47
   3  15 -19    1.90    1.28
   3  15 -18    0.01    0.85
   2  15 -18    3.73    1.31
  -1  15 -18   -0.87    2.55
  -2  15 -18    0.93    2.98
   4  15 -17    0.21    0.75
   3  15 -17    1.55    0.99
   2  15 -17    2.10    1.30
  -1  15 -17    7.03    2.71
  -2  15 -17   -1.28    2.30
   4  15 -16   10.92    1.70
   3  15 -16    2.71    1.00
   2  15 -16    4.36    1.29
   0  15 -16    6.79    2.43
  -1  15 -16    5.35    2.64
  -2  15 -16   -0.02    2.18
   4  15 -15    1.49    0.81
   3  15 -15    2.09    0.96
   2  15 -15   12.91    1.93
   1  15 -15    5.70    2.26
   0  15 -15    2.40    2.13
  -1  15 -15    0.10    2.15
  -2  15 -15    7.59    3.07
  -3  15 -15   -1.00    1.82
   5  15 -14    3.22    1.08
   4  15 -14    3.68    1.03
   3  15 -14    1.73    0.86
   2  15 -14    0.70    0.94
   2  15 -14    3.29    1.14
   1  15 -14    1.44    1.84
   1  15 -14    5.95    1.38
   0  15 -14   39.91    3.96
  -1  15 -14   -0.77    1.94
  -2  15 -14   11.83    3.08
  -3  15 -14   -0.68    1.80
   5  15 -13    0.87    0.70
   4  15 -13    9.62    1.48
   3  15 -13   -0.09    0.78
   2  15 -13   11.67    2.57
   2  15 -13    9.03    1.70
   1  15 -13   21.51    3.19
   1  15 -13   21.52    2.25
   0  15 -13   20.83    3.43
  -1  15 -13    2.38    2.36
  -2  15 -13   13.24    3.20
  -3  15 -13    0.21    2.25
  -4  15 -13   -2.56    1.78
   5  15 -12    1.61    0.74
   4  15 -12    5.50    1.20
   3  15 -12    6.96    1.92
   2  15 -12    7.55    1.52
   2  15 -12    9.91    2.38
   1  15 -12   13.34    2.70
   1  15 -12   14.74    1.84
   0  15 -12   17.11    3.08
  -1  15 -12   36.19    3.93
  -2  15 -12    3.75    2.40
  -3  15 -12   -0.42    2.00
  -4  15 -12   -2.50    1.59
   5  15 -11    0.47    0.66
   4  15 -11    0.54    0.73
   3  15 -11    1.92    0.80
   3  15 -11   -0.58    1.46
   2  15 -11   36.70    3.40
   2  15 -11   31.66    2.39
   1  15 -11    7.82    2.31
   1  15 -11    9.50    1.50
   0  15 -11   17.01    2.99
  -1  15 -11    7.82    2.54
  -2  15 -11   -0.78    1.97
  -3  15 -11   -0.33    2.00
  -4  15 -11   -1.35    2.31
   6  15 -10    2.13    1.00
   5  15 -10    2.04    0.81
   4  15 -10   15.76    2.51
   4  15 -10    7.42    1.37
   3  15 -10    1.45    0.74
   3  15 -10    0.20    1.54
   2  15 -10   15.19    2.62
   2  15 -10   12.59    1.69
   1  15 -10   51.62    2.88
   1  15 -10   49.75    3.96
   0  15 -10    5.51    2.13
  -1  15 -10   16.21    3.08
  -2  15 -10   46.05    4.53
  -3  15 -10   -1.49    1.88
  -4  15 -10   15.91    3.65
   6  15  -9    0.97    0.78
   5  15  -9    0.86    0.63
   5  15  -9    2.30    1.30
   4  15  -9   13.07    1.75
   4  15  -9   18.37    2.77
   3  15  -9    7.28    2.17
   3  15  -9    9.43    1.62
   2  15  -9    2.33    1.80
   2  15  -9    1.30    0.73
   1  15  -9   11.35    1.54
   0  15  -9   21.38    3.22
  -1  15  -9   12.40    2.86
  -2  15  -9   33.94    4.32
  -3  15  -9    1.91    1.98
  -4  15  -9    3.76    2.13
  -5  15  -9    8.82    2.80
   6  15  -8   -0.08    0.98
   5  15  -8    2.08    0.79
   4  15  -8   12.76    2.45
   4  15  -8   10.05    1.57
   3  15  -8    7.13    1.35
   3  15  -8    4.85    1.96
   2  15  -8   25.46    2.01
   2  15  -8   27.99    3.21
   1  15  -8    3.57    1.01
   1  15  -8   14.57    2.58
   0  15  -8    4.50    2.07
  -1  15  -8   20.51    3.24
  -2  15  -8   53.97    4.73
  -3  15  -8    2.50    1.90
  -4  15  -8   15.11    3.22
  -5  15  -8   -0.02    1.90
   6  15  -7    1.27    1.36
   5  15  -7    3.14    0.82
   4  15  -7   17.23    2.73
   4  15  -7   11.75    1.63
   3  15  -7   13.51    2.45
   3  15  -7   11.01    1.56
   2  15  -7   25.01    1.91
   2  15  -7   26.71    3.12
   1  15  -7    8.45    1.28
   1  15  -7    7.95    2.11
   0  15  -7   23.97    1.63
   0  15  -7   28.24    3.30
  -1  15  -7   26.88    3.50
  -2  15  -7    3.30    2.02
  -3  15  -7    0.91    1.74
  -4  15  -7   20.76    3.57
  -5  15  -7    0.44    1.50
   5  15  -6    0.96    0.75
   4  15  -6    8.11    2.17
   4  15  -6    8.46    1.46
   3  15  -6    0.43    0.56
   3  15  -6   -2.93    1.28
   2  15  -6    6.03    2.05
   2  15  -6    7.82    1.26
   1  15  -6   66.99    4.46
   1  15  -6   69.06    3.16
   0  15  -6    9.19    2.21
   0  15  -6    5.76    0.89
  -1  15  -6    5.29    1.93
  -2  15  -6   41.92    3.89
  -3  15  -6   26.46    3.74
  -4  15  -6    6.68    2.42
  -5  15  -6    0.69    1.55
  -6 -15   5    2.55    1.09
  -6 -15   5    0.90    1.18
   5  15  -5   14.48    1.99
   4  15  -5   24.07    3.13
   4  15  -5   17.68    2.01
   3  15  -5    3.32    0.98
   3  15  -5    4.43    1.92
   2  15  -5   25.62    2.00
   2  15  -5   22.78    2.80
   1  15  -5   91.08    5.18
   1  15  -5   94.15    3.83
   0  15  -5   17.67    2.65
   0  15  -5   13.31    1.12
  -1  15  -5   56.64    4.11
  -2  15  -5   16.18    2.82
  -3  15  -5   -0.41    1.45
  -4  15  -5    6.46    2.29
  -5  15  -5    0.14    1.29
  -6  15  -5    3.35    1.84
  -6 -15   4   -0.71    0.88
  -6 -15   4    2.71    1.18
  -5 -15   4   -0.07    1.06
  -5 -15   4    2.95    1.56
   4  15  -4    8.88    2.29
   4  15  -4   10.95    1.69
   3  15  -4   10.22    2.31
   3  15  -4   13.54    1.72
   2  15  -4   18.15    1.69
   2  15  -4   25.82    2.88
   1  15  -4   10.51    2.07
   1  15  -4   12.47    1.34
   0  15  -4   29.48    1.59
   0  15  -4   27.68    2.89
  -1  15  -4   86.62    5.12
  -2  15  -4   33.69    3.38
  -3  15  -4   53.37    4.47
  -4  15  -4   14.45    2.90
  -5  15  -4    4.49    2.17
  -6  15  -4    0.65    1.76
  -6 -15   3    4.55    1.46
  -6 -15   3    4.38    1.39
  -5 -15   3    4.79    1.97
  -5 -15   3    3.48    1.65
   4  15  -3    4.16    1.80
  -4 -15   3    4.30    1.72
  -4 -15   3    2.67    1.49
   3  15  -3   33.04    3.17
   2  15  -3    6.94    1.26
   2  15  -3    7.27    1.85
   1  15  -3   23.05    1.65
   1  15  -3   23.03    2.44
   0 -15   3    3.77    0.82
   0 -15   3    3.60    0.86
   0  15  -3    2.93    1.48
  -1  15  -3    4.94    1.74
  -2  15  -3   36.47    3.31
  -3  15  -3   24.40    3.37
  -4  15  -3    5.56    2.10
  -5  15  -3    3.13    1.95
  -6  15  -3   -2.19    1.38
  -6 -15   2    7.06    1.88
  -6 -15   2    5.43    1.58
  -5 -15   2   18.21    2.93
  -5 -15   2   18.80    3.40
  -4 -15   2   12.90    2.78
   4  15  -2   17.94    2.87
  -4 -15   2   12.57    2.47
  -3 -15   2    8.96    2.28
   3  15  -2   20.53    2.82
  -3 -15   2   11.28    2.21
  -2 -15   2   13.89    2.26
  -2 -15   2   18.03    2.34
   2  15  -2   14.19    2.33
  -1 -15   2   49.99    3.23
  -1 -15   2   54.42    3.19
   0  15  -2    8.45    4.24
   0 -15   2    4.87    0.89
   0  15  -2    4.21    1.55
   0 -15   2    3.78    0.86
  -1  15  -2   39.11    3.14
  -2  15  -2   10.68    2.18
  -3  15  -2    4.66    2.07
  -4  15  -2    0.89    1.43
  -5  15  -2    6.19    2.29
  -6  15  -2    2.53    2.11
  -6 -15   1   -0.97    0.85
  -6 -15   1    0.76    0.92
  -5 -15   1   15.35    3.09
  -5 -15   1    9.71    2.12
  -4 -15   1    7.76    2.34
  -4 -15   1    7.29    2.04
   3  15  -1   27.40    3.19
  -3 -15   1   28.32    3.40
  -3 -15   1   27.72    3.19
   2  15  -1    7.49    1.88
  -2 -15   1    4.88    1.36
  -2 -15   1    4.81    1.44
   0  15  -1   29.56    2.72
   0 -15   1   29.39    1.90
   0  15  -1   38.82    7.32
  -1  15  -1   14.36    2.28
  -1  15  -1   18.65    5.37
  -2  15  -1   33.78    3.11
  -3  15  -1   36.51    3.42
  -4  15  -1    4.93    1.92
  -5  15  -1    2.01    1.75
  -6  15  -1    3.44    2.44
  -6 -15   0    3.32    1.30
  -5 -15   0    3.41    1.57
  -5 -15   0    3.98    1.31
  -4 -15   0   13.70    2.71
  -4 -15   0   11.92    2.43
  -3 -15   0   26.63    3.07
   3  15   0   27.66    2.95
  -3 -15   0   26.04    3.27
   2  15   0   22.25    2.71
  -2 -15   0   16.29    2.26
  -2 -15   0   22.12    2.58
  -1 -15   0    2.04    0.64
   1  15   0    3.57    1.43
   0  15   0    2.06    1.33
   0 -15   0   -0.21    0.40
   0  15   0   -2.69    3.78
   1 -15   0    3.41    0.50
  -1  15   0    6.11    1.72
  -1  15   0    7.27    5.00
  -2  15   0   19.40    2.65
  -3  15   0   30.36    3.06
  -4  15   0   14.07    2.76
  -5  15   0   10.24    2.56
  -6 -15  -1    9.36    2.36
  -5 -15  -1    1.84    0.98
  -4 -15  -1    3.96    1.53
   3  15   1   30.27    3.05
  -3 -15  -1   30.78    3.22
   2  15   1   24.58    2.57
  -2 -15  -1   28.51    2.81
  -1 -15  -1   13.60    1.80
   1  15   1    9.92    1.88
   1  15   1   16.79    5.77
   0  15   1   37.70    6.47
   0  15   1   31.86    2.69
   0 -15  -1   33.45    2.11
  -1  15   1   26.28    2.45
  -1  15   1   37.11    8.30
   1 -15  -1   24.13    1.33
  -2  15   1   -4.21    7.95
  -2  15   1    6.31    1.79
  -3  15   1   27.28    2.89
  -3  15   1   47.89   12.90
  -4  15   1   13.85    2.54
  -5  15   1   23.16    3.40
  -6  15   1    5.92    7.25
  -6 -15  -2    3.43    1.36
  -5 -15  -2    3.48    1.40
  -4 -15  -2    0.48    1.08
   3  15   2    9.79    2.25
  -3 -15  -2   11.39    2.20
  -2 -15  -2    6.33    1.58
   2  15   2    8.89    2.01
  -1 -15  -2   36.40    2.57
   1  15   2   35.49    6.09
   1  15   2   34.35    2.83
   0 -15  -2    3.54    0.90
   0  15   2    5.78    1.54
   0  15   2    8.71    5.46
  -1  15   2   71.06    8.96
  -1  15   2   79.65    4.19
   1 -15  -2   77.02    2.94
  -2  15   2   14.80    2.25
  -2  15   2   17.51    9.26
  -3  15   2   29.04   11.44
  -3  15   2   17.13    2.59
  -4  15   2   23.19   11.93
  -4  15   2   20.61    2.88
  -5  15   2   24.65   10.77
  -6  15   2    5.58    7.62
  -6 -15  -3    0.13    1.04
  -5 -15  -3    4.17    1.33
  -4 -15  -3    3.74    1.47
  -3 -15  -3   20.23    2.82
   2  15   3   30.47    2.85
  -2 -15  -3   28.90    2.66
   1  15   3    5.61    5.78
  -1 -15  -3    2.12    0.95
   1  15   3    4.44    1.66
   0  15   3    3.55    1.42
   0  15   3    2.20    3.97
   0 -15  -3    4.54    0.99
  -1  15   3   36.65    9.15
   1 -15  -3   22.97    1.46
  -1  15   3   22.67    2.32
  -2  15   3   10.98    8.26
  -2  15   3    8.52    1.91
  -3  15   3   24.31   11.91
  -3  15   3   36.96    3.11
  -4  15   3    5.67    1.83
  -4  15   3    2.56    9.13
  -5  15   3    9.80    9.16
  -6  15   3    8.32    7.21
  -6 -15  -4    1.82    1.53
  -5 -15  -4    3.63    1.29
  -4 -15  -4    9.92    2.21
  -3 -15  -4   46.67    3.67
  -2 -15  -4   28.93    2.68
   2  15   4   32.28    2.97
  -1 -15  -4   82.11    4.18
   1  15   4   83.88    4.65
   1  15   4   74.08    9.85
   0  15   4   26.12    2.38
   0  15   4   20.48    6.42
   1 -15  -4   12.33    1.25
  -1  15   4   18.40    8.29
  -1  15   4   13.42    2.01
  -2  15   4   23.51    2.46
  -2  15   4   49.10   11.87
  -3  15   4   22.46   11.13
  -3  15   4   14.01    2.26
  -4  15   4   10.27   10.44
  -5  15   4    5.51    8.48
  -6  15   4   -1.73    7.03
  -5 -15  -5    0.76    0.90
  -4 -15  -5    5.16    1.62
  -3 -15  -5    1.70    0.96
  -2 -15  -5   13.24    2.10
   2  15   5   14.24    2.36
  -1 -15  -5   56.74    3.38
   1  15   5   50.19    8.74
   1  15   5   49.27    3.55
   0  15   5   13.92    2.18
   0 -15  -5   11.43    1.56
   0  15   5   21.42    7.59
  -1  15   5   82.16   11.50
   1 -15  -5   97.05    3.83
  -1  15   5   93.90    4.66
  -2  15   5   35.05   11.35
  -2  15   5   21.69    2.31
  -3  15   5    8.82   10.65
  -4  15   5   14.17   11.56
  -5  15   5    0.66    8.57
  -6  15   5   -0.55    7.69
  -5 -15  -6    3.54    1.38
  -4 -15  -6   10.04    2.05
  -3 -15  -6   17.69    2.61
  -2 -15  -6   36.28    3.04
   1  15   6    4.05    1.65
  -1 -15  -6    7.92    1.64
   0 -15  -6    6.44    1.25
   0  15   6   11.12    8.37
   0  15   6    6.01    1.80
  -1  15   6   59.85    3.61
  -1  15   6   75.67   10.89
   1 -15  -6   64.31    3.08
  -2  15   6   10.17   10.39
  -2  15   6    6.42    1.80
   2 -15  -6    6.57    0.96
  -3  15   6   -0.66    9.27
  -4  15   6    4.81   10.14
  -5  15   6   -5.10    7.66
  -6  15   6   -5.22    7.15
  -5 -15  -7    2.24    1.15
  -4 -15  -7   19.02    2.79
  -3 -15  -7    0.65    0.84
  -2 -15  -7    1.98    1.14
   1  15   7   24.20    2.57
  -1 -15  -7   27.67    2.75
   0  15   7   22.34    2.45
   0  15   7   47.19   11.80
   0 -15  -7   22.70    1.96
   1 -15  -7    7.24    1.19
  -1  15   7    8.21    1.63
  -1  15   7   18.00    9.20
  -2  15   7   33.23   11.67
   2 -15  -7   23.58    1.69
  -3  15   7    9.24   11.29
  -4  15   7   10.34   10.89
  -5  15   7   -2.32    7.30
  -6  15   7   -3.50    8.12
  -5 -15  -8    1.64    1.12
  -4 -15  -8   13.62    2.40
  -3 -15  -8   -0.29    0.83
  -2 -15  -8   60.60    4.08
  -1 -15  -8   18.93    2.45
   0  15   8    5.05    1.51
   0  15   8   10.52   10.24
   0 -15  -8    4.30    1.17
   1 -15  -8    4.07    0.95
  -1  15   8   -1.72    7.94
  -2  15   8   24.90   12.03
   2 -15  -8   23.16    1.76
  -3  15   8   19.33   11.05
  -4  15   8   16.25   11.41
  -5  15   8    0.34    7.67
  -6  15   8    1.04    7.53
  -5 -15  -9   14.02    2.55
  -4 -15  -9    2.28    0.99
  -3 -15  -9    1.52    1.02
  -2 -15  -9   28.86    3.07
  -1 -15  -9    9.98    1.85
   0  15   9   14.90   11.35
   0 -15  -9   16.84    2.08
   1 -15  -9    9.98    1.43
  -1  15   9    9.03   11.04
   2 -15  -9    1.50    0.71
  -2  15   9    4.74    9.72
  -3  15   9   17.66   10.71
  -4  15   9   15.33   10.20
  -5  15   9   -3.91    6.80
  -6  15   9    1.22    7.23
  -4 -15 -10   13.83    2.43
  -3 -15 -10    1.15    0.96
  -2 -15 -10   45.45    3.69
  -1 -15 -10   15.03    2.25
   0 -15 -10    5.70    1.50
   0  15  10   13.12   11.25
   1 -15 -10   56.31    3.17
  -1  15  10   48.78   15.22
  -2  15  10   23.25   11.44
  -3  15  10    5.96   10.22
  -4  15  10   11.31    9.27
  -5  15  10    4.81    7.64
  -6  15  10    5.94    7.18
  -4 -15 -11   13.41    2.44
  -3 -15 -11   -0.58    1.02
  -2 -15 -11    1.31    0.73
  -1 -15 -11    7.39    1.68
   0  15  11   14.89   12.02
   0 -15 -11   12.32    1.97
   1 -15 -11    9.04    1.52
  -1  15  11   13.91   12.48
  -2  15  11   43.35   12.84
   2 -15 -11   31.69    2.35
  -3  15  11    2.56   11.31
  -4  15  11   13.82    9.36
  -5  15  11   -2.06    6.63
  -4 -15 -12   13.47    2.50
  -3 -15 -12    1.75    1.15
  -2 -15 -12    4.33    1.43
  -1 -15 -12   40.17    3.28
   0 -15 -12   19.21    2.34
   1 -15 -12   13.53    1.77
  -1  15  12   16.56   12.21
  -2  15  12   13.88   13.36
   2 -15 -12    7.33    1.43
  -3  15  12   -1.58   10.74
   3 -15 -12    0.12    0.44
  -4  15  12    9.89    8.57
  -5  15  12    4.54    7.09
  -3 -15 -13    0.99    0.78
  -2 -15 -13    4.08    1.36
  -1 -15 -13    2.73    1.18
   0 -15 -13   15.23    2.21
  -1  15  13    6.89   12.00
   1 -15 -13   18.13    2.10
  -2  15  13    6.11   14.52
   2 -15 -13   10.97    1.70
  -3  15  13    9.99    9.46
  -4  15  13    1.35    8.41
  -5  15  13    1.81    7.56
  -3 -15 -14    3.56    1.29
  -2 -15 -14    9.31    2.05
  -1 -15 -14    1.62    1.04
   0 -15 -14   38.81    3.10
  -1  15  14    2.75   11.31
   1 -15 -14    4.42    1.17
  -2  15  14   -6.08   11.90
   2 -15 -14    1.46    0.87
  -3  15  14   -3.51    8.60
   3 -15 -14    0.15    0.75
  -4  15  14    4.18    9.92
  -5  15  14   -0.47    7.71
  -3 -15 -15    1.89    0.98
  -2 -15 -15    1.28    1.17
  -1 -15 -15   -0.49    0.78
   0 -15 -15    3.20    1.12
  -1  15  15   -5.72   12.34
   1 -15 -15    4.37    1.26
  -2  15  15    7.28   12.90
   2 -15 -15    9.47    1.69
   3 -15 -15    3.61    1.26
  -3  15  15   -6.32    9.92
  -4  15  15   -2.54    6.74
  -2 -15 -16   -1.62    0.89
  -1 -15 -16    0.97    1.05
   0 -15 -16    7.29    1.54
   1 -15 -16    1.36    0.82
   2 -15 -16    2.33    0.95
  -2  15  16   -0.51   12.57
  -3  15  16   -5.78    8.67
   3 -15 -16    5.66    1.35
  -4  15  16   -0.42    9.34
  -1 -15 -17   -1.29    0.78
   0 -15 -17    1.68    1.04
   1 -15 -17   10.00    1.99
   2 -15 -17    3.44    1.23
  -2  15  17   -1.05   12.03
   3 -15 -17    4.11    1.39
  -3  15  17   -2.05    9.04
  -1 -15 -18    0.03    1.18
   0 -15 -18    0.03    0.82
   1 -15 -18    1.58    1.16
  -2  15  18   10.30   14.25
   2 -15 -18    5.76    1.65
   3 -15 -18    0.97    1.05
   1 -15 -19   -0.88    1.12
   2 -15 -19    2.89    1.57
   3 -15 -19    5.94    2.06
   3  16 -18    0.44    0.96
  -1  16 -18   -0.59    2.08
   3  16 -17    0.48    0.81
   2  16 -17    0.60    0.96
   0  16 -17   -0.57    2.08
  -1  16 -17    3.31    2.52
  -2  16 -17   -2.77    2.59
   4  16 -16    2.25    0.86
   3  16 -16    3.28    1.08
   2  16 -16    2.58    1.29
   0  16 -16    7.14    2.84
  -1  16 -16   20.53    3.75
  -2  16 -16    5.03    3.15
   4  16 -15    2.60    0.94
   3  16 -15    0.81    0.88
   2  16 -15    5.37    1.49
   1  16 -15    3.72    2.06
   0  16 -15    9.93    2.84
  -1  16 -15    4.87    2.50
  -2  16 -15    4.15    2.83
  -3  16 -15   -2.86    1.89
   5  16 -14    0.22    0.80
   3  16 -14   -1.29    0.59
   2  16 -14    8.31    1.54
   2  16 -14    8.31    2.31
   1  16 -14   15.17    2.92
   0  16 -14    3.51    2.20
  -1  16 -14    5.98    2.65
  -2  16 -14    0.32    2.11
  -3  16 -14   -2.46    1.44
   5  16 -13    2.00    0.75
   4  16 -13    3.56    1.01
   3  16 -13    0.46    0.74
   2  16 -13   16.40    2.90
   2  16 -13   16.75    1.99
   1  16 -13    6.16    2.27
   0  16 -13    3.43    2.16
  -1  16 -13    7.82    2.67
  -2  16 -13    2.99    2.37
  -3  16 -13    1.39    2.61
   5  16 -12    0.23    0.56
   4  16 -12    3.82    1.05
   3  16 -12    8.46    2.27
   3  16 -12    5.29    1.22
   2  16 -12   42.22    3.80
   2  16 -12   42.94    2.87
   1  16 -12   13.78    2.68
   1  16 -12   15.21    1.91
   0  16 -12    3.58    2.20
  -1  16 -12   20.76    3.52
  -2  16 -12   20.23    3.72
  -3  16 -12   -1.74    2.06
  -4  16 -12   -3.32    1.99
   5  16 -11    0.56    0.62
   4  16 -11    2.43    1.48
   4  16 -11    0.82    0.66
   3  16 -11    6.07    1.29
   3  16 -11    8.16    2.30
   2  16 -11    7.62    1.45
   2  16 -11    5.58    1.85
   1  16 -11   11.58    1.61
   1  16 -11    8.40    2.31
   0  16 -11   29.82    3.77
  -1  16 -11   22.63    3.52
  -2  16 -11    8.26    2.90
  -3  16 -11    2.23    2.62
  -4  16 -11   -1.68    1.61
   5  16 -10    2.02    0.72
   4  16 -10    5.19    1.13
   4  16 -10    6.23    1.87
   3  16 -10    7.93    1.55
   3  16 -10    8.44    2.33
   2  16 -10   17.85    2.86
   2  16 -10   20.14    1.82
   1  16 -10    5.95    2.18
   1  16 -10    5.39    1.11
   0  16 -10   37.30    3.70
  -1  16 -10    4.17    2.21
  -2  16 -10    2.06    2.30
  -3  16 -10    1.64    2.50
  -4  16 -10    7.78    2.85
   5  16  -9    2.68    0.87
   5  16  -9    4.31    1.76
   4  16  -9    1.79    0.75
   4  16  -9    1.23    1.32
   3  16  -9    3.98    1.19
   3  16  -9    4.40    1.92
   2  16  -9   25.34    3.24
   2  16  -9   19.22    1.78
   1  16  -9   19.55    3.04
   1  16  -9   19.52    1.91
   0  16  -9   29.62    3.73
  -1  16  -9    2.86    2.06
  -2  16  -9    2.84    2.20
  -3  16  -9   -3.39    1.40
  -4  16  -9   21.41    3.76
  -5  16  -9   -0.54    1.62
   6  16  -8    2.56    1.09
   5  16  -8    5.42    1.81
   5  16  -8    2.80    0.94
   4  16  -8    7.44    1.26
   4  16  -8    8.82    2.30
   3  16  -8    2.52    1.72
   3  16  -8    2.34    0.87
   2  16  -8   28.80    2.16
   2  16  -8   29.65    3.18
   1  16  -8   18.89    3.00
   1  16  -8   18.71    1.85
   0  16  -8    3.03    2.09
  -1  16  -8   40.02    3.94
  -2  16  -8    4.62    2.26
  -3  16  -8    5.57    2.52
  -4  16  -8    4.30    2.07
  -5  16  -8    4.50    2.27
   6  16  -7    3.10    1.05
   5  16  -7    2.41    0.80
   4  16  -7    7.62    1.34
   4  16  -7    9.43    2.25
   3  16  -7   17.71    1.90
   3  16  -7   21.41    2.98
   2  16  -7   17.06    2.71
   2  16  -7   18.14    1.83
   1  16  -7    5.93    2.18
   1  16  -7    6.53    1.20
   0  16  -7   21.87    3.17
  -1  16  -7    5.52    2.26
  -2  16  -7    9.95    2.66
  -3  16  -7    7.31    2.59
  -4  16  -7    3.29    2.02
  -5  16  -7    2.62    1.85
  -6 -16   6    0.74    1.68
   5  16  -6    3.65    1.06
   4  16  -6   25.65    3.25
   4  16  -6   22.75    2.04
   3  16  -6   40.11    2.66
   3  16  -6   35.02    3.37
   2  16  -6   41.17    2.53
   2  16  -6   39.69    3.48
   1  16  -6    4.01    1.98
   1  16  -6    1.66    0.80
   0  16  -6    4.86    1.97
  -1  16  -6   -1.53    1.54
  -2  16  -6   -0.92    1.61
  -3  16  -6   14.35    3.05
  -4  16  -6    2.91    1.97
  -5  16  -6    1.92    1.87
  -6 -16   5    2.36    1.20
  -6 -16   5    0.33    1.14
   4  16  -5    1.63    1.53
   4  16  -5    1.53    0.74
   3  16  -5   47.64    2.87
   3  16  -5   39.48    3.56
   2  16  -5   20.44    2.75
   2  16  -5   17.23    1.72
   1  16  -5   29.05    3.10
   1  16  -5   33.23    2.08
   0  16  -5   11.13    2.38
   0  16  -5   11.58    1.05
  -1  16  -5   21.01    2.92
  -2  16  -5   37.08    3.67
  -3  16  -5    7.24    2.42
  -4  16  -5    8.77    2.45
  -5  16  -5    0.69    1.61
  -6  16  -5   -1.39    1.34
  -6 -16   4    1.93    1.10
  -6 -16   4    3.47    1.38
  -5 -16   4   12.19    2.82
  -5 -16   4   13.14    2.73
   4  16  -4    6.90    2.13
   3  16  -4   18.95    2.83
   3  16  -4   20.86    1.86
   2  16  -4   18.16    1.68
   2  16  -4   20.49    2.74
   1  16  -4   13.48    1.45
   1  16  -4   15.83    2.50
   0  16  -4    4.71    1.90
  -1  16  -4   58.02    4.14
  -2  16  -4   30.14    3.22
  -3  16  -4    0.18    1.57
  -4  16  -4   13.71    2.92
  -5  16  -4    0.73    1.43
  -6  16  -4    2.97    1.98
  -6 -16   3    2.70    1.50
  -6 -16   3    1.58    1.13
  -5 -16   3    1.37    1.28
  -5 -16   3    1.43    1.51
  -4 -16   3    6.51    1.95
  -4 -16   3    5.65    2.02
   4  16  -3    5.36    1.75
  -3 -16   3    5.13    1.78
   3  16  -3    1.06    1.67
  -3 -16   3    2.47    1.33
   2  16  -3   25.69    2.96
  -1 -16   3   31.73    2.54
   1  16  -3   38.38    3.20
  -1 -16   3   25.14    2.65
   0  16  -3   21.25    2.70
   0 -16   3   16.01    1.50
   0 -16   3   16.66    1.65
   0  16  -3   22.94    7.04
  -1  16  -3   25.53    2.80
  -2  16  -3    2.56    1.84
  -3  16  -3   22.51    3.32
  -4  16  -3    2.84    1.96
  -5  16  -3    2.92    1.77
  -6  16  -3   -1.56    1.51
  -6 -16   2    7.01    2.21
  -6 -16   2    3.90    1.46
  -5 -16   2    1.93    1.12
  -5 -16   2    1.37    1.43
   4  16  -2   20.87    3.16
  -4 -16   2   22.30    3.23
  -4 -16   2   18.56    3.21
   3  16  -2   26.41    3.29
  -3 -16   2   30.35    3.59
  -3 -16   2   23.31    3.11
  -2 -16   2    3.49    1.40
  -2 -16   2    5.63    1.57
   2  16  -2    3.56    1.72
  -1 -16   2   31.83    2.43
   1  16  -2   28.83    2.82
  -1 -16   2   26.93    2.38
   0  16  -2    6.99    4.48
   0 -16   2    3.00    0.74
   0  16  -2    3.74    1.66
  -1  16  -2   29.05    2.94
  -2  16  -2   26.89    3.28
  -3  16  -2   49.45    4.18
  -4  16  -2   43.13    4.15
  -5  16  -2    1.24    1.58
  -6  16  -2   -0.35    1.66
  -6 -16   1    2.34    1.39
  -6 -16   1    1.14    1.02
  -5 -16   1    3.25    1.49
  -5 -16   1    3.39    1.66
  -4 -16   1   11.36    2.42
  -4 -16   1   10.77    2.52
  -3 -16   1   25.03    3.03
  -3 -16   1   25.87    3.30
   3  16  -1   23.98    3.14
  -2 -16   1    8.41    1.80
  -2 -16   1    8.94    1.86
   2  16  -1    9.14    1.94
   1  16  -1   16.58    2.38
  -1 -16   1    6.77    1.40
  -1 -16   1    6.00    1.34
   0  16  -1    9.66    5.30
   0  16  -1   10.28    2.02
   0 -16   1    8.82    1.22
  -2  16  -1   11.80    2.28
  -3  16  -1   -0.50    1.52
  -4  16  -1    2.55    1.74
  -5  16  -1    0.02    1.45
  -6 -16   0   -0.27    0.86
  -5 -16   0    2.10    1.45
  -4 -16   0    6.35    1.79
  -4 -16   0    6.97    2.04
  -3 -16   0   15.20    2.64
  -3 -16   0   13.25    2.40
   3  16   0   15.64    2.77
   2  16   0    3.30    1.52
  -2 -16   0    4.12    1.35
  -2 -16   0    4.30    1.30
   1  16   0    5.81    1.80
   0  16   0    4.26    1.63
   0  16   0    3.82    4.69
   0 -16   0    3.49    0.86
  -1  16   0    6.72    1.91
  -1  16   0    9.48    5.99
  -2  16   0    1.32    7.59
  -2  16   0    3.77    1.82
  -3  16   0   17.31    2.81
  -4  16   0    7.02    2.28
  -5  16   0    7.48    2.40
  -6 -16  -1    2.45    1.14
  -5 -16  -1    0.59    1.19
  -4 -16  -1    3.76    1.40
  -3 -16  -1    1.95    1.04
   3  16   1    2.88    1.68
  -2 -16  -1    8.37    1.79
   2  16   1   11.08    2.19
   1  16   1  130.96    6.32
   1  16   1  131.86   11.19
  -1 -16  -1  138.79    5.84
   0  16   1   10.41    1.96
   0 -16  -1   11.33    1.34
   0  16   1   15.03    6.34
  -1  16   1   18.80    8.28
  -1  16   1   13.99    2.25
  -2  16   1   12.19    2.29
  -2  16   1   17.35    8.77
  -3  16   1   29.51    3.35
  -3  16   1   43.92   12.98
  -4  16   1    6.37   10.13
  -4  16   1   10.03    2.37
  -5  16   1    2.93    9.72
  -5  16   1    1.04    1.68
  -6  16   1    5.72    8.20
  -6 -16  -2    1.04    1.00
  -5 -16  -2    1.49    1.05
  -4 -16  -2   28.78    3.55
  -3 -16  -2   44.02    3.67
   3  16   2   46.58    3.87
   2  16   2   25.31    2.98
  -2 -16  -2   22.83    2.72
   1  16   2   28.14    3.01
  -1 -16  -2   28.18    2.30
   0  16   2    3.77    1.50
   0 -16  -2    2.94    0.83
   0  16   2    8.34    5.72
   1 -16  -2   29.63    1.60
  -1  16   2   27.06    2.74
  -1  16   2   47.38   10.39
  -2  16   2    4.51    7.92
  -2  16   2    2.94    1.68
  -3  16   2   26.52    3.08
  -3  16   2   19.71   11.02
  -4  16   2   24.55   11.99
  -4  16   2   24.02    3.05
  -5  16   2    3.70    9.02
  -6  16   2    4.31    7.75
  -6 -16  -3    0.05    1.06
  -5 -16  -3    1.85    1.13
  -4 -16  -3    3.90    1.50
  -3 -16  -3   26.00    3.21
   2  16   3    3.49    1.66
  -2 -16  -3    2.70    1.21
   1  16   3   27.67    3.05
   1  16   3   33.46    8.89
  -1 -16  -3   24.00    2.46
   0  16   3   12.39    2.15
   0 -16  -3   16.22    1.70
  -1  16   3   45.27   11.18
  -1  16   3   35.74    2.98
   1 -16  -3   27.18    1.66
  -2  16   3   29.53   10.87
  -2  16   3   24.76    2.61
  -3  16   3    6.92    2.00
  -3  16   3    2.47    9.00
  -4  16   3   10.38    9.72
  -5  16   3    7.74    8.30
  -6  16   3    6.01    8.13
  -5 -16  -4    1.78    0.96
  -4 -16  -4   10.79    2.41
  -3 -16  -4    1.42    0.97
   2  16   4   27.53    2.84
  -2 -16  -4   30.04    3.01
   1  16   4   58.84    3.92
  -1 -16  -4   60.75    3.57
   1  16   4   54.47    8.82
   0 -16  -4    3.82    1.02
   0  16   4    8.66    1.88
  -1  16   4   16.73    2.32
  -2  16   4   31.88   11.21
  -2  16   4   17.11    2.42
  -3  16   4   17.48    2.51
  -3  16   4   17.66   10.93
  -4  16   4    7.63   10.98
  -5  16   4   15.75    9.46
  -6  16   4    5.84    7.93
  -5 -16  -5    2.54    1.13
  -4 -16  -5    8.62    2.10
  -3 -16  -5    3.48    1.42
   2  16   5   30.85    3.01
  -2 -16  -5   27.61    2.93
  -1 -16  -5   24.81    2.26
   1  16   5   24.39    2.83
   1  16   5   26.03    9.25
   0  16   5   11.97    2.13
   0  16   5   15.84    7.35
   1 -16  -5   33.87    2.03
  -1  16   5   39.13   11.16
  -1  16   5   31.14    2.69
  -2  16   5   47.32   12.80
  -3  16   5   52.42   13.79
  -4  16   5   -7.38    9.66
  -5  16   5   -1.35    8.82
  -6  16   5   -2.01    8.77
  -5 -16  -6    1.27    0.91
  -4 -16  -6    5.67    1.76
  -3 -16  -6    8.16    1.95
  -2 -16  -6    1.26    0.93
   1  16   6    0.75    1.17
  -1 -16  -6    0.50    0.77
   1  16   6    1.75    5.88
   0  16   6    6.80    1.86
   0 -16  -6    6.70    1.33
   0  16   6    8.81    8.15
   1 -16  -6    3.34    0.88
  -1  16   6    1.83    1.34
  -1  16   6    3.48    7.92
  -2  16   6   47.35   13.16
  -3  16   6   47.41   13.16
  -4  16   6   18.80   12.48
  -5  16   6   -3.27    8.54
  -6  16   6   -4.25    7.87
  -5 -16  -7    2.66    1.09
  -4 -16  -7    3.33    1.35
  -3 -16  -7    6.95    1.73
  -2 -16  -7   11.30    2.13
   1  16   7    3.15    1.61
  -1 -16  -7    4.19    1.33
   0 -16  -7   17.95    1.99
   0  16   7   20.77    2.53
   0  16   7   29.00   11.39
  -1  16   7   13.21    9.71
   1 -16  -7    4.85    1.05
  -1  16   7    3.37    1.48
   2 -16  -7   17.56    1.47
  -2  16   7   19.81   10.68
  -3  16   7   23.51   12.61
  -4  16   7    9.85   11.12
  -5  16   7    0.25    8.30
  -6  16   7  -11.79    6.85
  -5 -16  -8    7.12    1.78
  -4 -16  -8    2.32    1.07
  -3 -16  -8    2.12    1.20
  -2 -16  -8    3.61    1.30
  -1 -16  -8   38.90    3.14
   0  16   8    7.82   10.18
   0  16   8    2.53    1.38
   0 -16  -8    3.29    1.08
  -1  16   8   16.07    9.29
   2 -16  -8   35.31    2.21
  -2  16   8   40.93   13.32
  -3  16   8    7.84    9.91
  -4  16   8    3.76   10.05
  -5  16   8    1.02    8.09
  -6  16   8   -2.86    6.86
  -5 -16  -9    1.56    1.08
  -4 -16  -9   21.98    3.10
  -3 -16  -9    3.97    1.33
  -2 -16  -9    3.49    1.29
  -1 -16  -9    0.79    0.78
   0  16   9   31.05    2.66
   0  16   9   26.20   12.25
   0 -16  -9   28.94    2.43
  -1  16   9   19.45   11.17
   1 -16  -9   16.23    1.80
   2 -16  -9   24.17    1.88
  -2  16   9   24.69   12.06
  -3  16   9    1.84    9.82
  -4  16   9   -3.49    8.96
  -5  16   9    0.35    7.60
  -4 -16 -10    4.70    1.41
  -3 -16 -10    0.84    1.06
  -2 -16 -10    1.25    1.14
  -1 -16 -10    5.76    1.52
   0  16  10   36.36   12.26
   0 -16 -10   36.48    2.84
   1 -16 -10    4.28    1.04
  -1  16  10    7.06   11.10
  -2  16  10   18.75   11.48
   2 -16 -10   12.56    1.55
  -3  16  10   13.65   11.36
  -4  16  10    9.52    9.42
  -5  16  10   12.68    8.66
  -4 -16 -11    1.44    0.94
  -3 -16 -11    4.96    1.81
  -2 -16 -11    9.83    2.04
  -1 -16 -11   21.44    2.55
   0  16  11   12.22   11.13
   0 -16 -11   32.72    2.69
   1 -16 -11   13.20    1.73
  -1  16  11    8.69   11.08
   2 -16 -11    8.11    1.36
  -2  16  11    8.60    9.56
  -3  16  11   11.48   12.24
  -4  16  11   -2.00    8.11
  -5  16  11    0.12    7.14
  -4 -16 -12    0.01    0.86
  -3 -16 -12    0.49    1.11
  -2 -16 -12   19.59    2.69
  -1 -16 -12   12.97    2.14
   0  16  12    0.53   11.00
   0 -16 -12    1.67    0.94
   1 -16 -12   11.83    1.74
  -1  16  12    4.90   11.24
   2 -16 -12   46.12    2.94
  -2  16  12   43.10   15.33
  -3  16  12    3.66   11.68
  -4  16  12    4.68    8.60
  -5  16  12   -0.68    7.80
  -3 -16 -13    1.44    1.29
  -2 -16 -13    0.84    1.00
  -1 -16 -13    3.41    1.31
   0 -16 -13    0.62    0.76
  -1  16  13   11.18   11.70
  -2  16  13   30.43   15.04
   2 -16 -13   16.44    2.01
  -3  16  13    2.46    9.12
  -4  16  13   -1.72   10.39
  -5  16  13    0.04    6.71
  -3 -16 -14    1.73    1.29
  -2 -16 -14    0.75    0.92
  -1 -16 -14    5.52    1.54
   0 -16 -14    2.28    0.93
  -1  16  14    8.28   11.00
   1 -16 -14   15.60    2.07
   2 -16 -14    7.35    1.46
  -2  16  14    7.21   12.34
  -3  16  14   -6.48    9.23
  -4  16  14    8.81   10.63
  -2 -16 -15    1.81    1.28
  -1 -16 -15    1.59    1.11
   0 -16 -15   10.33    1.90
   1 -16 -15    4.66    1.26
  -1  16  15   -3.73   12.08
  -2  16  15    4.32   12.97
   2 -16 -15    3.60    1.14
   3 -16 -15    4.17    1.32
  -3  16  15   -1.59   10.97
  -4  16  15    7.20    8.86
  -2 -16 -16   -0.50    1.16
  -1 -16 -16    1.57    1.26
   0 -16 -16    8.35    1.78
   1 -16 -16   17.79    2.33
   2 -16 -16    3.09    1.06
  -2  16  16    2.69   13.76
  -3  16  16    1.08   10.31
   3 -16 -16    2.46    1.06
  -1 -16 -17   -0.22    1.05
   0 -16 -17    0.69    1.07
   1 -16 -17    4.69    1.41
   2 -16 -17    3.57    1.18
  -2  16  17   -8.81    9.44
   3 -16 -17    2.87    1.37
  -3  16  17   -7.99    8.57
   0 -16 -18    0.18    1.10
   1 -16 -18    3.49    1.40
  -2  16  18  -16.28   10.11
   2 -16 -18    2.34    1.12
   3 -16 -18    3.28    1.39
   2 -16 -19    2.41    1.68
   3  17 -18    2.24    1.32
  -1  17 -18    0.10    2.59
   3  17 -17    0.22    0.99
   0  17 -17    0.43    2.29
  -1  17 -17    2.54    2.65
   4  17 -16    2.15    0.91
   3  17 -16    1.29    0.89
   0  17 -16    5.09    2.73
  -1  17 -16    8.14    2.90
  -2  17 -16    1.65    3.02
   4  17 -15   -1.32    0.81
   3  17 -15    0.52    0.76
   2  17 -15    6.24    1.43
   1  17 -15   10.97    2.58
   0  17 -15    6.46    2.62
  -1  17 -15   14.24    3.38
  -2  17 -15    1.35    2.52
   4  17 -14    1.60    0.93
   3  17 -14    3.15    1.06
   2  17 -14    5.65    1.38
   2  17 -14    4.75    2.10
   1  17 -14    0.58    1.78
   0  17 -14   12.20    3.10
  -1  17 -14    0.76    2.15
  -2  17 -14   -1.48    2.15
  -3  17 -14   -0.17    1.99
   5  17 -13    1.58    0.74
   4  17 -13    1.79    0.88
   3  17 -13    2.79    0.92
   2  17 -13    9.33    2.49
   2  17 -13    7.48    1.54
   1  17 -13   33.60    3.52
   0  17 -13    0.38    1.89
  -1  17 -13    3.38    2.59
  -2  17 -13    2.09    2.38
  -3  17 -13   -1.87    1.89
   5  17 -12    1.51    0.79
   4  17 -12    2.71    0.91
   3  17 -12   -0.05    0.71
   3  17 -12    0.91    1.59
   2  17 -12    5.76    1.32
   2  17 -12    4.37    2.07
   1  17 -12    3.89    2.01
   0  17 -12   17.92    3.26
  -1  17 -12   23.76    3.52
  -2  17 -12    5.83    2.86
  -3  17 -12    3.36    2.93
   5  17 -11   -0.10    0.49
   4  17 -11    3.03    0.90
   4  17 -11    7.17    2.02
   3  17 -11    4.38    1.90
   3  17 -11    2.84    1.08
   2  17 -11   15.17    1.88
   2  17 -11   13.42    2.73
   1  17 -11   58.83    4.55
   0  17 -11   20.26    3.27
  -1  17 -11    9.96    2.95
  -2  17 -11    6.19    2.83
  -3  17 -11    3.23    2.84
  -4  17 -11    0.48    2.26
   5  17 -10    1.91    0.84
   4  17 -10    0.71    0.56
   4  17 -10    1.53    1.48
   3  17 -10    2.63    1.80
   3  17 -10    0.35    0.62
   2  17 -10   11.11    2.50
   2  17 -10   15.65    1.93
   1  17 -10    9.66    1.41
   1  17 -10    4.48    2.25
   0  17 -10    1.15    1.91
  -1  17 -10   16.10    3.20
  -2  17 -10   25.81    4.10
  -3  17 -10    2.49    2.80
  -4  17 -10    5.53    2.64
   5  17  -9    2.43    1.42
   5  17  -9    0.07    0.50
   4  17  -9    3.97    0.99
   4  17  -9   10.04    2.31
   3  17  -9    4.81    2.11
   3  17  -9    6.24    1.27
   2  17  -9    1.14    1.69
   2  17  -9    0.90    0.73
   1  17  -9    9.55    2.41
   1  17  -9   10.18    1.51
   0  17  -9   39.98    3.89
  -1  17  -9   30.28    3.89
  -2  17  -9   32.61    4.39
  -3  17  -9   -0.20    2.07
  -4  17  -9    0.69    1.69
   5  17  -8    2.73    0.82
   5  17  -8    4.05    1.49
   4  17  -8    4.24    1.09
   4  17  -8    7.63    2.17
   3  17  -8    2.95    0.96
   3  17  -8    3.82    1.80
   2  17  -8    7.34    1.31
   2  17  -8    8.73    2.24
   1  17  -8    2.50    0.94
   1  17  -8    0.46    1.76
   0  17  -8    1.43    1.87
  -1  17  -8    7.17    2.51
  -2  17  -8    6.41    2.60
  -3  17  -8   -0.32    1.94
  -4  17  -8    0.94    1.60
  -5  17  -8    0.09    1.49
   5  17  -7    0.79    0.63
   4  17  -7    3.37    0.94
   4  17  -7    8.03    2.25
   3  17  -7    4.88    1.95
   3  17  -7    3.21    1.02
   2  17  -7   24.99    3.21
   2  17  -7   25.26    1.96
   1  17  -7   35.48    3.82
   1  17  -7   30.51    2.14
   0  17  -7    5.37    2.26
  -1  17  -7    4.83    2.37
  -2  17  -7    8.56    2.56
  -3  17  -7    1.02    1.87
  -4  17  -7    8.58    2.66
  -5  17  -7    1.35    1.71
  -6 -17   6   -0.91    1.67
  -6 -17   6    0.37    2.17
   5  17  -6    5.24    1.21
   4  17  -6    2.71    0.76
   4  17  -6    3.74    1.82
   3  17  -6    4.68    1.92
   3  17  -6    5.50    1.17
   2  17  -6   17.16    1.79
   2  17  -6   17.88    2.90
   1  17  -6    8.88    2.29
   1  17  -6    6.34    1.18
   0  17  -6    9.28    2.40
  -1  17  -6   30.92    3.43
  -2  17  -6   24.63    3.52
  -3  17  -6    5.95    2.29
  -4  17  -6    7.65    2.51
  -5  17  -6    1.57    1.64
  -6 -17   5   -0.11    1.83
  -6 -17   5   -2.72    1.24
  -5 -17   5    4.29    2.16
  -5 -17   5    0.45    1.40
   4  17  -5   16.43    2.77
   4  17  -5   13.13    1.73
   3  17  -5    8.67    2.30
   3  17  -5    8.86    1.45
   2  17  -5   51.22    2.81
   2  17  -5   46.55    3.73
   1  17  -5   25.58    1.85
   1  17  -5   28.75    3.41
   0  17  -5   36.68    3.53
  -1  17  -5   33.77    3.39
  -2  17  -5   35.61    3.61
  -3  17  -5    2.08    2.23
  -4  17  -5   10.00    2.70
  -5  17  -5    9.49    2.67
  -6 -17   4    1.36    1.91
  -6 -17   4   -2.04    1.23
  -5 -17   4    6.67    2.33
  -5 -17   4    7.36    2.07
  -4 -17   4    5.12    1.91
   4  17  -4    2.25    1.75
  -4 -17   4    1.90    1.41
   3  17  -4   25.40    3.22
   3  17  -4   15.99    1.88
   2  17  -4    1.12    1.50
   2  17  -4    1.44    0.70
   1  17  -4    1.90    0.84
   1  17  -4    1.47    1.54
   0  17  -4   36.27    3.37
  -1  17  -4    8.25    2.37
  -2  17  -4   30.14    3.72
  -3  17  -4   28.39    3.63
  -4  17  -4    0.66    1.55
  -5  17  -4    0.30    1.36
  -6  17  -4    1.73    1.88
  -6 -17   3    0.31    1.09
  -6 -17   3   -0.86    1.10
  -5 -17   3    0.74    1.25
  -5 -17   3    0.10    1.30
   4  17  -3    0.10    1.41
  -4 -17   3    0.12    1.01
  -4 -17   3    0.65    1.30
  -3 -17   3   48.81    4.38
  -3 -17   3   45.34    3.93
   3  17  -3   44.17    3.71
   2  17  -3   21.21    2.86
  -2 -17   3   26.34    3.21
  -2 -17   3   23.58    2.89
   1  17  -3   12.26    2.30
  -1 -17   3   10.51    1.84
  -1 -17   3    7.38    1.56
   0 -17   3    1.49    0.64
   0  17  -3    2.73    1.73
   0 -17   3    1.20    0.56
   0  17  -3    1.92    4.91
  -1  17  -3   19.48    2.81
  -2  17  -3   34.18    3.46
  -3  17  -3   35.16    3.65
  -4  17  -3   16.46    3.13
  -5  17  -3   -0.15    1.43
  -6  17  -3    2.38    1.93
  -6 -17   2    2.46    1.45
  -6 -17   2    1.00    1.14
  -5 -17   2   11.83    2.79
  -5 -17   2    5.36    1.85
  -4 -17   2    9.48    2.20
  -4 -17   2    4.28    1.96
   4  17  -2   12.86    2.70
  -3 -17   2   57.78    4.40
   3  17  -2   59.23    4.33
  -3 -17   2   53.43    4.47
   2  17  -2   16.09    2.58
  -2 -17   2   15.08    2.44
  -2 -17   2   17.38    2.43
  -1 -17   2   52.79    3.36
   1  17  -2   46.03    3.58
  -1 -17   2   48.33    3.09
  -1  17  -2   32.81    3.16
  -2  17  -2    5.72    2.06
  -3  17  -2    9.72    2.54
  -4  17  -2    0.26    1.44
  -5  17  -2    4.94    2.28
  -6  17  -2   -0.06    1.73
  -6 -17   1   -0.23    0.94
  -5 -17   1   10.80    2.69
  -5 -17   1    9.72    2.29
   4  17  -1    0.83    1.47
  -4 -17   1    3.46    1.58
  -4 -17   1    2.68    1.36
  -3 -17   1   29.16    3.60
  -3 -17   1   34.28    3.55
   3  17  -1   31.41    3.21
  -2 -17   1    9.79    1.91
  -2 -17   1    5.84    1.71
   2  17  -1    8.55    2.10
   1  17  -1    7.47    1.95
  -1 -17   1    3.38    1.01
   0 -17   1   34.75    2.18
   0  17  -1   37.23    3.25
  -1  17  -1    4.57    1.90
  -1  17  -1    4.13    1.82
  -2  17  -1   47.69    3.77
  -3  17  -1    9.62    2.44
  -4  17  -1    6.94    2.38
  -5  17  -1    5.41    2.27
  -6 -17   0    1.46    1.12
  -5 -17   0    1.42    1.22
  -4 -17   0    3.97    1.63
  -4 -17   0    4.59    1.63
  -3 -17   0   17.18    2.90
   3  17   0   17.85    2.90
  -3 -17   0   16.93    2.72
  -2 -17   0   19.55    2.48
   2  17   0   25.85    3.03
  -1 -17   0    0.16    0.51
   1  17   0    1.20    1.34
   0  17   0    0.87    1.60
   0 -17   0    0.06    0.44
   0  17   0   -2.02    5.67
  -1  17   0    2.51    1.74
  -1  17   0   -2.06    3.45
  -2  17   0   23.40    2.92
  -2  17   0   18.80   10.37
  -3  17   0   21.50    2.97
  -4  17   0    6.77    2.38
  -5  17   0    1.75    2.01
  -6 -17  -1    3.24    1.46
  -5 -17  -1    4.88    1.97
  -4 -17  -1    2.45    1.41
  -3 -17  -1    8.48    2.08
   3  17   1    8.36    2.22
   2  17   1   39.61    3.36
  -2 -17  -1   45.38    3.41
   1  17   1    3.37    1.66
  -1 -17  -1    1.10    0.68
   0  17   1   42.07    7.76
   0 -17  -1   33.23    2.12
   0  17   1   31.82    2.98
  -1  17   1    3.89    1.77
  -1  17   1   10.09    7.45
  -2  17   1    8.49    8.97
  -2  17   1    9.48    2.18
  -3  17   1   29.22    3.06
  -3  17   1   33.18   11.69
  -4  17   1    3.67    2.01
  -4  17   1   -6.48    9.64
  -5  17   1   14.00   10.86
  -6  17   1    9.46    8.75
  -5 -17  -2    5.00    1.90
  -4 -17  -2   -0.49    0.96
  -3 -17  -2    9.41    2.17
   3  17   2    6.95    1.99
   2  17   2    2.15    1.51
  -2 -17  -2    2.54    1.15
   1  17   2   26.95    2.73
  -1 -17  -2   28.80    2.37
   1  17   2   43.49    8.96
   0  17   2   11.51    7.14
   0 -17  -2    5.74    1.11
   0  17   2    7.88    1.97
  -1  17   2   62.20   11.66
  -1  17   2   51.77    3.73
  -2  17   2   14.19    9.49
  -2  17   2   17.53    2.62
  -3  17   2   57.58    4.00
  -3  17   2   57.00   10.76
  -4  17   2   10.48    2.42
  -4  17   2   16.49   11.37
  -5  17   2   23.58   11.75
  -6  17   2    7.73    7.93
  -5 -17  -3   -1.68    1.04
  -4 -17  -3   15.88    2.80
  -3 -17  -3   33.94    3.58
  -2 -17  -3   28.74    2.98
   2  17   3   32.01    3.03
  -1 -17  -3   18.80    2.16
   1  17   3   14.89    7.43
   1  17   3   19.49    2.64
   0  17   3    1.08    1.48
   0  17   3    5.94    6.38
   0 -17  -3    1.79    0.67
  -1  17   3   12.69    2.29
  -1  17   3   17.40    8.75
   1 -17  -3   11.62    1.17
  -2  17   3   25.82   10.37
  -2  17   3   26.97    2.98
  -3  17   3   42.72   12.26
  -3  17   3   41.42    3.30
  -4  17   3    3.78    9.39
  -5  17   3    7.70   10.41
  -6  17   3   -0.83    7.74
  -5 -17  -4   -0.23    0.95
  -4 -17  -4    2.85    1.26
  -3 -17  -4   23.10    2.94
   2  17   4   25.27    3.12
  -2 -17  -4   26.91    2.94
   1  17   4    7.20    2.03
  -1 -17  -4    4.23    1.27
   1  17   4    8.50    7.77
   0 -17  -4   37.91    2.50
   1 -17  -4    3.06    0.76
  -1  17   4    3.71    1.65
  -1  17   4    2.83    7.53
  -2  17   4   -0.73    7.86
  -2  17   4    1.66    1.58
  -3  17   4   21.61    2.74
  -3  17   4   19.71   10.64
  -4  17   4   -1.04    9.95
  -5  17   4    7.99    9.81
  -6  17   4   -1.66    7.46
  -5 -17  -5   13.66    2.59
  -4 -17  -5    6.90    1.76
  -3 -17  -5    4.31    1.59
  -2 -17  -5   25.21    2.73
   2  17   5   28.37    2.96
   1  17   5   48.08   10.76
   1  17   5   31.00    2.89
  -1 -17  -5   31.84    2.68
   0  17   5   26.86    2.73
  -1  17   5   27.31   11.35
   1 -17  -5   23.80    1.73
  -1  17   5   28.59    2.71
  -2  17   5   61.88   14.16
  -2  17   5   46.97    3.46
  -3  17   5   17.75   10.08
  -4  17   5   21.12   12.05
  -5  17   5    0.27    9.63
  -6  17   5   -4.42    8.65
  -5 -17  -6    0.13    0.88
  -4 -17  -6    4.87    1.63
  -3 -17  -6    7.27    1.80
  -2 -17  -6   19.94    2.65
  -1 -17  -6   25.90    2.69
   1  17   6   33.60   10.37
   1  17   6   25.74    2.66
   0  17   6   17.63    9.22
   0  17   6    6.24    1.94
   0 -17  -6    6.84    1.30
   1 -17  -6    9.62    1.28
  -1  17   6    8.57    8.50
  -1  17   6    9.49    1.89
  -2  17   6   29.14   11.74
  -3  17   6    3.20    9.11
  -4  17   6    1.29   10.46
  -5  17   6   -0.37   10.06
  -5 -17  -7    2.41    1.07
  -4 -17  -7   11.39    2.32
  -3 -17  -7    0.32    0.81
  -2 -17  -7    8.62    1.90
   1  17   7    3.56    1.63
  -1 -17  -7    4.38    1.31
   0  17   7    4.48    1.72
   0  17   7    4.08    9.45
   0 -17  -7    3.69    1.15
  -1  17   7   43.80   12.22
  -1  17   7   33.32    2.85
   1 -17  -7   29.99    2.17
  -2  17   7   41.01   11.98
  -3  17   7    8.05    9.91
  -4  17   7   -2.13   10.02
  -5  17   7   -2.13    8.61
  -5 -17  -8    1.21    1.00
  -4 -17  -8    0.27    1.04
  -3 -17  -8    0.72    0.94
  -2 -17  -8    4.95    1.43
  -1 -17  -8    9.84    2.00
   0 -17  -8    0.50    0.64
   0  17   8   -3.09    9.13
   0  17   8    0.06    1.22
   1 -17  -8   -0.46    0.45
  -1  17   8   -2.68    8.01
  -2  17   8    9.45    9.28
  -3  17   8    6.09    9.49
  -4  17   8    5.76   10.48
  -5  17   8    3.66    9.32
  -4 -17  -9   -0.04    1.04
  -3 -17  -9    1.70    1.04
  -2 -17  -9   25.26    2.96
  -1 -17  -9   25.35    2.74
   0 -17  -9   44.48    3.09
   0  17   9   33.03   11.84
   1 -17  -9    8.53    1.37
  -1  17   9   10.35    9.76
  -2  17   9    5.14    9.81
  -3  17   9    3.49    9.66
  -4  17   9   18.30   10.78
  -5  17   9    3.30    8.78
  -4 -17 -10    1.43    1.16
  -3 -17 -10   -0.62    0.93
  -2 -17 -10   15.35    2.45
  -1 -17 -10   12.14    2.05
   0  17  10   -3.40    9.30
   0 -17 -10    0.84    0.81
   1 -17 -10    7.96    1.34
  -1  17  10    2.92   10.40
  -2  17  10   10.07   10.74
   2 -17 -10   13.84    1.64
  -3  17  10    1.33    9.57
  -4  17  10    7.83    9.04
  -5  17  10    0.95    7.50
  -4 -17 -11    6.69    1.72
  -3 -17 -11    3.35    1.47
  -2 -17 -11    4.03    1.34
  -1 -17 -11    6.97    1.64
   0 -17 -11   17.46    2.21
   0  17  11   14.24   11.33
   1 -17 -11   53.88    3.25
  -1  17  11   37.52   13.07
  -2  17  11   16.66   10.47
  -3  17  11   16.40   11.61
  -4  17  11    4.11    9.19
  -5  17  11    3.67    8.39
  -3 -17 -12    0.92    1.15
  -2 -17 -12    2.98    1.18
  -1 -17 -12   17.63    2.44
   0 -17 -12   16.93    2.27
   0  17  12   16.86   12.12
   1 -17 -12    1.50    0.78
  -1  17  12   -6.86   10.35
   2 -17 -12    2.95    0.97
  -2  17  12   -1.57   10.90
  -3  17  12  -10.80   11.27
  -4  17  12    0.04    8.65
  -5  17  12    0.45    7.56
  -3 -17 -13    0.76    1.15
  -2 -17 -13    1.50    1.06
  -1 -17 -13    1.20    0.86
   0 -17 -13   -0.05    0.68
  -1  17  13   12.28   10.67
   2 -17 -13    5.67    1.27
  -2  17  13   -8.73   11.61
  -3  17  13   -2.34   10.78
  -4  17  13   -1.82   10.33
  -3 -17 -14    1.23    1.65
  -2 -17 -14   -0.63    0.89
  -1 -17 -14    0.10    0.80
   0 -17 -14   11.02    1.91
   1 -17 -14    1.75    0.87
  -1  17  14    2.66   11.11
  -2  17  14    3.38   11.92
   2 -17 -14    4.27    1.14
  -3  17  14   10.33   13.59
  -4  17  14    0.31    9.53
  -2 -17 -15    0.32    1.04
  -1 -17 -15   10.15    2.14
   0 -17 -15    7.70    1.60
  -1  17  15    0.18   11.76
  -2  17  15    1.00   12.07
   2 -17 -15    4.66    1.25
  -3  17  15   -4.30   11.44
  -4  17  15    7.81    8.61
  -1 -17 -16    0.06    0.82
   0 -17 -16    4.84    1.37
   1 -17 -16    8.98    1.78
   2 -17 -16    2.87    1.13
  -2  17  16   -4.58   13.29
  -3  17  16   -3.67   10.52
  -1 -17 -17   -1.17    0.97
   0 -17 -17    0.26    0.80
   1 -17 -17    8.51    1.93
  -2  17  17  -10.05    9.15
   2 -17 -17    2.96    1.17
   0 -17 -18    0.49    1.35
   1 -17 -18    2.36    1.35
   2 -17 -18    2.09    1.07
   3  18 -18    0.94    2.10
  -1  18 -18   -1.96    2.61
   3  18 -17   -1.37    0.85
   0  18 -17    3.41    2.68
  -1  18 -17    0.47    2.42
   4  18 -16    7.18    1.44
   3  18 -16    3.26    1.07
   1  18 -16   25.41    3.84
   0  18 -16   15.70    3.42
  -1  18 -16    9.70    3.16
  -2  18 -16   -0.35    2.88
   4  18 -15    1.68    0.90
   3  18 -15    2.72    0.97
   1  18 -15    4.80    2.40
   0  18 -15   19.75    3.60
  -1  18 -15    8.07    3.05
  -2  18 -15   -4.41    1.90
   4  18 -14    1.04    0.72
   3  18 -14    3.43    1.06
   2  18 -14    5.96    2.16
   1  18 -14   -0.64    1.74
   0  18 -14    5.81    2.50
  -1  18 -14    7.53    2.85
  -2  18 -14   -1.69    2.46
  -3  18 -14   -0.57    2.18
   4  18 -13    0.04    0.68
   3  18 -13    2.52    1.05
   3  18 -13    4.20    1.79
   2  18 -13    5.29    2.25
   2  18 -13    6.55    1.35
   1  18 -13   10.64    2.82
   0  18 -13    2.45    2.20
  -1  18 -13   15.00    3.34
  -2  18 -13   -2.83    1.74
  -3  18 -13   -1.71    1.49
   5  18 -12    1.63    0.74
   4  18 -12    2.93    0.96
   3  18 -12    5.07    1.95
   3  18 -12    2.51    0.94
   2  18 -12    9.56    1.64
   2  18 -12   10.67    2.67
   1  18 -12    9.12    2.57
   0  18 -12   17.81    3.35
  -1  18 -12    0.61    1.93
  -2  18 -12    3.93    2.59
  -3  18 -12    0.43    2.55
   5  18 -11    0.25    0.63
   4  18 -11   25.86    3.31
   3  18 -11    2.91    1.95
   3  18 -11    3.89    1.01
   2  18 -11    6.59    1.42
   2  18 -11    7.09    2.33
   1  18 -11    0.27    1.83
   0  18 -11   65.83    5.13
  -1  18 -11   15.06    3.28
  -2  18 -11    2.93    2.62
  -3  18 -11   10.21    3.86
  -4  18 -11    1.04    2.33
   5  18 -10    1.58    0.68
   4  18 -10   13.30    2.58
   4  18 -10    4.87    1.09
   3  18 -10    5.22    2.15
   3  18 -10    2.07    0.83
   2  18 -10    3.42    2.02
   2  18 -10    5.43    1.26
   1  18 -10   14.03    2.82
   0  18 -10   45.86    4.13
  -1  18 -10   15.83    3.33
  -2  18 -10    5.59    2.88
  -3  18 -10    1.27    2.67
  -4  18 -10   -0.38    1.87
   5  18  -9    1.27    1.47
   5  18  -9    1.00    0.55
   4  18  -9    7.36    1.29
   4  18  -9   18.20    2.85
   3  18  -9   13.88    2.75
   3  18  -9    9.61    1.42
   2  18  -9    0.47    1.60
   2  18  -9    3.52    1.00
   1  18  -9   17.42    3.05
   0  18  -9    9.71    2.72
  -1  18  -9   21.49    3.57
  -2  18  -9    2.49    2.60
  -3  18  -9    1.56    1.99
  -4  18  -9    0.00    1.75
   5  18  -8    0.08    0.49
   5  18  -8    1.18    1.48
   4  18  -8    1.11    0.69
   4  18  -8    2.33    1.67
   3  18  -8   17.91    2.92
   3  18  -8    9.68    1.49
   2  18  -8   43.46    2.68
   2  18  -8   35.70    3.46
   1  18  -8   -0.04    0.72
   1  18  -8   -0.37    1.46
   0  18  -8   17.98    3.13
  -1  18  -8   34.39    4.15
  -2  18  -8    2.00    1.95
  -3  18  -8    2.61    2.19
  -4  18  -8    6.87    2.53
   5  18  -7    3.37    1.72
   5  18  -7    1.98    0.74
   4  18  -7    6.31    2.15
   4  18  -7    3.67    0.94
   3  18  -7   21.67    1.98
   3  18  -7   19.81    2.96
   2  18  -7    3.62    0.98
   2  18  -7    2.93    1.79
   1  18  -7   35.45    3.68
   1  18  -7   41.08    2.46
   0  18  -7    4.28    2.21
  -1  18  -7    7.90    2.50
  -2  18  -7    1.54    1.95
  -3  18  -7    4.76    2.32
  -4  18  -7    0.21    1.53
  -5  18  -7   -0.66    1.66
   4  18  -6    4.42    1.10
   4  18  -6    6.28    1.98
   3  18  -6    3.78    0.98
   3  18  -6    4.64    2.00
   2  18  -6    2.69    0.78
   2  18  -6    0.61    1.60
   1  18  -6   52.94    4.38
   1  18  -6   61.18    3.01
   0  18  -6   16.70    2.99
  -1  18  -6   35.19    3.98
  -2  18  -6    4.58    2.25
  -3  18  -6    0.65    1.81
  -4  18  -6    4.00    2.04
  -5  18  -6    4.01    2.19
  -5 -18   5   17.42    3.69
  -5 -18   5    8.50    2.47
   4  18  -5    6.24    2.10
   3  18  -5    9.47    2.41
   3  18  -5   11.31    1.60
   2  18  -5   22.62    1.85
   2  18  -5   25.85    3.20
   1  18  -5    2.52    0.85
   1  18  -5    1.61    1.78
   0  18  -5   23.88    3.25
  -1  18  -5   16.89    3.03
  -2  18  -5    9.25    2.74
  -3  18  -5   13.00    2.96
  -4  18  -5   -1.40    1.42
  -5  18  -5    1.00    1.90
  -6 -18   4    0.05    2.19
  -5 -18   4    0.09    1.03
  -5 -18   4    2.18    1.39
  -4 -18   4    6.87    2.31
  -4 -18   4    2.93    1.44
   4  18  -4    5.14    1.89
   3  18  -4    2.76    1.83
   2  18  -4   30.49    3.41
   1  18  -4   28.14    3.09
  -1 -18   4   29.33    2.76
   0  18  -4   36.12    3.41
  -1  18  -4   13.57    2.67
  -2  18  -4   21.20    3.28
  -3  18  -4   15.38    2.89
  -4  18  -4    6.38    2.50
  -5  18  -4    1.51    1.96
  -6 -18   3    0.55    1.49
  -6 -18   3   -0.60    1.99
  -5 -18   3    4.28    1.85
  -5 -18   3    5.45    2.20
  -4 -18   3   -0.37    0.97
   4  18  -3    1.67    1.57
  -4 -18   3    0.83    1.31
   3  18  -3    2.76    1.67
  -3 -18   3    0.54    1.24
  -3 -18   3    3.37    1.38
  -2 -18   3    6.41    1.90
   2  18  -3    5.41    1.99
  -2 -18   3    6.98    1.72
  -1 -18   3   11.24    1.80
  -1 -18   3   10.42    1.83
   0  18  -3   61.10    4.38
  -1  18  -3   10.56    2.50
  -2  18  -3   24.18    3.38
  -3  18  -3   11.00    2.64
  -4  18  -3   -1.88    1.35
  -5  18  -3   -0.47    1.62
  -6  18  -3   -5.43    1.79
  -6 -18   2    0.10    2.02
  -6 -18   2    1.44    1.88
  -5 -18   2    1.38    1.34
  -5 -18   2    2.54    1.66
  -4 -18   2   17.67    3.21
   4  18  -2   16.79    3.06
  -4 -18   2    8.65    2.13
   3  18  -2   31.51    3.54
  -3 -18   2   26.15    3.54
  -3 -18   2   21.48    3.08
  -2 -18   2   51.06    4.02
   2  18  -2   49.85    4.03
  -2 -18   2   59.66    3.97
  -1 -18   2    8.01    1.62
  -1 -18   2    8.31    1.58
   1  18  -2    6.62    2.09
   0  18  -2    5.19    6.01
   0  18  -2    6.77    2.12
  -1  18  -2   25.50    3.35
  -1  18  -2   36.81   10.15
  -2  18  -2   43.25    3.85
  -3  18  -2    7.51    2.42
  -4  18  -2   -0.24    1.58
  -5  18  -2    7.00    2.74
  -6  18  -2   -2.21    2.22
  -5 -18   1    6.77    2.10
  -5 -18   1    4.50    2.02
  -4 -18   1    0.80    1.19
   4  18  -1    1.54    1.52
  -4 -18   1    2.50    1.27
   3  18  -1    7.41    2.21
  -3 -18   1    9.04    2.29
  -3 -18   1    8.88    2.13
   2  18  -1    9.87    2.28
  -2 -18   1   13.10    2.30
  -2 -18   1   15.07    2.29
   1  18  -1   29.86    3.05
  -1 -18   1   28.31    2.36
   0  18  -1   10.99    6.55
   0  18  -1   11.84    2.35
   0 -18   1   13.02    1.45
  -1  18  -1   24.18    3.17
  -2  18  -1    9.84    2.41
  -2  18  -1   -1.71    8.93
  -3  18  -1   44.81    3.90
  -4  18  -1   10.13    2.70
  -5  18  -1    4.61    2.29
  -5 -18   0   11.10    2.46
  -4 -18   0    1.64    1.09
   3  18   0    9.68    2.28
  -3 -18   0    9.97    2.10
  -2 -18   0    6.77    1.66
   2  18   0    8.71    2.14
   1  18   0   17.69    2.65
  -1 -18   0   13.48    1.89
   0  18   0   83.03    4.87
   0 -18   0   84.56    3.78
   0  18   0   87.28    9.69
  -1  18   0   21.60    2.88
  -2  18   0    5.88    8.85
  -2  18   0    4.50    2.02
  -3  18   0    5.71    2.31
  -3  18   0    9.70    9.14
  -4  18   0    3.76    1.95
  -5  18   0   13.50    3.10
  -5 -18  -1    1.81    1.53
  -4 -18  -1    5.45    1.76
  -3 -18  -1   53.55    4.10
   3  18   1   43.56    3.81
   2  18   1    5.76    2.02
  -2 -18  -1    4.63    1.47
   1  18   1   27.09    3.06
   0  18   1   13.99    7.30
   0  18   1   12.72    2.38
   0 -18  -1   12.64    1.43
  -1  18   1   26.56    3.06
  -2  18   1   16.28    9.69
  -2  18   1   15.03    2.62
  -3  18   1   12.98    9.36
  -3  18   1    9.65    2.30
  -4  18   1    2.77    8.34
  -4  18   1    4.17    2.10
  -5  18   1   10.63   10.29
  -5 -18  -2   -0.71    1.12
  -4 -18  -2    1.32    1.23
  -3 -18  -2    3.72    1.48
   3  18   2    6.69    2.01
  -2 -18  -2   31.83    2.94
   2  18   2   33.15    3.20
   1  18   2   28.00    3.14
  -1 -18  -2   29.35    2.37
   0  18   2    4.77    1.77
   0  18   2    6.68    6.49
   0 -18  -2    4.47    0.97
  -1  18   2   16.57    8.95
  -1  18   2    9.56    2.35
  -2  18   2   70.30   10.98
  -2  18   2   60.78    4.18
  -3  18   2   29.31   10.77
  -3  18   2   26.14    2.89
  -4  18   2   13.93    2.66
  -4  18   2   12.30    9.41
  -5  18   2   10.81   10.00
  -5 -18  -3   -3.07    0.92
  -4 -18  -3    0.97    1.00
  -3 -18  -3   13.98    2.51
   3  18   3   14.26    2.58
   2  18   3   19.66    2.77
  -2 -18  -3   22.99    2.77
   1  18   3    5.91    1.99
  -1 -18  -3    6.33    1.37
   0  18   3   60.39    9.00
   0  18   3   57.83    3.93
   0 -18  -3   55.37    3.09
  -1  18   3   14.75    2.60
  -1  18   3    9.03    9.34
  -2  18   3   10.85    2.37
  -2  18   3   13.73    9.87
  -3  18   3    2.61    8.73
  -3  18   3    3.76    1.65
  -4  18   3  -11.66    7.42
  -5  18   3   14.83   11.71
  -5 -18  -4   -1.12    1.12
  -4 -18  -4   10.40    2.34
  -3 -18  -4   13.11    2.39
   2  18   4   14.92    2.51
  -2 -18  -4   15.89    2.38
  -1 -18  -4    9.78    1.78
   1  18   4   13.67    8.03
   1  18   4   14.45    2.50
   0  18   4   20.43    7.28
   0 -18  -4   34.33    2.39
   0  18   4   33.47    3.00
  -1  18   4   35.44   10.49
  -1  18   4   27.27    2.76
  -2  18   4   30.07   11.68
  -2  18   4   34.53    3.17
  -3  18   4   -6.08    7.85
  -4  18   4   -0.07    9.86
  -5  18   4   -6.28   10.67
  -5 -18  -5    0.75    1.13
  -4 -18  -5   -0.15    0.97
  -3 -18  -5    9.99    2.28
   2  18   5    5.74    1.89
  -2 -18  -5    6.58    1.72
  -1 -18  -5   15.69    2.18
   1  18   5   21.21    9.59
   1  18   5   18.12    2.73
   0  18   5   20.52    6.25
   0  18   5   22.42    2.73
   0 -18  -5   16.75    1.94
   1 -18  -5    2.61    0.78
  -1  18   5    1.47    1.56
  -1  18   5   -0.08    8.37
  -2  18   5   26.02    2.99
  -2  18   5   31.61   11.34
  -3  18   5   16.24    9.54
  -4  18   5   -2.68    9.03
  -5  18   5   -4.38   11.07
  -5 -18  -6    3.66    1.33
  -4 -18  -6    6.15    1.80
  -3 -18  -6   -0.40    0.88
  -2 -18  -6    3.86    1.47
  -1 -18  -6   29.77    2.64
   1  18   6   32.28    2.97
   0  18   6   15.05    2.46
   0  18   6   15.65   10.05
  -1  18   6   59.39   10.70
  -1  18   6   60.64    3.89
   1 -18  -6   58.08    3.01
  -2  18   6   -1.76    7.43
  -3  18   6   12.21    9.79
  -4  18   6    3.43    9.30
  -5  18   6    4.92   11.04
  -5 -18  -7    2.91    1.03
  -4 -18  -7    0.41    0.99
  -3 -18  -7    5.51    1.77
  -2 -18  -7    0.85    1.06
   1  18   7    9.65    2.08
  -1 -18  -7    5.96    1.59
   0  18   7    2.58    1.55
   0 -18  -7    1.37    0.76
   0  18   7   -6.64    8.84
   1 -18  -7   37.73    2.44
  -1  18   7   38.37   12.33
  -1  18   7   37.75    3.09
  -2  18   7    7.06    8.72
  -3  18   7   15.27   10.45
  -4  18   7    1.17    9.76
  -5  18   7   -1.40    9.52
  -4 -18  -8    6.30    1.85
  -3 -18  -8    2.82    1.32
  -2 -18  -8    0.51    0.91
  -1 -18  -8   32.33    2.92
   0  18   8   22.09    2.57
   0 -18  -8   19.98    2.18
   0  18   8   19.83   10.06
  -1  18   8    1.44    7.64
   1 -18  -8    0.47    0.58
  -2  18   8   36.90   11.78
  -3  18   8   14.02    9.66
  -4  18   8    5.28    9.58
  -5  18   8   -4.66    9.08
  -4 -18  -9    0.87    1.25
  -3 -18  -9    0.73    0.94
  -2 -18  -9    1.76    1.01
  -1 -18  -9   17.74    2.35
   0 -18  -9    8.80    1.72
   0  18   9    9.62    9.77
  -1  18   9   22.12   10.57
  -2  18   9   -1.48    9.34
  -3  18   9    6.32    9.78
  -4  18   9   14.81   11.27
  -5  18   9    5.90    9.57
  -4 -18 -10   -0.53    1.24
  -3 -18 -10    2.22    1.19
  -2 -18 -10    4.90    1.68
  -1 -18 -10   12.62    2.12
   0  18  10   29.25   12.28
   0 -18 -10   48.11    3.30
  -1  18  10   12.09   10.69
   1 -18 -10   15.56    1.85
  -2  18  10    8.56   10.60
  -3  18  10   10.74   10.37
  -4  18  10    6.15   10.86
  -5  18  10    8.05    9.23
  -4 -18 -11   -0.61    1.59
  -3 -18 -11    4.41    1.54
  -2 -18 -11    4.38    1.42
  -1 -18 -11   16.26    2.30
   0 -18 -11   67.25    4.08
  -1  18  11    1.57   10.43
   1 -18 -11   -0.12    0.56
  -2  18  11    4.37    9.41
  -3  18  11   -1.64   10.76
  -4  18  11   19.00   11.93
  -5  18  11    3.73    8.36
  -3 -18 -12    1.10    1.11
  -2 -18 -12    2.15    1.06
  -1 -18 -12    0.96    0.95
   0 -18 -12   19.08    2.40
   0  18  12    9.80   11.61
   1 -18 -12    8.50    1.58
  -1  18  12    8.36    9.69
  -2  18  12    8.01   10.99
   2 -18 -12    8.25    1.41
  -3  18  12   -0.43   11.10
  -4  18  12    5.61   10.38
  -3 -18 -13   -0.40    1.27
  -2 -18 -13    0.81    0.93
  -1 -18 -13    8.93    1.93
   0 -18 -13    2.81    1.13
  -1  18  13    5.47    9.87
   1 -18 -13   11.14    1.76
  -2  18  13    1.92   11.59
   2 -18 -13    7.18    1.48
  -3  18  13    6.31   10.55
  -4  18  13    0.10   12.64
  -2 -18 -14   -2.32    0.79
  -1 -18 -14    2.85    1.28
   0 -18 -14    7.58    1.64
   1 -18 -14    1.59    0.80
  -1  18  14    1.93   10.18
   2 -18 -14    5.66    1.31
  -2  18  14   -2.81   11.11
  -3  18  14   -1.19   12.70
  -4  18  14    4.12   10.41
  -2 -18 -15   -1.08    1.11
  -1 -18 -15    4.17    1.50
   0 -18 -15   19.76    2.57
   1 -18 -15    5.14    1.23
  -1  18  15   -6.13   11.66
  -2  18  15    1.67   11.46
   2 -18 -15    0.35    0.81
  -3  18  15  -10.87    8.38
  -1 -18 -16   -0.86    0.89
   0 -18 -16   14.06    2.26
   1 -18 -16   21.58    2.60
   2 -18 -16    1.38    0.86
  -2  18  16   -3.55    7.90
  -3  18  16   -1.14    9.41
   0 -18 -17    3.89    1.45
   2 -18 -17    0.35    0.95
  -2  18  17  -10.77    9.70
   1 -18 -18    0.93    1.34
   2 -18 -18    2.80    1.31
   0  19 -17    5.30    2.78
  -1  19 -17    4.04    3.20
   3  19 -16   -0.01    0.83
   1  19 -16   11.98    3.11
   0  19 -16    2.70    2.44
  -1  19 -16    4.43    2.50
   4  19 -15   -1.06    0.62
   3  19 -15   -0.78    0.68
   1  19 -15    9.51    2.93
   0  19 -15   11.60    3.13
  -1  19 -15   10.67    3.24
  -2  19 -15   -0.60    1.83
   4  19 -14   -0.89    0.68
   3  19 -14   12.62    1.87
   2  19 -14    0.77    1.79
   1  19 -14    3.78    2.15
   0  19 -14    9.63    2.90
  -1  19 -14    4.74    2.55
  -2  19 -14   -1.53    1.80
   4  19 -13    0.13    0.58
   3  19 -13    1.76    1.87
   3  19 -13    1.02    0.85
   2  19 -13    0.20    1.65
   1  19 -13    2.97    2.14
   0  19 -13    9.97    2.81
  -1  19 -13    1.84    2.17
  -2  19 -13   -0.05    2.60
  -3  19 -13   -2.52    1.85
   4  19 -12    2.21    0.89
   3  19 -12    2.49    1.70
   3  19 -12    0.74    0.68
   2  19 -12    0.69    0.76
   2  19 -12    1.23    1.69
   1  19 -12    7.28    2.62
   0  19 -12    5.18    2.49
  -1  19 -12   16.23    3.28
  -2  19 -12    2.39    2.66
  -3  19 -12    0.10    1.93
   5  19 -11    3.82    0.94
   4  19 -11    0.31    0.68
   4  19 -11    3.70    1.74
   3  19 -11    4.29    1.05
   3  19 -11    1.81    1.93
   2  19 -11    4.30    1.28
   2  19 -11    3.91    2.10
   1  19 -11   39.97    3.96
   0  19 -11   19.22    3.42
  -1  19 -11    0.18    2.03
  -2  19 -11    3.54    2.65
  -3  19 -11    0.48    2.98
   5  19 -10    2.14    0.83
   4  19 -10   -0.35    0.51
   4  19 -10    2.51    1.56
   3  19 -10   23.12    3.30
   3  19 -10   12.70    1.75
   2  19 -10    1.14    0.91
   2  19 -10    2.03    1.85
   1  19 -10    8.36    2.55
   0  19 -10    6.89    2.63
  -1  19 -10   17.47    3.43
  -2  19 -10    9.92    3.15
  -3  19 -10    2.36    2.94
  -4  19 -10   -0.15    2.06
   5  19  -9   -0.01    0.55
   5  19  -9    0.68    1.46
   4  19  -9    9.51    2.33
   4  19  -9    3.59    0.96
   3  19  -9   15.49    1.87
   3  19  -9   19.93    3.07
   2  19  -9   28.23    3.52
   2  19  -9   28.51    2.19
   1  19  -9   11.59    2.66
   0  19  -9    8.99    2.70
  -1  19  -9   19.74    3.54
  -2  19  -9    5.57    2.94
  -3  19  -9    5.09    2.44
  -4  19  -9    7.28    2.90
   5  19  -8    1.99    0.74
   5  19  -8    3.58    1.76
   4  19  -8    0.12    0.55
   4  19  -8    1.41    1.46
   3  19  -8    4.61    2.16
   3  19  -8    5.98    1.16
   2  19  -8    5.93    1.19
   2  19  -8    3.94    1.98
   1  19  -8    4.48    2.27
   0  19  -8    7.87    2.60
  -1  19  -8   27.72    3.86
  -2  19  -8    4.85    2.61
  -3  19  -8    1.93    2.05
  -4  19  -8    4.18    2.29
   5  19  -7    6.66    2.15
   4  19  -7    5.72    1.22
   4  19  -7   11.46    2.57
   3  19  -7    1.96    1.57
   3  19  -7    2.44    0.81
   2  19  -7   28.43    2.16
   2  19  -7   27.31    3.44
   1  19  -7   36.25    3.63
   0  19  -7    9.37    2.60
  -1  19  -7   22.23    3.42
  -2  19  -7   27.58    3.97
  -3  19  -7   18.98    3.52
  -4  19  -7   15.50    3.40
  -5  19  -7    2.15    2.00
  -5 -19   6    2.26    2.02
  -5 -19   6    7.47    2.96
   5  19  -6   11.48    2.60
   4  19  -6    2.99    1.92
   4  19  -6    1.57    0.77
   3  19  -6   23.03    3.27
   3  19  -6   24.23    2.10
   2  19  -6    8.68    1.44
   2  19  -6    6.77    2.19
   1  19  -6   25.01    1.93
   1  19  -6   20.49    3.21
   0  19  -6    6.99    2.42
  -1  19  -6   15.12    2.97
  -2  19  -6   44.11    4.18
  -3  19  -6   44.12    4.54
  -4  19  -6    3.35    2.01
  -5  19  -6    1.59    1.85
  -5 -19   5    0.16    1.43
  -5 -19   5    2.16    2.29
  -4 -19   5   -0.44    1.43
   4  19  -5    0.35    1.47
  -4 -19   5    2.36    1.83
   3  19  -5    4.32    1.11
   3  19  -5    4.14    1.93
   2  19  -5   21.96    1.87
   2  19  -5   23.40    3.10
   1  19  -5   18.85    2.97
   1  19  -5   14.72    1.64
   0  19  -5    3.05    1.98
  -1  19  -5   99.23    6.09
  -2  19  -5   15.81    3.07
  -3  19  -5    1.80    1.94
  -4  19  -5    6.65    2.41
  -5  19  -5    4.87    2.50
  -5 -19   4    2.40    1.35
  -5 -19   4    6.76    2.23
  -4 -19   4    3.20    1.79
  -4 -19   4    2.92    1.79
   4  19  -4    2.58    1.82
  -3 -19   4   12.04    2.81
   3  19  -4    9.40    2.41
  -3 -19   4   14.80    2.90
  -2 -19   4   21.24    3.19
  -2 -19   4   18.51    2.89
   2  19  -4   22.03    3.00
   1  19  -4    9.39    2.39
  -1 -19   4    5.65    1.45
  -1 -19   4    6.40    1.56
   0  19  -4   10.30    2.54
  -1  19  -4   28.87    3.64
  -2  19  -4   12.82    2.82
  -3  19  -4    1.07    1.66
  -4  19  -4   -1.48    1.36
  -5  19  -4   -2.36    1.50
  -5 -19   3    1.19    1.69
  -5 -19   3    0.69    1.31
  -4 -19   3    6.57    2.05
   4  19  -3   10.27    2.54
  -4 -19   3    7.63    2.37
   3  19  -3   24.56    3.34
  -3 -19   3   29.12    3.87
  -3 -19   3   22.54    3.27
  -2 -19   3    4.16    1.63
  -2 -19   3    2.82    1.33
   2  19  -3    3.24    1.91
  -1 -19   3    2.36    0.97
   1  19  -3    0.27    1.71
  -1 -19   3    0.93    0.83
   0  19  -3   86.82    5.35
  -1  19  -3   14.01    2.77
  -2  19  -3    4.10    2.10
  -3  19  -3   13.79    2.90
  -4  19  -3    8.43    2.52
  -5  19  -3    0.55    1.82
  -6  19  -3    2.25    4.03
  -5 -19   2    5.15    2.43
  -5 -19   2    7.07    2.15
   4  19  -2   34.60    3.60
  -4 -19   2   33.32    4.45
  -4 -19   2   30.98    3.89
  -3 -19   2   26.32    3.34
  -3 -19   2   28.44    3.70
   3  19  -2   28.21    3.09
  -2 -19   2   51.31    3.83
  -2 -19   2   53.98    4.19
   2  19  -2   57.34    4.22
  -1 -19   2    8.02    1.55
  -1 -19   2    9.33    1.72
   1  19  -2   11.04    2.31
   0  19  -2   77.03    4.93
  -1  19  -2   12.48    7.79
  -1  19  -2    4.97    2.21
  -2  19  -2   18.53    2.93
  -3  19  -2    5.61    2.38
  -4  19  -2    4.01    2.09
  -5  19  -2    2.91    2.07
  -5 -19   1    0.59    1.32
   4  19  -1    0.66    1.54
  -4 -19   1    2.20    1.44
  -4 -19   1   -0.45    1.15
  -3 -19   1    6.91    1.88
   3  19  -1    6.18    2.20
  -3 -19   1    5.33    1.89
   2  19  -1   53.22    3.97
  -2 -19   1   47.91    3.90
  -2 -19   1   49.21    3.74
  -1 -19   1   27.47    2.40
   1  19  -1   29.73    3.03
   0  19  -1    8.30    2.29
  -1  19  -1   17.00    7.13
  -2  19  -1    4.60    2.12
  -2  19  -1   -0.52    7.44
  -3  19  -1    3.03    1.99
  -4  19  -1   11.95    2.72
  -5  19  -1    8.06    2.70
  -5 -19   0    3.00    1.65
  -4 -19   0   10.08    2.29
  -3 -19   0   14.22    2.49
   3  19   0   19.57    2.91
   2  19   0   17.45    2.82
  -2 -19   0   13.69    2.32
  -1 -19   0   24.73    2.55
   1  19   0   24.23    2.98
   0  19   0   -1.03    1.55
   0  19   0    3.11    6.07
  -1  19   0   22.09    2.91
  -2  19   0   21.32    9.02
  -2  19   0   13.50    2.70
  -3  19   0   15.49    8.45
  -3  19   0   19.93    3.07
  -4  19   0   12.47    8.32
  -4  19   0   12.19    2.70
  -5  19   0    8.94    9.49
  -5 -19  -1    1.19    1.44
  -4 -19  -1   15.38    2.91
  -3 -19  -1    1.92    1.09
   3  19   1    4.03    1.77
   2  19   1    5.43    2.02
  -2 -19  -1    5.41    1.48
   1  19   1    5.17    1.98
   0  19   1    6.66    6.57
   0  19   1    5.38    1.93
   0 -19  -1    3.68    0.93
  -1  19   1   26.91    8.03
  -1  19   1   31.50    3.14
  -2  19   1   46.49    3.78
  -2  19   1   56.63   10.20
  -3  19   1   11.07    8.56
  -3  19   1    5.99    2.13
  -4  19   1   -1.51    1.59
  -4  19   1   -1.67    6.61
  -5  19   1    6.68    9.94
  -5 -19  -2    0.25    1.17
  -4 -19  -2    1.18    1.16
  -3 -19  -2    6.64    1.87
   3  19   2    5.15    1.83
   2  19   2   17.07    2.71
  -2 -19  -2   19.05    2.63
   1  19   2    5.56    2.00
   0  19   2   72.46    4.56
   0 -19  -2   77.39    3.64
   0  19   2   75.12    9.22
  -1  19   2   31.12    9.91
  -1  19   2   11.38    2.46
  -2  19   2   62.37   12.91
  -2  19   2   48.82    3.82
  -3  19   2   28.81    3.04
  -3  19   2   24.39    9.52
  -4  19   2   22.56    9.36
  -5  19   2   13.05   10.35
  -5 -19  -3   -1.27    1.17
  -4 -19  -3   12.64    2.56
   3  19   3   12.79    2.42
  -3 -19  -3    8.25    2.04
  -2 -19  -3    2.37    1.00
   2  19   3    2.80    1.52
  -1 -19  -3   10.90    1.78
   1  19   3   10.73    2.32
   0 -19  -3   83.15    3.93
   0  19   3   83.48    4.82
   0  19   3   74.67    9.82
  -1  19   3    6.12    2.00
  -1  19   3    2.75    7.96
  -2  19   3    4.26    1.83
  -2  19   3    1.42    7.94
  -3  19   3   14.68    9.49
  -3  19   3   25.95    2.84
  -4  19   3   15.11    9.69
  -5  19   3   -7.07    9.13
  -5 -19  -4   -1.45    1.02
  -4 -19  -4   -2.46    0.89
  -3 -19  -4    0.62    0.99
   2  19   4   12.33    2.38
  -2 -19  -4    8.47    1.95
   1  19   4   25.51    3.20
  -1 -19  -4   28.27    2.47
   0 -19  -4   13.40    1.68
   0  19   4   10.81    2.30
   0  19   4   12.46    7.37
  -1  19   4    6.34    9.05
  -1  19   4    4.76    1.96
  -2  19   4   18.04   10.01
  -2  19   4   22.55    2.76
  -3  19   4    7.97    8.71
  -4  19   4   -0.61    8.64
  -5  19   4   -3.51   11.49
  -5 -19  -5   -0.07    1.54
  -4 -19  -5    5.17    1.80
  -3 -19  -5   -0.05    0.75
  -2 -19  -5    7.03    1.71
   2  19   5   11.22    2.25
  -1 -19  -5  105.01    5.27
   1  19   5   96.08   11.49
   1  19   5  102.20    5.68
   0  19   5    1.82    2.49
   0  19   5    2.98    1.71
   0 -19  -5    2.58    0.88
  -1  19   5   31.75   10.36
  -1  19   5   13.01    2.42
  -2  19   5   25.76    2.86
  -2  19   5   30.86   10.48
  -3  19   5    5.04    8.16
  -4  19   5   -1.64    8.89
  -5  19   5  -11.16   10.81
  -5 -19  -6   -0.42    1.58
  -4 -19  -6    1.74    1.20
  -3 -19  -6   24.33    2.95
  -2 -19  -6   42.58    3.45
   1  19   6   17.69    9.46
   1  19   6   18.33    2.60
  -1 -19  -6   19.69    2.42
   0  19   6    3.83    1.73
   0  19   6    8.33    8.84
  -1  19   6   38.50   11.57
  -1  19   6   23.68    2.81
  -2  19   6   11.40    8.70
  -3  19   6   18.99   10.74
  -4  19   6    2.06    8.38
  -5  19   6   -4.03   11.11
  -4 -19  -7   11.81    2.33
  -3 -19  -7   11.81    2.31
  -2 -19  -7   21.17    2.75
  -1 -19  -7   17.16    2.36
   1  19   7   16.89    2.50
   0 -19  -7    9.50    1.58
   0  19   7    5.54    9.05
   0  19   7   11.22    2.08
   1 -19  -7   38.49    2.47
  -1  19   7   42.65   12.36
  -2  19   7   15.02    9.48
  -3  19   7    3.74    8.15
  -4  19   7    2.92    9.91
  -5  19   7   -2.96    9.42
  -4 -19  -8    0.25    0.99
  -3 -19  -8   -1.14    0.71
  -2 -19  -8    2.97    1.23
   1  19   8   25.08    3.00
  -1 -19  -8   23.84    2.76
   0  19   8    9.79    1.83
   0  19   8    3.27    8.57
   0 -19  -8   11.67    1.78
  -1  19   8    1.60    7.87
   1 -19  -8    5.04    1.14
  -2  19   8    4.61    8.39
  -3  19   8   -1.15    7.58
  -4  19   8    0.30    8.53
  -5  19   8    9.37   11.09
  -4 -19  -9   -0.87    1.11
  -3 -19  -9   -0.57    0.91
  -2 -19  -9    2.99    1.14
  -1 -19  -9   12.89    2.14
   0  19   9   12.89    9.62
   0 -19  -9    6.92    1.62
  -1  19   9    5.97    8.74
  -2  19   9   16.76   11.42
  -3  19   9   13.57    9.41
  -4  19   9   11.75   10.32
  -5  19   9    6.29   10.69
  -4 -19 -10    0.58    1.60
  -3 -19 -10    1.62    1.14
  -2 -19 -10    3.91    1.38
  -1 -19 -10   16.96    2.29
   0  19  10    8.33   10.84
   0 -19 -10    2.69    1.20
  -1  19  10   13.89   11.47
   1 -19 -10    9.13    1.51
  -2  19  10    0.50    9.47
  -3  19  10   17.79   11.02
  -4  19  10   -2.77    9.73
  -5  19  10    5.05    8.85
  -3 -19 -11   -0.77    1.07
  -2 -19 -11    0.81    1.02
  -1 -19 -11    0.27    0.72
   0  19  11   10.35   10.69
   0 -19 -11   12.60    1.95
  -1  19  11   11.82   11.00
   1 -19 -11   29.80    2.34
  -2  19  11    1.39    8.24
  -3  19  11    5.84   10.42
  -4  19  11    5.51   11.01
  -3 -19 -12   -0.06    1.06
  -2 -19 -12    0.70    1.05
  -1 -19 -12   10.87    1.99
   0 -19 -12    1.95    1.16
   0  19  12   -0.29    9.83
   1 -19 -12    7.43    1.44
  -1  19  12    0.44    9.65
  -2  19  12    6.68   10.26
  -3  19  12   -5.07    9.93
  -4  19  12    0.74    8.53
  -3 -19 -13   -0.96    1.31
  -2 -19 -13    0.89    1.09
  -1 -19 -13    3.37    1.24
   0 -19 -13    9.08    1.71
   1 -19 -13    2.55    1.07
  -1  19  13    3.95   10.07
  -2  19  13   -0.06   10.93
  -3  19  13    4.98   11.15
  -4  19  13  -10.20   12.14
  -2 -19 -14   -2.80    0.80
  -1 -19 -14    2.79    1.19
   0 -19 -14    5.50    1.50
  -1  19  14   -4.56    9.93
   1 -19 -14    2.06    0.79
  -2  19  14    3.28   11.41
  -3  19  14   -1.77   10.11
  -2 -19 -15   -0.06    1.42
  -1 -19 -15    0.03    1.30
   0 -19 -15    7.43    1.74
   1 -19 -15    7.34    1.51
  -1  19  15   -6.86   11.30
   2 -19 -15    1.55    0.82
  -2  19  15   -1.56   11.01
  -3  19  15  -11.52    8.98
  -1 -19 -16   -0.45    1.15
   0 -19 -16    2.85    1.32
   1 -19 -16    7.73    1.69
   2 -19 -16    0.62    0.83
  -2  19  16   -4.31    8.06
   0 -19 -17    7.99    2.08
   1 -19 -17    5.01    1.59
   2 -19 -17    1.50    0.91
   2 -19 -18    2.65    1.59
   0  20 -17    3.51    2.96
   1  20 -16    4.86    2.60
   0  20 -16   23.48    4.03
  -1  20 -16    1.69    2.79
   4  20 -15   -1.53    0.71
   2  20 -15    1.59    1.86
   1  20 -15    3.37    2.23
   0  20 -15    9.29    2.97
  -1  20 -15    1.79    2.45
   4  20 -14    0.92    0.62
   3  20 -14   -1.13    0.76
   2  20 -14    1.07    1.64
   1  20 -14   10.03    2.94
   0  20 -14   14.42    3.44
  -1  20 -14    3.81    2.71
  -2  20 -14   -0.78    1.64
   4  20 -13    2.63    0.83
   3  20 -13    8.18    1.55
   3  20 -13   14.59    2.90
   2  20 -13    1.94    1.91
   1  20 -13   10.99    2.87
   0  20 -13    6.86    2.79
  -1  20 -13    1.76    2.18
  -2  20 -13    0.90    2.12
   4  20 -12    0.77    0.72
   3  20 -12    6.40    1.13
   3  20 -12    9.88    2.52
   2  20 -12    3.54    2.04
   1  20 -12   -0.77    1.72
   0  20 -12    2.54    2.15
  -1  20 -12    9.72    3.04
  -2  20 -12    2.43    2.67
  -3  20 -12   -2.55    1.82
   5  20 -11    0.62    0.77
   4  20 -11    6.49    2.28
   3  20 -11   -0.95    1.57
   3  20 -11    1.09    0.76
   2  20 -11    5.22    2.21
   1  20 -11    3.48    2.16
   0  20 -11    7.68    2.75
  -1  20 -11   10.68    3.04
  -2  20 -11    2.84    2.64
  -3  20 -11   -1.71    1.65
   5  20 -10    3.69    1.08
   4  20 -10    2.97    1.87
   3  20 -10    5.30    2.30
   3  20 -10    5.08    1.12
   2  20 -10    6.52    1.27
   2  20 -10    6.44    2.30
   1  20 -10   24.87    3.60
   0  20 -10    3.33    2.27
  -1  20 -10    5.54    2.71
  -2  20 -10   19.07    3.88
  -3  20 -10    1.30    2.28
   5  20  -9    0.57    0.55
   5  20  -9    1.21    1.67
   4  20  -9    1.02    0.61
   4  20  -9    4.02    1.68
   3  20  -9    2.81    1.94
   3  20  -9    2.78    0.89
   2  20  -9    4.37    2.08
   2  20  -9    3.50    1.08
   1  20  -9   26.81    3.78
   0  20  -9    3.51    2.18
  -1  20  -9    3.64    2.37
  -2  20  -9    3.68    2.76
  -3  20  -9    8.15    2.86
  -4  20  -9    1.69    2.09
   5  20  -8    0.80    0.71
   5  20  -8    4.46    2.03
   4  20  -8   13.01    2.71
   4  20  -8    5.51    1.25
   3  20  -8   15.77    2.90
   3  20  -8   11.96    1.62
   2  20  -8   16.62    3.00
   2  20  -8   14.07    1.78
   1  20  -8    6.66    2.34
   0  20  -8    4.21    2.27
  -1  20  -8    4.91    2.49
  -2  20  -8   -0.36    2.00
  -3  20  -8   -1.41    1.71
  -4  20  -8    2.72    2.08
   5  20  -7    1.08    1.50
   4  20  -7   19.69    3.11
   4  20  -7   10.20    1.62
   3  20  -7   -1.52    1.32
   3  20  -7    0.80    0.61
   2  20  -7   18.93    1.96
   2  20  -7   18.34    3.03
   1  20  -7   32.54    3.86
   0  20  -7    6.34    2.41
  -1  20  -7    0.37    1.85
  -2  20  -7    0.41    2.11
  -3  20  -7    2.42    2.05
  -4  20  -7    0.72    1.67
  -5 -20   6   -0.89    1.65
  -5 -20   6   -4.38    1.12
   5  20  -6    4.63    2.02
   4  20  -6   15.82    2.91
   3  20  -6   20.79    3.12
   3  20  -6   15.52    1.88
   2  20  -6   16.11    2.85
   2  20  -6   19.48    1.80
   1  20  -6   78.49    5.25
   0  20  -6   -0.01    1.86
  -1  20  -6   20.98    3.39
  -2  20  -6   37.95    4.06
  -3  20  -6    9.98    2.76
  -4  20  -6    2.01    1.94
  -5  20  -6    0.68    1.87
  -5 -20   5   -0.31    1.79
  -5 -20   5   -2.63    1.37
   4  20  -5    4.12    1.79
  -4 -20   5    2.11    1.77
  -4 -20   5    2.10    1.70
   3  20  -5   12.64    2.65
  -3 -20   5   14.22    3.18
   2  20  -5   17.37    2.84
   1  20  -5   10.01    2.48
   0  20  -5   -0.33    1.61
  -1  20  -5   46.77    4.19
  -2  20  -5    8.51    2.53
  -3  20  -5    9.78    2.70
  -4  20  -5    5.71    2.27
  -5  20  -5    4.24    2.20
  -5 -20   4   -1.57    1.48
  -5 -20   4    0.86    1.36
  -4 -20   4    1.00    1.49
  -4 -20   4   -2.37    0.89
   4  20  -4    1.75    1.52
  -3 -20   4    0.39    1.11
   3  20  -4   -0.40    1.62
  -3 -20   4   -0.83    1.12
  -2 -20   4    3.71    1.70
  -2 -20   4    3.02    1.38
   2  20  -4    3.90    1.95
  -1 -20   4    2.29    1.06
  -1 -20   4    1.54    0.95
   1  20  -4    0.74    1.76
   0  20  -4    8.66    2.49
  -1  20  -4    4.41    2.11
  -2  20  -4   21.09    3.16
  -3  20  -4    9.25    2.63
  -4  20  -4    9.54    2.71
  -5  20  -4    0.01    1.73
  -5 -20   3    0.74    1.87
  -5 -20   3   -1.49    1.31
  -4 -20   3    2.97    1.74
  -4 -20   3   -2.08    1.08
   4  20  -3    1.58    1.55
  -3 -20   3   15.37    2.97
   3  20  -3   24.82    3.41
  -3 -20   3   19.47    3.07
   2  20  -3   45.89    3.86
  -2 -20   3   55.06    4.05
  -2 -20   3   46.21    4.00
   1  20  -3    4.34    1.93
  -1 -20   3    1.51    0.85
  -1 -20   3    1.16    0.88
   0  20  -3    1.91    2.01
  -1  20  -3   11.75    2.67
  -1  20  -3   16.25    8.06
  -2  20  -3   17.57    2.82
  -3  20  -3    0.39    2.18
  -4  20  -3    8.83    2.47
  -5  20  -3   -0.64    1.93
  -5 -20   2    1.87    1.62
  -5 -20   2    0.92    1.84
   4  20  -2    7.05    2.30
  -4 -20   2    6.67    2.29
  -4 -20   2    5.77    1.82
  -3 -20   2    1.29    1.06
   3  20  -2    0.18    1.63
  -3 -20   2   -0.22    1.15
  -2 -20   2   14.78    2.45
   2  20  -2   10.30    2.36
  -2 -20   2   10.27    2.26
   1  20  -2   23.27    3.14
  -1 -20   2   23.12    2.45
   0  20  -2    8.30    2.42
  -1  20  -2   17.06    7.77
  -1  20  -2    8.76    2.38
  -2  20  -2   18.44    2.97
  -2  20  -2   31.72   10.57
  -3  20  -2   14.07    2.94
  -4  20  -2    9.48    2.68
  -5  20  -2   -0.37    1.61
  -5 -20   1    1.25    1.62
  -4 -20   1    8.28    2.16
   4  20  -1    5.67    2.15
   3  20  -1    5.53    2.18
  -3 -20   1    4.64    1.75
  -2 -20   1    0.60    0.92
   2  20  -1    1.91    1.54
  -1 -20   1   15.78    2.08
   1  20  -1   14.33    2.72
   0  20  -1   45.44    3.90
  -1  20  -1   22.65    3.06
  -1  20  -1   42.50   10.68
  -2  20  -1   39.19    3.75
  -2  20  -1   55.05   11.84
  -3  20  -1    0.81    1.79
  -3  20  -1   -0.66    7.54
  -4  20  -1    0.75    1.76
  -5  20  -1    2.91    2.18
  -5 -20   0   -1.25    1.29
   4  20   0    6.63    2.36
  -4 -20   0    2.75    1.49
   3  20   0    9.23    2.26
  -3 -20   0    6.16    1.90
   2  20   0   10.00    2.24
  -2 -20   0    4.16    1.36
   1  20   0    5.53    2.03
  -1 -20   0    3.54    1.15
   0  20   0   21.34    2.97
  -1  20   0    5.89    2.25
  -1  20   0    0.22    6.32
  -2  20   0   -1.96    7.23
  -2  20   0    4.47    2.11
  -3  20   0    6.16    2.29
  -3  20   0    3.39    8.02
  -4  20   0    3.55    2.32
  -4  20   0    9.23    7.69
  -5  20   0    5.73    8.82
  -5 -20  -1   -0.05    1.25
  -4 -20  -1    2.58    1.36
   3  20   1   -0.04    1.41
  -3 -20  -1    0.60    0.98
   2  20   1   32.86    3.23
  -2 -20  -1   33.30    3.40
  -1 -20  -1   25.00    2.53
   1  20   1   27.64    2.95
   0  20   1   51.25    3.99
  -1  20   1   12.27    2.58
  -1  20   1   -1.63    2.71
  -2  20   1    0.68    1.76
  -2  20   1   -2.20    7.68
  -3  20   1    7.87    2.23
  -3  20   1    6.27    7.93
  -4  20   1   15.03    3.03
  -4  20   1    9.57    7.49
  -5  20   1   -1.14    8.09
  -5 -20  -2    0.69    1.40
  -4 -20  -2   11.38    2.40
   3  20   2   10.83    2.44
  -3 -20  -2    9.95    2.24
   2  20   2   21.99    2.84
  -2 -20  -2   20.64    2.74
   1  20   2    7.09    2.14
   0  20   2    7.88    2.21
   0  20   2   16.36    7.90
  -1  20   2   37.12   10.74
  -1  20   2   26.95    3.27
  -2  20   2    5.99    8.17
  -2  20   2   13.69    2.49
  -3  20   2    1.03    1.75
  -3  20   2    3.03    7.86
  -4  20   2    6.53    7.75
  -5  20   2   -2.23    8.69
  -5 -20  -3   -0.79    1.28
  -4 -20  -3   12.21    2.54
  -3 -20  -3    1.87    1.27
   3  20   3    4.39    1.69
   2  20   3   21.87    2.81
  -2 -20  -3   19.82    2.67
   1  20   3   11.22    2.35
  -1 -20  -3    9.26    1.68
   0  20   3   23.90    8.87
  -1  20   3    8.28    8.23
  -1  20   3    2.17    1.82
  -2  20   3   41.11   11.65
  -2  20   3   46.02    3.62
  -3  20   3   14.84    9.43
  -3  20   3   22.16    3.09
  -4  20   3   -1.12    7.61
  -5  20   3   -0.57    9.72
  -5 -20  -4   -0.41    1.35
  -4 -20  -4   11.68    2.38
  -3 -20  -4    2.67    1.27
   2  20   4   19.25    2.74
  -2 -20  -4   23.70    2.82
   1  20   4    1.62    1.54
  -1 -20  -4    4.11    1.25
   0  20   4    7.98    2.09
   0 -20  -4    9.89    1.52
   0  20   4    2.95    7.04
  -1  20   4   11.36    8.07
  -2  20   4    4.30    8.44
  -2  20   4    8.96    2.04
  -3  20   4    2.30    7.71
  -4  20   4   -5.49    7.53
  -5  20   4  -16.14    8.69
  -5 -20  -5    0.09    1.86
  -4 -20  -5    6.72    2.09
  -3 -20  -5   10.92    2.21
   2  20   5    7.71    2.02
  -2 -20  -5    7.51    1.87
  -1 -20  -5   46.94    3.37
   1  20   5   47.02    3.71
   0  20   5    2.28    3.14
   0 -20  -5    0.27    0.69
   0  20   5    1.74    1.40
  -1  20   5   20.48    9.47
  -1  20   5   14.69    2.39
  -2  20   5   17.26    9.28
  -3  20   5    7.76    8.59
  -4  20   5    2.44    8.07
  -5  20   5  -13.36    8.92
  -4 -20  -6    4.37    1.59
  -3 -20  -6    7.47    1.84
  -2 -20  -6   32.05    2.97
  -1 -20  -6   16.72    2.28
   1  20   6   19.51    2.65
   0 -20  -6    0.44    0.75
   0  20   6   -4.21    7.42
   0  20   6    2.10    1.50
  -1  20   6   75.82    4.44
  -1  20   6   71.05   11.21
  -2  20   6   10.85    8.05
  -3  20   6   19.72    9.84
  -4  20   6   14.61    9.53
  -5  20   6   -9.08    7.51
  -4 -20  -7   -0.23    1.10
  -3 -20  -7    2.83    1.18
  -2 -20  -7    2.26    1.22
  -1 -20  -7    3.40    1.27
   1  20   7    6.05    1.66
   0 -20  -7    4.95    1.27
   0  20   7   20.07   10.94
   0  20   7   11.13    2.03
  -1  20   7   22.62   11.11
  -2  20   7   14.92    8.94
  -3  20   7    5.55    8.35
  -4  20   7    8.41    9.23
  -5  20   7   -6.47    6.54
  -4 -20  -8    0.81    1.19
  -3 -20  -8   -0.76    0.87
  -2 -20  -8    2.04    1.22
  -1 -20  -8    6.33    1.51
   1  20   8    5.83    1.78
   0  20   8    4.95    1.41
   0  20   8    5.94    9.30
   0 -20  -8    3.55    1.00
  -1  20   8    7.23    8.50
  -2  20   8   10.79    9.24
  -3  20   8   13.90    8.69
  -4  20   8   11.66    9.65
  -5  20   8   -3.67    7.28
  -4 -20  -9   -0.84    1.51
  -3 -20  -9    2.70    1.41
  -2 -20  -9    0.09    0.86
  -1 -20  -9    2.14    0.91
   0 -20  -9    1.45    0.97
   0  20   9   -3.97    9.11
  -1  20   9   18.21   10.80
   1 -20  -9   25.89    2.13
  -2  20   9   -4.51    9.26
  -3  20   9    4.34    7.99
  -4  20   9    5.49    9.63
  -5  20   9    9.34    9.43
  -3 -20 -10    1.98    1.35
  -2 -20 -10    9.69    1.98
  -1 -20 -10    4.47    1.28
   0  20  10   12.03   10.72
  -1  20  10   11.97   10.78
  -2  20  10    4.61    9.14
  -3  20  10    8.80    9.40
  -4  20  10   -3.26   10.04
  -3 -20 -11   -0.31    1.00
  -2 -20 -11    4.55    1.47
  -1 -20 -11    7.66    1.66
   0 -20 -11    4.13    1.34
   0  20  11   -9.02    9.73
   1 -20 -11    3.70    1.05
  -1  20  11    6.02    9.61
  -2  20  11    4.05    8.13
  -3  20  11   -7.32    9.99
  -4  20  11    5.88    8.64
  -3 -20 -12    0.62    1.53
  -2 -20 -12    4.95    1.70
  -1 -20 -12    5.53    1.62
   0  20  12   -3.75   10.16
   0 -20 -12    1.35    1.05
   1 -20 -12    0.33    0.68
  -1  20  12    3.02    9.04
  -2  20  12    0.46    9.74
  -3  20  12   11.30   11.85
  -4  20  12   -0.40    8.56
  -2 -20 -13    0.92    1.14
  -1 -20 -13    3.16    1.33
   0 -20 -13    5.74    1.52
  -1  20  13    8.26    9.89
   1 -20 -13   11.41    1.79
  -2  20  13   -6.57   13.03
  -3  20  13    1.32    9.86
  -4  20  13  -20.16   10.32
  -2 -20 -14   -1.72    1.29
  -1 -20 -14    4.32    1.57
   0 -20 -14   14.99    2.24
  -1  20  14    2.79   10.46
   1 -20 -14    8.40    1.52
  -2  20  14   -4.94   11.77
  -3  20  14   -5.50    7.49
  -1 -20 -15   -1.09    0.96
   0 -20 -15    7.18    1.71
   1 -20 -15    0.94    0.83
  -1  20  15   -4.08   11.93
  -2  20  15    5.34    7.67
   0 -20 -16   20.95    2.75
   1 -20 -16    3.25    1.12
   1 -20 -17    2.08    1.56
   0  21 -17   11.04    3.62
   1  21 -16   12.47    3.32
   0  21 -16    3.27    2.67
   2  21 -15    2.96    2.22
   1  21 -15    8.05    2.97
   0  21 -15    8.84    3.03
  -1  21 -15    0.73    2.74
   4  21 -14    0.80    0.73
   2  21 -14    5.92    2.34
   1  21 -14    2.72    2.38
   0  21 -14   15.51    3.45
  -1  21 -14    2.71    2.38
  -2  21 -14   -0.53    1.80
   4  21 -13   -0.19    0.62
   3  21 -13    1.99    0.90
   3  21 -13    7.04    2.48
   2  21 -13    8.05    2.62
   1  21 -13    7.62    2.72
   0  21 -13    2.69    2.42
  -1  21 -13   -0.12    2.45
  -2  21 -13   -0.85    1.46
   4  21 -12    2.52    0.83
   3  21 -12    1.58    0.85
   3  21 -12    3.51    2.27
   2  21 -12   23.72    3.55
   1  21 -12    2.54    2.13
   0  21 -12    6.72    2.61
  -1  21 -12   17.00    3.93
  -2  21 -12   -0.97    2.15
   4  21 -11    0.58    0.59
   4  21 -11   -0.61    1.66
   3  21 -11    2.82    0.91
   3  21 -11    4.00    2.21
   2  21 -11    6.66    2.40
   1  21 -11    2.98    2.26
   0  21 -11    2.29    2.04
  -1  21 -11    2.99    2.47
  -2  21 -11    1.14    2.67
  -3  21 -11   -5.06    1.75
   5  21 -10    5.53    2.11
   4  21 -10   10.78    2.74
   3  21 -10   13.09    1.75
   3  21 -10   16.69    3.09
   2  21 -10    8.96    2.46
   1  21 -10    9.32    2.71
   0  21 -10    1.86    2.09
  -1  21 -10   -1.45    2.04
  -2  21 -10    3.73    2.79
  -3  21 -10    1.25    2.85
   5  21  -9    4.83    1.89
   5  21  -9    4.22    1.26
   4  21  -9    3.15    1.86
   4  21  -9    0.21    0.52
   3  21  -9    6.08    1.26
   3  21  -9    6.50    2.35
   2  21  -9    2.83    1.83
   1  21  -9   -0.28    1.93
   0  21  -9    5.50    2.53
  -1  21  -9    1.45    2.37
  -2  21  -9    7.85    3.11
  -3  21  -9   14.25    3.54
  -4  21  -9    0.43    2.25
   5  21  -8    3.42    1.89
   4  21  -8    3.14    0.86
   4  21  -8    5.65    2.07
   3  21  -8    2.38    1.79
   2  21  -8    5.83    2.05
   2  21  -8    6.02    1.26
   1  21  -8   25.68    3.66
   0  21  -8    1.09    2.16
  -1  21  -8   15.98    3.51
  -2  21  -8    2.06    2.14
  -3  21  -8    2.57    2.25
  -4  21  -8   -0.05    1.82
  -5 -21   7    1.87    2.79
   5  21  -7    2.10    1.75
  -5 -21   7   -5.66    1.90
   4  21  -7    4.12    1.99
   4  21  -7    5.80    1.24
   3  21  -7    7.57    2.40
   3  21  -7    6.66    1.22
   2  21  -7   20.98    2.11
   2  21  -7   20.17    3.20
   1  21  -7    7.74    2.45
   0  21  -7    1.74    2.03
  -1  21  -7   10.12    2.93
  -2  21  -7    4.87    2.40
  -3  21  -7   10.54    3.17
  -4  21  -7    0.85    1.80
   5  21  -6    2.00    1.90
  -5 -21   6   -0.71    2.03
  -5 -21   6   -1.12    1.75
  -4 -21   6    3.60    2.26
   4  21  -6    6.32    2.10
  -4 -21   6    6.77    2.82
   3  21  -6    9.38    2.51
   2  21  -6    8.98    2.49
   2  21  -6    9.56    1.55
   1  21  -6   -0.22    1.71
   0  21  -6   23.73    3.44
  -1  21  -6    2.48    2.05
  -2  21  -6    5.28    2.50
  -3  21  -6    4.64    2.65
  -4  21  -6    4.37    2.12
  -5 -21   5    0.90    1.64
  -5 -21   5   -0.17    1.45
   4  21  -5    3.21    1.89
  -4 -21   5    3.54    1.82
  -4 -21   5    5.02    2.41
  -3 -21   5    2.55    1.84
   3  21  -5    2.44    1.83
  -3 -21   5    3.87    1.79
   2  21  -5   13.47    2.71
  -2 -21   5    6.43    1.78
  -2 -21   5    9.95    2.44
   1  21  -5    1.29    1.69
   0  21  -5    1.74    1.82
  -1  21  -5   10.73    2.69
  -2  21  -5    6.36    2.36
  -3  21  -5    2.77    2.64
  -4  21  -5   -0.23    1.65
  -5  21  -5    1.45    1.76
  -5 -21   4   -1.93    1.07
  -5 -21   4   -1.19    1.40
  -4 -21   4    3.48    1.95
   4  21  -4    5.73    2.11
  -4 -21   4    4.88    1.81
   3  21  -4   -0.68    1.50
  -3 -21   4   -0.62    1.10
  -3 -21   4   -0.28    0.99
   2  21  -4    8.93    2.40
  -2 -21   4    8.40    2.05
  -2 -21   4   11.75    2.43
   1  21  -4    3.41    1.97
   0  21  -4    2.80    2.10
  -1  21  -4    3.32    1.94
  -2  21  -4    7.62    2.33
  -3  21  -4    6.10    2.58
  -4  21  -4    0.70    1.85
  -5  21  -4    0.14    1.82
  -5 -21   3    2.24    1.42
  -5 -21   3    0.19    1.62
  -4 -21   3    7.67    2.56
   4  21  -3   10.76    2.62
  -4 -21   3   14.74    2.92
  -3 -21   3   22.41    3.61
  -3 -21   3   19.37    3.07
   3  21  -3   21.45    3.33
  -2 -21   3    1.25    1.33
   2  21  -3    0.47    1.59
  -2 -21   3    1.79    1.17
   1  21  -3    3.79    2.02
   0  21  -3   24.22    3.32
  -1  21  -3    2.79    6.36
  -1  21  -3    0.56    1.68
  -2  21  -3    6.82    2.20
  -3  21  -3    9.08    2.51
  -4  21  -3    3.80    1.98
  -5  21  -3   -0.30    1.87
  -5 -21   2    1.04    1.40
  -5 -21   2    0.17    1.56
  -4 -21   2    1.76    1.27
  -4 -21   2    1.70    1.43
   4  21  -2    0.62    1.62
   3  21  -2   15.92    2.97
  -3 -21   2   12.93    2.66
  -3 -21   2   15.86    3.05
  -2 -21   2    3.01    1.14
   2  21  -2    0.71    1.48
  -2 -21   2    0.23    1.04
  -1 -21   2   19.62    2.36
   1  21  -2   17.29    2.79
   0  21  -2    1.20    1.85
  -1  21  -2   -0.47    5.82
  -1  21  -2    0.43    1.73
  -2  21  -2   13.00    8.48
  -2  21  -2    8.43    2.30
  -3  21  -2   11.85    2.71
  -4  21  -2    2.79    2.31
  -5  21  -2   -0.01    1.96
  -5 -21   1    1.36    1.35
  -4 -21   1    0.84    1.22
   4  21  -1    2.42    1.67
  -3 -21   1    4.57    1.76
   3  21  -1    7.06    2.38
  -2 -21   1    1.00    0.99
   2  21  -1    2.17    1.52
   1  21  -1   -0.31    1.47
  -1 -21   1    2.00    0.98
   0  21  -1   44.40    3.79
  -1  21  -1   38.64    3.53
  -1  21  -1   47.73   11.41
  -2  21  -1   10.67    8.14
  -2  21  -1    5.60    2.10
  -3  21  -1   -0.20    6.88
  -3  21  -1    3.30    2.03
  -4  21  -1   12.51    3.16
  -4  21  -1   10.72    7.84
  -5  21  -1    3.58    2.35
  -5 -21   0    1.86    1.74
   4  21   0    7.18    2.34
  -4 -21   0    8.47    2.45
  -3 -21   0    4.27    1.70
   3  21   0    7.32    1.98
  -2 -21   0   14.38    2.46
   2  21   0   19.21    2.87
   1  21   0    3.90    1.77
  -1 -21   0    7.21    1.64
   0  21   0   -2.40    1.41
  -1  21   0    2.59    7.43
  -1  21   0    8.69    2.27
  -2  21   0   17.09    9.45
  -2  21   0   14.86    2.66
  -3  21   0    6.75    7.73
  -3  21   0    6.24    2.30
  -4  21   0    8.03    2.68
  -4  21   0    7.79    7.41
  -5  21   0   11.20    5.31
  -5 -21  -1    0.81    1.69
  -4 -21  -1   10.19    2.51
   3  21   1    1.33    1.49
  -3 -21  -1   -2.04    0.78
   2  21   1    8.12    2.21
  -2 -21  -1   10.45    2.20
   1  21   1   30.30    3.10
  -1 -21  -1   35.86    2.76
   0  21   1   42.73    3.58
  -1  21   1   -2.19    3.43
  -1  21   1    1.59    1.81
  -2  21   1    0.09    1.68
  -2  21   1   -5.49    7.17
  -3  21   1    7.95    2.38
  -3  21   1    2.94    7.94
  -4  21   1    2.48    7.02
  -4  21   1    2.83    1.89
  -5  21   1   14.04    5.47
  -5 -21  -2    0.32    1.69
  -4 -21  -2    2.16    1.51
  -3 -21  -2   14.17    2.65
   3  21   2   13.00    2.57
   2  21   2   11.04    2.30
  -2 -21  -2    9.11    1.90
  -1 -21  -2   -0.46    0.77
   1  21   2   -0.89    1.49
   0  21   2    1.10    1.57
  -1  21   2   16.12    2.71
  -1  21   2   23.90    7.55
  -2  21   2   -1.80    7.66
  -2  21   2    2.30    1.77
  -3  21   2    7.03    8.69
  -3  21   2   13.26    2.58
  -4  21   2   -2.65    6.85
  -5  21   2    8.89    5.37
  -5 -21  -3   -0.98    1.65
  -4 -21  -3    2.96    1.64
   3  21   3    7.30    2.08
  -3 -21  -3    7.63    1.86
   2  21   3   18.10    2.78
  -2 -21  -3   10.47    2.14
   1  21   3   -1.23    1.23
  -1 -21  -3   -0.75    0.56
   0  21   3   20.30    8.91
   0  21   3   21.59    2.76
  -1  21   3    8.69    8.28
  -1  21   3    1.49    1.83
  -2  21   3   25.29    9.82
  -3  21   3    2.84    8.08
  -4  21   3   -5.11    7.33
  -5  21   3   -2.22    5.51
  -4 -21  -4    1.70    1.14
  -3 -21  -4    0.43    1.12
  -2 -21  -4    5.61    1.63
   2  21   4    7.49    1.98
  -1 -21  -4    1.95    0.96
   1  21   4    1.90    1.55
   0  21   4    5.27    1.97
   0  21   4    5.88    7.22
  -1  21   4    2.14    1.63
  -1  21   4    1.85    7.13
  -2  21   4   11.40    8.93
  -2  21   4   12.34    2.37
  -3  21   4    2.84    7.86
  -4  21   4   -7.68    6.93
  -4 -21  -5    2.34    1.57
  -3 -21  -5    1.43    1.06
   2  21   5    5.52    1.86
  -2 -21  -5    5.03    1.57
   1  21   5    6.87    1.96
  -1 -21  -5   10.82    1.97
   0  21   5    0.11    5.60
   0 -21  -5    2.61    0.98
   0  21   5    1.64    1.53
  -1  21   5    2.81    1.63
  -1  21   5    3.06    7.29
  -2  21   5   18.61    9.40
  -3  21   5    1.25    7.24
  -4  21   5   -2.90    7.25
  -4 -21  -6   -0.33    1.00
  -3 -21  -6    4.93    1.37
  -2 -21  -6    1.61    1.09
   2  21   6    3.40    1.53
   1  21   6    3.28    1.60
  -1 -21  -6    1.89    1.02
   0  21   6   24.35    2.87
   0 -21  -6   17.27    2.02
  -1  21   6   -3.13    7.38
  -1  21   6    0.61    1.27
  -2  21   6    2.13    7.67
  -3  21   6   15.77    8.71
  -4  21   6    1.95    7.80
  -5  21   6   -5.57    6.66
  -4 -21  -7   -0.31    1.08
  -3 -21  -7    9.52    2.00
  -2 -21  -7    2.02    1.11
  -1 -21  -7    8.82    1.84
   1  21   7    8.13    1.97
   0 -21  -7    0.48    0.48
   0  21   7    5.31    1.62
   0  21   7   -2.07    8.78
  -1  21   7   12.23    9.93
  -2  21   7   12.39    8.69
  -3  21   7    6.24    7.84
  -4  21   7    3.99    8.64
  -5  21   7   -7.38    7.27
  -4 -21  -8   -0.60    1.29
  -3 -21  -8    5.28    1.66
  -2 -21  -8    1.92    1.08
   1  21   8   15.18    2.52
  -1 -21  -8   12.05    2.01
   0  21   8    2.47    9.27
   0 -21  -8    3.14    1.05
  -1  21   8   18.20    9.10
  -2  21   8    6.41    9.08
  -3  21   8    2.93    6.91
  -4  21   8    2.07    8.71
  -3 -21  -9   10.45    2.19
  -2 -21  -9    4.36    1.32
  -1 -21  -9    5.48    1.36
   0  21   9   -5.54    8.74
   0 -21  -9    4.14    1.28
  -1  21   9   -2.28    8.61
  -2  21   9    5.26    9.57
  -3  21   9    6.73    8.24
  -4  21   9    5.77    9.05
  -3 -21 -10   -0.01    1.09
  -2 -21 -10    4.11    1.28
  -1 -21 -10    1.13    0.91
   0 -21 -10    1.43    0.83
   0  21  10   -3.73    9.59
  -1  21  10    3.04    9.76
  -2  21  10    2.70    9.10
  -3  21  10   13.57   10.30
  -4  21  10    2.60    7.62
  -3 -21 -11   -1.37    1.33
  -2 -21 -11    1.56    1.20
  -1 -21 -11    4.30    1.38
   0  21  11    2.99   10.45
  -1  21  11    3.58    9.04
  -2  21  11   13.45    9.07
  -3  21  11   -4.87   10.31
  -4  21  11    8.60    7.61
  -2 -21 -12   -0.30    1.06
  -1 -21 -12    8.50    1.85
   0 -21 -12    2.12    1.22
   0  21  12    2.81   10.76
  -1  21  12    6.08    9.69
   1 -21 -12    6.66    1.34
  -2  21  12    6.22   10.49
  -3  21  12   -2.69   10.99
  -4  21  12   -2.31    9.46
  -2 -21 -13   -1.18    1.06
  -1 -21 -13    2.51    1.35
   0 -21 -13    4.78    1.23
   1 -21 -13    4.95    1.22
  -1  21  13    6.63   10.47
  -2  21  13   -0.89   11.32
  -3  21  13    4.17    6.12
  -1 -21 -14    2.04    1.29
   0 -21 -14   13.70    2.21
  -1  21  14   -2.15   11.56
   1 -21 -14    3.88    1.16
  -2  21  14    2.83    8.55
  -3  21  14   -3.98    8.53
  -1 -21 -15   -1.16    1.18
   0 -21 -15    9.12    1.92
  -1  21  15  -13.54    8.62
   1 -21 -15    8.42    1.76
  -2  21  15    7.99    8.37
   0 -21 -16    2.54    1.48
   1 -21 -16   13.59    2.11
   1 -21 -17    0.35    1.43
   1  22 -16    4.13    2.89
   0  22 -16    4.68    2.81
   2  22 -15    6.69    2.66
   1  22 -15   -0.58    2.14
   0  22 -15    5.67    2.83
  -1  22 -15   -1.86    2.71
   2  22 -14    4.99    2.40
   1  22 -14    3.46    2.55
   0  22 -14    2.57    2.35
  -1  22 -14   -2.51    1.51
   4  22 -13    2.64    1.08
   3  22 -13    2.14    2.19
   2  22 -13    3.16    2.03
   1  22 -13    7.24    2.86
   0  22 -13   10.35    3.00
  -1  22 -13   -0.61    1.63
  -2  22 -13    0.15    1.70
   4  22 -12    1.37    1.80
   4  22 -12    0.34    0.67
   3  22 -12   17.06    3.33
   2  22 -12    5.98    2.42
   1  22 -12    0.82    2.21
   0  22 -12    2.24    2.23
  -1  22 -12    8.39    3.22
  -2  22 -12    0.83    1.44
   4  22 -11    1.47    1.65
   4  22 -11    1.03    0.68
   3  22 -11    3.79    1.06
   3  22 -11    7.24    2.58
   2  22 -11    4.64    2.15
   1  22 -11    1.31    2.01
   0  22 -11    6.94    2.61
  -1  22 -11    3.17    2.59
  -2  22 -11    0.12    2.25
   5  22 -10    0.03    2.35
   4  22 -10    4.92    2.15
   4  22 -10    1.67    0.85
   3  22 -10    6.85    1.30
   3  22 -10   13.66    2.94
   2  22 -10    3.46    1.98
   1  22 -10    5.64    2.63
   0  22 -10    4.97    2.36
  -1  22 -10    3.09    2.58
  -2  22 -10    3.19    2.91
  -3  22 -10    2.76    2.77
   5  22  -9    1.46    2.11
   4  22  -9    1.17    0.69
   4  22  -9    2.82    1.68
   3  22  -9    1.53    0.68
   3  22  -9    0.92    1.82
   2  22  -9    2.06    1.72
   1  22  -9   14.42    3.12
   0  22  -9    6.14    2.51
  -1  22  -9   -2.14    2.04
  -2  22  -9    4.15    2.60
  -3  22  -9   -0.12    2.43
   5  22  -8    8.01    2.96
  -5 -22   8    5.61    4.73
   4  22  -8    4.22    1.05
   4  22  -8    8.20    2.42
   3  22  -8   17.89    3.13
   3  22  -8   14.28    1.85
   2  22  -8    1.13    1.66
   1  22  -8   10.01    2.83
   0  22  -8    0.98    1.85
  -1  22  -8   18.27    3.50
  -2  22  -8    4.29    2.30
  -3  22  -8   10.89    3.36
  -4  22  -8   -0.04    2.19
  -5 -22   7   -2.08    2.54
   5  22  -7    2.26    2.15
  -5 -22   7   -0.02    3.40
   4  22  -7    2.32    1.85
   3  22  -7   11.62    2.75
   3  22  -7    9.64    1.55
   2  22  -7   -0.11    1.59
   1  22  -7    2.80    2.02
   0  22  -7    0.73    2.03
  -1  22  -7    4.47    2.29
  -2  22  -7    2.18    2.10
  -3  22  -7   -2.71    1.88
  -4  22  -7   -0.03    1.96
  -5 -22   6   -0.57    2.81
  -5 -22   6   -1.61    1.92
   5  22  -6    8.18    2.68
  -4 -22   6    0.45    1.95
  -4 -22   6    3.06    1.94
   4  22  -6    2.17    1.89
  -3 -22   6   -1.34    1.57
   3  22  -6   -1.01    1.42
  -3 -22   6    2.12    1.96
  -2 -22   6    2.29    1.59
  -2 -22   6   -1.78    1.07
   2  22  -6    7.39    2.30
   1  22  -6   13.60    2.94
   0  22  -6   14.24    3.12
  -1  22  -6   14.21    2.95
  -2  22  -6    4.74    2.14
  -3  22  -6    5.30    2.50
  -4  22  -6    2.37    2.07
  -5 -22   5    2.63    2.22
   5  22  -5    3.70    2.16
  -5 -22   5    0.97    2.63
  -4 -22   5    4.03    1.87
  -4 -22   5    3.78    2.31
   4  22  -5    2.00    1.80
   3  22  -5   15.32    3.01
  -3 -22   5   19.17    3.79
  -3 -22   5   12.83    2.90
  -2 -22   5   -1.33    0.80
   2  22  -5    2.94    1.90
  -2 -22   5    0.24    0.81
   1  22  -5    3.98    2.12
   0  22  -5    7.60    2.47
  -1  22  -5    2.84    2.11
  -2  22  -5    1.87    1.95
  -3  22  -5    4.84    2.31
  -5 -22   4    0.41    1.85
  -5 -22   4    0.87    2.34
   4  22  -4    6.80    2.55
  -4 -22   4    6.18    2.32
  -4 -22   4    5.66    1.85
   3  22  -4    5.95    2.46
  -3 -22   4    7.94    2.48
  -3 -22   4    7.55    2.15
  -2 -22   4    2.87    1.22
  -2 -22   4    2.76    1.00
   2  22  -4    9.59    2.53
   1  22  -4    2.74    1.89
   0  22  -4   17.69    3.07
  -1  22  -4    1.81    1.86
  -2  22  -4   -0.47    1.66
  -3  22  -4    5.80    2.10
  -4  22  -4    9.44    3.09
  -5  22  -4    2.13    1.95
  -5 -22   3    0.22    1.66
  -5 -22   3   -0.06    2.01
  -4 -22   3    1.85    1.41
  -4 -22   3    6.70    2.49
   4  22  -3    4.54    1.80
  -3 -22   3    5.71    1.89
  -3 -22   3    6.46    2.12
   3  22  -3    6.85    2.31
  -2 -22   3   12.97    2.53
   2  22  -3   13.61    2.73
  -2 -22   3   12.49    2.34
   1  22  -3    0.86    1.48
   0  22  -3   17.01    2.91
  -1  22  -3    5.22    2.06
  -2  22  -3   10.52    8.62
  -2  22  -3    3.36    1.98
  -3  22  -3    1.61    1.83
  -4  22  -3    4.78    2.60
  -5  22  -3   -1.66    1.89
  -5 -22   2    2.38    1.97
   4  22  -2    3.16    1.75
  -4 -22   2    5.91    2.27
  -4 -22   2    2.16    1.52
  -3 -22   2    5.81    1.64
   3  22  -2    4.31    2.03
  -3 -22   2    7.00    2.21
   2  22  -2    7.60    2.15
  -2 -22   2    8.62    1.96
   1  22  -2    0.28    1.52
   0  22  -2   13.85    2.65
  -1  22  -2    1.93    1.66
  -2  22  -2   14.02    2.69
  -2  22  -2   24.25    9.91
  -3  22  -2   15.10    8.40
  -3  22  -2    0.57    1.69
  -4  22  -2    3.15    2.39
  -4  22  -2    8.68    7.37
  -5  22  -2    0.63    2.17
  -5  22  -2   14.51    7.16
  -5 -22   1    1.63    1.95
   4  22  -1   11.30    2.80
  -4 -22   1    3.43    1.76
  -3 -22   1    8.64    2.32
   3  22  -1   11.77    2.60
   2  22  -1    5.50    2.15
  -2 -22   1    6.12    1.72
   1  22  -1    0.21    1.39
   0  22  -1    5.47    2.08
  -1  22  -1    5.82    8.35
  -1  22  -1    9.58    2.29
  -2  22  -1   11.46    8.57
  -2  22  -1    6.89    2.25
  -3  22  -1    4.15    1.95
  -3  22  -1    5.81    6.84
  -4  22  -1    3.16    2.22
  -4  22  -1    4.65    6.94
  -5  22  -1   14.45    6.83
  -5 -22   0   -0.30    1.91
  -4 -22   0    1.03    1.46
   4  22   0    4.22    2.15
   3  22   0    5.83    1.89
  -3 -22   0    2.33    1.26
   2  22   0    1.25    1.52
  -2 -22   0   -2.16    0.71
   1  22   0   10.97    2.35
   0  22   0   19.76    2.90
  -1  22   0    9.63    2.32
  -1  22   0   13.17    8.67
  -2  22   0    6.52    8.82
  -2  22   0   -0.09    1.60
  -3  22   0    1.29    1.86
  -3  22   0   -0.86    6.30
  -4  22   0   10.01    7.03
  -4  22   0    2.00    2.07
  -5  22   0   15.91    6.26
  -5 -22  -1    1.47    2.15
  -4 -22  -1    0.29    1.26
   3  22   1    3.36    1.60
  -3 -22  -1    3.44    1.37
   2  22   1   11.02    2.22
  -2 -22  -1   11.72    2.17
   1  22   1   12.20    2.29
  -1 -22  -1   10.77    1.78
   0  22   1    5.98    2.04
  -1  22   1   -2.09    6.20
  -1  22   1    2.26    1.89
  -2  22   1    7.11    9.41
  -2  22   1   10.94    2.32
  -3  22   1   10.55    2.54
  -3  22   1    9.14    7.71
  -4  22   1    7.93    7.30
  -5  22   1   11.71    6.15
  -5 -22  -2    0.38    1.98
  -4 -22  -2    0.38    1.28
   3  22   2    1.41    1.43
  -3 -22  -2    1.27    1.19
   2  22   2   20.13    2.83
  -2 -22  -2   22.99    2.88
   1  22   2    3.05    1.78
  -1 -22  -2    3.28    1.15
   0  22   2   16.03    2.61
  -1  22   2    1.33    1.84
  -1  22   2    2.77    3.22
  -2  22   2    5.75    2.14
  -2  22   2    6.37    8.69
  -3  22   2    5.26    2.13
  -3  22   2    0.63    7.43
  -4  22   2   -6.54    7.01
  -5  22   2    4.95    6.26
  -4 -22  -3    1.45    1.45
   3  22   3    2.23    1.39
  -3 -22  -3    5.16    1.47
  -2 -22  -3    1.85    1.09
   2  22   3    3.71    1.75
  -1 -22  -3   -0.37    0.54
   1  22   3    2.07    1.56
   0  22   3   15.72    2.51
  -1  22   3    3.30    1.79
  -1  22   3   -3.06    6.86
  -2  22   3   11.18    9.48
  -2  22   3   11.55    2.53
  -3  22   3    2.07    6.90
  -4  22   3   -3.20    7.68
  -5  22   3  -10.31    6.18
  -4 -22  -4    8.70    2.30
  -3 -22  -4    6.76    1.91
   3  22   4    5.23    1.62
  -2 -22  -4   -0.23    0.80
   2  22   4    0.46    1.19
   1  22   4    4.19    1.66
  -1 -22  -4    2.59    1.02
   0  22   4   14.45    2.46
  -1  22   4    8.36    7.67
  -1  22   4    5.30    1.86
  -2  22   4    3.74    8.07
  -2  22   4    9.29    2.31
  -3  22   4    5.32    7.78
  -4  22   4   -1.85    7.51
  -4 -22  -5    0.28    1.12
  -3 -22  -5    3.59    1.46
   2  22   5    7.36    1.98
  -2 -22  -5    8.32    2.06
  -1 -22  -5    3.11    1.22
   1  22   5    0.80    1.37
   0  22   5    6.20    1.96
   0  22   5    4.09    7.74
  -1  22   5    3.10    1.72
  -1  22   5    5.63    8.35
  -2  22   5    1.41    7.26
  -3  22   5    9.91    8.75
  -4  22   5    0.74    8.62
  -5  22   5  -11.06    7.41
  -4 -22  -6    0.82    1.21
  -3 -22  -6    4.28    1.35
  -2 -22  -6    1.92    1.15
   2  22   6    3.63    1.51
  -1 -22  -6    7.18    1.78
   1  22   6   11.25    2.19
   0  22   6   18.70    2.69
  -1  22   6   14.23   10.43
  -2  22   6    6.76    7.47
  -3  22   6    3.78    7.53
  -4  22   6   -4.10    7.80
  -4 -22  -7   -0.09    1.30
  -3 -22  -7   -0.30    1.07
  -2 -22  -7   -0.03    0.85
   1  22   7    7.06    1.74
  -1 -22  -7    4.48    1.37
   0 -22  -7   -0.10    0.56
   0  22   7    0.24    1.12
   0  22   7   -1.85    9.16
  -1  22   7   -2.19    8.18
  -2  22   7    4.34    7.41
  -3  22   7    9.53    7.47
  -4  22   7    5.82    8.68
  -3 -22  -8    6.66    1.93
  -2 -22  -8    6.66    1.55
   1  22   8   20.72    2.76
  -1 -22  -8   18.89    2.42
   0  22   8   -0.61    9.30
   0 -22  -8   -0.34    0.65
  -1  22   8    0.93    7.83
  -2  22   8    0.39    8.55
  -3  22   8    8.45    7.83
  -4  22   8    3.54    8.70
  -3 -22  -9    0.73    2.20
  -2 -22  -9    4.21    1.50
  -1 -22  -9    0.97    0.91
   0 -22  -9    5.42    1.43
   0  22   9    7.15    9.90
  -1  22   9    5.69    9.34
  -2  22   9   -8.05    8.45
  -3  22   9   -0.42    7.58
  -4  22   9    2.00    5.29
  -3 -22 -10    0.82    1.32
  -2 -22 -10    6.43    1.71
  -1 -22 -10    4.50    1.41
   0  22  10    2.03    9.77
   0 -22 -10    3.69    1.24
  -1  22  10   -1.09    9.62
  -2  22  10    8.07    8.59
  -3  22  10    8.69   10.28
  -4  22  10    6.43    6.75
  -3 -22 -11   -0.43    1.62
  -2 -22 -11   -1.75    0.74
  -1 -22 -11    1.56    1.01
   0 -22 -11    8.48    1.59
   0  22  11    3.32   10.67
  -1  22  11    0.10    9.20
  -2  22  11   -1.55    8.25
  -3  22  11    0.91   11.45
  -4  22  11    6.25    8.43
  -2 -22 -12    0.03    0.89
  -1 -22 -12    7.30    1.88
   0  22  12   -3.73   10.80
   0 -22 -12    2.38    0.96
  -1  22  12    1.18    9.71
  -2  22  12    0.79   10.05
  -3  22  12   -2.31    6.76
  -2 -22 -13    1.03    1.58
  -1 -22 -13    1.21    1.15
   0 -22 -13    8.12    1.69
  -1  22  13   -0.78   10.26
  -2  22  13   -7.01   11.38
  -3  22  13    5.03    6.77
  -1 -22 -14    1.73    1.27
   0 -22 -14    3.65    1.30
  -1  22  14   -1.86   11.09
  -2  22  14    6.07    8.14
   0 -22 -15    5.68    1.46
  -1  22  15   -5.60   13.46
   0 -22 -16    1.79    1.54
   1  23 -16    3.47    3.12
   2  23 -15    5.74    2.80
   1  23 -15    4.46    3.01
   0  23 -15    6.38    3.18
   2  23 -14    2.45    1.92
   1  23 -14    1.22    2.19
   0  23 -14    1.99    2.58
  -1  23 -14   -0.49    1.86
   3  23 -13    5.76    2.31
   2  23 -13    4.63    2.32
   1  23 -13    5.87    2.88
   0  23 -13    7.08    2.75
  -1  23 -13   -1.06    1.31
   4  23 -12    4.34    2.43
   4  23 -12    2.46    1.20
   3  23 -12    2.52    2.39
   2  23 -12    5.01    2.36
   1  23 -12    5.33    2.65
   0  23 -12    5.30    2.83
  -1  23 -12    0.32    2.00
  -2  23 -12   -0.94    1.53
   4  23 -11    3.00    0.92
   4  23 -11    5.16    2.16
   3  23 -11    5.06    2.55
   2  23 -11    8.38    2.53
   1  23 -11    7.41    2.73
   0  23 -11    6.63    2.99
  -1  23 -11    0.58    2.43
  -2  23 -11   -0.46    1.48
   4  23 -10    3.96    2.00
   3  23 -10   16.07    3.27
   2  23 -10   12.23    2.81
   1  23 -10    5.69    2.52
   0  23 -10    4.86    2.41
  -1  23 -10    1.09    2.49
  -2  23 -10   -0.89    2.29
  -3  23 -10    2.86    2.67
   4  23  -9    0.30    1.70
   4  23  -9    2.07    0.74
   3  23  -9    1.62    0.87
   3  23  -9    2.42    2.13
   2  23  -9    2.51    1.99
   1  23  -9    6.20    2.44
   0  23  -9    9.80    2.89
  -1  23  -9   10.85    3.18
  -2  23  -9   10.08    2.96
  -3  23  -9    4.64    2.97
   4  23  -8    7.51    2.50
   3  23  -8    1.76    1.03
   3  23  -8    4.68    2.15
   2  23  -8    1.05    1.73
   1  23  -8    2.39    2.15
   0  23  -8    2.58    2.21
  -1  23  -8    4.46    2.50
  -2  23  -8    9.06    2.68
  -3  23  -8    1.25    2.37
   5  23  -7    0.35    2.15
  -4 -23   7   -0.51    1.84
   4  23  -7    0.86    1.77
  -4 -23   7   -2.39    2.36
   3  23  -7    4.93    2.12
  -3 -23   7   11.09    3.60
   2  23  -7    3.80    1.98
   1  23  -7   18.95    3.30
   0  23  -7    1.71    2.19
  -1  23  -7    5.64    2.42
  -2  23  -7    1.05    1.68
  -3  23  -7    9.27    2.84
  -4  23  -7   -1.26    2.01
   5  23  -6    3.92    2.40
   4  23  -6    2.37    1.89
  -4 -23   6    1.58    1.83
  -4 -23   6    8.96    3.16
  -3 -23   6    0.37    1.54
  -3 -23   6    1.74    1.80
   3  23  -6    0.69    1.79
   2  23  -6    2.30    1.88
   1  23  -6   21.56    3.44
   0  23  -6   -1.19    1.79
  -1  23  -6   -0.22    1.84
  -2  23  -6    1.42    1.88
  -3  23  -6    1.81    1.92
  -4  23  -6    2.15    2.51
  -5 -23   5   -3.08    2.59
  -5 -23   5    1.34    2.46
   5  23  -5    1.51    1.89
  -4 -23   5    4.01    2.34
  -4 -23   5    2.39    1.73
   4  23  -5    2.17    1.85
   3  23  -5    2.23    1.99
  -3 -23   5    3.59    1.96
  -3 -23   5    3.48    2.14
   2  23  -5    9.89    2.56
   1  23  -5   10.38    2.77
   0  23  -5    3.97    2.10
  -1  23  -5   18.98    3.18
  -2  23  -5    1.71    1.94
  -3  23  -5    4.40    2.17
  -4  23  -5    1.92    2.69
  -5 -23   4   -0.65    2.58
  -5 -23   4    1.97    2.58
  -4 -23   4    4.03    1.85
   4  23  -4    7.39    2.48
  -4 -23   4    8.41    2.57
  -3 -23   4    1.42    1.68
   3  23  -4    2.21    1.83
  -3 -23   4    2.60    1.53
   2  23  -4   28.19    3.68
   1  23  -4   10.39    2.58
   0  23  -4    2.77    2.21
  -1  23  -4    8.68    2.15
  -2  23  -4    1.65    1.97
  -4  23  -4    0.75    2.11
  -5 -23   3   -0.32    2.57
  -5 -23   3    1.90    2.49
  -4 -23   3    7.10    2.07
   4  23  -3    2.60    2.05
  -4 -23   3    3.51    2.07
  -3 -23   3    7.09    2.24
  -3 -23   3    9.26    2.68
   3  23  -3   10.51    2.69
  -2 -23   3   -0.16    0.78
   2  23  -3    2.79    2.02
  -2 -23   3    2.70    1.11
   1  23  -3    4.98    2.10
   0  23  -3    9.88    2.42
  -1  23  -3    6.93    2.10
  -2  23  -3   16.57    8.53
  -3  23  -3    4.45    7.27
  -3  23  -3    2.30    1.65
  -4  23  -3    3.57    2.39
  -5  23  -3    0.89    2.75
  -5 -23   2    1.51    2.38
  -4 -23   2   11.93    2.75
   4  23  -2   11.17    3.01
  -3 -23   2    4.84    1.71
   3  23  -2    1.16    1.84
  -2 -23   2    1.45    1.19
   2  23  -2    0.28    1.49
   1  23  -2   15.17    2.66
   0  23  -2   12.13    2.29
  -1  23  -2    3.22    1.85
  -2  23  -2    0.50    1.67
  -2  23  -2    3.22    7.00
  -3  23  -2    2.31    1.69
  -3  23  -2    3.37    6.88
  -4  23  -2    4.02    7.50
  -4  23  -2   -1.45    1.35
  -5  23  -2    1.43    3.50
  -5 -23   1    2.55    2.53
  -4 -23   1    4.13    1.82
   4  23  -1    0.35    1.93
  -3 -23   1    1.22    1.25
   3  23  -1    5.72    1.82
   2  23  -1   41.41    3.80
  -2 -23   1   44.50    3.75
   1  23  -1   19.46    2.84
   0  23  -1    2.16    1.62
  -1  23  -1    1.14    1.83
  -2  23  -1    5.13    2.12
  -2  23  -1   10.30    8.70
  -3  23  -1    0.46    1.73
  -3  23  -1    5.32    6.41
  -4  23  -1    4.40    2.06
  -4  23  -1    8.42    7.75
   4  23   0   -0.09    1.75
  -4 -23   0    0.11    1.44
  -3 -23   0   -2.20    0.90
   3  23   0    2.44    1.35
  -2 -23   0    4.46    1.50
   2  23   0    6.36    2.08
   1  23   0   10.25    2.21
   0  23   0    0.44    1.62
  -1  23   0   10.89    2.48
  -2  23   0   -7.17    8.00
  -2  23   0    3.26    1.87
  -3  23   0    1.24    1.70
  -3  23   0    1.31    6.78
  -4  23   0    3.07    1.80
  -4  23   0    2.83    7.24
  -4 -23  -1    7.77    2.18
   3  23   1    3.69    1.34
  -3 -23  -1    2.60    1.48
  -2 -23  -1    4.88    1.48
   2  23   1    2.11    1.59
   1  23   1    1.42    1.47
   0  23   1    0.19    1.54
  -1  23   1   32.65   11.11
  -1  23   1   17.52    2.66
  -2  23   1   28.79   10.93
  -3  23   1    5.55    2.04
  -3  23   1   -0.35    7.34
  -4  23   1    0.39    6.75
  -4 -23  -2    2.75    1.69
   3  23   2    8.11    1.99
  -3 -23  -2    4.53    1.61
   2  23   2    0.73    1.06
  -2 -23  -2    2.09    1.16
   1  23   2    1.20    1.52
   0  23   2   10.57    2.22
  -1  23   2   11.19    2.36
  -1  23   2    5.41    4.03
  -2  23   2   -3.94    7.45
  -2  23   2    0.31    1.74
  -3  23   2   -5.83    6.76
  -3  23   2    3.29    1.93
  -4  23   2    4.68    8.60
  -4 -23  -3    1.32    1.41
   3  23   3    0.87    1.24
  -3 -23  -3    2.25    1.12
   2  23   3    5.44    1.84
  -2 -23  -3    6.53    1.60
  -1 -23  -3    7.20    1.54
   1  23   3    8.38    2.14
   0  23   3    5.32    1.88
  -1  23   3    6.44    2.20
  -1  23   3    9.62    5.99
  -2  23   3   -2.30    7.99
  -2  23   3    2.11    1.96
  -3  23   3    5.03    7.97
  -4  23   3   -3.59    8.20
  -4 -23  -4    0.75    1.39
  -3 -23  -4    9.54    2.18
  -2 -23  -4    2.51    1.10
   2  23   4    1.52    1.43
  -1 -23  -4    4.01    1.28
   1  23   4    8.10    1.97
   0  23   4    3.48    1.83
  -1  23   4    9.52    2.30
  -1  23   4    6.74    8.24
  -2  23   4   31.74    3.36
  -2  23   4   26.13    9.68
  -3  23   4    3.84    7.00
  -4  23   4   -0.02    8.10
  -4 -23  -5    0.78    1.50
  -3 -23  -5    1.99    1.22
  -2 -23  -5    3.97    1.57
   2  23   5    4.28    1.58
  -1 -23  -5   28.60    2.64
   0  23   5    4.67    1.84
  -1  23   5   15.35    2.54
  -1  23   5   20.48   10.26
  -2  23   5    4.63    7.41
  -3  23   5    6.48    7.35
  -4  23   5   -1.26    7.89
  -4 -23  -6    0.17    1.64
  -3 -23  -6   -0.59    0.93
   2  23   6    4.52    1.45
  -2 -23  -6    2.42    1.16
  -1 -23  -6   -0.17    0.72
   1  23   6    1.55    1.27
   0  23   6    1.20    1.32
  -1  23   6   11.68   10.24
  -2  23   6    4.62    7.00
  -3  23   6    4.48    7.41
  -4  23   6    3.50    8.49
  -3 -23  -7   11.19    2.35
  -2 -23  -7    3.13    1.24
  -1 -23  -7   10.79    2.08
   1  23   7    8.32    1.97
   0  23   7    2.16    1.24
   0  23   7    1.57    6.25
  -1  23   7    6.61    9.03
  -2  23   7   -0.75    7.74
  -3  23   7    9.09    7.08
  -4  23   7    2.63    7.42
  -3 -23  -8    0.08    1.00
  -2 -23  -8    7.79    1.76
  -1 -23  -8    4.67    1.28
   1  23   8    7.98    1.81
   0  23   8    2.18    9.18
  -1  23   8   -3.27    7.42
  -2  23   8    2.28    8.40
  -3  23   8    3.96    7.32
  -4  23   8    3.54    5.59
  -3 -23  -9   -0.16    1.32
  -2 -23  -9    5.54    1.47
  -1 -23  -9    7.99    1.70
   0  23   9    1.51    9.36
  -1  23   9    6.37    9.72
  -2  23   9   -5.28    9.09
  -3  23   9    2.79    8.91
  -4  23   9    6.65    5.85
  -3 -23 -10    0.31    1.65
  -2 -23 -10    2.12    1.05
  -1 -23 -10    1.48    0.90
   0 -23 -10    1.51    0.87
   0  23  10   -4.51    9.16
  -1  23  10   -1.54    9.84
  -2  23  10   10.26    9.41
  -3  23  10   -5.11   10.14
  -2 -23 -11    3.78    1.48
  -1 -23 -11    2.05    1.04
   0  23  11    3.93   10.40
   0 -23 -11    3.38    1.23
  -1  23  11    2.99    9.41
  -2  23  11    3.41    9.53
  -3  23  11  -12.72    7.57
  -2 -23 -12    1.14    1.36
  -1 -23 -12    3.82    1.22
   0 -23 -12    5.24    1.52
   0  23  12    2.96   11.89
  -1  23  12   -4.22    9.48
  -2  23  12   -2.65   10.78
  -3  23  12   -1.13    6.92
  -1 -23 -13    0.46    0.95
   0 -23 -13    6.31    1.53
  -1  23  13   -4.63   10.45
  -2  23  13   -9.19    9.11
  -1 -23 -14   -1.77    1.16
   0 -23 -14    1.82    1.04
  -1  23  14    4.06   13.16
  -2  23  14    4.48    8.11
   0 -23 -15    5.57    1.57
   1  24 -15    0.01    2.83
   2  24 -14    4.35    2.65
   1  24 -14    2.21    2.80
   0  24 -14    0.24    2.39
   3  24 -13    3.12    2.73
   2  24 -13    5.63    2.37
   1  24 -13    7.72    2.87
   0  24 -13    1.51    1.58
  -1  24 -13   -1.04    1.54
   3  24 -12    5.96    2.80
   2  24 -12    4.58    2.26
   1  24 -12    2.62    2.47
   0  24 -12   -0.24    1.64
  -1  24 -12   -0.03    1.50
   4  24 -11    0.19    1.37
   4  24 -11    3.68    2.57
   3  24 -11    1.43    2.07
   2  24 -11    2.36    2.06
   1  24 -11    4.74    2.53
   0  24 -11    4.14    2.63
  -1  24 -11   -1.14    1.59
  -2  24 -11   -0.95    1.62
   4  24 -10    5.53    1.37
   4  24 -10    5.54    2.70
   3  24 -10    0.51    1.95
   2  24 -10    9.74    2.74
   1  24 -10   12.97    3.13
   0  24 -10    9.63    2.98
  -1  24 -10    1.30    2.53
  -2  24 -10   -1.90    1.33
   4  24  -9    2.24    1.98
   3  24  -9    2.92    2.33
   2  24  -9    8.70    2.76
   1  24  -9    3.23    2.28
   0  24  -9    6.52    2.67
  -1  24  -9    4.06    2.76
  -2  24  -9    5.40    2.50
  -3  24  -9    3.31    2.21
   4  24  -8    3.68    2.04
  -4 -24   8   -2.17    2.76
  -4 -24   8    4.10    3.81
   3  24  -8    9.72    2.87
   2  24  -8    4.79    2.30
   1  24  -8    1.41    1.86
   0  24  -8    1.06    2.03
  -1  24  -8    2.02    2.26
  -2  24  -8    1.04    2.08
  -3  24  -8    1.38    2.08
  -4 -24   7   -0.95    2.00
   4  24  -7    1.10    1.59
  -4 -24   7    4.05    3.32
  -3 -24   7   15.50    4.43
  -3 -24   7   15.65    3.95
   3  24  -7   11.90    2.95
   2  24  -7    4.92    2.07
   1  24  -7    7.17    2.56
   0  24  -7    8.10    2.98
  -1  24  -7    2.59    2.07
  -2  24  -7    4.30    2.07
  -3  24  -7    1.47    1.98
  -4 -24   6   14.85    4.21
  -4 -24   6    8.47    2.64
   4  24  -6    1.50    1.53
   3  24  -6    1.21    1.58
  -3 -24   6    3.56    2.31
  -3 -24   6   -2.41    1.59
   2  24  -6    1.60    1.80
   1  24  -6    3.29    2.16
   0  24  -6    3.69    2.15
  -1  24  -6    0.82    1.77
  -2  24  -6    3.17    1.99
  -3  24  -6    3.21    2.02
  -4  24  -6    2.89    2.43
  -4 -24   5    7.13    2.29
   4  24  -5    1.24    1.45
  -4 -24   5    4.09    2.45
  -3 -24   5   13.78    3.32
  -3 -24   5   15.86    3.81
   3  24  -5   13.36    2.95
   2  24  -5    2.50    1.89
   1  24  -5    1.26    1.89
   0  24  -5    4.10    2.29
  -1  24  -5    6.35    2.16
  -2  24  -5    1.81    1.74
  -3  24  -5    1.25    1.64
  -4  24  -5    3.12    2.32
   4  24  -4    0.83    1.55
  -4 -24   4    3.98    1.89
  -4 -24   4    3.66    2.13
  -3 -24   4    3.96    1.92
  -3 -24   4    4.80    1.95
   3  24  -4    9.81    2.72
   2  24  -4    0.81    1.92
   1  24  -4    4.18    1.94
   0  24  -4   16.42    2.91
  -1  24  -4    2.20    1.80
  -2  24  -4    0.69    1.76
  -3  24  -4    8.17    2.18
  -4  24  -4    5.48    2.28
   4  24  -3    0.23    1.55
  -4 -24   3    1.26    1.76
  -4 -24   3    1.81    1.36
   3  24  -3    0.53    1.63
  -3 -24   3    1.43    1.39
  -3 -24   3    0.22    1.39
   2  24  -3    1.41    1.68
   1  24  -3    9.39    2.38
   0  24  -3    6.70    2.20
  -1  24  -3    0.33    1.39
  -2  24  -3    4.56    1.82
  -3  24  -3    6.63    7.61
  -3  24  -3    2.22    1.67
  -4  24  -3    8.10    8.39
  -4  24  -3    1.25    1.96
   4  24  -2    0.86    1.62
  -4 -24   2   -1.61    1.34
   3  24  -2   11.55    2.83
  -3 -24   2   12.05    2.65
   2  24  -2    6.32    2.16
   1  24  -2   18.15    2.85
   0  24  -2    4.51    1.96
  -1  24  -2    6.78    2.11
  -2  24  -2    5.46    7.27
  -2  24  -2    0.30    1.54
  -3  24  -2    7.15    7.33
  -3  24  -2    5.15    1.90
  -4  24  -2    6.93    7.09
   4  24  -1    0.95    1.67
  -4 -24   1    1.29    1.37
   3  24  -1   17.61    2.91
  -3 -24   1    8.24    2.35
  -2 -24   1   15.26    2.62
   2  24  -1   12.21    2.41
   1  24  -1    8.64    2.13
   0  24  -1    6.76    2.11
  -1  24  -1   14.43    2.60
  -2  24  -1    2.87    8.44
  -2  24  -1   -0.21    1.45
  -3  24  -1    3.42    1.90
  -3  24  -1    7.59    6.68
  -4  24  -1    8.46    7.93
  -4  24  -1    2.71    1.53
   4  24   0    4.29    1.99
  -4 -24   0    2.64    1.67
  -3 -24   0    1.00    1.17
   3  24   0    3.25    1.51
   2  24   0    3.77    1.58
  -2 -24   0    0.68    1.03
   1  24   0    1.37    1.58
   0  24   0   11.15    2.26
  -1  24   0    0.97    1.77
  -2  24   0    1.87    1.65
  -2  24   0   -3.64    8.43
  -3  24   0   -2.15    6.56
  -3  24   0    0.49    1.71
  -4  24   0    1.80    1.80
  -4  24   0    2.44    7.15
  -4 -24  -1    5.67    1.92
   3  24   1    6.36    1.77
  -3 -24  -1    2.59    1.48
   2  24   1    4.05    1.73
  -2 -24  -1    3.24    1.43
   0  24   1    4.18    1.75
  -1  24   1    8.21    2.23
  -2  24   1    8.79    2.15
  -2  24   1    7.54    9.15
  -3  24   1    2.52    7.64
  -3  24   1    6.30    1.98
  -4  24   1   -2.97    7.39
  -4 -24  -2   -0.64    1.26
  -3 -24  -2    6.15    1.65
   3  24   2    6.81    1.87
  -2 -24  -2    7.27    1.72
   2  24   2    6.24    1.74
   1  24   2    5.34    1.92
   0  24   2    1.17    1.50
  -1  24   2   14.91    2.48
  -2  24   2    4.63    1.99
  -2  24   2    1.26    7.77
  -3  24   2   -3.68    6.84
  -4  24   2   -5.17    7.99
  -4 -24  -3   -1.65    1.15
  -3 -24  -3    5.17    1.78
   3  24   3    3.96    1.40
  -2 -24  -3   12.71    2.18
   2  24   3    9.81    1.95
   1  24   3    0.75    1.48
   0  24   3    5.02    1.94
  -1  24   3    9.81    2.23
  -1  24   3    5.02    3.18
  -2  24   3   -2.41    7.14
  -2  24   3    1.06    1.80
  -3  24   3   -6.11    7.01
  -4  24   3   -5.62    7.86
  -4 -24  -4    0.42    1.65
  -3 -24  -4    9.09    2.04
   2  24   4    1.80    1.18
  -2 -24  -4    2.58    1.26
   1  24   4    4.30    1.66
   0  24   4   17.47    2.64
  -1  24   4    4.31    1.87
  -1  24   4    7.79    7.44
  -2  24   4    6.53    7.68
  -3  24   4    3.35    7.77
  -4  24   4   -1.57    8.53
  -4 -24  -5   -0.52    1.68
  -3 -24  -5    0.79    1.07
  -2 -24  -5    2.71    1.15
   2  24   5    3.92    1.48
  -1 -24  -5    9.87    1.85
   1  24   5   11.98    2.18
   0  24   5    6.23    1.98
  -1  24   5   -1.69    8.03
  -1  24   5    0.46    1.43
  -2  24   5    3.39    6.53
  -3  24   5   14.57    8.85
  -4  24   5    0.51    8.53
  -3 -24  -6    1.95    1.29
   2  24   6    3.55    1.37
  -2 -24  -6   -1.38    0.76
  -1 -24  -6    2.67    1.14
   1  24   6    3.12    1.36
   0  24   6    5.60    1.84
  -1  24   6    1.14   10.01
  -2  24   6    1.08    6.74
  -3  24   6    3.97    7.22
  -4  24   6   -0.24    5.66
  -3 -24  -7    1.00    1.20
  -2 -24  -7    4.39    1.46
  -1 -24  -7    5.25    1.37
   1  24   7    6.28    1.76
  -1  24   7    4.10    8.16
  -2  24   7    5.70    7.95
  -3  24   7    4.51    7.06
  -4  24   7    3.60    5.50
  -3 -24  -8    0.87    1.20
  -2 -24  -8    0.99    0.93
   1  24   8    8.91    1.92
  -1 -24  -8    5.53    1.37
  -1  24   8   -1.80    7.52
  -2  24   8    2.27    9.87
  -3  24   8    3.10    8.10
  -4  24   8    4.51    5.82
  -3 -24  -9    4.56    2.14
  -2 -24  -9    2.99    1.21
  -1 -24  -9    3.62    1.10
  -1  24   9   -6.96    9.48
  -2  24   9    6.09    9.99
  -3  24   9    4.07    9.30
  -2 -24 -10    6.26    1.70
  -1 -24 -10    2.55    0.96
   0  24  10   -5.27   10.41
  -1  24  10    1.22   10.15
  -2  24  10    6.84    9.82
  -3  24  10    1.27    8.64
  -2 -24 -11    0.09    1.16
  -1 -24 -11    5.06    1.53
   0  24  11   -4.92   10.63
  -1  24  11   -6.37    9.55
  -2  24  11    4.49   10.06
  -3  24  11  -11.51    8.05
  -2 -24 -12    1.98    1.62
  -1 -24 -12    3.49    1.38
  -1  24  12   -6.13    9.49
  -2  24  12   -8.64   10.46
  -1 -24 -13    1.05    1.32
  -1  24  13  -12.40   10.54
  -2  24  13    2.77   13.26
   0 -24 -14   -1.12    0.80
  -1  24  14  -11.56   13.96
   2  25 -13    3.64    2.72
   1  25 -13    2.51    2.80
   0  25 -13   -0.15    1.64
   3  25 -12    2.98    2.76
   2  25 -12    3.97    2.36
   1  25 -12    2.90    2.22
   0  25 -12    0.27    1.44
   3  25 -11    1.81    2.52
   2  25 -11    3.92    2.35
   1  25 -11    2.14    2.38
   0  25 -11    0.39    1.55
  -1  25 -11   -0.98    1.34
   3  25 -10    2.48    2.35
   2  25 -10    0.37    1.90
   1  25 -10    1.99    2.36
   0  25 -10    1.67    2.44
  -1  25 -10    0.38    1.45
  -2  25 -10    1.54    2.25
  -4 -25   9   -2.16    5.41
   4  25  -9    1.25    2.33
  -4 -25   9    8.72    7.43
   3  25  -9    0.00    2.07
   2  25  -9    7.91    2.72
   1  25  -9   10.34    2.96
   0  25  -9    7.85    3.08
  -1  25  -9   -2.28    2.24
  -2  25  -9    3.93    2.67
  -4 -25   8    3.11    3.78
  -4 -25   8    6.14    3.64
   4  25  -8    2.84    2.45
   3  25  -8    1.95    2.40
   2  25  -8    2.94    2.11
   1  25  -8    2.90    2.30
   0  25  -8   26.67    4.08
  -1  25  -8    0.62    1.95
  -2  25  -8    5.19    2.42
  -3  25  -8    3.13    1.96
   4  25  -7    2.34    1.67
  -4 -25   7    1.79    2.78
  -4 -25   7   -2.05    2.04
   3  25  -7    1.82    2.04
   2  25  -7   10.06    2.81
   1  25  -7    0.09    1.94
   0  25  -7    5.64    2.62
  -1  25  -7    5.13    2.24
  -2  25  -7    5.28    2.35
  -3  25  -7    2.04    1.93
  -4 -25   6    8.18    3.32
  -4 -25   6    8.36    2.75
   3  25  -6    3.90    2.27
   2  25  -6    1.76    1.93
   1  25  -6    9.90    2.65
   0  25  -6    4.07    2.31
  -1  25  -6    5.27    2.09
  -2  25  -6    5.45    2.09
  -3  25  -6    0.65    1.69
  -4 -25   5   -0.10    1.63
   4  25  -5    2.49    1.44
  -4 -25   5    4.75    2.65
  -3 -25   5    5.62    2.30
   3  25  -5    3.66    2.32
  -3 -25   5    0.78    1.73
   2  25  -5    7.38    2.54
   1  25  -5    3.05    1.96
   0  25  -5    0.83    1.77
  -1  25  -5    0.95    1.57
  -2  25  -5    3.09    1.85
  -3  25  -5   -0.95    1.68
  -4  25  -5    2.00    1.94
  -4 -25   4    6.27    2.15
   4  25  -4    0.65    1.27
  -4 -25   4    6.89    2.89
  -3 -25   4   24.46    4.25
   3  25  -4   16.69    3.44
  -3 -25   4   25.10    3.84
   2  25  -4    1.65    2.09
   1  25  -4    0.11    1.42
   0  25  -4    6.17    2.25
  -1  25  -4    0.60    1.63
  -2  25  -4    1.78    1.72
  -3  25  -4    0.15    1.50
  -3  25  -4    4.77    7.60
  -4  25  -4    1.90    1.93
  -4  25  -4    3.14    9.11
  -4 -25   3    5.53    2.18
   4  25  -3    1.88    1.46
   3  25  -3   13.07    3.12
  -3 -25   3   14.24    2.79
   2  25  -3    8.67    2.44
   1  25  -3    2.92    1.80
   0  25  -3    2.88    1.88
  -1  25  -3    1.63    1.73
  -2  25  -3    0.40    1.57
  -3  25  -3    2.94    1.79
  -3  25  -3    9.26    7.06
  -4  25  -3    9.27    8.47
  -4  25  -3    1.01    1.75
   4  25  -2    0.76    1.30
  -4 -25   2   -2.43    1.30
  -3 -25   2    2.56    1.28
   3  25  -2    1.42    1.74
   2  25  -2    2.45    1.65
   1  25  -2    6.98    2.04
   0  25  -2    3.34    1.74
  -1  25  -2    4.32    1.81
  -2  25  -2    0.82    1.45
  -3  25  -2    0.31    1.59
  -3  25  -2    6.92    6.91
  -4  25  -2   12.42    8.18
  -4 -25   1   -1.78    1.46
   4  25  -1    1.16    1.54
   3  25  -1    3.69    1.53
  -3 -25   1    2.53    1.28
   2  25  -1    1.83    1.47
   1  25  -1    1.09    1.40
   0  25  -1    6.34    2.07
  -1  25  -1    0.71    1.61
  -2  25  -1    1.63    1.43
  -3  25  -1    2.25    1.68
  -3  25  -1    5.88    8.02
   3  25   0   11.68    2.34
  -3 -25   0   15.93    2.99
   2  25   0    1.42    1.31
   1  25   0    7.10    1.98
   0  25   0   -0.49    1.25
  -1  25   0    6.52    2.02
  -2  25   0   -6.74    7.79
  -2  25   0    1.05    1.54
  -3  25   0    2.84    8.30
  -3  25   0    5.56    1.90
  -4  25   0   -0.66    8.07
  -4 -25  -1   -0.56    1.24
  -3 -25  -1    4.23    1.62
   3  25   1    6.00    1.69
   2  25   1    1.16    1.31
  -2 -25  -1    1.69    1.05
   1  25   1   -0.40    1.36
   0  25   1    5.02    1.76
  -1  25   1    1.97    1.61
  -2  25   1    2.08    1.71
  -2  25   1    3.39    7.64
  -3  25   1  -10.00    7.31
  -3  25   1   -0.26    1.70
  -4  25   1   -4.71    7.60
  -4 -25  -2    5.61    2.21
   3  25   2    0.63    1.19
  -3 -25  -2   -2.06    0.89
   2  25   2    5.68    1.51
  -2 -25  -2    7.48    1.79
   1  25   2    6.00    1.74
   0  25   2    2.38    1.60
  -1  25   2    5.25    1.90
  -2  25   2    4.24    1.95
  -2  25   2    0.39    7.44
  -3  25   2    1.54    7.78
  -4  25   2   -6.27    8.26
  -4 -25  -3    1.13    1.80
   3  25   3    5.59    1.72
  -3 -25  -3    1.60    1.31
  -2 -25  -3    2.46    1.18
   2  25   3    4.44    1.35
   1  25   3   -0.23    1.34
   0  25   3   -1.15    1.24
  -1  25   3    0.46    1.49
  -2  25   3    2.48    7.37
  -2  25   3    6.73    2.09
  -3  25   3    2.37    7.20
  -4  25   3   -2.17    9.03
  -4 -25  -4   -0.69    1.55
   3  25   4    1.45    1.30
  -3 -25  -4    0.06    1.01
   2  25   4    4.15    1.46
  -2 -25  -4    1.18    1.02
   1  25   4    2.40    1.36
   0  25   4    4.97    1.88
  -1  25   4    1.64    1.72
  -2  25   4    2.83    6.88
  -3  25   4   12.85    9.14
  -4  25   4    0.45    8.69
  -3 -25  -5   -0.22    1.03
  -2 -25  -5    1.55    1.10
   2  25   5    4.21    1.57
   1  25   5    2.41    1.20
   0  25   5    2.14    1.34
  -2  25   5   10.16    8.07
  -3  25   5    4.30    7.23
  -4  25   5   -4.34    6.57
  -3 -25  -6    0.38    1.13
  -2 -25  -6    9.04    1.84
   1  25   6    9.40    1.96
   0  25   6   12.27    2.20
  -1  25   6    1.71    9.61
  -2  25   6    2.15    7.53
  -3  25   6    7.91    8.19
  -4  25   6    0.82    5.74
  -3 -25  -7    1.11    1.47
  -2 -25  -7    5.65    1.59
   1  25   7    9.86    2.01
  -1  25   7    1.83    7.37
  -2  25   7    6.80    8.90
  -3  25   7    5.43    7.72
  -4  25   7    4.78    6.97
  -3 -25  -8   -0.22    1.35
  -2 -25  -8    3.35    1.19
  -1 -25  -8    0.85    0.94
  -1  25   8   -3.62    8.47
  -2  25   8    2.05   10.19
  -3  25   8    1.92    8.54
  -2 -25  -9    2.68    1.26
  -1 -25  -9    1.25    1.04
  -1  25   9   -7.47   10.10
  -2  25   9    1.33    9.46
  -3  25   9    4.13   10.44
  -2 -25 -10    5.11    1.45
  -1 -25 -10    1.07    0.96
  -1  25  10  -12.62    9.63
  -2  25  10    3.13    8.93
  -3  25  10   -8.57   11.65
  -2 -25 -11    2.68    1.56
  -1 -25 -11    1.05    1.09
  -1  25  11    7.40   10.66
  -1 -25 -12   -0.10    1.00
  -1  25  12   -5.42   10.45
  -2  25  12   -0.34   12.50
  -1 -25 -13    0.58    1.62
  -1  25  13   -4.95   12.41
   2  26 -12    8.67    3.11
   1  26 -12    1.44    1.67
   2  26 -11    1.70    2.49
   1  26 -11    0.09    1.42
   0  26 -11    1.44    1.57
   3  26 -10   -2.63    2.28
   2  26 -10    1.80    1.38
   1  26 -10    0.23    1.14
   0  26 -10   -0.06    1.26
  -1  26 -10    0.55    1.45
   3  26  -9    0.12    1.73
   2  26  -9    1.59    1.36
   1  26  -9   -1.05    2.00
   0  26  -9    0.79    2.10
  -1  26  -9   -0.89    1.07
  -2  26  -9    3.13    2.20
   3  26  -8   -0.70    1.25
   2  26  -8    1.76    2.08
   1  26  -8    3.77    2.40
   0  26  -8    2.91    2.64
  -1  26  -8    2.64    1.99
  -2  26  -8    3.34    2.24
  -4 -26   7    4.04    3.74
  -4 -26   7    8.16    5.00
   3  26  -7    0.74    1.24
   2  26  -7    5.41    2.52
   1  26  -7    8.94    2.99
   0  26  -7    0.70    2.22
  -1  26  -7   -0.27    1.80
  -2  26  -7    3.07    2.21
  -4 -26   6   15.30    4.46
  -4 -26   6   12.19    4.46
   3  26  -6    0.42    1.16
   2  26  -6    2.88    2.14
   1  26  -6    3.24    2.27
   0  26  -6    1.61    1.97
  -1  26  -6   -0.43    1.39
  -2  26  -6    2.46    1.84
  -3  26  -6    0.94    1.48
  -4 -26   5    8.56    2.95
  -4 -26   5    4.12    2.84
   3  26  -5    0.73    1.47
   2  26  -5    9.51    2.83
   1  26  -5    7.54    2.37
   0  26  -5    1.49    1.92
  -1  26  -5    1.99    1.68
  -2  26  -5    2.12    1.83
  -3  26  -5    1.96    1.85
   4  26  -4    1.22    1.69
  -4 -26   4    7.06    2.55
   3  26  -4    1.23    1.72
   2  26  -4    3.51    2.30
   1  26  -4    1.75    1.60
   0  26  -4    0.47    1.50
  -1  26  -4    0.81    1.62
  -2  26  -4    2.31    1.62
  -3  26  -4    1.05    1.85
   4  26  -3    0.84    1.62
  -4 -26   3    3.78    2.36
   3  26  -3   -0.50    1.84
   2  26  -3   -0.30    1.47
   1  26  -3    9.90    2.33
   0  26  -3    3.10    1.70
  -1  26  -3    0.38    1.39
  -2  26  -3    2.30    1.55
  -3  26  -3    2.62    1.83
  -3  26  -3   18.51    8.38
  -4  26  -3   10.12    9.79
   4  26  -2    2.37    1.92
  -4 -26   2    0.93    1.85
   3  26  -2    0.63    1.10
  -3 -26   2    0.27    1.31
   2  26  -2    5.12    1.95
   1  26  -2    1.31    1.35
   0  26  -2    0.42    1.52
  -1  26  -2    1.42    1.68
  -2  26  -2    0.50    1.34
  -3  26  -2   11.46    7.93
  -4  26  -2   14.60    9.47
  -4 -26   1    0.37    1.60
  -3 -26   1    5.56    1.91
   3  26  -1    5.83    1.68
   2  26  -1   -0.87    1.17
   1  26  -1    3.48    1.60
   0  26  -1    1.42    1.45
  -1  26  -1    5.48    1.85
  -2  26  -1    1.27    1.42
  -3  26  -1    0.67    7.91
  -3  26  -1    1.66    1.58
  -4  26  -1    2.43    8.36
  -4  26  -1    1.20    2.00
  -4 -26   0   -1.73    1.71
   3  26   0    2.25    1.28
  -3 -26   0   -0.46    1.23
   2  26   0    1.82    1.26
   1  26   0   -0.15    1.35
   0  26   0    1.22    1.50
  -1  26   0    0.50    1.38
  -2  26   0   -0.28    1.41
  -3  26   0    0.55    1.43
  -3  26   0   -8.01    7.15
  -4  26   0   -1.79    9.44
  -4 -26  -1    3.34    2.56
   3  26   1    6.10    1.72
  -3 -26  -1    5.14    1.74
   2  26   1    4.86    1.42
   1  26   1    7.00    1.93
   0  26   1    0.84    1.33
  -1  26   1    4.13    1.81
  -2  26   1    1.98    1.82
  -3  26   1    3.78    1.77
  -3  26   1   -9.06    7.72
  -4  26   1   -8.82    8.95
  -4 -26  -2    8.80    2.84
  -3 -26  -2    2.96    1.31
   3  26   2    3.12    1.38
   2  26   2    2.44    1.28
   1  26   2    4.50    1.64
   0  26   2   -0.41    1.32
  -1  26   2    1.15    1.50
  -2  26   2    2.44    6.97
  -2  26   2    1.67    1.88
  -3  26   2    4.17    7.55
  -4  26   2  -10.30    8.43
   3  26   3    6.47    1.80
  -3 -26  -3    3.78    1.45
   2  26   3    7.46    1.75
   1  26   3    1.68    1.38
   0  26   3    1.61    1.56
  -1  26   3    7.55    1.87
  -2  26   3    8.30    7.68
  -3  26   3    3.61    8.25
  -4  26   3    3.62    9.60
   3  26   4    5.41    1.62
  -3 -26  -4    2.24    1.19
  -2 -26  -4    9.18    1.89
   2  26   4    9.75    1.91
   1  26   4    5.44    1.56
   0  26   4    2.43    1.68
  -1  26   4    0.77    1.43
  -2  26   4    9.31    7.14
  -3  26   4   -0.64    7.05
  -4  26   4   -3.51    8.61
  -3 -26  -5    2.90    1.47
  -2 -26  -5    2.36    1.24
   2  26   5    2.14    1.21
   1  26   5    4.60    1.61
   0  26   5    3.26    1.59
  -2  26   5   14.43    7.84
  -3  26   5    5.40    7.18
  -3 -26  -6    2.50    1.44
  -2 -26  -6    2.50    1.14
   2  26   6    1.71    1.21
   1  26   6    4.53    1.53
   0  26   6    1.28    1.40
  -2  26   6    7.78    7.71
  -3  26   6    4.57    7.35
  -3 -26  -7    0.38    1.54
  -2 -26  -7    4.80    1.54
   2  26   7    9.85    1.91
   1  26   7    3.19    1.43
  -2  26   7    2.83    9.71
  -2 -26  -8    2.25    1.20
  -1  26   8    1.16   10.04
  -2  26   8   -3.49    9.90
  -3  26   8    9.81    9.84
  -2 -26  -9   -0.15    0.94
  -1  26   9   -7.24   10.01
  -2  26   9    8.09    9.87
  -3  26   9   -1.56   12.01
  -2 -26 -10    0.73    1.50
  -1  26  10   -1.59   10.35
  -2  26  10    9.78    9.54
  -1  26  11   -1.02    9.54
  -2  26  11   -8.98   11.39
  -1 -26 -12    0.88    1.54
  -1  26  12    0.64   11.37
   2  27 -10    3.08    1.89
   1  27 -10    0.13    1.30
   0  27 -10   -0.54    1.43
   2  27  -9    2.78    1.63
   1  27  -9    1.06    1.21
   0  27  -9   -0.20    1.30
  -1  27  -9   -0.22    1.55
   2  27  -8    1.74    1.39
   1  27  -8    2.65    1.73
   0  27  -8   -0.08    1.68
  -1  27  -8   -0.93    1.71
   3  27  -7    1.89    1.66
   2  27  -7    0.76    1.25
   1  27  -7    1.12    2.08
   0  27  -7    2.33    2.26
  -1  27  -7    1.17    1.81
  -2  27  -7    2.38    1.97
   3  27  -6    1.72    1.60
   2  27  -6    1.81    1.83
   1  27  -6    2.68    2.35
   0  27  -6    0.40    1.98
  -1  27  -6   -0.33    1.63
  -2  27  -6    2.37    1.89
  -4 -27   5    4.32    4.23
  -4 -27   5    7.20    3.97
   3  27  -5    0.91    1.24
   2  27  -5   -0.27    2.17
   1  27  -5    3.87    2.01
   0  27  -5    1.35    1.71
  -1  27  -5    0.41    1.63
  -2  27  -5    1.65    1.58
  -3  27  -5    1.53    1.65
  -4 -27   4   -0.77    2.54
   3  27  -4    0.75    1.13
   2  27  -4    3.83    2.22
   1  27  -4    6.10    1.94
   0  27  -4    5.92    2.12
  -1  27  -4    2.74    1.62
  -2  27  -4    2.35    1.63
  -3  27  -4    0.30    1.57
  -4 -27   3    8.75    3.35
   3  27  -3    1.17    1.23
   2  27  -3    6.70    2.13
   1  27  -3    1.68    1.38
   0  27  -3    3.11    1.69
  -1  27  -3    5.68    1.82
  -2  27  -3    3.83    1.81
  -3  27  -3    1.79    1.59
  -4 -27   2   -0.62    2.42
   3  27  -2    3.16    1.52
   2  27  -2    6.10    1.94
   1  27  -2    7.32    1.92
   0  27  -2   -0.39    1.27
  -1  27  -2    1.50    1.63
  -2  27  -2    0.97    1.36
  -3  27  -2   -0.79    1.65
  -4  27  -2    1.10    2.67
  -4 -27   1    1.66    2.39
   3  27  -1    2.85    1.43
   2  27  -1    1.62    1.32
   1  27  -1    2.26    1.41
   0  27  -1    1.83    1.37
  -1  27  -1    1.51    1.69
  -2  27  -1    2.48    1.57
  -3  27  -1    2.55    1.85
  -3  27  -1   -4.40    8.26
  -4 -27   0   -1.98    2.08
   3  27   0    9.40    2.23
  -3 -27   0    9.63    2.50
   2  27   0    7.38    1.85
   1  27   0    2.64    1.56
   0  27   0    0.93    1.36
  -1  27   0    1.56    1.51
  -2  27   0    1.76    1.60
  -3  27   0    4.08    1.71
  -3  27   0   -7.55    9.24
   3  27   1    1.90    1.37
  -3 -27  -1    2.74    1.44
   2  27   1    2.18    1.15
   1  27   1    1.52    1.42
   0  27   1    0.35    1.18
  -1  27   1    2.48    1.60
  -2  27   1    2.80    1.88
  -3  27   1   -1.21    8.06
  -3 -27  -2    0.03    1.28
   3  27   2    0.93    1.18
   2  27   2    1.14    1.23
   1  27   2    2.48    1.45
   0  27   2    1.61    1.53
  -1  27   2    4.61    1.78
  -2  27   2    5.44    2.14
  -3  27   2    3.50    8.27
  -3 -27  -3   -0.67    1.05
   3  27   3    2.78    1.38
   2  27   3    9.54    1.99
   1  27   3    8.78    1.90
   0  27   3    2.44    1.72
  -1  27   3    2.61    1.55
  -3  27   3    4.92    8.55
  -3 -27  -4    2.48    1.15
   3  27   4    2.25    1.58
   2  27   4    8.44    1.97
   1  27   4    4.64    1.38
   0  27   4    9.95    2.18
  -1  27   4    7.30    2.02
  -3  27   4    7.52    8.38
  -3 -27  -5    2.12    1.64
   2  27   5    2.22    1.37
   1  27   5    3.06    1.32
   0  27   5    1.39    1.43
  -2  27   5    7.17    7.40
  -3  27   5    6.41    7.78
  -3 -27  -6    0.69    1.59
   2  27   6    7.79    1.98
   1  27   6    3.93    1.37
  -2  27   6    9.88    8.95
  -3  27   6    4.79    7.49
  -2 -27  -7    1.54    1.12
   2  27   7    3.67    1.59
   1  27   7    7.36    1.78
  -2  27   7    2.40   10.23
  -3  27   7   10.50    9.21
  -2 -27  -8    1.06    1.21
  -2  27   8    1.03   10.74
  -3  27   8    2.00   11.52
  -2 -27  -9    2.52    1.44
  -2  27   9    2.38    9.03
  -2  27  10   11.50   11.40
  -1  27  12   -0.71   13.48
   1  28  -9    2.69    1.66
   0  28  -9    0.15    1.72
   2  28  -8    1.52    1.74
   1  28  -8    1.51    1.42
   0  28  -8    0.84    1.68
  -1  28  -8    2.99    2.12
   2  28  -7    0.72    1.48
   1  28  -7    1.71    1.16
   0  28  -7    2.54    2.28
  -1  28  -7    3.45    2.17
   2  28  -6    1.86    1.64
   1  28  -6    1.18    1.34
   0  28  -6    2.70    1.97
  -1  28  -6    1.56    1.86
  -2  28  -6    0.54    1.46
   2  28  -5   -0.06    1.34
   1  28  -5    2.97    1.76
   0  28  -5    1.60    1.63
  -1  28  -5    0.36    1.47
  -2  28  -5    1.16    1.77
   2  28  -4    6.68    2.29
   1  28  -4    8.23    2.12
   0  28  -4    2.08    1.62
  -1  28  -4    0.97    1.50
  -2  28  -4    2.11    1.68
  -3  28  -4    1.22    1.77
   3  28  -3    0.68    1.51
   2  28  -3    1.73    1.63
   1  28  -3    0.22    1.47
   0  28  -3    1.78    1.57
  -1  28  -3    1.25    1.76
  -2  28  -3    1.14    1.39
  -3  28  -3    1.36    1.73
   3  28  -2   -0.65    1.29
   2  28  -2    2.56    1.59
   1  28  -2   -1.24    1.21
   0  28  -2    4.73    1.86
  -1  28  -2    1.67    1.69
  -2  28  -2    2.11    1.70
  -3  28  -2    1.11    1.73
   3  28  -1    4.06    1.55
   2  28  -1   -0.05    1.26
   1  28  -1    1.78    1.38
   0  28  -1    0.57    1.27
  -1  28  -1    2.07    1.65
  -2  28  -1    2.36    1.65
  -3  28  -1    1.06    1.52
   3  28   0    8.49    2.07
   2  28   0    1.76    1.29
   1  28   0    5.36    1.58
   0  28   0   -1.20    1.16
  -1  28   0    6.55    1.85
  -2  28   0    2.57    1.89
  -3  28   0    1.41    1.67
   3  28   1    5.84    1.86
   2  28   1    4.18    1.46
   1  28   1    3.11    1.47
   0  28   1    3.86    1.99
  -1  28   1    1.32    1.42
  -2  28   1    1.47    1.71
  -3  28   1   -2.52    7.91
   2  28   2    6.27    1.62
   1  28   2    2.21    1.63
   0  28   2    3.32    1.51
  -1  28   2    1.37    1.34
  -2  28   2    1.62    1.70
  -3  28   2    2.25    7.99
  -3 -28  -3    4.24    1.62
   2  28   3    8.25    1.91
   1  28   3    1.23    1.26
   0  28   3   -1.12    1.27
  -1  28   3    1.94    1.52
  -3  28   3    1.79    7.22
  -3 -28  -4    0.03    1.58
   2  28   4    7.18    1.85
   1  28   4    3.10    1.33
   0  28   4    2.91    1.50
  -3  28   4    8.29    7.15
  -3 -28  -5    2.81    2.13
   2  28   5    3.80    1.44
   1  28   5    3.40    1.28
   0  28   5   -0.87    1.14
  -3  28   5    0.53    8.01
   2  28   6    1.82    1.43
   1  28   6    5.00    1.43
  -3  28   6   10.35   10.01
   2  28   7    5.82    1.89
  -2  28   7   -8.27   10.16
  -2  28   8   -3.83    9.31
  -2  28   9    6.57   10.01
   1  29  -7    3.11    1.75
   0  29  -7    6.22    2.42
   1  29  -6    2.80    1.97
   0  29  -6   -0.71    1.64
  -1  29  -6    7.14    2.27
   2  29  -5   -0.20    1.60
   1  29  -5    0.49    1.69
   0  29  -5    0.82    1.73
  -1  29  -5    1.88    1.77
   2  29  -4    0.88    1.62
   1  29  -4   -0.60    1.47
   0  29  -4    1.84    1.66
  -1  29  -4    1.78    1.66
  -2  29  -4    2.97    1.74
   2  29  -3   -0.16    1.31
   1  29  -3    4.30    1.82
   0  29  -3    2.08    1.46
  -1  29  -3    0.29    1.50
  -2  29  -3    1.60    1.64
   2  29  -2    1.92    1.45
   1  29  -2    3.03    1.51
   0  29  -2    2.79    1.23
  -1  29  -2    3.19    1.57
  -2  29  -2    1.52    1.77
  -3  29  -2   -1.04    1.36
   2  29  -1    4.67    1.67
   1  29  -1    3.78    1.49
   0  29  -1    2.02    1.45
  -1  29  -1    1.53    1.54
  -2  29  -1    1.47    1.61
  -3  29  -1   -0.91    1.71
   2  29   0    2.15    1.23
   1  29   0    5.34    1.83
   0  29   0    0.76    1.43
  -1  29   0    5.18    1.82
  -2  29   0    0.34    1.71
   2  29   1    0.67    1.01
   1  29   1    4.58    1.49
   0  29   1    3.88    1.57
  -1  29   1    5.45    1.87
  -2  29   1    3.67    1.76
   2  29   2    0.50    1.04
   1  29   2    3.77    1.70
   0  29   2    1.57    1.54
  -1  29   2    3.89    1.62
   2  29   3    7.28    1.77
   1  29   3   -0.08    1.21
   0  29   3    0.83    1.35
  -1  29   3    2.88    1.65
   2  29   4    8.51    1.89
   1  29   4    0.33    1.03
   0  29   4    4.88    1.60
  -3  29   4    6.22    9.47
   2  29   5    4.28    1.59
   1  29   5    5.51    1.54
   0  29   5    1.96    1.54
  -3  29   5    7.46    8.93
   2  29   6    1.04    1.29
   2  29   7    3.03    2.31
   0  30  -5    2.13    1.68
   1  30  -4    0.66    1.30
   0  30  -4    1.23    1.58
  -1  30  -4    1.92    1.69
   1  30  -3    2.73    1.56
   0  30  -3    0.77    1.47
  -1  30  -3    1.23    1.73
  -2  30  -3   -0.29    1.50
   1  30  -2    1.33    1.54
   0  30  -2    1.03    1.34
  -1  30  -2    0.81    1.51
  -2  30  -2    1.43    1.65
   1  30  -1    2.57    1.82
   0  30  -1    2.36    1.56
  -1  30  -1    2.22    1.55
  -2  30  -1   -1.42    1.43
   1  30   0    1.37    1.37
   0  30   0    6.33    1.86
  -1  30   0    1.96    1.58
  -2  30   0   -1.02    1.64
   1  30   1    1.07    1.18
   0  30   1    5.03    1.61
  -1  30   1    1.75    1.45
  -2  30   1    1.64    1.81
   1  30   2    1.37    1.20
   0  30   2    1.66    1.60
  -1  30   2    2.93    1.68
   1  30   3    2.79    1.43
   0  30   3   -0.34    1.29
  -1  30   3    0.36    1.33
   1  30   4    3.65    1.45
   0  30   4    0.20    1.30
   1  30   5    6.61    1.78
   1  30   6    4.80    2.08
   0  31  -2    2.93    1.57
  -1  31  -2    4.51    1.71
   0  31  -1    2.00    1.37
  -1  31  -1    2.15    1.62
   1  31   0    3.81    1.55
   0  31   0    0.55    1.29
  -1  31   0    1.27    1.27
  -2  31   0    2.42    2.26
   1  31   1    1.99    1.45
   0  31   1   -0.77    1.12
  -1  31   1    2.28    1.82
   1  31   2    4.65    1.35
   0  31   2    2.20    1.80
  -1  31   2    2.71    1.96
   1  31   3    3.11    1.25
   0  31   3    1.79    1.58
   1  31   4    2.72    1.39
   0  31   4    4.33    1.85
   1  31   5    4.06    2.10
  -1  32   1    2.87    2.17
   0  32   2    0.50    1.63
  -1  32   2   -5.61    2.71
   0  32   3    2.23    2.02
   0   0   0    0.00    0.00
;
_shelx_hkl_checksum              45339
_shelx_fab_file
;
    1    0    0     15.40      0.00
    2    0    0      4.08      0.00
    3    0    0     -3.51      0.00
    4    0    0     -0.59      0.00
    5    0    0     -0.54      0.00
    6    0    0     -1.12      0.00
    5    0    1      3.26      0.00
    4    0    1      6.37      0.00
    3    0    1     -6.74      0.00
    2    0    1     11.21      0.00
    1    0    1     23.62      0.00
    0    0    1     60.80      0.00
   -1    0    1     -2.83      0.00
   -2    0    1     12.19      0.00
   -3    0    1      0.86      0.00
   -4    0    1     -4.39      0.00
   -5    0    1     -0.76      0.00
   -6    0    1     -2.14      0.00
   -7    0    1      0.96      0.00
    5    0    2      2.50      0.00
    4    0    2      5.59      0.00
    3    0    2      0.27      0.00
    2    0    2     24.19      0.00
    1    0    2     -5.73      0.00
    0    0    2     -6.86      0.00
   -1    0    2      7.92      0.00
   -2    0    2      3.62      0.00
   -3    0    2      6.16      0.00
   -4    0    2      2.13      0.00
   -5    0    2      3.36      0.00
   -6    0    2     -3.58      0.00
    5    0    3     -2.82      0.00
    4    0    3      2.83      0.00
    3    0    3      6.25      0.00
    2    0    3     14.17      0.00
    1    0    3     -6.18      0.00
    0    0    3     11.12      0.00
   -1    0    3     17.88      0.00
   -2    0    3    -10.01      0.00
   -3    0    3     13.81      0.00
   -4    0    3      4.55      0.00
   -5    0    3      4.77      0.00
    6    0    4     -0.44      0.00
    5    0    4     -3.10      0.00
    4    0    4      2.72      0.00
    3    0    4     -2.12      0.00
    2    0    4      1.43      0.00
    1    0    4     29.64      0.00
    0    0    4     31.65      0.00
   -2    0    4     -1.25      0.00
   -3    0    4     10.20      0.00
   -4    0    4     -5.60      0.00
   -5    0    4      2.51      0.00
   -6    0    4      1.04      0.00
    6    0    5      1.98      0.00
    5    0    5      0.50      0.00
    4    0    5      2.22      0.00
    3    0    5     -6.83      0.00
    2    0    5      4.47      0.00
    1    0    5     32.78      0.00
    0    0    5     12.00      0.00
   -1    0    5     38.15      0.00
   -2    0    5      8.03      0.00
   -3    0    5     -2.68      0.00
   -4    0    5     -9.43      0.00
   -5    0    5      1.95      0.00
   -6    0    5      1.47      0.00
    6    0    6      1.54      0.00
    5    0    6      0.30      0.00
    4    0    6      2.93      0.00
    2    0    6      5.49      0.00
    1    0    6      6.21      0.00
    0    0    6     -2.23      0.00
   -1    0    6     29.81      0.00
   -2    0    6      1.17      0.00
   -3    0    6     -2.87      0.00
   -4    0    6      1.62      0.00
   -5    0    6      1.29      0.00
   -6    0    6     -0.97      0.00
    6    0    7     -1.13      0.00
    5    0    7     -1.42      0.00
    4    0    7      4.32      0.00
    3    0    7     11.78      0.00
    2    0    7     -1.26      0.00
    1    0    7      3.48      0.00
    0    0    7      2.30      0.00
   -1    0    7      3.32      0.00
   -2    0    7     -0.15      0.00
   -3    0    7      5.93      0.00
   -4    0    7      8.00      0.00
   -5    0    7      0.24      0.00
   -6    0    7      0.08      0.00
    6    0    8     -1.40      0.00
    5    0    8     -0.14      0.00
    4    0    8      1.35      0.00
    3    0    8      3.96      0.00
    2    0    8     -0.75      0.00
    1    0    8     18.94      0.00
    0    0    8      7.86      0.00
   -2    0    8     10.16      0.00
   -3    0    8      3.10      0.00
   -4    0    8      4.03      0.00
   -5    0    8      0.19      0.00
   -6    0    8      1.47      0.00
    5    0    9      1.86      0.00
    4    0    9     -4.16      0.00
    3    0    9     -1.03      0.00
    2    0    9      3.84      0.00
    1    0    9     16.32      0.00
    0    0    9     13.14      0.00
   -1    0    9     15.12      0.00
   -2    0    9     12.95      0.00
   -3    0    9     -4.51      0.00
   -4    0    9      0.81      0.00
   -5    0    9     -2.97      0.00
   -6    0    9     -0.21      0.00
    5    0   10      1.46      0.00
    4    0   10     -3.17      0.00
    3    0   10      4.49      0.00
    2    0   10      0.50      0.00
    1    0   10      3.43      0.00
    0    0   10     13.95      0.00
   -1    0   10     12.60      0.00
   -2    0   10      7.60      0.00
   -3    0   10     -2.50      0.00
   -4    0   10      1.11      0.00
   -5    0   10     -4.82      0.00
   -6    0   10     -0.72      0.00
    5    0   11      0.46      0.00
    4    0   11      2.57      0.00
    3    0   11      6.91      0.00
    2    0   11     -1.18      0.00
    0    0   11      4.20      0.00
   -1    0   11     -2.29      0.00
   -2    0   11      5.64      0.00
   -3    0   11      3.19      0.00
   -4    0   11      2.63      0.00
   -5    0   11     -0.30      0.00
   -6    0   11      1.04      0.00
    5    0   12     -0.03      0.00
    4    0   12      2.27      0.00
    3    0   12      3.32      0.00
    2    0   12      6.30      0.00
    1    0   12      3.84      0.00
    0    0   12     -0.99      0.00
   -1    0   12     -2.40      0.00
   -2    0   12      6.64      0.00
   -3    0   12      3.29      0.00
   -4    0   12      2.51      0.00
   -5    0   12      3.67      0.00
   -6    0   12      1.59      0.00
    4    0   13     -0.58      0.00
    3    0   13      0.96      0.00
    2    0   13      8.47      0.00
    1    0   13      1.76      0.00
    0    0   13      5.91      0.00
   -1    0   13      7.08      0.00
   -2    0   13      5.68      0.00
   -3    0   13      0.17      0.00
   -4    0   13      0.69      0.00
   -5    0   13      2.01      0.00
   -6    0   13     -0.24      0.00
    4    0   14      0.90      0.00
    3    0   14      0.08      0.00
    2    0   14      1.04      0.00
    1    0   14     -0.75      0.00
    0    0   14      9.67      0.00
   -1    0   14      8.24      0.00
   -2    0   14      2.71      0.00
   -3    0   14      2.15      0.00
   -4    0   14     -0.79      0.00
   -5    0   14     -0.91      0.00
    4    0   15      2.24      0.00
    3    0   15      0.45      0.00
    2    0   15     -0.31      0.00
    1    0   15     -0.47      0.00
    0    0   15      2.32      0.00
   -1    0   15      2.35      0.00
   -2    0   15      2.88      0.00
   -3    0   15      5.92      0.00
   -4    0   15     -0.94      0.00
   -5    0   15      0.14      0.00
    3    0   16      2.01      0.00
    2    0   16      5.18      0.00
    1    0   16     -0.10      0.00
    0    0   16     -3.34      0.00
   -1    0   16      1.00      0.00
   -2    0   16      3.60      0.00
   -3    0   16      3.77      0.00
   -4    0   16      1.63      0.00
   -5    0   16      1.92      0.00
    3    0   17      2.17      0.00
    2    0   17      4.30      0.00
    1    0   17      1.08      0.00
    0    0   17     -0.70      0.00
   -1    0   17      3.02      0.00
   -2    0   17      1.13      0.00
   -3    0   17      1.46      0.00
   -4    0   17      2.81      0.00
    2    0   18     -0.25      0.00
    1    0   18      2.07     -0.01
    0    0   18      1.14      0.00
   -1    0   18      3.98      0.00
   -2    0   18      1.42      0.00
   -3    0   18      2.04      0.00
   -4    0   18      0.17      0.00
    0    0   19      0.40      0.00
   -1    0   19      4.28      0.00
   -2    0   19      3.27      0.00
   -3    0   19      1.55      0.00
    0    0   20      0.15      0.00
   -1    0   20      2.67      0.00
   -2    0   20      1.76      0.00
   -2    1   20     -0.37      1.58
   -1    1   20      0.04      1.66
    0    1   20     -0.18      0.04
   -3    1   19     -0.04      0.80
   -2    1   19      0.33     -0.25
   -1    1   19      0.52      0.20
    0    1   19     -0.22      0.27
    1    1   19     -0.03      1.38
   -4    1   18     -0.73      2.35
   -3    1   18      0.04      0.28
   -2    1   18      0.68     -1.43
   -1    1   18      0.35     -1.31
    0    1   18      0.32     -0.25
    1    1   18     -0.11      0.02
    2    1   18     -0.62      1.90
   -4    1   17     -0.66      1.63
   -3    1   17      0.14      0.98
   -2    1   17     -0.26      0.71
   -1    1   17      0.35     -2.04
    0    1   17      1.05     -1.55
    1    1   17     -0.41     -1.89
    2    1   17     -0.52      1.81
    3    1   17     -0.05     -0.39
   -5    1   16      0.37     -0.29
   -4    1   16      0.36     -0.49
   -3    1   16     -0.20      2.36
   -2    1   16     -0.17      0.68
   -1    1   16      0.26     -1.05
    0    1   16     -0.22      2.28
    1    1   16     -0.40     -1.52
    2    1   16      0.91     -3.56
    3    1   16      0.27     -2.08
   -5    1   15      0.40     -1.47
   -4    1   15      0.35      0.85
   -3    1   15      0.19     -0.71
   -2    1   15      0.80     -0.43
   -1    1   15     -1.34      2.59
    0    1   15     -1.65      7.05
    1    1   15     -0.01     -0.87
    2    1   15      0.93     -3.95
    3    1   15      0.09     -2.33
    4    1   15      0.30     -1.38
   -5    1   14     -0.34      0.89
   -4    1   14     -0.30      3.31
   -3    1   14      0.74     -2.77
   -2    1   14     -0.06      1.61
   -1    1   14     -1.28      1.24
    0    1   14      0.22      1.99
    1    1   14     -0.37      0.83
    2    1   14     -0.83      1.74
    3    1   14     -0.45     -1.02
    4    1   14      0.17     -3.20
   -6    1   13     -0.38      1.85
   -5    1   13     -0.77      2.22
   -4    1   13     -0.03      4.68
   -3    1   13     -0.43      0.68
   -2    1   13     -0.74      2.14
   -1    1   13      1.64     -5.79
    0    1   13      2.11     -5.43
    1    1   13     -0.77      2.43
    2    1   13     -0.90     -0.71
    3    1   13     -0.51      0.17
    4    1   13     -0.63     -1.63
   -6    1   12      0.10      1.23
   -5    1   12      0.14     -0.89
   -4    1   12      0.74      4.52
   -3    1   12     -1.13      1.76
   -2    1   12      0.66      0.52
   -1    1   12      1.70     -4.74
    0    1   12      0.02     -1.76
    2    1   12      0.44     -8.71
    3    1   12     -0.28      1.26
    4    1   12     -0.77     -0.74
    5    1   12     -0.09      0.47
   -6    1   11      0.72     -0.41
   -5    1   11      1.03     -3.41
   -4    1   11      0.93      3.01
   -3    1   11      0.58     -1.54
   -2    1   11      0.89      0.62
   -1    1   11     -2.12      7.28
    0    1   11     -2.76      5.92
    1    1   11      0.90      1.09
    2    1   11     -0.14     -7.28
    3    1   11      0.45     -1.23
    4    1   11      0.43     -4.86
    5    1   11      0.16      0.27
   -6    1   10      0.24     -0.04
   -5    1   10      0.17      0.15
   -4    1   10      0.32      2.93
   -3    1   10      1.21     -1.56
   -2    1   10     -0.98      2.50
   -1    1   10     -1.85      9.42
    0    1   10     -1.93      2.26
    1    1   10     -0.95      8.15
    2    1   10     -1.39     -1.96
    3    1   10      1.50     -6.31
    4    1   10      0.49     -5.23
    5    1   10     -0.36     -0.46
   -6    1    9     -0.47      1.63
   -5    1    9     -0.76      4.99
   -4    1    9     -0.77      4.72
   -3    1    9     -0.97      5.64
   -2    1    9     -0.37     -0.39
   -1    1    9      3.42     -4.55
    0    1    9     -0.05     -5.94
    1    1    9     -1.16      7.89
    2    1    9     -0.35     -4.59
    3    1    9      0.29     -3.68
    4    1    9     -1.09      0.56
    5    1    9     -0.42     -2.56
   -6    1    8      0.06      0.92
   -5    1    8     -0.30      4.89
   -4    1    8     -1.56      6.14
   -3    1    8     -0.77      9.57
   -2    1    8      2.20     -8.56
   -1    1    8      3.34     -3.39
    0    1    8      0.48     -7.76
    1    1    8      2.41     -6.58
    2    1    8      0.36     -5.89
    3    1    8     -2.17      1.67
    4    1    8     -1.23      2.60
    5    1    8      0.12     -3.60
    6    1    8      0.33     -0.67
   -6    1    7      0.36     -0.69
   -5    1    7     -0.03      4.51
   -4    1    7      0.14      1.59
   -3    1    7      2.98      2.92
   -1    1    7     -2.09     16.99
    0    1    7      0.64     -5.94
    1    1    7      1.61     -8.12
    2    1    7     -1.07      0.42
    3    1    7     -1.25     -5.34
    4    1    7      0.34     -0.75
    5    1    7     -0.41     -1.96
    6    1    7     -0.20      1.07
   -7    1    6     -0.25      0.57
   -6    1    6     -0.72      0.84
   -5    1    6      0.45      5.17
   -4    1    6      2.64     -5.59
   -3    1    6      2.69      2.08
   -1    1    6     -2.40     17.45
    0    1    6     -1.52      5.11
    1    1    6     -4.96     10.13
    2    1    6     -0.67      1.32
    3    1    6      1.33    -15.47
    4    1    6      0.94     -3.03
    5    1    6     -1.10     -1.20
    6    1    6     -0.47      0.82
   -6    1    5     -0.71      1.04
   -5    1    5      1.27      4.49
   -4    1    5      0.56     -0.22
   -3    1    5     -1.58     12.76
   -2    1    5     -0.24     -1.67
   -1    1    5      1.63     -5.24
    0    1    5     -2.93     19.25
    1    1    5     -4.84      5.84
    2    1    5      1.45     -2.53
    3    1    5      0.08    -10.08
    4    1    5      0.09     -2.63
    5    1    5     -0.19     -3.39
    6    1    5      0.23     -2.11
   -6    1    4      0.42     -1.97
   -5    1    4      0.45      4.65
   -4    1    4     -2.75     10.95
   -3    1    4     -1.61     14.05
   -2    1    4      3.89     -6.79
   -1    1    4      3.34    -16.06
    0    1    4      3.71      7.32
    1    1    4      2.52    -25.31
    2    1    4      0.30      3.94
    3    1    4     -2.77     -0.31
    4    1    4     -0.31     -2.66
    5    1    4      0.39     -2.99
    6    1    4      0.27     -3.04
   -5    1    3     -0.36      2.88
   -4    1    3     -0.76      8.73
   -3    1    3      1.10      2.85
   -2    1    3      2.28      7.19
   -1    1    3      3.48    -15.36
    1    1    3      1.21    -23.99
    2    1    3     -2.39      9.15
    3    1    3     -1.38     -5.11
    4    1    3     -0.50     -2.13
    5    1    3     -0.84      1.65
    6    1    3     -0.39     -1.70
   -6    1    2     -0.45      0.97
   -5    1    2      0.47     -0.82
   -4    1    2      2.20      1.23
   -3    1    2      1.08     -2.91
   -2    1    2      1.35     18.20
   -1    1    2      0.60    -17.59
    1    1    2     -8.10      9.71
    2    1    2     -0.67     -5.48
    3    1    2      1.89    -11.77
    4    1    2     -1.29     -2.38
    5    1    2     -0.73      1.96
    6    1    2     -0.23     -1.85
   -6    1    1      0.05      2.61
   -5    1    1      0.58     -0.20
   -4    1    1      1.05      4.22
   -3    1    1      0.68     -1.90
   -2    1    1      3.10      8.03
   -1    1    1     -7.05     -2.90
    0    1    1    -15.71     68.94
    1    1    1     -5.43      8.65
    2    1    1      2.04    -16.00
    3    1    1      1.43     -5.98
    4    1    1     -0.71     -7.85
    5    1    1      1.02     -2.53
    6    1    0     -0.53     -3.03
    5    1    0      0.87     -3.26
    4    1    0      0.40    -10.51
    3    1    0     -0.59      0.54
    2    1    0     -0.68     -6.64
    1    1    0      6.54    -10.65
    6    1    1     -0.19     -2.91
   -7    1    1     -0.32      0.57
    0    1    2     -4.71     34.08
    0    1    3      8.28     -7.73
   -6    1    3      0.20     -1.98
   -2    1    6     -3.26      1.67
   -2    1    7      0.20     -7.12
    1    1   12      0.32      0.67
   -2    2   20      1.25      0.66
   -1    2   20      2.29      0.69
    0    2   20     -0.06     -0.01
   -3    2   19      1.28     -0.29
   -2    2   19      2.60      1.16
   -1    2   19      4.04      0.30
    0    2   19      0.32      0.49
    1    2   19      0.38     -0.22
   -4    2   18      0.14     -0.77
   -3    2   18      1.85     -0.20
   -2    2   18      1.42     -0.38
   -1    2   18      3.98     -0.36
    0    2   18      1.20      1.17
    1    2   18      2.25     -0.52
    2    2   18     -0.10     -0.32
   -4    2   17      1.97      0.93
   -3    2   17      1.44     -0.71
   -2    2   17      1.23     -0.88
   -1    2   17      3.02     -0.32
    0    2   17     -0.38     -0.64
    1    2   17      1.27     -0.60
    2    2   17      3.63      1.46
    3    2   17      1.75      0.49
   -5    2   16      1.97      0.21
   -4    2   16      1.04      0.93
   -3    2   16      3.41     -0.71
   -2    2   16      3.20      0.83
   -1    2   16      1.51     -1.79
    0    2   16     -2.62     -2.98
    1    2   16     -0.33     -0.04
    2    2   16      4.38      1.20
    3    2   16      1.72      0.19
   -5    2   15      0.29     -0.65
   -4    2   15     -0.76     -0.65
   -3    2   15      5.12      0.10
   -2    2   15      3.10     -0.19
   -1    2   15      2.74     -1.68
    0    2   15      2.10     -0.11
    1    2   15     -0.73     -0.28
    2    2   15      0.05     -2.03
    3    2   15      0.51     -0.63
    4    2   15      2.08      0.03
   -5    2   14     -0.96     -1.04
   -4    2   14     -0.66     -0.32
   -3    2   14      2.18     -1.34
   -2    2   14      3.32     -2.02
   -1    2   14      7.13      2.59
    0    2   14      8.43      2.86
    1    2   14     -0.44     -0.90
    2    2   14      1.42     -2.21
    3    2   14      0.19     -0.41
    4    2   14      1.18     -0.92
   -6    2   13     -0.43      0.39
   -5    2   13      1.38      0.64
   -4    2   13      0.47      0.93
   -3    2   13      0.74     -2.52
   -2    2   13      5.14     -0.21
   -1    2   13      6.03      2.46
    0    2   13      5.82     -1.20
    1    2   13      1.92      0.45
    2    2   13      7.69      0.76
    3    2   13      0.77      0.49
    4    2   13     -0.38     -1.06
   -6    2   12      0.94      1.26
   -5    2   12      2.81      1.95
   -4    2   12      2.15      0.63
   -3    2   12      2.96      0.26
   -2    2   12      5.88      0.45
   -1    2   12     -1.40     -4.06
    0    2   12      0.25     -5.82
    1    2   12      3.38      1.18
    2    2   12      5.68      0.32
    3    2   12      2.73      1.07
    4    2   12      1.74      0.78
    5    2   12     -0.10      0.20
   -6    2   11      0.84      0.41
   -5    2   11     -0.35      0.28
   -4    2   11      2.56     -0.83
   -3    2   11      2.85      1.70
   -2    2   11      5.90     -2.66
   -1    2   11     -1.22     -4.10
    0    2   11      4.43     -2.88
    1    2   11      1.23     -1.69
    2    2   11     -0.87     -2.16
    3    2   11      6.06      1.61
    4    2   11      2.25      1.24
    5    2   11      0.92     -0.32
   -6    2   10     -0.43     -0.89
   -5    2   10     -3.98     -1.49
   -4    2   10      1.59     -1.97
   -3    2   10     -1.59     -1.82
   -2    2   10      7.46     -2.62
   -1    2   10     11.14      4.39
    0    2   10     12.71      2.10
    1    2   10      3.60     -2.78
    2    2   10      0.38     -0.55
    3    2   10      4.43     -0.36
    4    2   10     -2.15     -1.25
    5    2   10      2.02     -0.65
   -6    2    9     -0.37     -0.10
   -5    2    9     -2.59     -0.11
   -4    2    9      1.30     -1.98
   -3    2    9     -4.00     -2.53
   -2    2    9     11.44      1.39
   -1    2    9     13.66      3.81
    0    2    9     12.31      1.99
    1    2    9     14.90      1.79
    2    2    9      3.22      1.52
    3    2    9      0.08     -3.94
    4    2    9     -3.09     -1.42
    5    2    9      1.54      0.31
   -6    2    8      1.09      0.98
   -5    2    8     -0.07      1.16
   -4    2    8      3.28      0.54
   -3    2    8      1.74      2.76
   -2    2    8      9.81     -0.87
   -1    2    8      1.00     -7.01
    0    2    8      7.58      0.34
    1    2    8     17.52      0.86
    2    2    8     -0.38     -0.85
    3    2    8      4.23     -2.07
    4    2    8      1.15      1.56
    5    2    8     -0.54     -0.11
    6    2    8     -1.29     -0.46
   -6    2    7      0.39     -0.39
   -5    2    7     -0.19      1.10
   -4    2    7      6.17      3.73
   -3    2    7      5.41      2.19
   -1    2    7      4.46     -7.44
    0    2    7      2.44     -2.04
    1    2    7      5.13     -8.98
    2    2    7     -0.94     -1.42
    3    2    7     10.47      2.83
    4    2    7      3.85      2.27
    5    2    7     -1.23     -1.12
    6    2    7     -0.88     -1.04
   -6    2    6     -0.93     -0.69
   -5    2    6      0.69      1.65
   -4    2    6      1.61      0.37
   -3    2    6     -0.77     -5.80
   -2    2    6      2.07     -1.42
   -1    2    6     26.94      1.52
    0    2    6     -1.35     -3.65
    1    2    6      7.23     -8.05
    2    2    6      4.34      1.61
    3    2    6      4.21      0.95
    4    2    6      3.16     -0.23
    5    2    6      0.20      0.46
    6    2    6      1.19      0.11
   -6    2    5      0.50      1.42
   -5    2    5      1.98      0.25
   -4    2    5     -7.10     -5.21
   -3    2    5     -1.52     -5.90
   -2    2    5      6.06      5.77
   -1    2    5     34.09      2.80
    1    2    5     28.94      5.51
    2    2    5      3.95     -0.18
    3    2    5     -5.40     -4.14
    4    2    5      2.50     -1.64
    5    2    5      0.06      1.98
    6    2    5      1.44      0.46
   -7    2    4      0.94      0.94
   -6    2    4      0.54      1.22
   -5    2    4      3.11     -1.50
   -4    2    4     -4.69     -1.27
   -3    2    4      8.49      0.80
   -2    2    4     -2.59      0.87
    1    2    4     26.67      5.09
    2    2    4      2.74     -5.02
    3    2    4     -1.58     -1.52
    4    2    4      2.53     -1.18
    5    2    4     -2.82      0.05
    6    2    4     -0.35     -0.98
   -5    2    3      4.67     -0.06
   -4    2    3      3.22      4.91
   -3    2    3     12.29      0.98
   -2    2    3     -9.21     -4.50
   -1    2    3     18.67     -6.09
    0    2    3     13.79     -9.78
    1    2    3     -3.04     -9.73
    2    2    3     14.22     -2.75
    3    2    3      5.04      4.41
    4    2    3      2.72     -1.52
    5    2    3     -2.47     -0.56
    6    2    3     -0.87     -0.94
   -6    2    2     -3.19      0.13
   -5    2    2      2.80      0.53
   -4    2    2      1.60      2.05
   -3    2    2      6.30     -1.72
   -2    2    2      4.32     -1.49
    0    2    2      0.31    -24.05
    1    2    2     -4.49     -5.75
    2    2    2     21.62      1.83
    3    2    2     -0.21      2.39
    4    2    2      5.45     -0.64
    5    2    2      1.85      2.24
    6    2    2      0.06     -0.15
   -6    2    1     -2.26      0.95
   -5    2    1     -0.70     -1.62
   -4    2    1     -3.58     -2.16
   -3    2    1      1.43     -1.60
   -2    2    1     13.06     -3.44
   -1    2    1      0.56     -8.42
    0    2    1     54.32      3.48
    1    2    1     17.14     14.19
    2    2    1      9.82     -3.06
    3    2    1     -5.58     -3.18
    4    2    1      5.90      1.49
    5    2    1      2.81      1.83
    6    2    1      0.08     -0.50
    6    2    0     -1.03      0.02
    5    2    0     -0.16     -1.56
    4    2    0     -0.37     -0.18
    3    2    0     -2.45     -3.11
    2    2    0      5.21     -8.28
    1    2    0     11.02     11.25
   -7    2    1      0.89     -0.20
   -1    2    2     11.99    -12.48
   -6    2    3     -2.12     -0.43
    0    2    4     28.02      8.52
   -1    2    4     23.20     -1.80
    0    2    5     10.58      3.77
   -2    2    7      1.89     -6.36
   -2    3   20     -0.84      1.02
   -1    3   20      0.02      1.68
    0    3   20     -0.45     -0.02
   -3    3   19     -0.03      0.98
   -2    3   19      0.61      0.34
   -1    3   19      1.03      0.68
    0    3   19     -0.92      0.52
   -4    3   18     -1.54      1.13
   -3    3   18      0.10      0.61
   -2    3   18      1.47     -0.39
   -1    3   18      0.74     -0.97
    0    3   18      0.67      0.01
    1    3   18     -0.39      0.09
    2    3   18     -1.47      1.08
   -4    3   17     -1.39      0.94
   -3    3   17      0.30      1.05
   -2    3   17     -0.70      0.77
   -1    3   17      0.94     -1.53
    0    3   17      2.97     -0.97
    1    3   17     -0.84     -2.23
    2    3   17     -0.99      0.98
    3    3   17     -0.22     -0.35
   -5    3   16      0.99     -0.52
   -4    3   16      1.06      0.35
   -3    3   16     -0.62      1.85
   -2    3   16     -0.54      1.12
   -1    3   16      0.63     -0.60
    0    3   16     -0.32      1.68
    1    3   16     -0.94     -1.98
    2    3   16      2.45     -2.46
    3    3   16      0.58     -1.48
   -5    3   15      1.41     -1.82
   -4    3   15      0.99      1.35
   -3    3   15      0.19     -0.20
   -2    3   15      1.95      0.84
   -1    3   15     -3.45      1.14
    0    3   15     -4.24      5.01
    1    3   15     -0.32     -0.50
    2    3   15      2.19     -2.73
    3    3   15      0.16     -1.86
   -5    3   14     -0.46     -0.01
   -4    3   14     -0.79      2.82
   -3    3   14      1.62     -1.23
   -2    3   14      0.29      1.19
   -1    3   14     -3.28      0.00
    0    3   14      0.36      2.03
    1    3   14     -1.34      1.06
    2    3   14     -2.34      0.78
    3    3   14     -1.11     -1.19
    4    3   14      0.49     -2.61
   -6    3   13     -0.77      0.93
   -5    3   13     -1.83      1.40
   -4    3   13     -0.12      4.16
   -3    3   13     -1.03      0.68
   -2    3   13     -1.37      1.09
   -1    3   13      4.17     -3.62
    0    3   13      5.21     -3.08
    1    3   13     -1.94      1.61
    2    3   13     -2.37     -1.43
    3    3   13     -1.11     -0.30
    4    3   13     -1.47     -2.07
   -6    3   12      0.18      1.17
   -5    3   12      0.39     -0.27
   -4    3   12      1.73      4.50
   -3    3   12     -2.72      1.14
   -2    3   12      1.68      1.37
   -1    3   12      4.33     -2.57
    0    3   12     -0.13     -1.43
    1    3   12      1.06      0.30
    2    3   12      1.16     -7.34
    3    3   12     -0.57      0.90
    4    3   12     -2.39     -1.09
    5    3   12     -0.41      0.68
   -6    3   11      1.69      0.47
   -5    3   11      2.47     -1.67
   -4    3   11      2.04      3.56
   -3    3   11      1.67     -0.30
   -2    3   11      2.19      1.37
   -1    3   11     -5.66      5.06
    0    3   11     -7.49      3.44
    1    3   11      2.27      1.49
    2    3   11     -0.49     -6.39
    3    3   11      0.97     -0.62
    4    3   11      0.30     -3.43
    5    3   11      0.16      0.64
   -6    3   10      0.81      0.16
   -5    3   10      0.32      0.60
   -4    3   10      0.82      3.23
   -3    3   10      3.72     -0.59
   -2    3   10     -2.47      1.25
   -1    3   10     -5.01      6.90
    0    3   10     -5.58      1.17
    1    3   10     -2.65      6.88
    2    3   10     -4.01     -2.46
    3    3   10      3.53     -4.32
    4    3   10      1.04     -3.91
    5    3   10     -0.68     -1.35
   -6    3    9     -0.96      1.08
   -5    3    9     -1.78      3.90
   -4    3    9     -1.45      3.63
   -3    3    9     -1.76      3.72
   -2    3    9     -1.30     -0.21
   -1    3    9      8.96     -1.88
    0    3    9     -0.49     -4.83
    1    3    9     -2.95      6.46
    2    3    9     -1.39     -3.75
    3    3    9      0.66     -3.02
    4    3    9     -2.39     -0.57
    5    3    9     -0.63     -3.53
   -6    3    8      0.08      1.27
   -5    3    8     -0.51      4.11
   -4    3    8     -3.52      4.19
   -3    3    8     -2.07      8.49
   -2    3    8      5.03     -4.95
   -1    3    8      9.11     -1.09
    0    3    8      1.34     -6.66
    1    3    8      6.35     -3.64
    2    3    8      0.81     -4.55
    3    3    8     -5.73     -0.29
    4    3    8     -2.91      1.10
    5    3    8      0.39     -3.19
   -6    3    7      1.02     -0.24
   -5    3    7      0.17      4.05
   -4    3    7      0.11      2.38
   -3    3    7      7.03      5.87
   -2    3    7      0.62     -5.64
   -1    3    7     -4.77     12.77
    1    3    7      4.22     -5.73
    2    3    7     -2.63     -0.66
    3    3    7     -3.69     -5.67
    4    3    7      0.97     -0.46
    5    3    7     -1.31     -1.76
    6    3    7     -0.55      0.47
   -6    3    6     -1.33     -0.14
   -5    3    6      1.16      5.42
   -4    3    6      6.25     -1.54
   -3    3    6      7.19      3.44
   -2    3    6     -7.20     -1.65
   -1    3    6     -5.64     13.11
    1    3    6    -12.91      5.10
    2    3    6     -1.87      0.70
    3    3    6      3.13    -12.48
    4    3    6      2.80     -2.29
    5    3    6     -3.30     -1.93
    6    3    6     -1.31     -0.26
   -6    3    5     -1.60      0.83
   -5    3    5      2.87      5.52
   -4    3    5      1.67      0.78
   -3    3    5     -2.98      8.96
   -2    3    5      0.61     -3.34
   -1    3    5      4.04     -2.98
    0    3    5     -7.95     14.94
    1    3    5    -13.23      2.11
    2    3    5      3.29     -0.19
    3    3    5      0.20     -8.70
    4    3    5      0.62     -2.93
    5    3    5     -0.94     -3.25
    6    3    5      0.40     -1.82
   -7    3    4      0.19      0.47
   -6    3    4      0.83     -0.26
   -5    3    4      0.91      4.42
   -4    3    4     -6.34      7.49
   -3    3    4     -3.64     11.22
   -2    3    4      9.96     -4.01
   -1    3    4      7.15    -10.11
    0    3    4      8.85      9.71
    1    3    4      5.29    -18.88
    2    3    4      0.43      4.51
    3    3    4     -7.25     -2.33
    4    3    4     -0.76     -3.02
    5    3    4      0.94     -2.32
    6    3    4      0.65     -2.34
   -7    3    3      1.07      0.26
   -5    3    3     -0.52      1.91
   -4    3    3     -1.63      7.17
   -3    3    3      2.47      4.37
   -2    3    3      4.60      8.85
    0    3    3     20.94     -0.09
    1    3    3      3.00    -19.70
    2    3    3     -5.97      5.76
    3    3    3     -3.57     -5.61
    4    3    3     -1.58     -2.04
    5    3    3     -2.14      0.66
    6    3    3     -1.04     -1.90
   -7    3    2      0.07      0.26
   -6    3    2     -0.82      0.84
   -5    3    2      1.83     -0.43
   -4    3    2      5.74      2.96
   -3    3    2      2.35     -0.93
   -2    3    2      2.71     17.81
   -1    3    2      1.51    -14.57
    0    3    2     -9.59     23.49
    1    3    2    -19.33      1.51
    2    3    2     -1.31     -6.20
    3    3    2      4.98     -8.98
    4    3    2     -3.75     -2.70
    5    3    2     -2.22      0.90
    6    3    2     -0.89     -1.73
   -6    3    1      0.29      2.66
   -5    3    1      1.61      0.79
   -4    3    1      2.80      4.75
   -3    3    1      1.65     -0.81
   -2    3    1      8.95      8.21
   -1    3    1    -15.17    -10.42
    0    3    1    -36.22     43.67
    1    3    1    -13.70      4.24
    2    3    1      4.58    -11.70
    3    3    1      3.56     -4.22
    4    3    1     -2.07     -7.44
    5    3    1      2.43     -1.78
    6    3    1     -0.61     -2.73
    6    3    0     -1.27     -3.46
    5    3    0      2.43     -2.88
    4    3    0      0.96     -9.17
    2    3    0     -3.50     -4.10
    1    3    0     13.89     -0.97
    3    3    0     -1.71     -0.12
   -6    3    3      0.49     -0.78
    0    3    6     -4.28      3.83
    0    3    7      1.63     -4.75
    1    3   19     -0.40      1.48
   -2    4   20      0.34      0.64
   -1    4   20      1.58      0.65
    0    4   20     -0.23     -0.47
   -3    4   19      0.80     -0.78
   -2    4   19      1.27      1.46
   -1    4   19      3.52      0.40
    0    4   19      0.24      0.66
    1    4   19      0.36     -0.38
   -4    4   18      0.04     -1.10
   -3    4   18      1.54     -0.68
   -2    4   18      1.30     -0.44
   -1    4   18      3.68     -0.31
    0    4   18      0.92      2.31
    1    4   18      2.30     -0.44
   -4    4   17      0.22      1.14
   -3    4   17      1.50     -1.43
   -2    4   17      1.32     -1.21
   -1    4   17      2.70     -0.53
    0    4   17      0.18     -0.86
    1    4   17      1.50     -0.83
    2    4   17      1.99      2.21
   -5    4   16      1.86      0.79
   -4    4   16     -0.04      1.09
   -3    4   16      2.72     -1.47
   -2    4   16      2.12      1.24
   -1    4   16      2.58     -2.95
    0    4   16     -0.58     -5.08
    1    4   16     -0.65     -0.51
    2    4   16      2.71      1.29
    3    4   16      1.05      0.38
   -5    4   15      0.59     -0.67
   -4    4   15     -0.08     -1.44
   -3    4   15      3.25     -0.17
   -2    4   15      3.22      0.09
   -1    4   15      3.70     -2.61
    0    4   15      1.86     -0.79
    1    4   15     -1.08     -0.88
    2    4   15      1.14     -3.68
    3    4   15      0.62     -0.84
   -5    4   14     -0.67     -1.92
   -4    4   14     -0.17     -0.96
   -3    4   14      1.89     -1.94
   -2    4   14      4.35     -2.81
   -1    4   14      4.48      3.96
    0    4   14      5.44      3.96
    1    4   14      0.20     -1.18
    2    4   14      2.26     -3.61
    3    4   14      0.30     -0.48
    4    4   14      1.69     -1.19
   -6    4   13     -0.83      0.52
   -5    4   13      0.32      0.66
   -4    4   13      0.15      1.11
   -3    4   13      1.73     -3.64
   -2    4   13      3.95     -1.06
   -1    4   13      3.52      3.70
    0    4   13      5.49     -2.22
    1    4   13      2.00      1.22
    2    4   13      5.60      1.12
    3    4   13      0.37      0.80
    4    4   13      0.32     -1.95
   -6    4   12     -0.42      1.87
   -5    4   12      1.10      2.86
   -4    4   12      1.53      0.62
   -3    4   12      2.03      0.45
   -2    4   12      4.25     -0.29
   -1    4   12      1.35     -6.63
    0    4   12      3.34     -9.62
    1    4   12      2.26      1.76
    2    4   12      4.15      0.20
    3    4   12      1.83      1.36
    4    4   12      0.87      0.68
   -6    4   11      0.31      1.12
   -5    4   11     -0.18      0.40
   -4    4   11      2.23     -1.28
   -3    4   11      1.71      2.87
   -2    4   11      6.55     -4.68
   -1    4   11      1.76     -6.71
    0    4   11      4.98     -5.15
    1    4   11      1.23     -3.24
    2    4   11      0.15     -3.99
    3    4   11      4.43      2.06
    4    4   11      1.31      2.40
    5    4   11      1.60     -0.12
   -6    4   10      0.30     -0.78
   -5    4   10     -2.04     -1.97
   -4    4   10      2.14     -2.50
   -3    4   10      0.43     -2.75
   -2    4   10      7.26     -4.79
   -1    4   10      7.32      7.16
    0    4   10      9.30      3.17
    1    4   10      3.91     -4.63
    2    4   10      0.32     -1.36
    3    4   10      4.06     -0.70
    4    4   10     -0.36     -0.62
    5    4   10      2.78     -0.50
   -6    4    9     -0.31     -0.09
   -5    4    9     -1.88      0.22
   -4    4    9      2.15     -2.79
   -3    4    9     -2.20     -4.94
   -2    4    9      7.83      1.31
   -1    4    9      9.38      6.40
    0    4    9      9.70      3.67
    1    4    9     11.10      2.75
    2    4    9      1.74      2.56
    3    4    9      2.51     -6.28
    4    4    9     -0.89     -1.51
    5    4    9      0.73      0.17
   -6    4    8      0.36      1.63
   -5    4    8     -0.61      1.98
   -4    4    8      1.82      0.22
   -3    4    8     -0.91      2.82
   -2    4    8      8.41     -1.28
   -1    4    8      4.36    -11.24
    1    4    8     13.86      0.87
    2    4    8      0.69     -0.83
    3    4    8      4.99     -3.68
    4    4    8      0.68      2.48
    5    4    8     -1.11     -0.97
   -6    4    7      0.87      0.04
   -5    4    7     -0.87      1.64
   -4    4    7      2.11      5.05
   -3    4    7      3.83      3.34
   -2    4    7      5.86     -8.89
   -1    4    7      7.10    -12.55
    1    4    7      9.32    -15.15
    2    4    7      0.36     -2.33
    3    4    7      7.05      4.33
    4    4    7      2.62      3.86
    5    4    7     -0.27     -2.37
    6    4    7      0.08     -1.91
   -6    4    6     -0.71     -0.84
   -5    4    6     -0.45      2.16
   -4    4    6      1.29      1.05
   -3    4    6      3.51     -8.15
   -2    4    6      3.75     -1.71
   -1    4    6     20.35      0.97
    0    4    6      1.26     -6.08
    1    4    6     10.10    -14.18
    2    4    6      1.88      1.81
    3    4    6      2.77      1.86
    4    4    6      3.66     -0.15
    5    4    6      0.41      0.46
    6    4    6      0.22     -0.47
   -6    4    5     -1.27      1.74
   -5    4    5      2.10      0.39
   -4    4    5     -2.02     -7.04
   -3    4    5      1.28     -9.57
   -2    4    5      2.16      7.70
   -1    4    5     25.25      2.30
    0    4    5      7.23      6.04
    1    4    5     19.83      7.29
    2    4    5      2.60     -0.87
    3    4    5     -2.04     -6.42
    4    4    5      3.42     -3.10
    5    4    5     -1.08      3.31
    6    4    5     -0.61      0.01
   -7    4    4      0.13      1.03
   -6    4    4     -0.37      1.82
   -5    4    4      4.05     -1.46
   -4    4    4     -2.57     -1.83
   -3    4    4      5.02     -0.36
   -2    4    4     -4.21     -1.11
    0    4    4     18.53     13.79
    1    4    4     19.08      8.00
    2    4    4      5.58     -8.02
    3    4    4     -0.11     -2.38
    4    4    4      2.33     -2.80
    5    4    4     -2.47      0.31
    6    4    4     -0.53     -1.91
   -7    4    3      0.62     -0.06
   -5    4    3      3.76      0.80
   -4    4    3      0.22      7.27
   -3    4    3      8.93      0.31
   -2    4    3     -6.79     -8.12
   -1    4    3     18.91     -8.48
    0    4    3     18.08    -13.20
    1    4    3      3.82    -14.00
    2    4    3     13.79     -4.46
    3    4    3      1.97      7.21
    4    4    3      2.60     -3.20
    5    4    3     -1.46     -1.16
    6    4    3     -0.52     -1.90
   -7    4    2      0.61     -0.95
   -6    4    2     -2.36      0.31
   -5    4    2      1.38      0.77
   -4    4    2      0.46      3.02
   -3    4    2      6.35     -3.01
   -2    4    2      4.61     -0.86
   -1    4    2     18.71    -15.68
    0    4    2     15.41    -35.23
    1    4    2     -1.05     -9.69
    2    4    2     15.40      1.34
    3    4    2     -1.24      3.63
    4    4    2      5.04     -1.26
    5    4    2      0.38      3.37
    6    4    2     -0.27     -0.49
   -6    4    1     -2.26      1.19
   -5    4    1     -0.20     -3.13
   -4    4    1     -1.47     -3.53
   -3    4    1      2.38     -2.37
   -2    4    1     13.62     -3.63
   -1    4    1      7.27    -10.81
    0    4    1     40.01      2.05
    1    4    1      3.87     18.01
    2    4    1      7.34     -7.32
    3    4    1     -2.38     -5.39
    4    4    1      4.49      2.52
    5    4    1      1.27      3.32
    6    4    1      0.41     -0.57
    6    4    0     -0.63      0.04
    5    4    0      0.65     -2.38
    4    4    0      0.12     -0.27
    2    4    0      8.08    -13.69
    1    4    0      2.17     14.80
    0    4    0     61.56     37.53
    3    4    0      0.10     -4.90
   -1    4    4     19.14     -4.45
    0    4    7      3.14     -3.71
    0    4    8      6.64      0.79
    2    4   18      0.09     -0.19
   -2    5   20     -0.83      0.42
   -1    5   20     -0.25      1.58
    0    5   20     -0.60     -0.01
   -3    5   19      0.13      1.25
   -2    5   19      0.27      0.76
   -1    5   19      0.63      0.86
    0    5   19     -1.73      0.29
    1    5   19     -1.05      1.11
   -4    5   18     -1.20     -0.13
   -3    5   18      0.13      0.93
   -2    5   18      1.29      0.59
   -1    5   18      0.78     -0.78
    0    5   18      0.70      0.22
    1    5   18     -0.70      0.10
   -4    5   17     -1.12      0.27
   -3    5   17      0.25      1.00
   -2    5   17     -0.78      0.70
   -1    5   17      1.21     -0.65
    0    5   17      4.02      0.53
    1    5   17     -0.75     -2.14
    2    5   17     -0.53      0.27
   -5    5   16      1.26     -0.64
   -4    5   16      1.59      1.48
   -3    5   16     -0.82      0.92
   -2    5   16     -0.75      1.48
   -1    5   16      0.33      0.35
    0    5   16     -0.07      1.30
    1    5   16     -1.06     -2.08
    2    5   16      3.22     -0.54
    3    5   16      0.47     -0.68
   -5    5   15      2.56     -1.52
   -4    5   15      1.56      1.86
   -3    5   15     -0.11     -0.05
   -2    5   15      2.15      2.37
   -1    5   15     -4.47     -0.64
    0    5   15     -5.05      1.94
    1    5   15     -1.12     -0.07
    2    5   15      2.25     -1.05
    3    5   15      0.15     -1.22
   -5    5   14      0.24     -0.81
   -4    5   14     -0.85      1.81
   -3    5   14      1.48      0.42
   -2    5   14      1.26      1.11
   -1    5   14     -4.01     -1.57
    0    5   14      0.06      1.85
    1    5   14     -2.50      1.07
    2    5   14     -3.29     -0.76
    3    5   14     -1.26     -1.23
    4    5   14      0.58     -1.58
   -6    5   13     -0.64      0.03
   -5    5   13     -2.02      0.08
   -4    5   13     -0.14      3.11
   -3    5   13     -1.16      0.70
   -2    5   13     -0.55      0.21
   -1    5   13      4.80     -0.12
    0    5   13      5.77      0.39
    1    5   13     -2.32      0.63
    2    5   13     -3.17     -2.29
    3    5   13     -1.20     -0.43
    4    5   13     -1.63     -2.31
   -6    5   12     -0.09      1.01
   -5    5   12      0.54      0.34
   -4    5   12      2.00      3.86
   -3    5   12     -2.95      0.33
   -2    5   12      1.91      2.57
   -1    5   12      5.00      0.90
    0    5   12     -0.54     -0.86
    1    5   12      1.87      0.33
    2    5   12      1.19     -4.84
    3    5   12     -0.51      0.60
    4    5   12     -3.74     -1.95
   -6    5   11      1.67      1.66
   -5    5   11      2.88      0.33
   -4    5   11      2.08      3.39
   -3    5   11      2.46      1.56
   -2    5   11      2.35      2.42
   -1    5   11     -7.11      1.30
    0    5   11     -9.88     -0.42
    1    5   11      2.72      2.15
    2    5   11     -1.10     -4.65
    3    5   11      1.08     -0.42
    4    5   11     -1.19     -2.25
    5    5   11     -0.27      0.75
   -6    5   10      1.38      1.02
   -5    5   10      0.43      0.72
   -4    5   10      1.06      3.32
   -3    5   10      5.74      1.52
   -2    5   10     -2.77     -0.63
   -1    5   10     -6.15      2.34
    1    5   10     -3.77      4.72
    2    5   10     -6.06     -3.19
    3    5   10      3.93     -2.15
    4    5   10      0.84     -2.16
    5    5   10     -0.44     -2.08
   -6    5    9     -0.55      0.51
   -5    5    9     -1.70      2.32
   -4    5    9     -0.80      2.65
   -3    5    9     -0.49      1.53
   -2    5    9     -1.97     -0.55
   -1    5    9     11.59      2.05
    1    5    9     -3.74      4.41
    2    5    9     -3.16     -2.54
    3    5    9      0.54     -2.02
    4    5    9     -2.12     -1.58
    5    5    9     -0.17     -3.93
   -6    5    8      0.01      1.15
   -5    5    8     -0.10      3.27
   -4    5    8     -3.28      1.77
   -2    5    8      5.01     -0.36
   -1    5    8     12.34      2.94
    0    5    8      1.49     -3.92
    1    5    8      7.79      1.27
    2    5    8      0.42     -2.20
    3    5    8     -7.41     -3.27
    4    5    8     -3.21     -0.76
    5    5    8      0.14     -2.06
   -6    5    7      1.39      0.34
   -5    5    7      0.86      3.38
   -4    5    7     -0.26      2.88
   -3    5    7      7.46      8.86
   -2    5    7      0.90     -3.16
   -1    5    7     -4.66      7.39
    0    5    7      1.58     -2.24
    1    5    7      5.05     -1.52
    2    5    7     -2.70     -2.14
    3    5    7     -5.45     -6.73
    4    5    7      1.19      0.09
    5    5    7     -2.49     -1.33
    6    5    7     -0.35     -0.75
   -6    5    6     -0.59     -0.83
   -5    5    6      1.57      5.25
   -4    5    6      6.47      3.45
   -3    5    6      9.35      5.49
   -2    5    6     -6.51     -4.84
   -1    5    6     -6.14      7.54
    0    5    6     -6.27      1.64
    1    5    6    -16.32     -2.01
    2    5    6     -2.17     -0.86
    3    5    6      3.01     -7.90
    4    5    6      4.16     -0.72
    5    5    6     -4.87     -3.34
    6    5    6     -0.92     -2.61
   -6    5    5     -1.38      0.66
   -5    5    5      2.77      6.07
   -4    5    5      2.52      2.32
   -3    5    5     -1.31      4.43
   -2    5    5      3.32     -4.03
    0    5    5    -10.29      7.66
    1    5    5    -18.10     -3.70
    2    5    5      3.14      2.46
    3    5    5     -0.22     -5.89
    4    5    5      1.69     -2.92
    5    5    5     -1.71     -3.65
    6    5    5      0.16     -1.58
   -6    5    4      0.83      1.55
   -5    5    4      0.89      3.34
   -4    5    4     -6.14      3.02
   -3    5    4     -3.24      7.26
   -1    5    4      6.62     -3.77
    0    5    4      9.97     11.72
    1    5    4      3.58     -9.89
    2    5    4     -0.32      4.81
    3    5    4     -9.41     -5.06
    4    5    4     -0.77     -3.45
    5    5    4      1.01     -1.26
    6    5    4     -0.12     -0.51
   -5    5    3      0.42      0.72
   -4    5    3     -1.24      5.03
   -3    5    3      2.55      5.68
   -2    5    3      3.81      8.57
   -1    5    3      5.24     -2.52
    0    5    3     24.87     10.39
    1    5    3      3.00    -12.56
    2    5    3     -6.91      1.02
    3    5    3     -4.55     -6.09
    4    5    3     -2.70     -2.08
    5    5    3     -2.79     -0.57
    6    5    3     -1.82     -1.70
   -6    5    2     -0.31      0.90
   -4    5    2      7.20      5.32
   -3    5    2      2.16      1.17
   -2    5    2      2.20     15.27
   -1    5    2      1.38     -9.62
    0    5    2     -7.11     11.72
    1    5    2    -20.87     -8.02
    2    5    2     -1.01     -6.21
    3    5    2      6.15     -4.38
    4    5    2     -5.70     -3.45
    5    5    2     -3.44     -1.19
    6    5    2     -1.78     -1.74
   -6    5    1      0.56      2.76
   -5    5    1      2.27      2.15
   -3    5    1      1.76      0.73
   -2    5    1     12.99      9.49
   -1    5    1    -12.96    -16.63
    0    5    1    -36.04     12.76
    1    5    1    -16.55     -1.75
    2    5    1      3.58     -5.57
    3    5    1      4.05     -1.73
    4    5    1     -3.21     -6.74
    5    5    1      2.48     -0.88
    6    5    1     -1.25     -2.17
    6    5    0     -1.49     -3.52
    5    5    0      3.18     -1.65
    4    5    0      0.86     -6.68
    3    5    0     -2.34     -1.59
    1    5    0     10.84      8.94
    2    5    0     -8.22     -2.44
   -4    5    1      3.72      5.14
   -5    5    2      3.51      0.87
   -2    5    4     12.56     -0.37
   -1    5    5      4.75     -0.01
   -3    5    8     -2.36      6.12
    0    5    9     -1.76     -2.80
    0    5   10     -8.28     -0.67
   -2    6   20     -0.08      0.22
   -1    6   20      1.15      0.10
    0    6   20      0.15     -0.89
   -3    6   19      0.63     -1.15
   -2    6   19      0.34      1.12
   -1    6   19      2.88      0.44
    0    6   19      0.23      0.70
   -4    6   18      0.02     -1.03
   -3    6   18      1.41     -1.17
   -2    6   18      0.96     -0.21
   -1    6   18      2.79     -0.11
    0    6   18     -0.15      2.64
    1    6   18      1.66     -0.19
   -4    6   17     -0.99      0.71
   -3    6   17      1.59     -1.86
   -2    6   17      1.11     -1.05
   -1    6   17      1.91     -1.12
    0    6   17      0.50     -1.02
    1    6   17      1.33     -0.86
    2    6   17      0.21      2.03
   -5    6   16      1.23      1.43
   -4    6   16     -0.63      0.78
   -3    6   16      2.17     -1.85
   -2    6   16      0.88      0.91
   -1    6   16      3.51     -3.41
    0    6   16      2.11     -5.45
    1    6   16     -0.63     -1.17
    2    6   16      1.34      0.43
    3    6   16      0.39      0.57
   -5    6   15      1.01     -0.13
   -4    6   15      1.07     -1.88
   -3    6   15      1.46     -0.79
   -2    6   15      2.63      0.35
   -1    6   15      4.56     -2.32
    0    6   15      2.00     -1.54
    1    6   15     -0.89     -1.49
    2    6   15      2.68     -4.45
    3    6   15      0.63     -0.55
   -5    6   14      0.86     -2.20
   -4    6   14      0.72     -1.66
   -3    6   14      1.10     -2.20
   -2    6   14      4.65     -2.50
   -1    6   14      1.56      3.88
    0    6   14      2.14      2.86
    1    6   14      0.76     -0.83
    2    6   14      3.14     -4.12
    3    6   14      0.28     -0.44
    4    6   14      1.90     -0.82
   -5    6   13      0.19      0.42
   -4    6   13      0.12      0.63
   -3    6   13      2.15     -3.54
   -2    6   13      2.84     -2.40
   -1    6   13      0.81      3.39
    0    6   13      4.87     -2.96
    1    6   13      1.52      1.93
    2    6   13      3.05      0.62
    3    6   13      0.19      0.80
    4    6   13      1.28     -2.11
   -6    6   12     -1.39      1.87
   -5    6   12     -0.25      3.00
   -4    6   12      1.29      0.10
   -3    6   12      0.73      0.35
   -2    6   12      2.76     -2.03
   -1    6   12      4.86     -6.53
    0    6   12      6.63    -10.37
    1    6   12      1.10      1.48
    2    6   12      2.38     -0.45
    3    6   12      1.69      1.42
    4    6   12      0.50      0.23
   -6    6   11     -0.49      1.98
   -5    6   11      0.41      0.73
   -4    6   11      1.69     -1.58
   -3    6   11     -0.03      2.86
   -2    6   11      7.07     -5.37
   -1    6   11      5.60     -6.48
    1    6   11      1.83     -4.42
    2    6   11      1.67     -4.96
    3    6   11      3.26      1.78
    4    6   11      0.01      3.15
    5    6   11      1.55      0.13
   -6    6   10      1.21      0.44
   -5    6   10     -0.01     -1.31
   -4    6   10      1.77     -2.28
   -3    6   10      2.32     -2.75
   -2    6   10      7.01     -5.64
   -1    6   10      2.50      7.35
    0    6   10      4.93      2.25
    1    6   10      4.29     -5.45
    2    6   10      0.80     -2.21
    3    6   10      3.28     -1.34
    4    6   10      0.48      1.18
    5    6   10      2.61     -0.15
   -6    6    9      1.01      0.43
   -5    6    9     -1.40      0.68
   -4    6    9      2.56     -2.66
   -3    6    9      0.64     -6.19
   -2    6    9      3.74     -0.33
   -1    6    9      3.39      6.30
    0    6    9      5.70      4.02
    1    6    9      6.23      2.20
    2    6    9      0.19      2.83
    3    6    9      4.71     -6.91
    4    6    9      1.03     -0.62
    5    6    9     -0.04     -0.59
   -6    6    8      0.15      1.95
   -5    6    8     -0.97      2.36
   -4    6    8      0.89     -0.59
   -3    6    8     -2.64      0.42
   -2    6    8      5.90     -1.87
   -1    6    8      7.30    -12.26
    0    6    8      5.16      1.04
    1    6    8      9.23     -0.25
    2    6    8      2.01      0.61
    3    6    8      5.89     -4.32
    4    6    8      0.30      2.44
    5    6    8     -1.11     -2.04
   -6    6    7      0.76      1.08
   -5    6    7     -0.92      1.78
   -4    6    7     -1.58      3.77
   -3    6    7      1.64      2.55
   -2    6    7      8.58     -7.81
   -1    6    7      9.81    -14.48
    0    6    7      4.72     -4.30
    1    6    7     13.97    -16.88
    2    6    7      2.66     -1.74
    3    6    7      2.80      3.77
    4    6    7      0.98      4.37
    5    6    7      1.24     -2.59
    6    6    7      1.39     -1.75
   -6    6    6     -0.40     -0.18
   -5    6    6     -1.06      1.60
   -4    6    6      0.42      1.53
   -3    6    6      6.76     -7.18
   -2    6    6      4.65     -1.09
    0    6    6      4.85     -6.04
    1    6    6     13.77    -16.68
    2    6    6      0.03      0.47
    3    6    6      0.16      1.67
    4    6    6      3.85      0.39
    5    6    6      1.12      0.85
    6    6    6     -0.90     -1.99
   -6    6    5     -2.12      1.51
   -5    6    5      2.17      0.54
   -4    6    5      2.47     -5.31
   -1    6    5     16.66     -0.08
    0    6    5      3.31      6.60
    1    6    5     10.11      4.79
    2    6    5      1.19     -2.55
    3    6    5      1.56     -6.46
    4    6    5      4.71     -3.76
    5    6    5     -2.27      3.54
    6    6    5     -3.54     -2.87
   -6    6    4     -0.88      1.99
   -5    6    4      4.11     -0.09
   -4    6    4     -0.43     -1.50
   -3    6    4      2.27     -2.86
   -2    6    4     -3.23     -4.20
   -1    6    4     14.99     -6.89
    0    6    4      6.88     13.78
    1    6    4     10.15      7.62
    2    6    4      8.04     -8.71
    3    6    4      1.83     -2.11
    4    6    4      2.61     -4.40
    5    6    4     -2.31      0.14
    6    6    4     -1.14     -3.36
   -6    6    3     -0.16      0.25
   -5    6    3      1.66      1.76
   -4    6    3     -2.62      6.61
   -3    6    3      5.78     -1.75
   -2    6    3     -3.15     -9.94
   -1    6    3     16.44     -8.56
    0    6    3     18.94    -11.52
    1    6    3     10.18    -12.28
    2    6    3     12.26     -5.40
    3    6    3     -1.50      7.64
    4    6    3      2.79     -4.61
    5    6    3      0.12     -1.54
    6    6    3      0.25     -2.24
   -6    6    2     -1.43      0.20
   -4    6    2     -0.42      2.82
   -3    6    2      5.86     -3.96
   -2    6    2      2.55      0.16
   -1    6    2     20.66    -11.68
    0    6    2     27.41    -32.49
    1    6    2      3.73    -10.65
    2    6    2      8.76     -2.03
    3    6    2     -2.03      3.52
    4    6    2      4.40     -1.67
    5    6    2     -0.99      3.22
    6    6    2     -0.63     -0.86
   -6    6    1     -1.67      0.99
   -5    6    1      1.03     -3.80
   -3    6    1      2.57     -2.72
   -2    6    1     11.30     -1.77
   -1    6    1     11.53     -7.54
    0    6    1     26.64     -2.50
    1    6    1     -6.01     12.07
    2    6    1      6.30    -11.51
    3    6    1      1.75     -5.68
    4    6    1      2.27      2.71
    5    6    1     -1.27      3.67
    6    6    1      0.28     -0.37
    6    6    0     -0.02      0.38
    5    6    0      1.22     -2.36
    4    6    0      0.37     -0.25
    3    6    0      2.68     -5.02
    2    6    0     11.18    -14.71
    1    6    0     -4.48     11.20
    0    6    0     24.67     26.63
   -4    6    1      1.08     -3.56
   -5    6    2     -0.20      0.49
   -2    6    5     -0.88      6.10
   -3    6    5      4.17    -10.16
   -1    6    6     13.54     -1.16
    0    6   11      5.51     -6.47
    2    6   18      0.02      0.16
    1    6   19      0.31     -0.47
   -1    7   20     -0.64      1.19
   -3    7   19      0.28      1.32
   -2    7   19     -0.14      0.57
   -1    7   19      0.02      0.46
    0    7   19     -1.71     -0.45
   -4    7   18     -0.42     -0.62
   -3    7   18      0.27      0.90
   -2    7   18      0.86      0.85
   -1    7   18      0.93     -0.72
    0    7   18      0.87      0.53
   -4    7   17     -0.50     -0.16
   -3    7   17      0.13      0.73
   -2    7   17     -0.35      0.58
   -1    7   17      1.02      0.34
    0    7   17      3.46      2.54
    1    7   17     -0.62     -1.35
    2    7   17      0.19      0.22
   -4    7   16      1.69      2.06
   -3    7   16     -0.57      0.15
   -2    7   16     -0.53      1.47
   -1    7   16     -0.98      1.17
    0    7   16     -0.13      1.28
    1    7   16     -1.16     -1.40
    2    7   16      2.92      1.54
    3    7   16      0.06     -0.05
   -5    7   15      2.84      0.06
   -4    7   15      2.10      1.99
   -3    7   15      0.09     -0.29
   -2    7   15      1.67      3.15
   -1    7   15     -4.64     -2.00
    0    7   15     -3.94     -0.78
    1    7   15     -2.02      0.38
    2    7   15      1.55      0.45
    3    7   15      0.17     -0.55
   -5    7   14      0.95     -0.95
   -4    7   14     -0.21      0.58
   -3    7   14      1.04      1.15
   -2    7   14      2.13      1.43
   -1    7   14     -3.47     -2.49
    0    7   14     -0.24      1.58
    1    7   14     -3.31      0.77
    2    7   14     -3.29     -2.13
    3    7   14     -1.00     -0.89
    4    7   14      0.19     -0.66
   -5    7   13     -1.50     -1.81
   -4    7   13      0.16      1.82
   -3    7   13     -1.02      0.57
   -2    7   13      0.83     -0.02
   -1    7   13      3.36      3.35
    1    7   13     -2.05      0.14
    2    7   13     -3.35     -2.92
    3    7   13     -1.34     -0.16
    4    7   13     -1.52     -2.14
   -6    7   12     -0.52      0.56
   -5    7   12      0.64      0.23
   -4    7   12      2.14      2.72
   -3    7   12     -2.14     -0.43
   -2    7   12      1.28      3.31
   -1    7   12      3.47      4.29
    0    7   12     -0.99      0.04
    1    7   12      2.31      1.27
    2    7   12      0.19     -2.12
    3    7   12     -0.49      0.31
    4    7   12     -4.07     -2.79
   -6    7   11      0.84      2.60
   -5    7   11      2.71      1.59
   -4    7   11      2.06      2.22
   -3    7   11      2.63      3.09
   -2    7   11      1.42      3.04
   -1    7   11     -5.68     -2.41
    0    7   11     -9.23     -3.54
    1    7   11      2.29      2.95
    2    7   11     -2.11     -2.48
    3    7   11      1.58     -0.85
    4    7   11     -2.46     -1.79
    5    7   11     -0.63      0.40
   -6    7   10      1.22      2.76
   -5    7   10      0.99      0.30
   -4    7   10      1.16      2.89
   -3    7   10      6.15      3.87
   -2    7   10     -1.64     -2.27
   -1    7   10     -4.01     -2.36
    0    7   10     -9.27     -2.31
    1    7   10     -4.04      2.12
    2    7   10     -7.17     -3.70
    3    7   10      3.66     -0.80
    4    7   10      0.29     -0.52
    5    7   10     -0.24     -2.01
   -6    7    9      0.23      0.31
   -5    7    9     -0.70      0.89
   -4    7    9     -0.02      2.16
   -3    7    9      1.78      0.09
   -2    7    9     -1.35     -1.07
   -1    7    9     11.34      5.75
    0    7    9     -3.83     -0.48
    1    7    9     -3.71      2.21
    2    7    9     -5.41     -1.62
    3    7    9     -0.14     -1.19
    4    7    9     -1.15     -1.74
    5    7    9     -0.18     -3.29
   -6    7    8      0.34     -0.14
   -5    7    8      0.46      2.80
   -4    7    8     -1.75     -0.11
   -3    7    8     -0.97      3.18
   -2    7    8      3.17      3.35
   -1    7    8     12.13      7.33
    0    7    8      0.07      0.04
    1    7    8      6.10      6.09
    2    7    8     -1.11      0.29
    3    7    8     -7.00     -6.05
    4    7    8     -2.67     -2.27
    5    7    8     -1.24     -0.98
   -6    7    7      1.42      0.42
   -5    7    7      1.76      2.72
   -4    7    7     -0.36      2.44
   -3    7    7      5.62      9.84
   -2    7    7      0.68     -0.67
   -1    7    7     -2.89      3.25
    0    7    7      0.00      0.89
    1    7    7      3.47      3.07
    2    7    7     -1.17     -2.88
    3    7    7     -5.48     -8.00
    4    7    7      0.68      0.33
    5    7    7     -3.97     -0.95
   -6    7    6      0.46     -0.58
   -5    7    6      1.87      4.28
   -4    7    6      4.26      6.52
   -3    7    6      8.84      6.91
   -1    7    6     -4.93      2.87
    0    7    6     -6.81     -0.96
    1    7    6    -15.21     -7.78
    2    7    6     -0.60     -2.58
    3    7    6      1.04     -3.38
    4    7    6      4.17      1.13
    5    7    6     -4.96     -4.26
    6    7    6      1.68     -4.42
   -6    7    5     -0.42      0.68
   -5    7    5      1.82      5.32
   -4    7    5      2.63      3.44
   -3    7    5      1.85      1.25
   -2    7    5      5.96     -2.72
   -1    7    5      4.42      2.22
    0    7    5     -8.76      0.26
    1    7    5    -18.59     -8.88
    2    7    5      1.81      3.76
    3    7    5     -2.01     -2.47
    4    7    5      2.62     -2.15
    5    7    5     -1.36     -3.89
    6    7    5     -0.03     -1.35
   -6    7    4      1.11      2.48
   -5    7    4      1.16      1.69
   -4    7    4     -3.31     -0.40
   -3    7    4     -0.93      3.80
   -2    7    4     12.43      2.81
   -1    7    4      5.28      0.30
    0    7    4      8.72     12.32
    1    7    4     -1.37     -1.96
    2    7    4     -1.51      4.23
    3    7    4     -9.39     -7.16
    4    7    4     -0.46     -3.57
    5    7    4      0.55     -0.09
    6    7    4     -2.76      1.29
   -6    7    3      1.63      1.53
   -5    7    3      2.00     -0.03
   -4    7    3     -0.09      3.20
   -3    7    3      2.24      5.77
   -2    7    3      3.08      5.69
   -1    7    3      2.05      1.10
    0    7    3     20.70     18.63
    1    7    3      0.74     -5.01
    2    7    3     -5.40     -2.83
    3    7    3     -4.45     -6.17
    4    7    3     -3.60     -2.35
    5    7    3     -3.08     -1.51
    6    7    3     -3.07     -1.39
   -6    7    2      0.43      1.06
   -4    7    2      6.56      6.94
   -3    7    2      1.55      2.05
   -2    7    2      1.77     10.64
   -1    7    2     -0.14     -4.98
    0    7    2     -2.58      4.87
    1    7    2    -15.77    -13.71
    2    7    2     -0.80     -4.97
    3    7    2      4.93      0.27
    4    7    2     -6.54     -4.47
    5    7    2     -3.54     -3.73
    6    7    2     -2.37     -1.94
   -6    7    1      0.56      2.48
   -5    7    1      2.46      3.02
   -3    7    1      1.22      1.94
   -2    7    1     13.62     11.28
   -1    7    1     -6.43    -17.12
    0    7    1    -23.74     -7.71
    1    7    1    -14.72     -6.94
    2    7    1     -0.61     -0.67
    3    7    1      3.18      0.29
    4    7    1     -3.85     -5.85
    5    7    1      1.58     -0.34
    6    7    1     -2.24     -1.35
    6    7    0     -1.77     -2.75
    5    7    0      2.39      0.28
    4    7    0     -0.16     -3.51
    3    7    0     -1.86     -3.37
    2    7    0    -12.17     -3.37
    1    7    0      2.79     12.50
   -4    7    1      3.99      4.65
   -5    7    2      4.33      2.63
    0    7   13      4.00      3.54
    2    7   18     -1.00     -0.52
    1    7   18     -0.78      0.06
    1    7   19     -1.19      0.34
   -3    8   19      0.67     -0.94
   -2    8   19     -0.03      0.82
   -1    8   19      2.03      0.54
    0    8   19     -0.07      0.84
   -3    8   18      1.28     -1.28
   -2    8   18      0.50      0.03
   -1    8   18      1.64     -0.22
    0    8   18     -1.34      1.61
   -4    8   17     -1.00      0.25
   -3    8   17      1.32     -1.88
   -2    8   17      0.81     -0.85
   -1    8   17      1.41     -2.21
    0    8   17      0.95     -1.48
    2    8   17     -0.97      1.16
   -4    8   16     -0.71      0.65
   -3    8   16      1.57     -1.63
   -2    8   16      0.22      0.06
   -1    8   16      4.06     -3.23
    0    8   16      4.22     -4.03
    1    8   16     -0.39     -1.64
    2    8   16      0.65     -0.53
    3    8   16     -0.01      0.66
   -5    8   15      1.67      0.59
   -4    8   15      1.90     -1.45
   -3    8   15      0.54     -1.32
   -2    8   15      1.79      0.17
   -1    8   15      4.50     -1.00
    0    8   15      2.06     -1.76
    1    8   15     -0.25     -1.70
    2    8   15      3.99     -4.04
    3    8   15      0.55     -0.02
   -5    8   14      3.61     -1.14
   -4    8   14      1.54     -1.93
   -3    8   14      0.61     -2.57
   -2    8   14      4.11     -1.86
   -1    8   14     -0.79      2.75
    0    8   14     -0.33      0.37
    1    8   14      1.11     -0.21
    2    8   14      3.90     -3.90
    3    8   14      0.50     -0.43
    4    8   14      1.67     -0.26
   -5    8   13      1.14      0.66
   -4    8   13      0.26     -0.10
   -3    8   13      2.15     -3.12
   -2    8   13      2.14     -3.60
   -1    8   13     -1.06      1.90
    0    8   13      3.95     -3.37
    1    8   13      0.67      2.14
    2    8   13      1.16     -0.68
    3    8   13      0.59      0.62
    4    8   13      1.66     -1.41
   -6    8   12     -1.49      1.56
   -5    8   12     -1.17      2.75
   -4    8   12      1.44     -0.47
   -3    8   12     -0.33     -0.23
   -2    8   12      1.66     -3.84
   -1    8   12      7.44     -3.81
    0    8   12      8.44     -8.52
    1    8   12      0.43      0.64
    2    8   12      0.91     -1.51
    3    8   12      1.91      1.85
    4    8   12      0.22      0.14
   -6    8   11     -1.30      2.21
   -5    8   11      0.92      1.47
   -4    8   11      1.44     -2.08
   -3    8   11     -1.56      1.58
   -2    8   11      6.60     -4.62
   -1    8   11      8.33     -3.30
    0    8   11      5.79     -6.78
    1    8   11      3.29     -4.84
    2    8   11      3.01     -4.83
    3    8   11      2.39      1.51
    4    8   11     -1.13      3.06
    5    8   11      0.98     -0.11
   -6    8   10      2.14      2.07
   -5    8   10      1.51      0.01
   -4    8   10      1.16     -2.58
   -3    8   10      3.38     -2.18
   -2    8   10      5.92     -4.92
   -1    8   10     -1.60      5.08
    0    8   10      1.61     -0.43
    1    8   10      5.02     -5.38
    2    8   10      1.77     -2.70
    3    8   10      2.56     -2.42
    4    8   10      0.64      2.40
    5    8   10      1.84     -0.32
   -6    8    9      3.58      2.15
   -5    8    9     -1.11      0.84
   -4    8    9      2.68     -2.34
   -3    8    9      3.10     -5.67
   -2    8    9      0.21     -2.97
    0    8    9      1.90      2.53
    1    8    9      1.94      0.08
    2    8    9     -0.75      2.30
    3    8    9      6.08     -6.44
    4    8    9      2.52      0.39
    5    8    9     -0.21     -1.49
   -6    8    8      0.84      2.36
   -5    8    8     -0.99      2.30
   -4    8    8      0.68     -1.12
   -3    8    8     -3.01     -2.74
   -2    8    8      3.47     -3.32
   -1    8    8      8.88    -11.00
    0    8    8      3.59      0.84
    1    8    8      4.77     -2.43
    2    8    8      2.63      3.02
    3    8    8      6.20     -3.87
    4    8    8      0.47      1.75
    5    8    8     -0.79     -2.51
   -6    8    7     -0.01      1.69
   -5    8    7     -0.22      1.84
   -4    8    7     -3.57      1.24
   -3    8    7     -0.03      0.08
   -1    8    7     11.52    -13.36
    0    8    7      6.64     -3.17
    1    8    7     16.64    -14.61
    2    8    7      4.70      0.67
    3    8    7     -0.80      1.27
    4    8    7     -0.52      3.63
    5    8    7      1.62     -1.35
   -6    8    6     -0.27      0.79
   -5    8    6     -0.85      0.68
   -4    8    6     -0.44      1.18
   -3    8    6      7.90     -4.75
   -2    8    6      4.24     -0.21
   -1    8    6      8.08     -3.34
    0    8    6      7.72     -3.45
    1    8    6     16.25    -15.35
    2    8    6     -0.06     -1.55
    3    8    6     -2.17     -0.45
    4    8    6      3.21      1.04
    5    8    6      1.15      2.13
    6    8    6     -1.37     -3.63
   -6    8    5     -1.94      1.53
   -5    8    5      1.91      0.79
   -4    8    5      4.78     -2.11
   -3    8    5      5.72     -8.45
   -2    8    5     -2.80      2.98
   -1    8    5      9.49     -2.12
    0    8    5     -0.48      5.41
    1    8    5      2.83     -0.26
    2    8    5      0.87     -5.05
    3    8    5      4.29     -4.90
    4    8    5      5.48     -3.21
    5    8    5     -2.71      2.87
    6    8    5     -4.53     -7.39
   -5    8    4      3.21      1.46
   -4    8    4      0.82     -0.66
   -3    8    4      0.78     -5.30
   -2    8    4     -0.75     -5.91
   -1    8    4     11.11     -8.24
    0    8    4     -2.61      8.75
    1    8    4      2.99      4.49
    2    8    4      9.14     -7.79
    3    8    4      3.49     -0.64
    4    8    4      3.22     -5.16
    5    8    4     -1.56     -0.61
    6    8    4     -1.16     -5.06
   -6    8    3      0.57      0.48
   -5    8    3     -0.45      1.69
   -4    8    3     -4.29      4.20
   -3    8    3      3.70     -4.05
   -2    8    3      0.64     -9.67
   -1    8    3     13.25     -8.92
    0    8    3     16.92     -8.87
    1    8    3     14.01     -6.98
    2    8    3     10.03     -6.04
    3    8    3     -3.98      6.14
    4    8    3      3.08     -5.03
    5    8    3      1.92     -1.09
    6    8    3      0.70     -1.57
   -6    8    2     -0.32     -0.11
   -5    8    2     -1.18     -0.20
   -4    8    2     -0.61      2.16
   -3    8    2      4.95     -4.72
   -2    8    2     -0.23     -0.56
   -1    8    2     18.60     -6.96
    0    8    2     31.82    -22.60
    1    8    2      8.32     -8.41
    2    8    2      4.39     -7.00
    3    8    2     -2.21      2.76
    4    8    2      3.41     -1.59
    5    8    2     -1.68      2.41
    6    8    2     -1.13     -1.24
   -6    8    1     -0.87      1.04
   -5    8    1      2.30     -3.11
   -4    8    1      3.12     -2.28
   -3    8    1      1.97     -3.45
   -2    8    1      7.05     -0.66
   -1    8    1     11.57     -2.70
    0    8    1     17.39     -5.80
    1    8    1     -9.34      3.26
    2    8    1      6.87    -13.77
    3    8    1      5.13     -3.96
    4    8    1     -0.23      1.84
    5    8    1     -3.61      2.22
    6    8    1     -0.24     -0.52
    6    8    0      0.27      1.08
    5    8    0      1.32     -1.99
    4    8    0      0.11     -0.36
    3    8    0      4.24     -4.25
    2    8    0     12.62    -12.02
    1    8    0     -7.58      5.25
    0    8    0      2.96     10.53
   -6    8    4     -0.94      2.02
   -2    8    7      9.48     -5.08
   -1    8    9     -1.84      3.00
    1    8   17      0.86     -1.02
    1    8   18      0.77     -0.34
    1    8   19      0.25     -0.48
   -2    9   19     -0.20      0.20
   -1    9   19     -0.15     -0.03
    0    9   19     -0.64     -0.82
   -3    9   18      0.62      0.55
   -2    9   18      0.71      0.83
   -1    9   18      1.19     -0.27
    0    9   18      1.18      1.38
   -4    9   17     -0.05     -0.69
   -3    9   17      0.15      0.36
   -2    9   17      0.27      0.60
   -1    9   17      0.39      1.08
    0    9   17      1.63      3.88
    1    9   17     -0.63     -0.46
    2    9   17      0.54      0.45
   -4    9   16      1.37      1.55
   -3    9   16     -0.18      0.10
   -2    9   16     -0.10      1.16
   -1    9   16     -2.52      0.95
    0    9   16     -0.45      1.01
    1    9   16     -1.36     -0.36
    2    9   16      1.78      2.87
    3    9   16     -0.39      0.23
   -5    9   15      1.47      1.97
   -4    9   15      2.38      1.79
   -3    9   15      0.65     -0.04
   -2    9   15      1.08      2.84
   -1    9   15     -3.91     -2.82
    0    9   15     -1.71     -2.17
    1    9   15     -2.76      0.91
    2    9   15      0.61      1.52
    3    9   15      0.08      0.10
   -5    9   14      1.09     -0.85
   -4    9   14      0.93     -0.23
   -3    9   14      0.79      1.30
   -2    9   14      2.66      1.56
   -1    9   14     -2.07     -2.29
    0    9   14     -0.36      1.50
    1    9   14     -3.56      0.51
    2    9   14     -2.40     -2.69
    3    9   14     -0.62     -0.23
   -5    9   13     -0.09     -3.93
   -4    9   13      0.72      0.89
   -3    9   13     -0.67      0.14
   -2    9   13      2.16     -0.13
   -1    9   13      0.67      5.54
    0    9   13      1.10      5.32
    1    9   13     -1.48      0.25
    2    9   13     -2.85     -3.17
    3    9   13     -1.44     -0.16
    4    9   13     -1.26     -1.84
   -5    9   12      0.83     -0.58
   -4    9   12      2.30      1.91
   -3    9   12     -0.94     -1.21
   -2    9   12      0.36      2.90
   -1    9   12      0.52      6.12
    0    9   12     -1.37      1.31
    1    9   12      2.07      2.82
    2    9   12     -1.34     -0.19
    3    9   12     -0.39     -0.37
    4    9   12     -3.36     -2.71
   -6    9   11     -0.33      2.94
   -5    9   11      2.03      2.15
   -4    9   11      2.34      1.12
   -3    9   11      2.06      3.52
   -2    9   11      0.14      2.79
    0    9   11     -6.57     -4.20
    1    9   11      1.31      3.67
    2    9   11     -3.30     -0.55
    3    9   11      2.44     -1.05
    4    9   11     -2.85     -0.97
   -6    9   10     -0.37      4.41
   -5    9   10      1.75     -0.10
   -4    9   10      1.04      2.09
   -3    9   10      4.98      5.01
   -2    9   10      0.64     -2.81
   -1    9   10      0.69     -4.75
    0    9   10     -8.56     -2.85
    1    9   10     -3.14     -0.47
    2    9   10     -7.15     -3.69
    3    9   10      3.16      0.22
    4    9   10     -0.51      1.00
    5    9   10     -0.39     -1.50
   -6    9    9      0.67      0.32
   -5    9    9      0.66     -0.04
   -4    9    9      0.11      1.49
   -3    9    9      4.06     -0.71
   -2    9    9      0.42     -0.59
   -1    9    9      8.97      8.15
    0    9    9     -5.86      1.20
    1    9    9     -2.64     -0.12
    2    9    9     -7.26     -1.42
    3    9    9     -1.04     -0.93
    4    9    9     -0.39     -1.32
    5    9    9     -0.74     -2.51
   -6    9    8      1.67     -2.02
   -5    9    8      0.78      2.64
   -4    9    8     -0.04     -1.46
   -3    9    8      1.39      0.86
   -1    9    8      8.95      9.98
    0    9    8     -2.59      3.59
    1    9    8      2.36      8.69
    2    9    8     -3.36      1.89
    3    9    8     -4.94     -7.62
    4    9    8     -1.58     -3.37
    5    9    8     -2.83     -1.06
   -6    9    7      1.54     -0.08
   -5    9    7      2.39      2.28
   -4    9    7      0.06      1.47
   -3    9    7      3.01      8.76
   -2    9    7     -0.09      0.74
   -1    9    7     -0.45      0.61
    0    9    7     -2.44      3.42
    1    9    7      0.07      6.28
    2    9    7      1.01     -1.95
    3    9    7     -3.83     -8.05
    4    9    7     -0.11     -0.29
    5    9    7     -5.18     -1.07
   -6    9    6      0.87      0.04
   -5    9    6      2.01      2.79
   -4    9    6      1.35      7.06
   -3    9    6      6.81      6.64
   -2    9    6      1.00     -6.11
   -1    9    6     -2.47     -0.48
    0    9    6     -5.25     -3.09
    1    9    6    -11.18    -10.34
    2    9    6      2.32     -2.83
    3    9    6     -2.09     -0.04
    4    9    6      2.69      2.10
    5    9    6     -4.13     -3.47
    6    9    6      4.60     -3.41
   -6    9    5      0.43      0.73
   -5    9    5      0.78      3.75
   -4    9    5      2.01      3.39
   -3    9    5      5.18     -0.49
   -2    9    5      7.69     -0.48
   -1    9    5      3.92      3.59
    0    9    5     -4.08     -4.41
    1    9    5    -15.74    -11.40
    2    9    5      0.16      3.44
    3    9    5     -5.04     -0.07
    4    9    5      2.64     -0.99
    5    9    5     -0.42     -2.51
    6    9    5     -0.01     -0.75
   -5    9    4      1.86      0.55
   -4    9    4      0.09     -2.39
   -3    9    4      2.07      1.67
   -2    9    4     10.49      5.33
   -1    9    4      4.37      3.71
    0    9    4      6.22     12.33
    1    9    4     -7.71      3.19
    2    9    4     -2.70      2.69
    3    9    4     -7.90     -8.03
    4    9    4     -0.23     -3.25
    5    9    4     -0.46      0.93
    6    9    4     -5.56      1.17
   -6    9    3      2.10      2.10
   -5    9    3      3.50     -0.18
   -4    9    3      1.05      1.93
   -3    9    3      1.97      4.98
   -2    9    3      3.48      2.80
   -1    9    3     -0.45      3.36
    0    9    3     11.97     22.01
    1    9    3     -3.18      0.78
    2    9    3     -2.50     -4.47
    3    9    3     -3.65     -5.69
    4    9    3     -4.13     -2.74
    5    9    3     -3.05     -2.19
    6    9    3     -3.82     -1.71
   -6    9    2      0.81      0.77
   -5    9    2      3.89      3.58
   -4    9    2      4.67      7.18
   -3    9    2      1.36      1.90
   -2    9    2      2.42      5.86
   -1    9    2     -2.19     -2.69
    0    9    2      0.39      1.45
    1    9    2     -8.31    -14.97
    2    9    2     -1.09     -3.18
    3    9    2      2.15      3.35
    4    9    2     -5.98     -5.03
    5    9    2     -2.04     -5.29
    6    9    2     -2.15     -1.92
   -6    9    1      0.50      1.56
   -5    9    1      2.35      3.11
   -4    9    1      4.15      3.27
   -2    9    1     11.41     11.68
   -1    9    1     -0.53    -15.03
    0    9    1     -9.68    -16.31
    1    9    1    -10.04    -10.34
    2    9    1     -5.85      1.23
    3    9    1      2.04      1.48
    4    9    1     -3.77     -4.56
    5    9    1      0.61     -0.05
    6    9    1     -3.26     -0.73
    6    9    0     -2.41     -1.84
    5    9    0      0.27      1.72
    4    9    0     -2.04     -0.47
    3    9    0     -0.30     -4.44
    2    9    0    -13.61     -5.43
    1    9    0     -4.44     10.85
   -3    9    1      0.70      2.46
   -6    9    4      1.43      2.79
   -2    9    8      0.42      5.73
   -1    9   11     -2.09     -4.40
    1    9   18     -0.56      0.14
   -2   10   19     -0.28      0.62
   -1   10   19      0.99      0.46
   -3   10   18      0.88     -1.05
   -2   10   18      0.23      0.11
   -1   10   18      0.86     -0.65
   -4   10   17     -0.24      0.10
   -3   10   17      0.61     -1.78
   -2   10   17      0.88     -0.74
   -1   10   17      1.78     -2.83
    0   10   17      1.83     -1.69
    1   10   17      0.47     -1.16
    2   10   17     -1.27      0.13
   -4   10   16     -0.80      0.63
   -3   10   16      0.69     -1.31
   -2   10   16      0.38     -0.60
   -1   10   16      4.14     -2.25
    0   10   16      4.86     -1.84
    1   10   16     -0.21     -1.91
    2   10   16      0.38     -1.10
   -5   10   15      2.32      1.24
   -4   10   15      1.65     -0.52
   -3   10   15      0.35     -1.44
   -2   10   15      1.18      0.04
   -1   10   15      3.23      0.38
    0   10   15      1.64     -1.77
    1   10   15      0.37     -1.64
    2   10   15      4.34     -2.76
    3   10   15      0.38      0.43
   -5   10   14      5.77      1.30
   -4   10   14      1.78     -1.71
   -3   10   14      0.91     -2.54
   -2   10   14      3.23     -1.06
   -1   10   14     -2.08      0.88
    0   10   14     -1.45     -2.31
    1   10   14      1.22      0.42
    2   10   14      4.17     -3.02
    3   10   14      1.00     -0.12
   -5   10   13      2.14      1.28
   -4   10   13      0.34     -0.87
   -3   10   13      2.42     -2.47
   -2   10   13      1.91     -4.29
   -1   10   13     -1.43     -0.16
    0   10   13      2.74     -3.50
    1   10   13     -0.16      1.90
    2   10   13      0.30     -2.09
    3   10   13      1.41      0.60
    4   10   13      1.14     -0.64
   -5   10   12     -1.76      1.76
   -4   10   12      1.62     -0.92
   -3   10   12     -0.55     -1.10
   -2   10   12      0.90     -5.23
    0   10   12      7.96     -5.61
    1   10   12      0.34     -0.29
    2   10   12      0.09     -2.72
    3   10   12      1.68      2.02
    4   10   12     -0.37     -0.03
   -6   10   11     -1.40      1.34
   -5   10   11      0.95      2.05
   -4   10   11      1.71     -2.58
   -3   10   11     -2.23     -0.21
   -2   10   11      4.67     -3.22
   -1   10   11      8.42      1.06
    0   10   11      5.70     -6.18
    1   10   11      5.11     -4.09
    2   10   11      3.65     -3.99
    3   10   11      1.29      0.86
    4   10   11     -1.56      2.17
   -6   10   10      2.79      3.34
   -5   10   10      2.25      1.54
   -4   10   10      1.23     -3.18
   -3   10   10      3.49     -1.14
   -2   10   10      3.59     -3.66
   -1   10   10     -3.65      1.49
    0   10   10      0.50     -3.18
    1   10   10      5.88     -4.28
    2   10   10      2.78     -2.73
    3   10   10      2.35     -3.41
    4   10   10      1.00      2.85
    5   10   10      1.21     -0.54
   -6   10    9      5.53      4.90
   -5   10    9     -0.87      0.81
   -4   10    9      2.79     -1.89
   -3   10    9      4.23     -4.18
   -2   10    9     -1.86     -6.09
   -1   10    9     -4.05     -1.82
    0   10    9     -0.41      0.19
    1   10    9     -0.70     -2.94
    2   10    9     -0.88      1.07
    3   10    9      6.55     -5.11
    4   10    9      3.69      1.56
    5   10    9      0.17     -1.78
   -6   10    8      1.63      3.01
   -5   10    8     -0.83      1.80
   -4   10    8      0.66     -1.24
   -2   10    8      2.40     -4.98
   -1   10    8      8.92     -8.26
    0   10    8      2.26      0.27
    1   10    8      1.38     -5.51
    2   10    8      1.90      4.93
    3   10    8      5.34     -2.91
    4   10    8      1.28      1.08
    5   10    8     -0.51     -2.42
   -6   10    7     -0.65      1.22
   -5   10    7      0.77      1.72
   -4   10    7     -3.91     -1.45
   -3   10    7     -0.55     -2.61
   -2   10    7      8.86     -1.50
   -1   10    7     11.15    -10.01
    0   10    7      7.66     -0.72
    1   10    7     15.99    -10.41
    2   10    7      5.06      3.57
    3   10    7     -2.63     -2.22
    4   10    7     -1.13      1.89
    5   10    7      0.32     -0.24
   -6   10    6     -0.15      1.16
   -5   10    6     -0.06     -0.18
   -4   10    6     -0.64      0.19
   -3   10    6      7.00     -1.90
   -2   10    6      2.67      0.62
   -1   10    6      3.80     -5.30
    0   10    6      8.55      0.34
    1   10    6     16.11    -11.66
    2   10    6      1.64     -3.29
    3   10    6     -2.50     -3.46
    4   10    6      1.89      1.10
    5   10    6     -0.26      3.04
   -6   10    5     -1.41      1.47
   -5   10    5      1.22      1.03
   -4   10    5      5.21      0.87
   -3   10    5      5.37     -6.08
   -2   10    5     -3.76     -1.06
   -1   10    5      3.52     -4.59
    0   10    5     -3.14      2.49
    1   10    5     -0.93     -6.15
    2   10    5      2.29     -7.29
    3   10    5      5.72     -2.37
    4   10    5      5.03     -1.99
    5   10    5     -2.17      2.00
    6   10    5     -2.35     -9.59
   -5   10    4      1.88      2.63
   -4   10    4      1.08      0.13
   -3   10    4      0.32     -7.48
   -2   10    4      1.67     -6.77
   -1   10    4      7.68     -9.12
    0   10    4     -7.26      1.25
    1   10    4     -1.26      0.12
    2   10    4      8.54     -5.84
    3   10    4      4.03      1.52
    4   10    4      3.59     -4.87
    5   10    4      0.13     -0.81
    6   10    4     -0.13     -5.38
   -6   10    3      1.24      0.70
   -4   10    3     -4.70      1.36
   -3   10    3      2.71     -5.89
   -2   10    3      3.67     -7.91
   -1   10    3     11.60     -8.72
    0   10    3     14.28     -5.89
    1   10    3     14.28     -0.15
    2   10    3      7.46     -6.18
    3   10    3     -4.85      3.75
    4   10    3      2.87     -4.33
    5   10    3      3.01      0.44
    6   10    3      0.23     -0.61
   -6   10    2      0.70      0.01
   -5   10    2     -1.34     -1.08
   -3   10    2      3.88     -5.07
   -2   10    2     -1.67     -2.09
   -1   10    2     15.87     -2.65
    0   10    2     29.63    -10.88
    1   10    2     10.92     -3.93
    2   10    2      3.07    -11.43
    3   10    2     -1.98      1.98
    4   10    2      1.88     -1.11
    5   10    2     -1.74      1.52
    6   10    2     -1.47     -1.82
   -6   10    1     -0.64      1.33
   -5   10    1      2.73     -1.71
   -4   10    1      4.13     -0.21
   -3   10    1      1.35     -4.61
   -2   10    1      2.93     -0.82
   -1   10    1      8.64      1.26
    0   10    1     10.87     -7.34
    1   10    1     -8.07     -4.39
    2   10    1      7.75    -13.84
    3   10    1      6.59     -1.30
    4   10    1     -2.06      0.14
    5   10    1     -4.12     -0.31
    6   10    1     -0.38     -1.06
    6   10    0      0.03      1.57
    5   10    0      1.43     -1.64
    4   10    0     -0.18     -0.76
    3   10    0      4.86     -3.58
    2   10    0     11.38     -7.95
    1   10    0     -8.55     -0.75
    0   10    0     -6.59     -3.66
   -4   10    2     -0.34      1.69
   -5   10    3     -1.33      0.89
   -6   10    4     -0.83      1.73
   -3   10    8     -2.24     -5.69
   -1   10   12      7.99     -0.09
    1   10   18      0.35     -0.63
    0   10   18     -1.64     -0.07
    0   10   19     -0.78      0.80
   -2   11   19     -0.15      0.11
   -1   11   19      0.03     -0.14
   -2   11   18      0.56      1.01
   -1   11   18      1.00      0.55
   -3   11   17      0.28      0.11
   -2   11   17      0.62      0.71
   -1   11   17     -0.43      1.28
    1   11   17     -0.49      0.05
    2   11   17      0.57      0.50
   -3   11   16     -0.15      0.49
   -2   11   16      0.17      0.54
   -1   11   16     -2.89     -0.12
    0   11   16     -0.31      0.43
    1   11   16     -1.31      0.43
    2   11   16      0.46      2.94
   -4   11   15      2.17      1.45
   -3   11   15      0.54      0.71
   -2   11   15      0.75      1.84
   -1   11   15     -2.13     -2.79
    0   11   15      0.48     -2.17
    1   11   15     -3.15      1.17
    2   11   15     -0.24      1.81
    3   11   15     -0.23      0.46
   -5   11   14      0.94     -0.81
   -4   11   14      1.81     -0.20
   -3   11   14      0.36      1.46
   -2   11   14      3.17      1.59
   -1   11   14     -0.53     -0.95
    0   11   14     -0.49      1.34
    1   11   14     -3.44      0.25
    2   11   14     -1.10     -2.39
    3   11   14     -0.40      0.42
   -5   11   13      1.96     -4.82
   -4   11   13      1.06      0.53
   -3   11   13     -0.10     -0.11
   -2   11   13      3.52     -0.14
   -1   11   13     -1.97      5.86
    0   11   13     -1.58      5.29
    1   11   13     -0.90      0.67
    2   11   13     -1.74     -2.75
    3   11   13     -0.89     -0.43
    4   11   13     -0.73     -1.36
   -5   11   12      1.00     -1.29
   -4   11   12      2.05      1.57
   -3   11   12      0.37     -1.82
   -2   11   12     -0.03      1.42
   -1   11   12     -2.34      5.58
    0   11   12     -1.83      2.55
    1   11   12      1.18      4.20
    2   11   12     -2.55      0.83
    3   11   12      0.27     -1.15
    4   11   12     -2.41     -1.69
   -5   11   11      0.69      2.06
   -4   11   11      2.35      0.59
   -3   11   11      1.03      2.69
   -2   11   11     -0.61      1.71
   -1   11   11      1.74     -4.27
    0   11   11     -3.88     -2.61
    1   11   11      0.09      3.83
    2   11   11     -4.15      0.70
    3   11   11      2.74     -0.61
    4   11   11     -3.10      0.26
   -6   11   10     -2.62      4.37
   -5   11   10      2.03     -0.27
   -4   11   10      0.58      1.14
   -3   11   10      3.27      4.73
   -2   11   10      3.08     -1.73
   -1   11   10      5.39     -4.04
    0   11   10     -6.89     -2.42
    1   11   10     -1.03     -2.37
    2   11   10     -6.05     -3.08
    3   11   10      1.93      1.06
    4   11   10     -1.67      2.05
    5   11   10     -0.47     -1.00
   -6   11    9      0.67      0.17
   -5   11    9      1.86     -0.40
   -4   11    9     -0.07      0.46
   -2   11    9      1.92      1.16
   -1   11    9      5.69      8.39
    0   11    9     -6.72      1.78
    1   11    9     -0.26     -1.82
    2   11    9     -7.79     -1.82
    3   11    9     -1.70     -1.19
    4   11    9      0.01     -0.59
    5   11    9     -0.85     -1.86
   -6   11    8      3.51     -2.78
   -5   11    8      0.87      2.60
   -4   11    8      1.55     -2.16
   -3   11    8      3.44     -0.54
   -2   11    8     -2.69      6.15
   -1   11    8      4.82      9.51
    0   11    8     -5.04      5.53
    1   11    8     -1.47      8.41
    2   11    8     -5.34      2.13
    3   11    8     -2.24     -7.31
    4   11    8      0.01     -3.54
    5   11    8     -3.02     -1.73
   -6   11    7      1.85     -0.33
   -5   11    7      2.33      2.13
   -4   11    7      0.64      0.68
   -3   11    7      0.44      5.74
   -2   11    7     -0.73      0.74
   -1   11    7      2.42     -0.70
    0   11    7     -4.59      4.61
    1   11    7     -3.85      7.09
    2   11    7      2.33      0.50
    3   11    7     -2.02     -6.14
    4   11    7     -0.33     -1.43
    5   11    7     -5.22     -1.65
   -6   11    6      0.66      0.36
   -5   11    6      1.75      1.23
   -4   11    6     -1.23      5.76
   -3   11    6      4.81      4.83
   -2   11    6      5.43     -4.50
   -1   11    6      1.09     -1.87
    0   11    6     -2.14     -3.67
    1   11    6     -6.15     -9.42
    2   11    6      4.64     -1.04
    3   11    6     -5.41      1.49
    4   11    6      0.75      1.58
    5   11    6     -3.66     -1.68
   -6   11    5      0.71      0.50
   -5   11    5     -0.14      1.82
   -4   11    5      1.21      2.34
   -3   11    5      8.08     -0.46
   -2   11    5      8.62      2.34
   -1   11    5      3.11      4.54
    0   11    5      1.63     -5.39
    1   11    5    -11.24    -11.08
    2   11    5     -1.31      1.68
    3   11    5     -7.79      0.33
    4   11    5      1.79     -0.09
    5   11    5     -0.64     -0.04
   -6   11    4      0.97      2.47
   -5   11    4      2.39      0.29
   -4   11    4      2.94     -3.07
   -3   11    4      4.48      1.09
   -2   11    4      7.15      6.49
   -1   11    4      1.96      6.44
    0   11    4      2.85     11.17
    1   11    4    -13.76      4.37
    2   11    4     -3.39      0.22
    3   11    4     -5.53     -7.44
    4   11    4     -0.34     -2.69
    5   11    4     -1.82      1.30
    6   11    4     -5.75     -0.48
   -6   11    3      1.58      2.06
   -4   11    3      1.69      1.14
   -3   11    3      1.49      3.53
   -2   11    3      3.57      0.40
   -1   11    3     -3.26      4.29
    0   11    3      2.54     19.91
    1   11    3     -7.56      3.83
    2   11    3      0.42     -3.74
    3   11    3     -2.48     -4.51
    4   11    3     -4.23     -3.15
    5   11    3     -2.39     -2.51
    6   11    3     -2.90     -2.15
   -6   11    2      0.93      0.08
   -5   11    2      2.99      3.35
   -3   11    2      1.57      1.27
   -2   11    2      3.60      1.75
   -1   11    2     -3.21     -2.80
    0   11    2      3.08     -0.39
    1   11    2     -1.06    -11.94
    2   11    2     -1.50     -1.24
    3   11    2     -0.71      4.48
    4   11    2     -4.59     -4.48
    5   11    2      0.13     -4.78
    6   11    2     -1.41     -1.28
   -6   11    1      0.63      0.61
   -5   11    1      1.86      2.81
   -4   11    1      4.40      1.84
   -3   11    1      0.63      2.58
   -2   11    1      8.55      9.90
   -1   11    1      4.69    -12.00
    0   11    1      3.07    -16.55
    1   11    1     -4.26    -10.99
    2   11    1     -9.70      0.38
    3   11    1      1.25      2.31
    4   11    1     -3.37     -2.57
    5   11    1     -0.17      0.28
    6   11    1     -3.63     -0.65
    6   11    0     -2.70     -1.62
    5   11    0     -1.77      1.71
    4   11    0     -4.30      1.58
    3   11    0      1.49     -4.15
    2   11    0    -12.86     -7.02
    1   11    0     -9.31      6.36
   -4   11    2      2.34      6.19
   -5   11    3      4.54      0.24
   -3   11    9      5.98     -0.65
   -4   11   16      0.99      0.33
    0   11   17     -0.15      3.92
    1   11   18     -0.32      0.31
    0   11   18      1.03      2.49
   -3   11   18      0.94      0.26
    0   11   19      0.53     -0.33
   -2   12   18      0.22      0.14
   -1   12   18      0.64     -0.98
   -3   12   17     -0.05     -1.67
   -2   12   17      1.28     -0.47
   -1   12   17      2.34     -2.16
    1   12   17      0.22     -0.95
   -4   12   16     -0.94      0.37
   -3   12   16     -0.10     -1.35
   -2   12   16      0.84     -0.66
   -1   12   16      3.42     -0.72
    0   12   16      4.20     -0.09
    1   12   16     -0.06     -1.97
    2   12   16      0.33     -1.26
   -4   12   15      0.62      0.05
   -3   12   15      0.25     -1.36
   -2   12   15      0.44      0.31
   -1   12   15      1.44      0.83
    0   12   15      1.30     -1.92
    1   12   15      0.77     -1.59
    2   12   15      3.58     -1.31
    3   12   15      0.19      0.53
   -5   12   14      5.46      3.48
   -4   12   14      1.53     -1.35
   -3   12   14      1.18     -1.71
   -2   12   14      2.07     -0.18
   -1   12   14     -1.87     -1.15
    0   12   14     -1.28     -4.14
    1   12   14      0.91      0.77
    2   12   14      3.39     -1.84
    3   12   14      1.21      0.46
   -5   12   13      2.36      1.53
   -4   12   13      0.50     -1.43
   -3   12   13      2.67     -1.23
   -2   12   13      2.26     -4.22
   -1   12   13     -0.21     -1.78
    0   12   13      1.36     -3.48
    1   12   13     -0.91      1.29
    2   12   13      0.00     -3.09
    3   12   13      1.92      0.87
   -5   12   12     -1.48      0.19
   -4   12   12      1.58     -1.10
   -3   12   12      0.21     -1.73
   -2   12   12      0.85     -5.90
   -1   12   12      6.71      2.75
    0   12   12      5.72     -3.14
    1   12   12      0.63     -1.05
    2   12   12     -0.02     -3.58
    3   12   12      1.20      1.31
    4   12   12     -0.61     -0.66
   -5   12   11      0.77      2.11
   -4   12   11      2.00     -2.72
   -3   12   11     -1.94     -1.74
   -1   12   11      6.02      4.21
    0   12   11      5.14     -4.84
    1   12   11      6.15     -2.29
    2   12   11      3.56     -2.79
    3   12   11      0.47     -0.60
    4   12   11     -1.23      0.98
   -5   12   10      2.06      2.77
   -4   12   10      1.51     -3.34
   -3   12   10      2.56      0.05
   -2   12   10      0.69     -3.06
   -1   12   10     -3.56     -1.78
    0   12   10      0.81     -4.46
    1   12   10      5.73     -2.37
    2   12   10      3.43     -2.40
    3   12   10      2.48     -3.75
    4   12   10      1.21      2.97
   -6   12    9      4.94      6.79
   -5   12    9     -0.79      0.71
   -4   12    9      2.37     -1.15
   -3   12    9      4.42     -2.60
   -2   12    9     -1.74     -8.56
   -1   12    9     -3.23     -5.65
    0   12    9     -1.41     -1.80
    1   12    9     -1.52     -5.93
    2   12    9     -0.23     -0.56
    3   12    9      5.84     -3.25
    4   12    9      3.89      2.85
    5   12    9      0.48     -1.31
   -6   12    8      1.59      3.17
   -5   12    8     -0.63      0.86
   -4   12    8      0.44     -1.23
   -3   12    8      0.03     -7.64
   -2   12    8      2.58     -5.68
   -1   12    8      7.21     -5.10
    0   12    8      1.26     -0.56
    1   12    8     -0.08     -8.87
    2   12    8      0.32      4.99
    3   12    8      3.56     -2.28
    4   12    8      2.33      0.93
    5   12    8     -0.01     -2.04
   -6   12    7     -0.42      0.15
   -5   12    7      1.65      1.28
   -4   12    7     -2.94     -3.61
   -3   12    7     -0.26     -4.40
   -2   12    7      6.18      1.77
   -1   12    7      8.29     -6.27
    0   12    7      7.10      1.76
    1   12    7     12.41     -6.39
    2   12    7      3.77      5.14
    3   12    7     -2.38     -5.25
    4   12    7     -0.40      0.07
    5   12    7     -0.85     -0.38
   -6   12    6      0.36      0.87
   -5   12    6      1.02     -0.60
   -4   12    6     -0.22     -0.80
   -3   12    6      3.90      0.24
   -2   12    6      0.41      0.73
   -1   12    6      0.77     -7.40
    0   12    6      7.13      3.78
    1   12    6     13.30     -7.33
    2   12    6      4.35     -3.91
    3   12    6     -0.90     -5.33
    4   12    6      0.71      0.37
    5   12    6     -1.78      2.25
   -5   12    5      0.34      1.15
   -4   12    5      4.22      2.87
   -3   12    5      3.60     -4.36
   -2   12    5     -2.41     -5.08
   -1   12    5     -0.03     -7.99
    0   12    5     -3.70     -0.80
    1   12    5     -1.04    -11.05
    2   12    5      4.87     -7.91
    3   12    5      5.40      0.41
    4   12    5      3.60     -1.12
    5   12    5     -1.25      1.37
   -6   12    4     -0.58      1.00
   -5   12    4      0.19      3.15
   -4   12    4      0.82      0.41
   -3   12    4      1.20     -8.95
   -2   12    4      4.71     -7.01
   -1   12    4      5.49     -9.55
    0   12    4     -7.12     -5.55
    1   12    4     -2.96     -4.28
    2   12    4      6.12     -3.78
    3   12    4      3.10      3.26
    4   12    4      3.50     -4.03
    5   12    4      1.59      0.30
    6   12    4      0.75     -3.59
   -6   12    3      1.34      1.06
   -5   12    3     -1.27      0.06
   -4   12    3     -3.82     -1.21
   -3   12    3      2.62     -6.73
   -2   12    3      5.52     -5.23
   -1   12    3     10.12     -6.57
    0   12    3     10.40     -2.44
    1   12    3      9.98      5.68
    2   12    3      4.26     -6.03
    3   12    3     -4.22      1.32
    4   12    3      1.95     -3.26
    5   12    3      2.65      2.16
    6   12    3     -0.56     -0.34
   -6   12    2      0.92      0.51
   -5   12    2     -0.84     -2.05
   -4   12    2      0.03      1.51
   -3   12    2      2.60     -4.87
   -2   12    2     -2.27     -3.08
   -1   12    2     11.34      1.66
    0   12    2     21.87     -0.41
    1   12    2     10.38      1.01
    2   12    2      3.69    -13.59
    3   12    2     -1.57      1.23
    4   12    2     -0.07     -0.84
    5   12    2     -1.35      0.62
    6   12    2     -1.08     -2.28
   -6   12    1     -0.90      1.16
   -5   12    1      2.27     -0.76
   -4   12    1      4.04      2.08
   -3   12    1      1.29     -5.58
   -2   12    1     -0.61     -1.89
   -1   12    1      3.73      3.44
    0   12    1      6.32     -8.61
    1   12    1     -3.39     -9.23
    2   12    1      8.02    -12.25
    3   12    1      6.22      0.96
    4   12    1     -2.53     -1.62
    5   12    1     -2.53     -2.13
    6   12    1      0.21     -1.22
    6   12    0     -0.29      1.44
    5   12    0      1.70     -1.04
    4   12    0      0.20     -0.96
    3   12    0      5.22     -3.18
    2   12    0      7.84     -4.76
    1   12    0     -7.05     -5.76
    0   12    0     -7.45    -15.29
   -6   12    5     -0.65      0.88
   -2   12   11      1.81     -2.28
    0   12   17      2.50     -1.08
    1   12   18      0.31     -0.53
    0   12   18     -1.00     -1.13
   -2   13   18      0.16      1.14
   -3   13   17      0.35     -0.01
   -2   13   17      0.63      0.68
   -1   13   17     -1.00      0.90
    1   13   17     -0.18      0.24
   -4   13   16      0.75     -0.56
   -3   13   16     -0.33      0.62
   -2   13   16      0.36     -0.30
   -1   13   16     -1.84     -0.85
    0   13   16      0.32      0.25
    1   13   16     -0.85      0.82
    2   13   16     -0.38      2.05
   -4   13   15      1.49      1.15
   -3   13   15     -0.31      1.04
   -2   13   15      0.71      0.77
   -1   13   15     -0.13     -1.59
    0   13   15      1.81     -1.39
    1   13   15     -2.86      0.92
    2   13   15     -0.68      1.19
   -4   13   14      1.81      0.26
   -3   13   14     -0.60      1.52
   -2   13   14      3.30      2.09
   -1   13   14      0.26      0.81
    0   13   14     -0.48      0.64
    1   13   14     -2.85     -0.18
    2   13   14      0.11     -1.68
    3   13   14     -0.42      0.68
   -5   13   13      3.14     -3.54
   -4   13   13      0.87      0.24
   -3   13   13      0.26      0.38
   -2   13   13      4.38      0.54
   -1   13   13     -3.48      4.51
    0   13   13     -3.05      3.70
    1   13   13     -0.47      1.11
    2   13   13     -0.66     -1.58
    3   13   13      0.01     -0.38
   -5   13   12      0.75     -1.32
   -4   13   12      1.48      1.09
   -3   13   12      1.51     -1.59
   -2   13   12      0.58     -0.40
   -1   13   12     -3.58      3.13
    0   13   12     -2.35      3.11
    1   13   12     -0.12      4.64
    2   13   12     -3.26      1.29
    3   13   12      1.28     -1.21
    4   13   12     -1.70     -0.61
   -5   13   11     -0.68      1.26
   -4   13   11      2.05      0.22
   -3   13   11      0.16      1.16
   -2   13   11     -0.32      0.16
   -1   13   11      4.32     -2.96
    0   13   11     -2.16     -0.47
    1   13   11     -0.96      2.96
    2   13   11     -4.26      1.35
    3   13   11      2.19     -0.01
    4   13   11     -3.28      0.75
   -5   13   10      1.80     -0.38
   -4   13   10      0.02      0.06
   -3   13   10      1.60      3.77
   -2   13   10      4.38      0.54
   -1   13   10      7.93     -1.63
    0   13   10     -4.75     -1.73
    1   13   10      1.57     -2.91
    2   13   10     -4.19     -1.81
    3   13   10      0.12      1.13
    4   13   10     -2.69      2.15
   -5   13    9      2.53     -0.28
   -4   13    9     -0.17     -0.40
   -3   13    9      6.75      0.68
   -2   13    9      2.17      3.26
   -1   13    9      2.91      6.56
    0   13    9     -6.07      1.72
    1   13    9      2.49     -1.74
    2   13    9     -6.74     -2.19
    3   13    9     -1.89     -1.58
    4   13    9     -0.05      0.45
    5   13    9     -0.43     -0.86
   -6   13    8      4.19     -1.58
   -5   13    8      0.75      2.48
   -4   13    8      2.64     -1.64
   -3   13    8      4.68     -1.30
   -2   13    8     -4.56      4.41
   -1   13    8      1.80      6.55
    0   13    8     -6.33      5.85
    1   13    8     -4.11      6.08
    2   13    8     -6.23      1.35
    3   13    8     -0.19     -5.30
    4   13    8      1.30     -2.31
    5   13    8     -1.92     -1.56
   -6   13    7      1.64      0.16
   -5   13    7      1.51      2.00
   -4   13    7      0.99      0.47
   -3   13    7     -0.77      1.04
   -2   13    7     -0.52      0.19
   -1   13    7      4.90     -0.72
    0   13    7     -5.77      4.18
    1   13    7     -7.00      5.43
    2   13    7      1.92      3.22
    3   13    7     -1.36     -3.25
    4   13    7      0.23     -2.15
    5   13    7     -3.79     -2.03
   -6   13    6      0.26      0.33
   -5   13    6      1.19     -0.14
   -4   13    6     -2.74      3.47
   -3   13    6      3.47      2.37
   -2   13    6      8.00     -0.56
   -1   13    6      4.18     -1.14
    0   13    6      0.85     -2.81
    1   13    6     -2.07     -5.89
    2   13    6      4.95      1.58
    3   13    6     -7.70      1.22
    4   13    6     -0.37      0.14
    5   13    6     -3.45     -0.65
   -5   13    5     -0.41     -0.27
   -4   13    5      0.75      1.19
   -3   13    5      9.02      1.37
   -2   13    5      7.65      5.42
   -1   13    5      1.57      4.86
    0   13    5      6.32     -3.48
    1   13    5     -6.40     -8.58
    2   13    5     -1.77     -1.05
    3   13    5     -8.71     -0.62
    4   13    5      0.61      0.33
    5   13    5     -2.14      1.30
   -6   13    4      0.03      1.34
   -4   13    4      4.65     -2.20
   -3   13    4      5.30      1.47
   -2   13    4      3.53      5.25
   -1   13    4     -1.56      6.56
    0   13    4      0.39      8.01
    1   13    4    -16.99      1.56
    2   13    4     -2.81     -2.76
    3   13    4     -2.99     -5.30
    4   13    4     -0.72     -2.09
    5   13    4     -2.81      0.79
   -6   13    3      0.52      1.26
   -5   13    3      4.84      1.24
   -4   13    3      1.63      0.66
   -3   13    3      1.15      1.46
   -2   13    3      3.79     -2.62
   -1   13    3     -5.29      2.59
    0   13    3     -4.12     13.33
    1   13    3    -11.07      4.15
    2   13    3      2.09     -1.54
    3   13    3     -1.39     -2.54
    4   13    3     -3.83     -3.50
    5   13    3     -1.19     -2.15
    6   13    3     -0.99     -1.60
   -6   13    2      0.91     -0.31
   -5   13    2      2.16      2.65
   -4   13    2      0.04      4.21
   -3   13    2      2.00      0.70
   -2   13    2      5.35     -1.82
   -1   13    2     -2.62     -3.59
    0   13    2      5.68     -0.14
    1   13    2      3.19     -5.08
    2   13    2     -2.23      0.69
    3   13    2     -2.74      4.24
    4   13    2     -3.38     -2.99
    5   13    2      1.37     -2.70
    6   13    2     -0.87     -0.41
   -6   13    1      0.62      0.26
   -5   13    1      0.82      2.23
   -4   13    1      4.24      1.03
   -3   13    1      0.74      2.71
   -2   13    1      6.36      6.65
   -1   13    1      7.91     -6.55
    0   13    1     12.52    -10.28
    1   13    1      0.53     -8.44
    2   13    1    -10.78     -1.64
    3   13    1      0.54      3.13
    4   13    1     -3.48     -0.24
    5   13    1     -0.90      0.40
    6   13    1     -2.93     -0.87
    6   13    0     -1.88     -1.72
    5   13    0     -2.38      0.61
    4   13    0     -6.16      2.15
    3   13    0      2.55     -2.64
    2   13    0    -10.33     -7.47
    1   13    0    -10.60     -0.06
   -5   13    4      2.60      0.37
   -6   13    5      0.59     -0.01
    0   13   17     -0.99      3.01
    0   13   18      0.29      2.85
   -1   13   18      0.30      0.98
   -3   14   17     -0.34     -1.28
   -2   14   17      1.49     -0.06
    1   14   17     -0.11     -0.51
   -3   14   16     -0.43     -1.49
   -2   14   16      0.99     -0.40
    0   14   16      2.92      0.75
    1   14   16      0.04     -1.63
    2   14   16      0.42     -1.06
   -3   14   15      0.02     -1.43
   -2   14   15     -0.58      0.31
   -1   14   15      0.25      0.33
    0   14   15      1.45     -1.81
    1   14   15      0.94     -1.43
    2   14   15      2.19     -0.27
   -4   14   14      1.35     -0.94
   -3   14   14      0.65     -0.86
   -2   14   14      0.71      0.29
   -1   14   14     -0.48     -2.28
    0   14   14     -0.39     -4.60
    1   14   14      0.30      0.50
    2   14   14      1.75     -1.05
    3   14   14      0.88      0.72
   -5   14   13      1.90      1.12
   -4   14   13      0.75     -1.37
   -3   14   13      2.12      0.13
   -2   14   13      2.88     -3.03
   -1   14   13      1.53     -2.02
    0   14   13      0.11     -3.47
    1   14   13     -1.34      0.14
    2   14   13     -0.17     -3.61
    3   14   13      1.63      1.08
   -5   14   12     -0.42     -0.71
   -4   14   12      1.10     -0.91
   -3   14   12      1.31     -1.63
   -2   14   12      1.55     -5.23
   -1   14   12      4.49      3.92
    0   14   12      2.87     -1.70
    1   14   12      1.15     -1.56
    2   14   12      0.18     -3.65
    3   14   12      0.90      0.30
   -5   14   11      0.59      1.94
   -4   14   11      1.79     -2.54
   -3   14   11     -0.88     -2.64
   -2   14   11     -0.90     -2.36
   -1   14   11      2.59      4.86
    0   14   11      4.02     -3.18
    1   14   11      5.61     -0.34
    2   14   11      2.72     -1.42
    3   14   11      0.57     -2.11
    4   14   11     -0.55      0.03
   -5   14   10      1.24      3.11
   -4   14   10      1.27     -3.17
   -3   14   10      1.05      0.61
   -2   14   10     -1.85     -3.46
   -1   14   10     -2.40     -3.82
    0   14   10      1.17     -4.44
    1   14   10      3.92     -0.84
    2   14   10      3.60     -1.80
    3   14   10      2.59     -3.49
    4   14   10      0.70      2.45
   -5   14    9     -0.73      0.44
   -4   14    9      0.94     -0.67
   -3   14    9      4.11     -1.04
   -2   14    9     -0.15     -8.93
   -1   14    9     -1.21     -7.28
    0   14    9     -1.72     -3.26
    1   14    9     -0.91     -8.03
    2   14    9      1.07     -1.95
    3   14    9      4.09     -1.77
    4   14    9      2.85      3.29
   -5   14    8     -0.32     -0.18
   -4   14    8     -0.13     -1.28
   -3   14    8      3.29     -7.27
   -2   14    8      2.97     -5.02
   -1   14    8      4.29     -2.80
    0   14    8      0.86     -1.32
    1   14    8      0.59    -11.02
    2   14    8     -0.91      3.23
    3   14    8      1.70     -2.28
    4   14    8      2.94      1.25
    5   14    8      0.69     -1.17
   -6   14    7      0.46     -0.44
   -5   14    7      2.05      0.74
   -4   14    7     -1.20     -4.48
   -3   14    7      0.45     -5.12
   -2   14    7      2.15      2.66
   -1   14    7      4.14     -3.76
    0   14    7      5.40      3.33
    1   14    7      7.32     -3.74
    2   14    7      1.93      4.78
    3   14    7     -0.86     -6.57
    4   14    7      1.08     -0.79
    5   14    7     -0.47     -0.74
   -5   14    6      1.79     -0.24
   -4   14    6      0.31     -1.29
   -3   14    6     -0.31      0.18
   -2   14    6     -1.21     -0.52
   -1   14    6     -0.88     -9.00
    0   14    6      3.89      5.73
    1   14    6      8.53     -3.60
    2   14    6      6.72     -2.97
    3   14    6      1.05     -5.25
    4   14    6      0.19     -0.77
    5   14    6     -1.80      0.48
   -6   14    5      0.17      0.26
   -5   14    5     -0.48      1.13
   -4   14    5      2.21      3.36
   -3   14    5      1.41     -3.54
   -2   14    5      1.35     -6.75
   -1   14    5     -1.11    -10.35
    0   14    5     -2.87     -2.74
    1   14    5      1.31    -12.84
    2   14    5      7.13     -6.46
    3   14    5      3.50      2.24
    4   14    5      2.02     -1.15
    5   14    5     -0.51      0.85
   -6   14    4     -0.21      0.24
   -4   14    4      0.72      0.06
   -3   14    4      2.76     -8.33
   -2   14    4      7.82     -4.94
   -1   14    4      4.05     -8.49
    0   14    4     -4.03     -9.47
    1   14    4     -2.58     -7.62
    2   14    4      2.75     -2.92
    3   14    4      1.28      3.58
    4   14    4      3.13     -3.07
    5   14    4      1.57      1.76
   -6   14    3      0.68      1.06
   -5   14    3     -0.97     -0.78
   -4   14    3     -1.60     -2.89
   -3   14    3      2.51     -6.12
   -2   14    3      5.76     -2.01
   -1   14    3      7.01     -3.87
    0   14    3      4.99     -0.52
    1   14    3      2.64      7.54
    2   14    3      0.84     -6.55
    3   14    3     -2.52     -0.64
    4   14    3      0.82     -2.47
    5   14    3      1.29      2.77
   -6   14    2      0.46      0.61
   -5   14    2      0.19     -2.83
   -4   14    2      0.27      1.44
   -3   14    2      1.11     -4.47
   -2   14    2     -2.63     -3.92
    0   14    2     10.42      5.46
    1   14    2      7.05      4.58
    2   14    2      4.45    -13.09
    3   14    2     -0.85      0.35
    4   14    2     -1.79     -1.27
    5   14    2     -0.56     -0.26
    6   14    2     -0.14     -1.95
   -6   14    1     -0.80      0.48
   -5   14    1      1.50     -0.68
   -4   14    1      2.81      3.95
   -3   14    1      1.83     -5.69
   -2   14    1     -3.24     -4.07
    0   14    1      3.50     -9.22
    1   14    1      2.94     -9.19
    2   14    1      7.04     -9.35
    3   14    1      4.78      2.05
    4   14    1     -1.86     -2.59
    5   14    1     -0.37     -2.28
    6   14    1      0.73     -0.57
    6   14    0     -0.28      0.97
    5   14    0      1.51     -0.24
    4   14    0      0.93     -0.27
    3   14    0      5.45     -2.51
    2   14    0      3.35     -3.40
    1   14    0     -3.13     -7.74
    0   14    0     -2.44    -21.49
   -1   14    1     -1.67      2.69
   -1   14    2      4.33      3.08
   -5   14    4     -1.62      2.48
   -6   14    6      1.01      0.64
   -4   14   15     -0.13      0.07
   -1   14   16      1.98      0.44
    0   14   17      2.17     -0.13
   -1   14   17      2.10     -0.82
    0   14   18     -0.20     -1.15
   -1   14   18      0.70     -0.96
   -2   15   17      0.53      0.55
   -3   15   16     -0.27      0.40
   -2   15   16      0.61     -0.84
    0   15   16      0.63      0.57
    1   15   16     -0.33      0.92
   -4   15   15      0.61      0.99
   -3   15   15     -0.95      0.64
   -2   15   15      0.73      0.10
   -1   15   15      0.80      0.09
    0   15   15      2.15     -0.50
    1   15   15     -1.80      0.51
    2   15   15     -0.57      0.21
   -4   15   14      1.13      0.42
   -3   15   14     -1.55      1.12
   -2   15   14      2.28      2.70
   -1   15   14      0.10      1.78
    0   15   14      0.03     -0.29
    1   15   14     -1.64     -0.43
    2   15   14      0.91     -0.89
   -4   15   13      0.60     -0.45
   -3   15   13     -0.11      1.19
   -2   15   13      3.82      1.60
   -1   15   13     -3.41      2.37
    0   15   13     -3.11      1.58
    1   15   13     -0.27      1.45
    2   15   13     -0.20     -0.29
    3   15   13      0.43     -0.09
   -5   15   12      0.12     -0.94
   -4   15   12      1.21      0.31
   -3   15   12      1.87     -0.37
   -2   15   12      1.99     -1.59
   -1   15   12     -2.73      0.47
    0   15   12     -2.65      2.79
    1   15   12     -1.40      3.87
    2   15   12     -3.58      1.21
    3   15   12      1.76     -0.42
   -5   15   11     -1.13      0.37
   -4   15   11      1.86     -0.06
   -3   15   11     -0.07     -0.08
   -2   15   11      1.11     -1.14
   -1   15   11      5.41     -1.43
    0   15   11     -1.10      1.12
    1   15   11     -1.35      1.24
    2   15   11     -3.78      1.75
    3   15   11      1.37      0.51
    4   15   11     -2.63      0.30
   -5   15   10      1.52     -0.29
   -4   15   10     -0.07     -0.98
   -3   15   10      0.19      2.45
   -2   15   10      3.92      2.77
   -1   15   10      7.97      0.71
    0   15   10     -2.47     -0.97
    1   15   10      3.42     -2.07
    2   15   10     -2.35      0.11
    3   15   10     -1.18      0.43
    4   15   10     -2.79      1.47
   -5   15    9      2.56      0.05
   -4   15    9     -0.10     -0.87
   -3   15    9      5.49      2.34
   -2   15    9      1.23      4.82
   -1   15    9      1.18      3.83
    0   15    9     -4.86      1.50
    1   15    9      3.73     -0.07
    2   15    9     -4.68     -1.95
    3   15    9     -1.72     -1.82
    4   15    9     -0.65      1.31
   -5   15    8      0.57      1.92
   -4   15    8      2.60     -0.17
   -3   15    8      5.11     -1.40
   -2   15    8     -4.03      2.10
   -1   15    8      0.29      2.95
    0   15    8     -6.67      4.89
    1   15    8     -5.27      2.84
    2   15    8     -5.75      0.20
    3   15    8      0.43     -2.79
    4   15    8      1.36     -0.50
   -5   15    7      0.46      1.41
   -4   15    7      0.90      0.75
   -3   15    7      0.36     -3.46
   -2   15    7      0.43      0.23
   -1   15    7      5.93     -0.16
    0   15    7     -5.48      2.34
    1   15    7     -8.33      2.15
    2   15    7      0.21      4.80
    3   15    7     -1.75     -0.78
    4   15    7      1.01     -1.95
    5   15    7     -1.73     -1.62
   -5   15    6      0.78     -1.07
   -4   15    6     -2.64      1.08
   -3   15    6      2.57     -0.12
   -2   15    6      6.89      3.82
   -1   15    6      5.46      0.16
    0   15    6      2.85     -1.60
    1   15    6     -0.30     -1.52
    2   15    6      3.52      3.53
    3   15    6     -8.02      0.14
    4   15    6     -0.29     -1.04
    5   15    6     -2.56     -0.67
   -6   15    5      0.46     -0.37
   -5   15    5      0.44     -1.74
   -4   15    5      0.73      0.66
   -3   15    5      6.90      3.12
   -2   15    5      4.21      6.80
   -1   15    5     -0.18      4.14
    0   15    5      8.55     -0.23
    1   15    5     -2.57     -4.62
    2   15    5     -0.60     -3.38
    3   15    5     -7.57     -1.52
    4   15    5     -0.45      0.35
    5   15    5     -3.11      0.69
   -6   15    4     -0.37      0.10
   -5   15    4      2.73      0.56
   -4   15    4      4.63     -0.11
   -3   15    4      4.57      1.59
   -2   15    4      1.14      2.09
   -1   15    4     -3.65      4.78
    0   15    4      0.06      4.14
    1   15    4    -15.58     -2.64
    2   15    4     -0.60     -4.95
    3   15    4     -1.24     -2.20
    4   15    4     -1.25     -1.59
    5   15    4     -2.75     -0.11
   -6   15    3     -0.10      0.37
   -5   15    3      4.03      2.33
   -4   15    3      1.00      0.12
   -3   15    3      1.61     -0.49
   -2   15    3      5.34     -4.98
   -1   15    3     -4.36      0.16
    0   15    3     -6.26      5.01
    1   15    3    -12.41      2.45
    2   15    3      2.02      0.56
    3   15    3     -0.89     -0.19
    4   15    3     -2.91     -3.54
    5   15    3     -0.06     -1.13
   -6   15    2      0.57     -0.08
   -5   15    2      1.41      1.84
   -4   15    2     -1.58      1.31
   -3   15    2      2.28      0.71
   -2   15    2      7.71     -3.92
   -1   15    2     -0.98     -3.34
    0   15    2      6.21      1.16
    1   15    2      2.72      2.27
    2   15    2     -3.61      1.84
    3   15    2     -3.67      3.19
    4   15    2     -2.77     -1.44
    5   15    2      1.22     -0.71
   -6   15    1      0.19      0.22
   -5   15    1     -0.17      1.11
   -4   15    1      3.32      0.55
   -3   15    1      0.55      2.77
   -2   15    1      5.01      2.88
    0   15    1     15.29     -1.43
    1   15    1      2.92     -4.04
    2   15    1     -9.35     -3.23
    3   15    1     -0.52      3.41
    4   15    1     -4.29      1.38
    5   15    1     -1.32     -0.07
    6   15    0     -0.54     -1.23
    5   15    0     -1.62     -0.44
    4   15    0     -6.86      1.46
    3   15    0      2.36     -0.73
    2   15    0     -6.60     -6.23
    1   15    0     -7.04     -5.72
   -1   15    1      6.66     -0.06
   -1   15   16     -0.53     -0.60
    0   15   17     -0.97      1.81
   -1   15   17     -1.01      0.31
   -2   16   17      1.21      0.14
    0   16   17      1.09      0.25
   -3   16   16     -0.41     -1.33
   -2   16   16      0.83     -0.26
    0   16   16      1.53      0.85
    1   16   16     -0.07     -1.00
   -3   16   15     -0.11     -1.57
   -2   16   15     -1.16     -0.31
   -1   16   15      0.02     -0.27
    0   16   15      1.49     -1.13
    1   16   15      0.74     -1.05
    2   16   15      0.85      0.24
   -3   16   14     -0.09     -0.73
   -2   16   14     -0.30      0.07
   -1   16   14      0.80     -1.98
    0   16   14      0.39     -4.02
    1   16   14     -0.14     -0.26
    2   16   14      0.22     -0.81
   -4   16   13      0.76     -0.74
   -3   16   13      0.89      0.67
   -2   16   13      2.79     -0.95
   -1   16   13      2.13     -1.15
    0   16   13     -0.64     -3.49
    1   16   13     -1.00     -1.25
    2   16   13     -0.10     -3.57
    3   16   13      0.80      0.85
   -4   16   12      0.24     -0.68
   -3   16   12      1.83     -0.90
   -2   16   12      1.91     -3.10
   -1   16   12      1.95      3.53
    0   16   12      0.35     -1.10
    1   16   12      1.79     -1.74
    2   16   12      0.15     -3.04
    3   16   12      0.52     -0.26
   -5   16   11      0.22      1.69
   -4   16   11      1.23     -2.19
   -3   16   11      0.60     -2.60
   -2   16   11     -2.60     -3.17
   -1   16   11     -0.33      3.33
    0   16   11      2.41     -1.74
    1   16   11      3.89      0.81
    2   16   11      1.16     -0.40
    3   16   11      1.14     -2.61
   -5   16   10      0.47      2.52
   -4   16   10      0.78     -2.82
   -3   16   10      0.07      0.13
   -2   16   10     -3.42     -4.55
   -1   16   10     -1.13     -4.83
    0   16   10      1.35     -4.12
    1   16   10      1.45     -0.68
    2   16   10      3.26     -1.04
    3   16   10      2.62     -2.89
    4   16   10      0.08      1.13
   -5   16    9     -0.37      0.15
   -4   16    9     -0.75     -0.97
   -3   16    9      3.20      0.16
   -2   16    9      1.18     -7.13
   -1   16    9      0.46     -7.17
    0   16    9     -1.28     -4.33
    1   16    9      0.49     -8.62
    2   16    9      2.55     -2.36
    3   16    9      2.28     -1.23
    4   16    9      1.49      2.37
   -5   16    8      0.13     -0.80
   -4   16    8     -0.87     -1.51
   -3   16    8      5.48     -4.43
   -2   16    8      2.89     -3.41
   -1   16    8      1.25     -1.66
    0   16    8      0.85     -1.33
    1   16    8      2.19    -10.76
    2   16    8     -1.09      0.83
    3   16    8      0.32     -2.57
    4   16    8      2.69      1.53
   -5   16    7      1.75      0.33
   -4   16    7      0.36     -3.67
   -3   16    7      1.35     -4.77
   -2   16    7     -0.82      0.97
   -1   16    7      0.28     -2.38
    0   16    7      3.16      4.05
    1   16    7      2.30     -2.73
    2   16    7      0.48      3.09
    3   16    7      0.47     -6.07
    4   16    7      2.07     -0.59
   -5   16    6      1.56      0.52
   -4   16    6      0.50     -1.14
   -3   16    6     -3.19     -1.88
   -2   16    6     -0.95     -2.41
   -1   16    6     -1.84     -9.17
    0   16    6      0.13      5.32
    1   16    6      3.09     -1.49
    2   16    6      7.49     -0.98
    3   16    6      2.14     -3.92
    4   16    6      0.31     -1.81
    5   16    6     -0.62     -0.63
   -4   16    5      0.05      2.23
   -3   16    5     -0.48     -2.99
   -2   16    5      4.95     -5.26
   -1   16    5     -1.82    -10.56
    0   16    5     -1.86     -3.49
    1   16    5      3.62    -10.87
    2   16    5      7.84     -3.72
    3   16    5      1.30      2.38
    4   16    5      0.98     -1.89
    5   16    5     -0.07      0.36
   -5   16    4     -2.55      0.71
   -4   16    4      1.13     -0.52
   -3   16    4      3.12     -5.44
   -2   16    4      8.30     -0.93
   -1   16    4      1.86     -6.25
    0   16    4     -0.19     -9.93
    1   16    4     -0.84     -8.58
    2   16    4      0.21     -3.62
    3   16    4     -0.24      2.39
    4   16    4      2.46     -2.15
    5   16    4      0.45      2.19
   -5   16    3     -0.41     -1.53
   -4   16    3      1.32     -2.99
   -3   16    3      1.43     -4.67
   -2   16    3      4.12      0.84
   -1   16    3      3.24     -2.28
    0   16    3      0.34     -0.95
    1   16    3     -3.57      5.17
    2   16    3     -1.27     -7.98
    3   16    3     -0.34     -1.74
    4   16    3     -0.11     -1.99
    5   16    3      0.03      2.02
   -5   16    2      1.28     -2.76
   -4   16    2      0.27      1.26
   -3   16    2     -0.24     -4.22
   -2   16    2     -2.09     -4.60
   -1   16    2     -1.24      0.41
    0   16    2     -0.33      5.50
    1   16    2      2.64      5.81
    2   16    2      4.35    -10.75
    3   16    2      0.31     -0.50
    4   16    2     -2.64     -2.24
    5   16    2      0.35     -0.81
   -5   16    1      0.75     -1.07
   -4   16    1      0.65      4.58
   -3   16    1      2.37     -4.66
   -2   16    1     -3.81     -6.51
   -1   16    1     -4.56     -0.78
    0   16    1      1.15     -8.25
    2   16    1      4.66     -5.97
    3   16    1      3.04      1.88
    4   16    1     -0.97     -2.62
    5   16    1      0.85     -1.45
    5   16    0      0.60      0.00
    4   16    0      1.00      0.97
    3   16    0      4.93     -1.37
    2   16    0     -0.50     -3.50
    1   16    0      0.92     -6.33
    0   16    0      2.71    -20.01
    1   16    1      7.05     -4.66
   -5   16    5     -1.09      0.88
   -4   16   14      1.37     -0.30
   -1   16   16      0.62      0.61
   -1   16   17      1.22      0.03
    0   17   16      0.33      0.73
   -3   17   15     -0.93      0.20
   -2   17   15      0.60     -0.15
   -1   17   15      0.53      0.95
    0   17   15      1.87      0.20
    1   17   15     -0.59      0.43
   -3   17   14     -1.80      0.46
   -2   17   14      0.52      2.36
   -1   17   14     -0.20      1.46
    0   17   14      0.74     -0.57
    1   17   14     -0.35     -0.03
    2   17   14      1.09     -0.17
   -4   17   13      0.74     -1.12
   -3   17   13     -0.85      1.34
   -2   17   13      2.15      1.87
   -1   17   13     -2.12      0.59
    0   17   13     -2.40     -0.02
    1   17   13     -0.28      1.67
    2   17   13     -0.22      0.43
   -4   17   12      1.28     -0.24
   -3   17   12      1.18      0.97
   -2   17   12      3.41     -1.54
   -1   17   12     -0.87     -0.78
    0   17   12     -2.57      1.94
    1   17   12     -2.10      2.34
    2   17   12     -3.25      0.55
    3   17   12      1.36      0.41
   -4   17   11      1.63     -0.08
   -3   17   11      0.20     -0.31
   -2   17   11      2.96     -1.29
   -1   17   11      5.23      0.18
    0   17   11     -0.42      2.26
    1   17   11     -0.98     -0.39
    2   17   11     -3.11      1.99
    3   17   11      0.63      1.04
   -5   17   10      1.20      0.12
   -4   17   10      0.41     -1.56
   -3   17   10     -0.46      0.94
   -2   17   10      2.24      3.96
   -1   17   10      6.24      2.15
    0   17   10     -0.68      0.14
    1   17   10      3.82     -0.64
    2   17   10     -1.42      2.14
    3   17   10     -1.47     -0.20
    4   17   10     -1.97      0.71
   -5   17    9      2.07      0.31
   -4   17    9      0.31     -1.12
   -3   17    9      2.81      2.63
   -2   17    9     -0.44      5.38
   -1   17    9      0.08      1.12
    0   17    9     -3.94      0.91
    1   17    9      2.99      1.48
    2   17    9     -2.54     -1.03
    3   17    9     -1.28     -1.88
    4   17    9     -1.24      1.32
   -5   17    8      0.61      0.96
   -4   17    8      1.52      0.96
   -3   17    8      4.45     -1.05
   -2   17    8     -2.00      0.97
   -1   17    8     -0.38     -0.23
    0   17    8     -6.35      2.85
    1   17    8     -4.92     -0.26
    2   17    8     -4.13     -0.63
    3   17    8      0.08     -1.06
    4   17    8      0.49      0.56
   -5   17    7     -0.02      0.37
   -4   17    7      0.41      0.93
   -3   17    7      2.67     -5.61
   -2   17    7      1.50      1.04
   -1   17    7      5.55      0.17
    0   17    7     -3.61      0.39
    1   17    7     -7.46     -1.07
    2   17    7     -1.60      4.75
    3   17    7     -2.41      0.74
    4   17    7      1.46     -1.11
   -5   17    6      0.75     -1.35
   -4   17    6     -1.17     -0.56
   -3   17    6      1.99     -2.28
   -2   17    6      3.54      5.90
   -1   17    6      5.47      0.90
    0   17    6      4.09     -0.30
    1   17    6     -0.80      1.81
    2   17    6      1.38      4.17
    3   17    6     -6.71     -0.41
    4   17    6      0.47     -1.33
    5   17    6     -1.19     -0.70
   -5   17    5      1.66     -1.79
   -4   17    5      0.88      0.74
   -3   17    5      3.18      2.76
   -2   17    5      0.43      5.12
   -1   17    5     -1.14      2.90
    0   17    5      7.81      2.57
    1   17    5     -0.91     -0.54
    2   17    5      1.48     -3.90
    3   17    5     -5.28     -1.54
    4   17    5     -1.13      0.00
    5   17    5     -2.56     -0.46
   -5   17    4      2.49      0.84
   -4   17    4      2.96      1.85
   -3   17    4      3.44      0.88
   -2   17    4      0.37     -1.23
   -1   17    4     -4.03      3.58
    0   17    4      0.64      1.00
    1   17    4    -10.71     -4.96
    2   17    4      2.25     -5.10
    3   17    4     -0.66      0.56
    4   17    4     -1.70     -1.39
    5   17    4     -1.76     -0.66
   -5   17    3      2.34      2.54
   -4   17    3      0.42     -0.72
   -3   17    3      2.67     -1.39
   -2   17    3      6.70     -4.78
   -1   17    3     -1.80      0.15
    0   17    3     -4.62     -1.99
    1   17    3    -10.88      0.20
    2   17    3      0.75      1.52
    3   17    3     -1.06      1.64
    4   17    3     -1.67     -3.07
    5   17    3      0.44      0.00
   -5   17    2      0.95      0.81
   -4   17    2     -1.65     -1.79
   -3   17    2      1.97      1.13
   -2   17    2      9.09     -3.58
   -1   17    2      0.74     -1.45
    1   17    2     -0.43      6.27
    2   17    2     -5.08      1.52
    3   17    2     -3.47      1.78
    4   17    2     -2.40     -0.44
    5   17    2      0.46      0.31
   -5   17    1     -0.20     -0.13
   -4   17    1      2.10     -0.11
   -3   17    1      0.00      2.41
   -2   17    1      4.38     -0.34
   -1   17    1      2.53      3.85
    0   17    1     11.86      4.51
    1   17    1      3.27      0.18
    2   17    1     -6.68     -3.69
    3   17    1     -1.46      2.61
    4   17    1     -4.98      1.68
    5   17    1     -1.02     -0.70
    5   17    0     -0.53     -0.81
    4   17    0     -6.12      0.36
    3   17    0      1.23      0.59
    2   17    0     -3.18     -3.56
    1   17    0     -0.89     -7.18
    0   17    2      4.80      1.26
   -1   17   16      0.04     -0.02
   -2   17   16      0.71     -0.79
   -1   18   16      0.00      0.19
    0   18   16      0.33      0.48
   -3   18   15     -0.02     -1.34
   -1   18   15      0.13     -0.31
    0   18   15      0.87     -0.48
    1   18   15      0.26     -0.69
   -3   18   14     -0.18     -0.82
   -2   18   14     -0.59     -0.30
   -1   18   14      0.88     -1.02
    0   18   14      0.75     -3.20
    1   18   14     -0.18     -0.92
    2   18   14     -0.52     -0.69
   -4   18   13      0.44     -0.15
   -3   18   13     -0.05      0.34
   -2   18   13      1.43      0.85
   -1   18   13      1.14     -0.52
    0   18   13     -0.65     -3.32
    1   18   13     -0.01     -2.06
    2   18   13      0.21     -2.77
   -4   18   12     -0.38     -0.71
   -3   18   12      1.32     -0.18
   -2   18   12      0.94     -0.86
   -1   18   12     -0.34      2.00
    0   18   12     -1.38     -0.98
    1   18   12      2.25     -1.49
    2   18   12     -0.11     -2.25
    3   18   12     -0.10     -0.48
   -4   18   11      0.75     -1.59
   -3   18   11      1.65     -1.65
   -2   18   11     -3.04     -4.02
   -1   18   11     -1.85      0.93
    0   18   11      0.72     -0.93
    1   18   11      2.05      0.97
    2   18   11     -0.47     -0.30
    3   18   11      1.31     -2.14
   -4   18   10      0.45     -1.94
   -3   18   10      0.34     -0.69
   -2   18   10     -3.62     -5.61
   -1   18   10      0.16     -5.01
    0   18   10      1.77     -3.57
    1   18   10     -0.13     -1.37
    2   18   10      2.47     -0.37
    3   18   10      2.49     -2.00
   -5   18    9      0.13      0.13
   -4   18    9     -1.57     -1.49
   -3   18    9      2.07      0.42
   -2   18    9      1.33     -4.44
   -1   18    9      1.42     -5.96
    0   18    9     -0.02     -4.50
    1   18    9      1.85     -7.58
    2   18    9      3.43     -1.65
    3   18    9      1.14     -1.17
    4   18    9      0.70      0.91
   -5   18    8      0.51     -0.72
   -4   18    8     -1.21     -1.75
   -3   18    8      5.15     -1.09
   -2   18    8      2.15     -1.41
   -1   18    8     -1.40     -1.17
    0   18    8      0.43     -0.69
    1   18    8      3.07     -8.58
    2   18    8     -0.36     -1.05
    3   18    8     -0.50     -2.88
    4   18    8      1.72      1.30
   -5   18    7      0.98      0.04
   -4   18    7      0.93     -1.83
   -3   18    7      1.88     -3.41
   -2   18    7     -1.58     -1.18
   -1   18    7     -2.94     -1.67
    0   18    7      0.54      3.98
    1   18    7     -1.27     -3.07
    2   18    7     -0.08      0.89
    3   18    7      0.77     -4.81
    4   18    7      1.94     -0.07
   -4   18    6      0.20     -0.60
   -3   18    6     -3.58     -3.80
   -2   18    6      0.69     -3.59
   -1   18    6     -2.79     -8.15
    0   18    6     -2.16      2.97
    1   18    6     -1.11     -1.27
    2   18    6      6.39      0.83
    3   18    6      2.22     -2.28
    4   18    6      0.74     -2.30
   -5   18    5     -1.25      0.31
   -4   18    5     -1.25      0.29
   -3   18    5     -1.83     -2.26
   -2   18    5      6.37     -2.68
   -1   18    5     -2.90     -9.69
    0   18    5     -0.33     -3.90
    1   18    5      4.15     -6.73
    2   18    5      6.75     -0.97
    3   18    5      0.08      1.50
    4   18    5      0.65     -2.60
   -5   18    4     -2.01     -0.88
   -4   18    4      1.68     -0.70
   -3   18    4      1.57     -2.05
   -2   18    4      5.73      1.82
   -1   18    4     -1.00     -4.47
    0   18    4      2.75     -7.68
    1   18    4      0.86     -6.90
    2   18    4     -0.43     -4.79
    3   18    4     -0.66      0.61
    4   18    4      1.44     -1.40
    5   18    4     -0.57      1.50
   -5   18    3      0.31     -1.46
   -4   18    3      3.37     -1.50
   -3   18    3     -0.26     -3.45
   -2   18    3      1.36      2.05
   -1   18    3      0.35     -1.45
    0   18    3     -2.18     -1.89
    1   18    3     -5.88      1.33
    2   18    3     -1.10     -9.10
    3   18    3      1.50     -1.80
    4   18    3     -0.83     -1.70
    5   18    3     -0.52      0.71
   -5   18    2      1.57     -1.68
   -4   18    2      0.06      0.86
   -3   18    2     -1.05     -4.13
   -2   18    2     -0.89     -4.12
   -1   18    2     -2.55     -2.72
    0   18    2     -6.83      2.16
    1   18    2     -0.87      4.91
    2   18    2      3.56     -7.63
    3   18    2      1.54     -0.84
    4   18    2     -2.56     -3.14
    5   18    2      0.84     -0.81
   -5   18    1      0.14     -1.46
   -4   18    1     -1.44      3.46
   -3   18    1      2.20     -3.08
   -2   18    1     -2.52     -7.18
   -1   18    1     -3.33     -4.25
    0   18    1     -1.24     -6.47
    1   18    1      7.07      0.41
    2   18    1      1.82     -3.09
    3   18    1      1.65      0.86
    4   18    1     -0.57     -2.20
    5   18    1      1.00     -0.65
    5   18    0     -0.19     -0.56
    4   18    0      0.15      1.62
    3   18    0      3.43     -0.46
    2   18    0     -2.58     -3.89
    1   18    0      3.50     -3.82
    0   18    0      4.15    -13.90
   -5   18    6      0.53      0.81
   -2   18   15     -0.87     -0.85
   -2   18   16      0.61     -0.21
   -1   19   15      0.09      0.75
    0   19   15      1.33      0.73
   -3   19   14     -1.30      0.00
   -2   19   14     -0.54      1.07
   -1   19   14      0.11      0.68
    0   19   14      0.92     -0.03
    1   19   14      0.27      0.67
   -3   19   13     -1.00      0.65
   -2   19   13      0.83      1.12
   -1   19   13     -0.58     -0.13
    0   19   13     -1.69     -0.82
    1   19   13     -0.37      1.66
    2   19   13     -0.25      0.57
   -4   19   12      1.12     -0.34
   -3   19   12      0.16      1.42
   -2   19   12      3.90     -0.46
   -1   19   12      0.37     -0.47
    0   19   12     -2.18      0.95
    1   19   12     -1.96      0.93
    2   19   12     -2.09     -0.11
   -4   19   11      0.97     -0.14
   -3   19   11      0.36      0.34
   -2   19   11      3.82     -0.16
   -1   19   11      3.88      1.68
    0   19   11     -0.37      3.02
    1   19   11     -0.30     -1.09
    2   19   11     -2.40      1.92
    3   19   11     -0.09      1.32
   -4   19   10      0.90     -1.54
   -3   19   10     -0.20     -0.10
   -2   19   10      0.29      3.86
   -1   19   10      3.69      2.50
    0   19   10      0.01      1.36
    1   19   10      3.13      0.55
    2   19   10     -1.50      3.28
    3   19   10     -1.23     -0.36
   -4   19    9      0.96     -1.04
   -3   19    9      0.57      1.19
   -2   19    9     -2.09      4.66
   -1   19    9     -0.45     -1.36
    0   19    9     -2.96     -0.13
    1   19    9      1.69      1.84
    2   19    9     -1.00      0.22
    3   19    9     -0.54     -1.69
   -5   19    8      0.76      0.16
   -4   19    8      0.43      0.97
   -3   19    8      2.88     -1.02
   -2   19    8     -0.11      1.02
   -1   19    8     -0.21     -2.72
    0   19    8     -5.10      0.36
    1   19    8     -3.30     -2.22
    2   19    8     -2.01     -0.63
    3   19    8     -0.21     -0.34
    4   19    8     -0.22      0.56
   -5   19    7      0.19     -0.47
   -4   19    7      0.00      0.52
   -3   19    7      4.03     -5.22
   -2   19    7      2.34      2.09
   -1   19    7      4.51      0.29
    0   19    7     -1.40     -0.20
    1   19    7     -5.28     -2.71
    2   19    7     -2.58      3.52
    3   19    7     -2.93      1.30
    4   19    7      1.36     -0.20
   -5   19    6      0.84     -1.02
   -4   19    6      0.64     -1.11
   -3   19    6      1.69     -3.61
   -2   19    6      0.81      5.48
   -1   19    6      4.68      1.50
    0   19    6      4.28      1.56
    1   19    6     -2.34      3.13
    2   19    6     -0.61      3.49
    3   19    6     -5.08     -0.13
    4   19    6      1.11     -0.88
   -5   19    5      1.94     -0.86
   -4   19    5      0.91      0.87
   -3   19    5      0.31      0.64
   -2   19    5     -1.40      1.92
   -1   19    5     -1.29      1.92
    0   19    5      5.19      3.59
    1   19    5     -1.10      2.09
    2   19    5      2.93     -2.64
    3   19    5     -2.97     -0.75
    4   19    5     -1.17     -0.55
   -5   19    4      1.54      0.82
   -4   19    4      0.74      2.40
   -3   19    4      2.67     -0.09
   -2   19    4      0.55     -3.49
   -1   19    4     -3.96      3.10
    0   19    4      0.98     -1.69
    1   19    4     -5.26     -4.39
    2   19    4      4.09     -3.29
    3   19    4     -0.71      2.04
    4   19    4     -1.60     -1.43
   -5   19    3      0.79      1.55
   -4   19    3      0.41     -1.47
   -3   19    3      3.54     -1.21
   -2   19    3      5.88     -3.21
   -1   19    3     -0.48      2.10
    0   19    3     -1.33     -6.03
    1   19    3     -7.36     -1.07
    2   19    3     -0.82      1.26
    3   19    3     -1.42      2.33
    4   19    3     -0.40     -2.10
    5   19    3      0.34      0.67
   -5   19    2      1.02     -0.09
   -4   19    2     -0.16     -3.58
   -3   19    2      1.31      1.22
   -2   19    2      7.85     -1.88
   -1   19    2      1.63      1.51
    0   19    2      3.25      0.40
    1   19    2     -2.93      6.39
    2   19    2     -5.78      0.07
    3   19    2     -2.32      0.64
    4   19    2     -1.87      0.05
    5   19    2     -0.23      0.54
   -5   19    1      0.51     -0.58
   -4   19    1      1.30     -0.83
   -3   19    1     -0.52      1.53
   -2   19    1      3.88     -1.93
   -1   19    1     -0.64      4.74
    0   19    1      6.34      6.14
    1   19    1      2.57      3.04
    2   19    1     -3.99     -3.22
    3   19    1     -1.52      1.25
    4   19    1     -4.76      1.09
    5   19    1     -0.36     -0.72
    5   19    0      0.15     -0.64
    4   19    0     -4.39     -0.24
    3   19    0      0.11      0.95
    2   19    0     -1.13     -0.94
    1   19    0      3.53     -4.71
   -2   19   15      0.37     -0.19
   -1   20   15     -0.07     -0.05
   -2   20   14     -0.51     -0.28
   -1   20   14      0.17     -0.48
    0   20   14      0.97     -2.45
    1   20   14     -0.01     -1.05
   -3   20   13     -0.29     -0.07
   -2   20   13     -0.35      1.27
   -1   20   13     -0.15     -0.84
    0   20   13     -0.09     -2.70
    1   20   13      0.78     -1.86
   -3   20   12      0.33     -0.08
   -2   20   12     -0.68     -0.04
   -1   20   12     -1.66      0.10
    0   20   12     -2.15     -1.12
    1   20   12      2.15     -1.00
    2   20   12     -0.26     -1.54
   -4   20   11      0.49     -0.74
   -3   20   11      1.67     -0.56
   -2   20   11     -2.46     -4.22
   -1   20   11     -1.95     -0.93
    0   20   11     -0.63     -0.74
    1   20   11      0.78      0.60
    2   20   11     -1.21     -0.90
   -4   20   10      0.07     -0.61
   -3   20   10      1.27     -0.88
   -2   20   10     -2.57     -5.58
   -1   20   10      1.33     -4.07
    0   20   10      2.08     -2.34
    1   20   10     -0.48     -1.65
    2   20   10      1.47     -0.09
    3   20   10      1.88     -0.95
   -4   20    9     -1.37     -1.33
   -3   20    9      1.45     -0.01
   -2   20    9      0.59     -1.97
   -1   20    9      1.59     -3.89
    0   20    9      1.20     -3.43
    1   20    9      2.52     -5.46
    2   20    9      3.17     -0.51
    3   20    9      0.52     -0.97
   -4   20    8     -0.91     -1.51
   -3   20    8      3.09      0.75
   -2   20    8      0.75      0.35
   -1   20    8     -3.45     -1.24
    0   20    8     -0.54     -0.46
    1   20    8      2.89     -6.12
    2   20    8      0.75     -1.88
    3   20    8     -0.70     -3.09
   -4   20    7      0.53     -0.14
   -3   20    7      1.50     -1.77
   -2   20    7     -1.10     -2.31
   -1   20    7     -5.22     -2.08
    0   20    7     -1.89      2.71
    1   20    7     -2.64     -3.92
    2   20    7      0.39     -0.99
    3   20    7      0.46     -3.78
    4   20    7      1.11      0.16
   -5   20    6     -0.30      0.42
   -4   20    6     -0.33     -0.12
   -3   20    6     -2.45     -4.12
   -2   20    6      2.36     -3.73
   -1   20    6     -3.38     -6.78
    0   20    6     -2.25      0.61
    1   20    6     -2.92     -1.83
    2   20    6      4.29      1.58
    3   20    6      1.53     -0.86
    4   20    6      0.98     -2.02
   -5   20    5     -0.84     -0.25
   -4   20    5     -1.35     -1.21
   -3   20    5     -2.55     -1.48
   -2   20    5      6.07     -0.87
   -1   20    5     -3.28     -8.20
    0   20    5      1.95     -3.36
    1   20    5      3.00     -2.67
    2   20    5      4.46      0.79
    3   20    5     -0.23      0.78
    4   20    5      0.64     -2.60
   -5   20    4     -0.81     -1.17
   -4   20    4      1.68     -0.35
   -3   20    4     -0.65      0.22
   -2   20    4      2.81      1.92
   -1   20    4     -3.06     -3.69
    0   20    4      3.97     -4.32
    1   20    4      1.58     -4.00
    2   20    4      0.39     -5.17
    3   20    4     -0.19     -0.62
    4   20    4      0.32     -0.91
   -5   20    3      0.49     -0.53
   -4   20    3      3.38      0.42
   -3   20    3     -1.41     -2.61
   -2   20    3     -0.91      1.23
   -1   20    3     -1.68     -0.96
    0   20    3     -3.38     -2.34
    1   20    3     -4.71     -1.49
    2   20    3      0.59     -8.59
    3   20    3      2.30     -1.12
    4   20    3     -1.23     -1.58
   -5   20    2      0.86     -0.48
   -4   20    2     -0.15      0.30
   -3   20    2     -1.10     -3.98
   -2   20    2     -0.29     -2.80
   -1   20    2     -1.51     -3.56
    0   20    2     -8.81     -1.54
    1   20    2     -2.29      2.90
    2   20    2      2.44     -4.38
    3   20    2      2.07     -0.63
    4   20    2     -1.83     -3.50
   -5   20    1     -0.16     -1.49
   -4   20    1     -2.18      1.33
   -3   20    1      1.43     -1.97
   -2   20    1     -1.02     -5.59
   -1   20    1      0.11     -5.31
    0   20    1     -2.51     -4.73
    1   20    1      4.86      3.11
    2   20    1     -0.41     -0.97
    3   20    1      0.89     -0.28
    4   20    1     -0.59     -1.80
    5   20    1      0.63     -0.09
    5   20    0     -0.22     -0.96
    4   20    0     -0.77      1.23
    3   20    0      1.75     -0.28
    2   20    0     -2.87     -3.49
    1   20    0      4.83     -1.75
    0   20    0      3.37     -7.26
   -1   21   14      0.64      0.43
    0   21   14      0.46      0.60
   -2   21   13      0.58      0.36
   -1   21   13      0.30     -0.03
    0   21   13     -1.08     -1.10
    1   21   13     -0.33      1.35
   -3   21   12     -0.29      1.08
   -2   21   12      3.09      0.70
   -1   21   12      0.44      0.25
    0   21   12     -1.45      0.03
    1   21   12     -1.23      0.21
    2   21   12     -0.71     -0.22
   -3   21   11      0.06      1.00
   -2   21   11      2.90      1.12
   -1   21   11      1.83      2.38
    0   21   11     -0.84      2.90
    1   21   11      0.11     -0.88
    2   21   11     -1.57      1.51
   -4   21   10      0.91     -1.20
   -3   21   10      0.20     -0.26
   -2   21   10     -1.14      2.74
   -1   21   10      1.33      1.85
    0   21   10     -0.24      2.02
    1   21   10      2.06      1.22
    2   21   10     -1.74      3.03
   -4   21    9      1.24     -0.61
   -3   21    9     -0.20     -0.60
   -2   21    9     -2.75      2.88
   -1   21    9      0.02     -3.03
    0   21    9     -1.43     -0.79
    1   21    9      1.07      1.64
    2   21    9     -0.32      1.28
    3   21    9      0.22     -1.05
   -4   21    8      0.03      0.31
   -3   21    8      1.41     -1.53
   -2   21    8      1.08      1.49
   -1   21    8      1.07     -3.78
    0   21    8     -2.93     -1.29
    1   21    8     -1.24     -2.52
    2   21    8     -0.36      0.18
    3   21    8     -0.04     -0.05
   -4   21    7      0.08     -0.15
   -3   21    7      3.65     -3.69
   -2   21    7      2.73      3.06
   -1   21    7      3.20      0.42
    0   21    7     -0.41      0.26
    1   21    7     -3.17     -2.79
    2   21    7     -2.46      1.87
    3   21    7     -3.00      0.95
   -4   21    6      1.70     -0.81
   -3   21    6      1.44     -3.78
   -2   21    6     -0.44      4.04
   -1   21    6      2.81      1.79
    0   21    6      2.76      3.29
    1   21    6     -3.50      2.70
    2   21    6     -1.72      1.83
    3   21    6     -3.81      0.16
    4   21    6      1.22     -0.25
   -4   21    5      0.73      0.63
   -3   21    5     -0.86     -1.50
   -2   21    5     -1.38     -0.60
   -1   21    5     -1.13      1.10
    0   21    5      2.52      3.04
    1   21    5     -1.68      2.91
    2   21    5      2.99     -0.83
    3   21    5     -1.35      0.30
    4   21    5     -0.67     -0.78
   -4   21    4     -0.68      1.47
   -3   21    4      2.07     -0.66
   -2   21    4      1.29     -4.40
   -1   21    4     -3.33      2.20
    0   21    4      1.59     -3.68
    1   21    4     -1.27     -2.05
    2   21    4      4.06     -0.80
    3   21    4     -0.77      2.36
    4   21    4     -0.90     -1.20
   -4   21    3      0.77     -1.52
   -3   21    3      3.76     -0.45
   -2   21    3      3.84     -2.29
   -1   21    3     -0.60      3.45
    0   21    3      1.70     -6.90
    1   21    3     -3.66     -1.00
    2   21    3     -1.96      0.25
    3   21    3     -1.37      2.06
    4   21    3      0.51     -0.85
   -4   21    2      1.42     -3.19
   -3   21    2      0.97      0.87
   -2   21    2      4.63     -0.75
   -1   21    2      1.20      4.02
    0   21    2      1.85      0.04
    1   21    2     -3.70      4.36
    2   21    2     -5.33     -1.63
    3   21    2     -0.85      0.28
    4   21    2     -1.20      0.25
   -4   21    1      0.98     -1.14
   -3   21    1     -0.71      0.46
   -2   21    1      2.71     -2.10
   -1   21    1     -2.05      4.37
    0   21    1      1.29      5.46
    1   21    1      1.36      4.00
    2   21    1     -1.98     -2.23
    3   21    1     -0.86      0.47
    4   21    1     -3.66      0.37
    4   21    0     -2.59     -0.10
    3   21    0     -0.36      0.89
    2   21    0     -0.21      0.74
    1   21    0      4.84     -1.46
   -2   22   13     -1.15      0.59
   -1   22   13     -0.53     -1.32
    0   22   13      0.48     -1.63
   -2   22   12     -1.41     -0.52
   -1   22   12     -1.72     -1.14
    0   22   12     -1.95     -1.24
    1   22   12      1.48     -0.62
   -3   22   11      1.05     -0.08
   -2   22   11     -1.41     -3.47
   -1   22   11     -1.26     -1.56
    0   22   11     -1.30     -0.93
    1   22   11      0.09      0.12
    2   22   11     -0.89     -1.26
   -3   22   10      1.74     -0.38
   -2   22   10     -1.25     -4.06
   -1   22   10      1.72     -2.21
    0   22   10      1.50     -0.85
    1   22   10     -0.42     -1.21
    2   22   10      0.62     -0.25
   -3   22    9      1.33     -0.23
   -2   22    9     -0.58     -0.30
   -1   22    9      0.88     -1.61
    0   22    9      1.47     -1.79
    1   22    9      2.38     -3.16
    2   22    9      2.03      0.14
    3   22    9      0.03     -0.62
   -4   22    8     -0.44     -0.70
   -3   22    8      1.10      0.85
   -2   22    8     -0.92      1.09
   -1   22    8     -4.16     -1.82
    0   22    8     -0.99     -1.07
    1   22    8      2.48     -4.13
    2   22    8      1.59     -1.64
    3   22    8     -0.29     -2.80
   -4   22    7     -0.17      0.67
   -3   22    7      0.65     -0.73
   -2   22    7     -0.22     -2.49
   -1   22    7     -5.29     -3.39
    0   22    7     -2.93      0.52
    1   22    7     -2.11     -4.19
    2   22    7      1.39     -1.73
    3   22    7      0.30     -2.97
   -4   22    6     -0.56      0.05
   -3   22    6     -1.10     -3.10
   -2   22    6      3.49     -3.11
   -1   22    6     -3.07     -5.31
    0   22    6     -1.43     -0.51
    1   22    6     -2.94     -2.02
    2   22    6      2.25      1.27
    3   22    6      0.44     -0.09
   -4   22    5     -0.67     -1.56
   -3   22    5     -2.54     -0.91
   -2   22    5      4.97      0.20
   -1   22    5     -2.94     -5.80
    0   22    5      3.38     -1.53
    1   22    5      1.19      0.03
    2   22    5      1.92      1.21
    3   22    5     -0.40      0.42
   -4   22    4      0.97      0.03
   -3   22    4     -2.24      1.10
   -2   22    4      1.23      0.93
   -1   22    4     -3.77     -3.29
    0   22    4      3.64     -1.42
    1   22    4      1.57     -1.41
    2   22    4      1.47     -4.32
    3   22    4      0.38     -0.87
    4   22    4     -0.41     -0.54
   -4   22    3      1.81      1.31
   -3   22    3     -1.63     -1.72
   -2   22    3     -1.54     -0.68
   -1   22    3     -2.82     -1.32
    0   22    3     -3.49     -2.75
    1   22    3     -1.86     -2.49
    2   22    3      2.29     -6.35
    3   22    3      2.02     -0.31
    4   22    3     -1.04     -1.37
   -4   22    2     -0.14     -0.13
   -3   22    2     -0.43     -3.47
   -2   22    2     -0.23     -1.95
   -1   22    2     -0.43     -3.16
    0   22    2     -7.53     -4.10
    1   22    2     -1.78      1.08
    2   22    2      1.06     -1.75
    3   22    2      1.74     -0.41
    4   22    2     -0.74     -3.03
   -4   22    1     -1.43     -0.22
   -3   22    1      0.92     -1.52
   -2   22    1     -0.22     -3.06
   -1   22    1      2.76     -4.29
    0   22    1     -2.29     -2.80
    1   22    1      2.43      3.77
    2   22    1     -1.95      0.25
    3   22    1      0.66     -1.00
    4   22    1     -0.56     -1.44
    4   22    0     -1.01      0.44
    3   22    0      0.75     -0.45
    2   22    0     -2.35     -2.21
    1   22    0      4.76     -0.05
    0   22    0      2.31     -1.40
    4   22    5      0.44     -1.84
   -2   23   12      1.63      1.02
   -1   23   12      0.07      0.49
    0   23   12     -0.47     -0.55
   -2   23   11      1.11      1.33
   -1   23   11      0.17      1.94
    0   23   11     -1.04      1.82
    1   23   11      0.16     -0.40
   -3   23   10      0.11     -0.04
   -2   23   10     -1.50      1.15
   -1   23   10     -0.01      0.68
    0   23   10     -0.62      1.81
    1   23   10      1.02      1.38
    2   23   10     -1.37      1.91
   -3   23    9     -0.03     -1.37
   -2   23    9     -2.06      1.03
   -1   23    9      1.03     -3.09
    0   23    9      0.02     -0.37
    1   23    9      0.84      1.61
    2   23    9     -0.30      1.66
   -3   23    8      0.65     -1.82
   -2   23    8      1.39      2.07
   -1   23    8      2.41     -2.88
    0   23    8     -0.78     -1.41
    1   23    8      0.23     -1.67
    2   23    8      0.25      1.07
   -4   23    7      0.32     -0.41
   -3   23    7      2.21     -2.23
   -2   23    7      2.23      3.74
   -1   23    7      1.92      0.28
    0   23    7     -0.45      0.38
    1   23    7     -1.60     -2.30
    2   23    7     -1.50      0.60
    3   23    7     -2.27      0.12
   -4   23    6      1.59     -0.23
   -3   23    6      1.04     -3.17
   -2   23    6     -0.81      2.32
   -1   23    6      0.77      0.82
    0   23    6      0.43      3.40
    1   23    6     -3.52      1.41
    2   23    6     -1.57      0.10
    3   23    6     -2.57     -0.03
   -4   23    5      0.53      0.10
   -3   23    5     -0.78     -2.66
   -2   23    5     -0.61     -1.95
   -1   23    5     -0.63      0.09
    0   23    5      0.65      2.08
    1   23    5     -1.90      2.74
    2   23    5      2.02      0.43
    3   23    5     -0.61      0.94
   -4   23    4     -0.82      0.13
   -3   23    4      1.36     -0.78
   -2   23    4      2.24     -3.83
   -1   23    4     -1.73      1.18
    0   23    4      2.25     -3.73
    1   23    4      0.61      0.51
    2   23    4      2.61      1.01
   -4   23    3      0.81     -0.93
   -3   23    3      3.17      0.45
   -2   23    3      2.36     -1.87
   -1   23    3     -0.83      3.46
    0   23    3      3.22     -5.39
    1   23    3     -1.03     -0.33
    2   23    3     -2.11     -0.87
    3   23    3     -0.81      1.51
    4   23    3      0.78      0.22
   -4   23    2      1.68     -1.53
   -3   23    2      0.95      0.53
   -2   23    2      1.39     -0.77
   -1   23    2     -0.05      4.60
    0   23    2      0.29     -0.12
    1   23    2     -3.14      1.65
    2   23    2     -3.74     -2.78
    3   23    2      0.18      0.59
    4   23    2     -0.56      0.28
   -4   23    1      0.74     -0.93
   -3   23    1     -0.58     -0.45
   -2   23    1      1.21     -2.03
   -1   23    1     -2.73      2.99
    0   23    1     -2.46      3.53
    1   23    1      0.36      3.06
    2   23    1     -0.89     -1.09
    3   23    1     -0.42      0.47
    4   23    1     -2.18     -0.12
    4   23    0     -1.34      0.24
    3   23    0     -0.47      0.90
    2   23    0     -0.20      1.75
    1   23    0      4.47      0.80
    3   23    4     -0.75      2.01
   -2   24   11     -0.55     -2.07
   -1   24   11     -0.50     -1.23
    0   24   11     -1.23     -1.07
   -2   24   10     -0.52     -2.00
   -1   24   10      1.14     -0.57
    0   24   10      0.34     -0.08
    1   24   10     -0.43     -0.69
   -3   24    9      1.09     -0.02
   -2   24    9     -1.59      0.15
   -1   24    9     -0.25     -0.19
    0   24    9      0.92     -0.58
    1   24    9      1.70     -1.31
    2   24    9      0.82      0.06
   -3   24    8      0.18      0.26
   -2   24    8     -2.00      0.58
   -1   24    8     -3.18     -2.08
    0   24    8     -0.40     -1.46
    1   24    8      2.18     -2.28
    2   24    8      1.59     -0.80
   -3   24    7      0.15     -0.30
   -2   24    7      0.75     -1.88
   -1   24    7     -3.14     -3.76
    0   24    7     -2.20     -1.23
    1   24    7     -0.87     -3.39
    2   24    7      1.92     -1.26
   -3   24    6     -0.17     -1.56
   -2   24    6      3.89     -1.74
   -1   24    6     -2.14     -3.64
    0   24    6     -0.92     -0.94
    1   24    6     -2.33     -1.78
    2   24    6      0.88      0.49
    3   24    6     -0.34     -0.06
   -3   24    5     -2.04     -0.58
   -2   24    5      3.25      0.85
   -1   24    5     -2.68     -3.44
    0   24    5      2.81      0.04
    1   24    5     -0.43      1.08
    2   24    5      0.10      0.63
    3   24    5     -0.54      0.03
   -3   24    4     -2.77      0.87
   -2   24    4      0.46      0.13
   -1   24    4     -3.45     -3.07
    0   24    4      2.51      0.25
    1   24    4      1.18      0.41
    2   24    4      1.90     -2.64
    3   24    4      0.46     -0.52
   -4   24    3      0.26      0.91
   -3   24    3     -1.25     -0.84
   -2   24    3     -0.64     -2.16
   -1   24    3     -2.56     -2.19
    0   24    3     -2.26     -2.63
    1   24    3      0.76     -1.73
    2   24    3      2.83     -3.32
    3   24    3      1.16      0.17
   -4   24    2      0.01     -0.20
   -3   24    2      0.53     -2.40
   -2   24    2      0.18     -1.53
   -1   24    2      0.54     -2.66
    0   24    2     -4.54     -4.69
    1   24    2     -0.55      0.25
    2   24    2     -0.20     -0.39
    3   24    2      1.19     -0.51
   -4   24    1     -0.34     -0.48
   -3   24    1      0.83     -1.04
   -2   24    1      0.07     -0.72
   -1   24    1      3.46     -2.81
    0   24    1     -1.77     -0.98
    1   24    1      0.20      3.30
    2   24    1     -2.73      0.18
    3   24    1      0.72     -1.19
    4   24    0     -0.68     -0.02
    3   24    0      0.35     -0.37
    2   24    0     -1.78     -0.94
    1   24    0      2.96      0.88
    0   24    0      0.58      2.56
   -1   25   10     -0.22     -0.24
    0   25   10     -0.59      1.14
   -2   25    9     -0.76     -0.07
   -1   25    9      1.41     -1.91
    0   25    9      0.48      0.47
    1   25    9      0.35      1.45
   -2   25    8      0.70      2.24
   -1   25    8      2.39     -1.11
    0   25    8      0.40     -0.57
    1   25    8      0.75     -0.65
    2   25    8      0.08      1.29
   -3   25    7      0.76     -1.37
   -2   25    7      0.81      3.54
   -1   25    7      1.15     -0.17
    0   25    7     -0.25      0.01
    1   25    7     -0.32     -1.68
    2   25    7     -0.43      0.12
   -3   25    6      0.67     -2.34
   -2   25    6     -0.56      0.68
   -1   25    6      0.19     -0.70
    0   25    6     -0.87      2.07
    1   25    6     -2.50      0.19
    2   25    6     -0.67     -0.73
   -3   25    5     -0.10     -2.61
   -2   25    5      0.39     -2.27
   -1   25    5      0.25     -0.60
    0   25    5     -0.55      1.21
    1   25    5     -1.88      2.01
    2   25    5      0.81      0.81
   -3   25    4      0.64     -0.56
   -2   25    4      2.58     -2.13
   -1   25    4     -0.27      0.66
    0   25    4      1.72     -2.32
    1   25    4      0.62      1.98
    2   25    4      0.85      1.52
    3   25    4     -0.64      1.26
   -3   25    3      1.83      1.05
   -2   25    3      1.39     -1.18
   -1   25    3     -0.92      2.56
    0   25    3      2.92     -3.13
    1   25    3      0.36      0.35
    2   25    3     -1.33     -1.32
    3   25    3     -0.19      1.15
   -3   25    2      0.74      0.27
   -2   25    2     -0.58     -1.32
   -1   25    2     -0.94      3.25
    0   25    2     -0.45     -0.70
    1   25    2     -1.58     -0.44
    2   25    2     -1.58     -2.69
    3   25    2      0.49      0.97
   -3   25    1     -0.24     -0.99
   -2   25    1      0.44     -2.05
   -1   25    1     -2.50      0.72
    0   25    1     -3.67      0.92
    1   25    1      0.26      1.40
    2   25    1     -0.54     -0.19
    3   25    1     -0.45      0.45
    3   25    0     -0.59      0.73
    2   25    0     -0.99      2.01
    1   25    0      3.42      2.14
   -1   26    9     -0.81      0.06
    0   26    9      0.33     -0.07
   -2   26    8     -1.96     -0.41
   -1   26    8     -1.58     -1.41
    0   26    8      0.29     -0.92
    1   26    8      1.52     -0.58
   -2   26    7      1.10     -0.67
   -1   26    7     -0.95     -2.33
    0   26    7     -0.82     -1.57
    1   26    7     -0.01     -1.92
   -2   26    6      3.16     -0.07
   -1   26    6     -1.30     -2.08
    0   26    6     -0.46     -1.31
    1   26    6     -1.45     -1.45
    2   26    6      0.24     -0.15
   -3   26    5     -1.45     -0.46
   -2   26    5      1.39      0.83
   -1   26    5     -2.16     -2.18
    0   26    5      1.52      0.22
    1   26    5     -1.22      0.85
    2   26    5     -0.57     -0.10
   -3   26    4     -2.28      0.11
   -2   26    4      0.06     -0.43
   -1   26    4     -2.22     -2.78
    0   26    4      1.25      0.81
    1   26    4      0.36      1.34
    2   26    4      1.41     -0.95
   -3   26    3     -0.61     -0.23
   -2   26    3      0.63     -2.25
   -1   26    3     -1.40     -2.37
    0   26    3     -0.96     -1.36
    1   26    3      1.60     -0.11
    2   26    3      2.03     -0.81
   -3   26    2      1.02     -0.99
   -2   26    2      0.64     -0.77
   -1   26    2      1.09     -1.78
    0   26    2     -1.92     -3.34
    1   26    2      0.18      0.24
    2   26    2     -0.73     -0.10
    3   26    2      0.94     -0.58
   -3   26    1      0.55     -0.41
   -2   26    1     -0.09      0.86
   -1   26    1      2.81     -1.65
    0   26    1     -1.60     -0.22
    1   26    1     -1.31      1.96
    2   26    1     -2.23     -0.63
    3   26    1      0.83     -0.95
    3   26    0      0.05     -0.17
    2   26    0     -1.21     -0.26
    1   26    0      0.76      0.54
    0   26    0     -1.37      3.09
   -1   27    7      0.86     -0.46
    0   27    7      0.33      0.02
   -2   27    6     -0.01     -0.15
   -1   27    6      0.71     -1.09
    0   27    6     -0.80      0.85
    1   27    6     -1.11     -0.34
   -2   27    5      1.03     -1.62
   -1   27    5      0.75     -0.49
    0   27    5     -1.04      0.30
    1   27    5     -1.51      0.87
   -2   27    4      1.79     -0.51
   -1   27    4      0.24      0.22
    0   27    4      0.49     -1.39
    1   27    4     -0.10      1.82
    2   27    4     -0.26      1.00
   -2   27    3      0.50     -0.61
   -1   27    3     -0.83      1.05
    0   27    3      1.76     -1.54
    1   27    3      0.71      0.79
    2   27    3     -0.46     -0.89
   -2   27    2     -1.02     -1.65
   -1   27    2     -0.96      1.40
    0   27    2      0.05     -0.89
    1   27    2      0.03     -0.86
    2   27    2     -0.07     -1.46
   -2   27    1      0.42     -1.59
   -1   27    1     -1.31     -0.84
    0   27    1     -2.33     -0.69
    1   27    1      0.63      0.48
    2   27    1     -0.50      0.21
    2   27    0     -1.61      1.25
    1   27    0      1.92      2.48
    0   28    6      0.20     -1.20
   -1   28    5     -1.05     -1.38
    0   28    5      0.90     -0.03
   -1   28    4     -0.71     -1.79
    0   28    4      0.27      0.69
    1   28    4     -0.45      1.16
   -1   28    3     -0.57     -1.69
    0   28    3     -0.86     -0.16
    1   28    3      0.81      0.79
   -2   28    2      0.45     -0.02
   -1   28    2      0.67     -0.89
    0   28    2     -0.88     -1.58
    1   28    2      0.18      0.31
   -2   28    1     -0.49      1.20
   -1   28    1      1.66     -0.75
    0   28    1     -1.24     -0.47
    1   28    1     -1.45      0.53
    2   28    0     -0.60      0.03
    1   28    0     -0.24     -0.15
    0   28    0     -1.86      1.24
    0   29    2      0.57     -0.22
   -1   29    1     -0.44     -0.92
    0   29    1     -0.59     -0.57
    1   29    0      0.59      1.79
    0   32    3     -0.83     -0.61
    7    0    0      0.97      0.00
    7    1    0      0.05      0.16
    0    2    0    102.41     29.14
    7    2    0      0.79      0.15
    7    3    0     -0.02      0.12
    7    4    0      0.35      0.10
    7    5    0     -0.20     -0.18
    7    6    0     -0.03     -0.17
    7    7    0     -0.10     -0.50
    7    8    0     -0.15     -0.43
    7    9    0      0.21     -0.42
    7   10    0     -0.14     -0.42
    7   11    0      0.33     -0.08
    7   12    0     -0.22     -0.24
    6   16    0     -0.11      0.53
    6   17    0      0.10     -0.34
    6   18    0     -0.01      0.21
    6   19    0      0.01      0.10
    5   21    0      0.37     -0.26
    5   22    0     -0.02     -0.54
    5   23    0      0.26      0.09
    5   24    0     -0.13      0.08
    4   25    0     -0.58      0.25
    4   26    0     -0.25     -0.07
    3   27    0     -0.50      0.24
    4   27    0     -0.06      0.00
    3   28    0     -0.17     -0.23
    2   29    0     -1.13      0.29
    3   29    0     -0.11     -0.08
    0   30    0     -0.94     -0.19
    1   30    0     -0.29     -0.15
    2   30    0     -0.22      0.19
    1   31    0     -0.03      0.76
    6    0    1     -0.15      0.00
    7    0    1      0.13      0.00
    7    1    1      0.01      0.18
    7    2    1      0.11     -0.16
   -7    3    1     -0.59      0.26
    7    3    1     -0.10      0.05
   -7    4    1      0.55     -0.21
    7    4    1      0.13     -0.32
   -7    5    1     -0.29      0.07
    7    5    1     -0.22     -0.34
   -7    6    1      0.06     -0.25
    7    6    1      0.24     -0.35
   -7    7    1      0.13      0.15
    7    7    1      0.01     -0.70
   -7    8    1     -0.13     -0.39
    7    8    1      0.30     -0.16
   -7    9    1      0.24      0.17
    7    9    1      0.39     -0.59
   -7   10    1      0.08     -0.34
    7   10    1      0.22      0.10
   -7   11    1      0.17     -0.07
    7   11    1      0.46     -0.27
   -7   12    1      0.24     -0.08
    6   15    1     -1.59     -0.88
   -6   16    1     -0.13      0.03
    6   16    1      0.56      0.15
   -6   17    1     -0.17      0.02
    6   17    1     -0.42     -0.56
   -6   18    1      0.38      0.11
    6   18    1      0.15      0.26
   -6   19    1     -0.08     -0.18
    6   19    1      0.11     -0.18
   -5   21    1      0.81     -0.26
    5   21    1     -0.08     -0.29
   -5   22    1     -0.11     -0.99
    5   22    1      0.09      0.30
   -5   23    1      0.38     -0.03
    5   23    1     -0.13     -0.14
   -5   24    1      0.03     -0.23
    4   24    1     -0.28     -0.92
   -4   25    1      0.40     -0.50
    4   25    1     -0.82     -0.29
   -4   26    1      0.11     -0.12
    4   26    1      0.05     -0.25
   -4   27    1      0.08     -0.14
   -3   27    1      0.16     -0.98
    3   27    1     -0.35      0.07
   -3   28    1      0.03     -0.15
    2   28    1     -0.93     -0.80
    3   28    1      0.70     -0.47
   -3   29    1      0.36     -0.52
   -2   29    1      0.32     -0.76
    1   29    1      0.55      0.35
    2   29    1     -0.35      0.19
    3   29    1      0.08     -0.15
   -2   30    1     -0.46      0.61
   -1   30    1      0.57     -0.09
    0   30    1     -0.54     -0.65
    1   30    1     -0.75     -0.10
    2   30    1     -0.09     -0.18
   -1   31    1     -0.34     -0.56
    0   31    1     -0.03      0.03
    1   31    1      0.14      0.19
   -7    0    2      0.29      0.00
    6    0    2      0.22      0.00
    7    0    2      0.01      0.00
   -7    1    2      0.02      0.32
    7    1    2      0.16     -0.24
   -7    2    2      0.46     -0.86
    7    2    2     -0.06      0.06
    7    3    2      0.20     -0.11
    7    4    2      0.00     -0.22
   -7    5    2      0.20      0.10
    7    5    2     -0.06     -0.17
   -7    6    2      0.34     -0.53
    7    6    2      0.33     -0.42
   -7    7    2      0.41      0.03
    7    7    2     -0.14     -0.31
   -7    8    2     -0.01     -0.20
    7    8    2      0.46     -0.22
   -7    9    2      0.43      0.16
    7    9    2      0.02     -0.11
   -7   10    2      0.01     -0.02
    7   10    2      0.15      0.04
   -7   11    2      0.13      0.24
   -7   12    2      0.22      0.18
   -7   13    2     -0.11      0.10
    6   15    2     -0.68     -0.01
   -6   16    2      0.19      0.22
    6   16    2      0.47     -0.88
   -6   17    2      0.01      0.26
    6   17    2     -0.46     -0.09
   -6   18    2      0.31     -0.02
    6   18    2      0.36      0.07
   -6   19    2     -0.21      0.26
    5   20    2      0.71     -0.50
   -5   21    2      1.15     -0.34
    5   21    2     -0.65      0.30
   -5   22    2      0.03      0.04
    5   22    2      0.37     -0.15
   -5   23    2      0.76     -0.12
    5   23    2     -0.58     -0.17
   -5   24    2     -0.12      0.07
    4   24    2      0.17     -1.76
   -4   25    2      0.81     -0.26
    4   25    2     -0.12      0.23
   -4   26    2      0.08     -0.04
    4   26    2      0.41     -0.39
   -4   27    2      0.06      0.07
   -3   27    2      0.42     -0.10
    3   27    2      0.32      0.90
   -3   28    2      0.74      0.06
    2   28    2     -0.50     -0.06
    3   28    2      0.78     -0.29
   -3   29    2      0.30     -0.28
   -2   29    2     -0.52     -1.28
   -1   29    2     -0.65      0.22
    1   29    2      0.57     -0.24
    2   29    2      0.18     -0.25
   -2   30    2      0.06      0.12
   -1   30    2      0.04     -0.62
    0   30    2     -0.71     -0.75
    1   30    2      0.03      0.14
    2   30    2     -0.14      0.16
   -1   31    2     -0.49     -0.28
    0   31    2      0.27      0.42
    1   31    2      0.33      0.06
   -7    0    3      0.82      0.00
   -6    0    3     -2.67      0.00
    6    0    3     -0.90      0.00
    7    0    3      0.07      0.00
   -7    1    3      0.52     -0.26
    7    1    3     -0.04     -0.22
   -7    2    3      0.76     -0.09
    7    2    3     -0.17      0.30
   -1    3    3      7.05     -9.04
    7    3    3     -0.03     -0.28
   -6    4    3     -1.04     -0.22
    7    4    3     -0.31     -0.18
   -7    5    3      0.87      0.50
   -6    5    3      0.88      0.58
    7    5    3      0.12     -0.26
   -7    6    3      0.37      0.12
    7    6    3      0.11     -0.71
   -7    7    3      0.52      0.24
    7    7    3      0.27     -0.16
   -7    8    3      0.04      0.23
    7    8    3      0.27     -0.49
   -7    9    3      0.31     -0.01
    7    9    3      0.39     -0.11
   -7   10    3     -0.18      0.12
   -7   11    3      0.02     -0.03
   -7   12    3     -0.14     -0.06
   -7   13    3     -0.29     -0.06
    6   14    3     -0.70     -0.61
    6   15    3      0.12     -0.38
   -6   16    3     -0.01      0.47
    6   16    3     -0.22     -0.62
   -6   17    3     -0.16      0.07
    6   17    3      0.00      0.25
   -6   18    3     -0.17     -0.08
    6   18    3      0.10     -0.23
   -6   19    3     -0.08      0.13
    5   20    3     -0.43     -0.30
   -5   21    3      0.14      0.29
    5   21    3      0.01      0.71
   -5   22    3      0.02      0.26
    5   22    3      0.00     -0.55
   -5   23    3      0.09     -0.24
    5   23    3     -0.19      0.41
   -5   24    3     -0.30      0.30
    4   24    3     -0.46     -0.75
   -4   25    3      0.37     -0.34
    4   25    3      0.47      0.62
   -4   26    3     -0.31      0.19
    3   26    3      0.38      0.22
    4   26    3     -0.07      0.00
   -4   27    3     -0.04     -0.14
   -3   27    3      0.41      0.96
    3   27    3      0.07      0.89
   -3   28    3     -0.09      0.18
   -2   28    3      1.07     -1.19
    2   28    3      0.71      0.31
    3   28    3      0.07      0.03
   -3   29    3     -0.31      0.45
   -2   29    3      0.06     -0.37
   -1   29    3     -0.22     -0.21
    0   29    3      0.92     -0.73
    1   29    3      0.43      0.77
    2   29    3     -0.14     -0.23
   -2   30    3      0.48     -0.13
   -1   30    3     -0.27     -0.99
    0   30    3     -1.15     -0.17
    1   30    3      0.05      0.55
    2   30    3     -0.06      0.28
   -1   31    3      0.36     -0.35
    0   31    3      0.54     -0.18
    1   31    3      0.16      0.33
   -7    0    4      1.42      0.00
   -1    0    4     25.05      0.00
    7    0    4     -0.05      0.00
   -7    1    4      0.11      0.34
    7    1    4     -0.16     -0.27
    7    2    4     -0.14      0.03
    7    3    4      0.02     -0.52
    7    4    4     -0.14     -0.17
   -7    5    4      0.09      0.43
    7    5    4      0.65     -0.20
   -7    6    4     -0.11      0.61
    7    6    4      0.14     -0.20
   -7    7    4      0.00      0.10
    7    7    4      0.67      0.37
   -7    8    4      0.06      0.34
    7    8    4      0.25      0.24
   -7    9    4      0.07     -0.29
   -7   10    4      0.15      0.20
   -7   11    4      0.17     -0.45
   -7   12    4      0.17     -0.01
   -7   13    4      0.16     -0.35
    6   13    4     -3.26     -1.37
    6   14    4      0.45     -1.24
    6   15    4     -0.73     -0.71
   -6   16    4      0.01     -0.14
    6   16    4     -0.30     -0.13
   -6   17    4     -0.17     -0.31
    6   17    4      0.10      0.07
   -6   18    4      0.00     -0.20
   -6   19    4     -0.05     -0.08
    5   19    4     -0.57     -0.52
    5   20    4     -0.86      0.54
   -5   21    4      0.43      0.22
    5   21    4      0.14     -0.01
   -5   22    4     -0.15     -0.51
    5   22    4     -0.57      0.03
   -5   23    4     -0.08     -0.38
    4   23    4     -0.24     -0.51
   -5   24    4     -0.12      0.01
   -4   24    4      0.20      0.03
    4   24    4     -0.56     -0.13
   -4   25    4     -0.30     -0.58
    4   25    4     -0.12      0.08
   -4   26    4     -0.07     -0.14
    3   26    4      0.15     -0.19
   -4   27    4      0.01     -0.56
   -3   27    4      0.03     -0.15
    3   27    4     -0.31      0.45
   -3   28    4     -1.26     -0.37
   -2   28    4      0.02     -0.53
    2   28    4      0.48     -0.02
    3   28    4     -0.08     -0.11
   -3   29    4     -0.35      0.07
   -2   29    4      0.60      0.08
   -1   29    4      0.36     -0.26
    0   29    4      0.14     -1.21
    1   29    4     -0.38      0.82
    2   29    4     -0.43      0.26
   -2   30    4     -0.11     -0.14
   -1   30    4     -0.07     -0.41
    0   30    4     -0.27      0.29
    1   30    4     -0.47      0.42
   -1   31    4      0.40     -0.20
    0   31    4      0.54     -0.75
   -7    0    5      0.66      0.00
    7    0    5      0.01      0.00
   -7    1    5     -0.44      0.93
    7    1    5     -0.01     -0.19
   -7    2    5      0.41      0.43
    7    2    5      0.03      0.00
   -7    3    5     -0.85      0.32
    7    3    5      0.21     -0.26
   -7    4    5      0.08      0.40
    7    4    5     -0.22      0.34
   -7    5    5     -0.56     -0.13
    7    5    5      0.45      0.15
   -7    6    5      0.18      0.18
    7    6    5     -0.77      0.51
   -7    7    5     -0.20     -0.13
   -7    8    5      0.55      0.19
   -7    9    5     -0.14     -0.08
   -7   10    5      0.72      0.37
   -7   11    5     -0.14     -0.13
    6   11    5     -0.12      0.10
   -7   12    5      0.60      0.46
    6   12    5      0.34     -7.17
   -7   13    5     -0.05     -0.08
    6   13    5     -0.44      0.50
    6   14    5      0.76     -2.77
    6   15    5     -0.53      0.22
   -6   16    5      0.45      0.06
    6   16    5     -0.23     -0.20
   -6   17    5      0.36     -0.27
   -6   18    5      0.08     -0.05
    5   18    5      0.09      0.12
   -6   19    5      0.15      0.07
    5   19    5     -1.29     -0.83
    5   20    5     -0.06      0.19
   -5   21    5      1.15     -0.18
    5   21    5     -0.39     -0.48
   -5   22    5     -0.20     -0.37
   -5   23    5      0.30     -0.10
    4   23    5     -0.24     -0.48
   -4   24    5      0.05     -0.97
    4   24    5      0.04     -0.91
   -4   25    5      0.40     -0.24
    3   25    5     -0.36      0.81
    4   25    5     -0.23     -0.10
   -4   26    5      0.32     -0.23
    3   26    5     -0.33     -0.26
   -3   27    5      0.42     -1.62
    2   27    5     -0.03      0.52
    3   27    5     -0.11      0.24
   -3   28    5     -0.92     -0.46
   -2   28    5      0.27      0.36
    1   28    5     -1.01      0.21
    2   28    5     -0.45     -0.36
   -2   29    5      0.77     -0.69
   -1   29    5      0.40     -0.14
    0   29    5     -0.69     -0.32
    1   29    5     -0.69      0.03
    2   29    5     -0.25      0.05
   -2   30    5     -0.05      0.10
   -1   30    5     -0.28     -0.41
    0   30    5      0.56      0.20
    1   30    5     -0.32     -0.07
    0   31    5     -0.14     -0.28
   -7    0    6     -0.23      0.00
    3    0    6      4.56      0.00
    7    0    6     -0.04      0.00
    7    1    6      0.06     -0.04
   -7    2    6     -0.06     -0.26
   -7    3    6     -0.40      0.27
   -7    4    6      0.24     -0.19
   -7    5    6     -0.15      0.23
   -7    6    6      0.37      0.06
   -7    7    6     -0.07      0.47
   -2    7    6     -3.21     -6.11
   -7    8    6      0.35      0.14
   -7    9    6     -0.29      0.50
   -7   10    6      0.32      0.02
    6   10    6     -1.08     -4.00
   -7   11    6     -0.46      0.29
    6   11    6      4.71     -0.51
   -7   12    6      0.28     -0.06
    6   12    6     -0.76     -2.83
    6   13    6      2.10      1.08
    6   14    6     -0.73     -1.24
   -6   15    6     -0.04      0.07
    6   15    6     -0.13      0.46
   -6   16    6      0.97      0.71
   -6   17    6     -0.04     -0.20
   -6   18    6      0.21      0.54
    5   18    6      0.30     -0.64
   -6   19    6      0.15     -0.23
    5   19    6     -0.37     -0.39
    5   20    6      0.36     -0.29
   -5   21    6      0.73     -0.46
    5   21    6     -0.27     -0.18
   -5   22    6     -0.44      0.01
    4   22    6      0.69     -1.27
   -5   23    6      0.35     -0.02
    4   23    6      0.83      0.10
   -4   24    6     -0.38      0.12
    4   24    6      0.13     -0.66
   -4   25    6      0.75      0.15
    3   25    6     -1.19     -0.25
   -4   26    6     -0.16      0.24
   -3   26    6      0.00     -0.26
    3   26    6     -0.34     -0.21
   -3   27    6      0.53     -1.49
    2   27    6      0.02     -0.59
    3   27    6     -0.24     -0.17
   -3   28    6     -0.26      0.19
   -2   28    6      1.59      0.82
   -1   28    6     -0.77     -1.02
    1   28    6     -0.48     -0.89
    2   28    6      0.06     -0.33
   -2   29    6      0.15     -0.13
   -1   29    6      0.72     -0.45
    0   29    6     -0.46      0.42
    1   29    6     -0.17     -0.20
    2   29    6      0.13     -0.22
   -1   30    6     -0.36     -0.43
    0   30    6      0.42     -0.55
    1   30    6      0.08     -0.20
   -7    0    7     -0.37      0.00
   -7    1    7      0.02      0.08
   -7    2    7     -0.30     -0.08
   -7    3    7      0.04      0.19
   -7    4    7     -0.29      0.08
   -7    5    7     -0.06      0.31
   -7    6    7     -0.40      0.21
   -7    7    7     -0.22      0.21
    6    7    7      0.73     -1.64
   -7    8    7     -0.30      0.07
    6    8    7      1.67     -0.40
   -7    9    7     -0.17     -0.13
    6    9    7      1.68     -1.28
   -7   10    7      0.06     -0.08
    6   10    7      0.41      0.70
   -7   11    7      0.19     -0.33
    6   11    7      1.31     -0.34
   -7   12    7      0.23     -0.09
    6   12    7     -0.95      0.45
    6   13    7      0.16     -0.12
    6   14    7     -1.02     -0.32
   -6   15    7      0.58      0.65
   -6   16    7      1.02     -0.17
    5   16    7      0.43     -0.31
   -6   17    7     -0.40      0.38
    5   17    7     -0.29     -0.68
   -6   18    7      0.70      0.30
    5   18    7      0.56      0.22
   -6   19    7     -0.44     -0.13
    5   19    7      0.12     -0.02
   -5   20    7      0.28     -0.07
    5   20    7      0.22      0.06
   -5   21    7      0.45     -0.64
    4   21    7      0.87      0.28
   -5   22    7     -0.14      0.02
    4   22    7      0.27      0.08
   -5   23    7      0.28     -0.40
    4   23    7      0.37      0.25
   -4   24    7     -0.58      0.62
    3   24    7      0.34     -1.93
    4   24    7     -0.16     -0.12
   -4   25    7      0.20     -0.27
    3   25    7     -1.00     -0.31
   -4   26    7     -0.52      0.27
   -3   26    7      0.08      0.00
    2   26    7      1.44     -0.43
    3   26    7      0.23     -0.80
   -3   27    7      0.04     -1.01
   -2   27    7     -0.54      2.28
    1   27    7      0.47     -0.81
    2   27    7      0.10      0.17
   -3   28    7      0.05      0.24
   -2   28    7      0.53      0.18
   -1   28    7     -0.27     -0.62
    0   28    7     -0.02     -1.02
    1   28    7      0.19     -0.63
    2   28    7      0.53     -0.04
   -2   29    7     -0.87      0.77
   -1   29    7      0.56     -0.36
    0   29    7      0.47      0.36
    1   29    7      0.45     -0.01
   -1   30    7     -0.33     -0.01
    0   30    7      0.11     -0.52
   -7    0    8     -0.32      0.00
   -1    0    8     -0.56      0.00
   -7    1    8     -0.01     -0.08
   -7    2    8     -0.34      0.05
   -7    3    8     -0.07     -0.20
    6    3    8      0.81     -0.34
   -7    4    8     -0.42      0.05
    6    4    8     -0.76     -1.04
   -7    5    8     -0.14     -0.37
    6    5    8      0.77      0.18
   -7    6    8     -0.31     -0.12
    6    6    8      0.04     -1.20
   -7    7    8     -0.17     -0.42
    6    7    8      0.17      0.55
   -7    8    8      0.27     -0.23
    6    8    8      0.31     -0.81
   -7    9    8     -0.16     -0.27
    6    9    8     -0.54      0.41
   -7   10    8      0.91      0.18
    6   10    8     -0.10     -0.60
   -7   11    8     -0.09     -0.06
    6   11    8     -0.78     -0.08
    6   12    8     -0.31     -0.79
   -6   14    8      0.91      2.22
   -6   15    8      2.80      0.24
    5   15    8     -0.95     -0.55
   -6   16    8      0.47      0.74
    5   16    8      0.88     -0.07
   -6   17    8      0.60      0.93
    5   17    8     -0.61      0.13
   -6   18    8      0.38     -0.12
    5   18    8      0.38      0.42
    5   19    8     -0.31      0.11
   -5   20    8      0.56     -0.26
    4   20    8      0.65      0.57
   -5   21    8      0.57     -0.18
    4   21    8     -0.33      0.17
   -5   22    8      0.34      0.07
    4   22    8      0.02     -0.13
   -4   23    8      0.07     -0.22
    3   23    8      0.21      0.19
    4   23    8     -0.13     -0.08
   -4   24    8     -0.26      0.04
    3   24    8      0.17     -1.77
   -4   25    8      0.06     -0.38
   -3   25    8      0.32     -1.44
    3   25    8      0.20      0.25
   -3   26    8      0.14     -0.07
    2   26    8      0.84     -0.15
    3   26    8      0.12     -0.54
   -3   27    8      0.10     -0.77
   -2   27    8     -0.27      1.44
   -1   27    8      1.21     -0.19
    0   27    8      0.61      0.13
    1   27    8      0.59     -0.05
    2   27    8     -0.16      0.82
   -2   28    8     -1.11     -0.90
   -1   28    8     -0.57     -0.50
    0   28    8      0.30     -0.13
    1   28    8      0.53      0.29
    2   28    8      0.08     -0.05
   -2   29    8     -0.46      0.22
   -1   29    8      0.27     -0.25
    0   29    8      0.47      0.31
    1   29    8      0.21      0.12
   -7    0    9     -0.47      0.00
    6    0    9     -0.22      0.00
   -7    1    9      0.02     -0.15
    6    1    9      0.10     -0.80
   -7    2    9     -0.32     -0.08
    6    2    9     -0.37      0.39
   -7    3    9      0.07     -0.21
    6    3    9      0.30     -0.66
   -7    4    9     -0.05     -0.09
    6    4    9     -0.62      0.27
   -7    5    9      0.23     -0.26
    6    5    9      0.38     -0.34
   -7    6    9      0.15     -0.17
    6    6    9     -0.68     -0.26
   -7    7    9      0.43      0.01
    6    7    9      0.25     -0.09
   -7    8    9      0.29     -0.33
    6    8    9     -0.55     -0.75
   -7    9    9      0.22      0.57
    6    9    9      0.16     -0.08
   -7   10    9      0.37     -0.31
    6   10    9     -0.35     -0.90
   -6   13    9      0.64      0.02
   -6   14    9      2.36      5.89
    5   14    9      0.40     -0.64
   -6   15    9      0.61      0.22
    5   15    9     -0.29      0.12
   -6   16    9      0.22      2.82
    5   16    9      0.17     -0.26
   -6   17    9      0.32      0.54
    5   17    9     -0.42      0.26
    5   18    9      0.04     -0.12
   -5   19    9      1.31      0.37
    4   19    9     -1.09      0.64
   -5   20    9      0.33      0.19
    4   20    9      0.38     -0.08
   -5   21    9      0.56      0.27
    4   21    9     -0.37      0.09
   -5   22    9      0.24      0.04
   -4   22    9     -0.87     -0.56
    4   22    9      0.13     -0.42
   -4   23    9      0.81     -0.22
    3   23    9      0.47     -0.24
   -4   24    9     -0.46      0.06
    3   24    9     -0.26     -0.35
   -4   25    9      0.16     -0.12
   -3   25    9      0.16     -1.03
    2   25    9     -0.43      1.23
    3   25    9      0.19      0.13
   -3   26    9      0.59      0.20
   -2   26    9     -1.65     -0.33
    1   26    9      0.86     -0.21
    2   26    9      0.12     -0.29
   -3   27    9      0.08     -0.31
   -2   27    9      0.18     -0.37
   -1   27    9      0.91     -0.82
    0   27    9      0.20      0.71
    1   27    9     -0.13      0.79
    2   27    9     -0.30      0.48
   -2   28    9     -0.76     -0.65
   -1   28    9     -0.50     -0.16
    0   28    9      0.12      0.13
    1   28    9      0.20      0.14
   -1   29    9      0.37     -0.39
    0   29    9      0.02      0.37
   -7    0   10     -0.35      0.00
    6    0   10     -0.30      0.00
   -7    1   10      0.13     -0.41
    6    1   10     -0.22     -0.18
   -7    2   10     -0.29      0.05
    6    2   10     -0.31      0.15
   -7    3   10      0.27     -0.06
    6    3   10     -0.44     -0.32
   -7    4   10     -0.18      0.18
    6    4   10     -0.32      0.12
   -7    5   10      0.36      0.20
    6    5   10     -0.32     -0.38
   -7    6   10     -0.17      0.34
    6    6   10     -0.22     -0.03
   -7    7   10      0.59      0.25
    6    7   10     -0.07     -0.31
   -7    8   10     -0.34      0.28
    6    8   10     -0.05     -0.06
   -7    9   10      0.73      0.21
   -6   12   10      2.64      3.77
    5   12   10      0.68     -0.28
   -6   13   10     -3.54      2.45
    5   13   10     -0.24     -0.55
   -6   14   10      1.54      3.10
    5   14   10      0.13      0.03
   -6   15   10     -2.35      0.46
    5   15   10      0.02     -0.18
   -6   16   10      0.25      1.60
    5   16   10     -0.07     -0.01
   -6   17   10     -0.57     -0.13
   -5   18   10      0.11      1.52
    4   18   10      0.03     -0.03
   -5   19   10      0.72      0.45
    4   19   10     -0.89      0.25
   -5   20   10      0.00      0.65
    4   20   10      0.13     -0.27
   -5   21   10      0.32      0.34
    3   21   10     -0.88     -0.33
    4   21   10     -0.11      0.02
   -4   22   10     -0.39      0.33
    3   22   10      0.84     -0.23
   -4   23   10      0.55     -0.81
    3   23   10     -0.47     -0.29
   -4   24   10     -0.45      0.43
   -3   24   10      1.32      0.14
    2   24   10      0.17     -0.54
    3   24   10      0.01     -0.08
   -3   25   10     -0.18      0.01
   -2   25   10     -0.85     -0.03
    1   25   10      0.23      1.03
    2   25   10     -0.53      0.83
   -3   26   10      0.52      0.28
   -2   26   10     -0.28     -0.56
   -1   26   10      0.37      0.05
    0   26   10     -0.33     -0.10
    1   26   10     -0.33     -0.43
    2   26   10      0.09     -0.58
   -2   27   10     -0.01     -0.26
   -1   27   10      0.07     -0.49
    0   27   10     -0.28      0.56
    1   27   10     -0.07      0.39
   -1   28   10      0.08      0.04
    0   28   10     -0.22     -0.15
   -7    0   11      0.22      0.00
    1    0   11      1.30      0.00
    6    0   11     -0.54      0.00
   -7    1   11      0.02     -0.32
    6    1   11     -0.10     -0.37
   -7    2   11     -0.01      0.27
    6    2   11     -0.48     -0.10
   -7    3   11      0.02     -0.08
    6    3   11     -0.23     -0.29
   -7    4   11     -0.36      0.36
   -7    5   11     -0.02      0.11
   -7    6   11     -0.45      0.47
   -7    7   11      0.07      0.05
    5    9   11     -0.67     -0.02
    5   10   11      0.60     -0.42
   -6   11   11     -1.33      2.45
    5   11   11     -0.58     -0.30
   -6   12   11     -0.45      0.12
    5   12   11      0.45     -0.25
   -6   13   11     -1.59      1.25
    5   13   11     -0.39     -0.43
   -6   14   11      0.63     -0.29
    5   14   11      0.29      0.15
   -6   15   11     -0.97      0.03
    5   15   11     -0.11     -0.36
   -6   16   11      0.70     -0.02
    4   16   11      0.03     -0.43
   -5   17   11     -0.73      0.06
    4   17   11     -1.34     -0.11
   -5   18   11     -0.26      1.14
    4   18   11      0.32     -0.41
   -5   19   11     -0.24      0.14
    4   19   11     -0.44     -0.11
   -5   20   11     -0.39      0.42
    3   20   11      0.95     -1.41
    4   20   11      0.29     -0.12
   -4   21   11      0.23     -0.51
    3   21   11     -0.55      1.00
   -4   22   11      0.32      0.04
    3   22   11      0.48     -0.79
   -4   23   11     -0.04     -0.74
   -3   23   11     -0.37      1.01
    2   23   11     -0.64      0.97
    3   23   11     -0.47      0.37
   -3   24   11      0.56     -0.07
    1   24   11     -0.17     -0.28
    2   24   11     -0.25     -0.91
   -3   25   11     -0.46      0.51
   -2   25   11     -0.03      0.68
   -1   25   11     -0.38      0.95
    0   25   11     -0.56      0.61
    1   25   11      0.13     -0.11
    2   25   11      0.07      0.53
   -2   26   11     -0.20     -0.76
   -1   26   11     -0.01     -0.61
    0   26   11     -0.72     -0.85
    1   26   11     -0.10     -0.43
   -2   27   11     -0.21      0.19
   -1   27   11     -0.20      0.24
    0   27   11      0.06      0.05
    1   27   11      0.18      0.00
   -7    0   12      0.28      0.00
   -7    1   12     -0.11      0.15
   -7    2   12      0.12      0.09
   -7    3   12     -0.21      0.07
   -7    4   12     -0.16      0.10
    5    4   12     -0.21      0.15
    5    5   12     -0.73      0.54
    5    6   12     -0.22     -0.13
    5    7   12     -0.61      0.03
    5    8   12     -0.07     -0.42
   -6    9   12     -0.47     -0.06
    5    9   12     -0.19     -0.30
   -6   10   12     -0.84      1.05
    5   10   12      0.18     -0.50
   -6   11   12      0.19     -0.24
    5   11   12     -0.04     -0.29
   -6   12   12      0.18      0.51
    5   12   12      0.41     -0.30
   -6   13   12      0.72      0.17
    5   13   12     -0.18     -0.19
   -6   14   12      0.97      0.25
    4   14   12     -0.04     -1.06
    4   15   12     -1.07     -0.06
   -5   16   12      0.26     -0.44
    4   16   12      0.64     -0.72
   -5   17   12     -0.33     -0.62
    4   17   12     -0.48      0.12
   -5   18   12      0.09      0.05
    4   18   12      0.68     -0.17
   -5   19   12     -0.23     -0.44
    3   19   12      0.61      0.66
   -4   20   12     -0.24     -0.72
    3   20   12     -0.51     -0.61
   -4   21   12      0.55     -0.28
    3   21   12      0.14      0.47
   -4   22   12      0.23     -0.34
   -3   22   12     -0.22     -0.40
    2   22   12     -0.17     -0.83
    3   22   12     -0.44     -0.54
   -4   23   12      0.01     -0.20
   -3   23   12     -0.17      0.70
    1   23   12     -0.41      0.07
    2   23   12      0.10      0.06
   -3   24   12     -0.11     -0.49
   -2   24   12     -0.94     -0.90
   -1   24   12     -1.06     -1.27
    0   24   12     -1.12     -1.07
    1   24   12      0.69     -0.47
    2   24   12     -0.05     -0.17
   -3   25   12     -0.05      0.52
   -2   25   12      0.53      0.58
   -1   25   12     -0.03      0.35
    0   25   12      0.33     -0.57
    1   25   12      0.16      0.11
   -2   26   12     -0.29     -0.56
   -1   26   12     -0.42     -0.76
    0   26   12     -0.32     -0.54
    1   26   12      0.15     -0.34
    5    0   13     -0.62      0.00
    5    1   13     -0.19      0.21
    5    2   13     -0.58     -0.27
    5    3   13     -0.42      0.04
    5    4   13     -0.36     -0.48
    5    5   13     -0.32     -0.22
   -6    6   13     -0.91      0.29
    5    6   13      0.02     -0.42
   -6    7   13     -0.46     -0.31
    5    7   13      0.02     -0.36
   -6    8   13     -0.28      0.10
    5    8   13      0.28     -0.12
   -6    9   13     -0.36     -0.25
    5    9   13      0.29     -0.27
   -6   10   13      0.57      0.44
    5   10   13      0.29      0.04
   -6   11   13     -0.07      0.06
   -6   12   13      0.79      1.01
    4   12   13      0.45     -0.41
   -6   13   13      0.27      0.54
    4   13   13     -0.18     -0.52
    4   14   13      0.29     -0.40
   -5   15   13      2.38     -1.38
    4   15   13     -0.04      0.32
   -5   16   13      1.20      0.51
    4   16   13      0.41     -0.18
   -5   17   13      0.75     -0.21
    3   17   13      0.27     -0.06
    4   17   13     -0.17      0.60
   -5   18   13      0.52      0.13
    3   18   13      0.15      0.30
   -4   19   13      0.96     -1.10
    3   19   13      0.07     -0.26
   -4   20   13      0.16      0.04
    2   20   13      0.43     -1.45
    3   20   13     -0.05     -0.08
   -4   21   13      0.68     -0.55
   -3   21   13     -0.32      0.01
    2   21   13     -0.18      0.49
   -4   22   13      0.10      0.02
   -3   22   13     -0.22     -0.11
    1   22   13      0.79     -1.11
    2   22   13      0.35     -0.29
   -3   23   13      0.32      0.05
   -2   23   13      0.70      0.24
   -1   23   13      0.44      0.17
    0   23   13     -0.36     -0.99
    1   23   13     -0.08      0.82
    2   23   13     -0.14      0.31
   -3   24   13     -0.19     -0.01
   -2   24   13     -0.76      0.03
   -1   24   13     -0.25     -1.06
    0   24   13      0.62     -0.55
    1   24   13      0.34     -0.46
   -2   25   13      0.48      0.35
   -1   25   13      0.32      0.14
    0   25   13      0.24     -0.51
    1   25   13      0.22      0.28
   -1   26   13     -0.09     -0.36
   -6    0   14     -1.11      0.00
    5    0   14     -0.44      0.00
   -6    1   14     -0.09      0.45
    5    1   14      0.07     -0.26
   -6    2   14     -0.82     -0.24
    5    2   14     -0.31     -0.17
   -6    3   14     -0.11      0.07
    5    3   14      0.20     -0.23
   -6    4   14     -0.39     -0.09
    5    4   14     -0.02     -0.13
   -6    5   14      0.19     -0.31
    5    5   14      0.27     -0.11
   -6    6   14     -0.28      0.03
    5    6   14      0.22      0.14
   -6    7   14      0.58     -0.25
   -6    8   14     -0.19     -0.15
   -6    9   14      0.55      0.22
    4    9   14     -0.31     -0.36
   -6   10   14      0.09     -0.18
    4   10   14      1.18      0.19
   -6   11   14      0.05      0.48
    4   11   14     -0.43     -0.38
    4   12   14      0.59      0.41
   -5   13   14      0.78     -0.57
    4   13   14     -0.25     -0.17
   -5   14   14      3.10      3.56
    4   14   14      0.08      0.36
   -5   15   14      0.45     -0.14
    3   15   14     -0.43      0.47
    4   15   14     -0.17      0.22
   -5   16   14      0.88      1.82
    3   16   14      0.50      0.42
   -5   17   14      0.00      0.04
   -4   17   14      0.49      0.12
    3   17   14     -0.25      0.16
   -4   18   14      1.16      0.37
    3   18   14      0.36      0.01
   -4   19   14      0.21     -0.21
    2   19   14      0.67      0.33
    3   19   14     -0.04      0.11
   -4   20   14      0.63      0.53
   -3   20   14      0.14     -0.40
    2   20   14     -0.55     -0.40
   -3   21   14     -0.57     -0.11
   -2   21   14     -0.42      0.06
    1   21   14      0.21      0.90
    2   21   14      0.07      0.46
   -3   22   14      0.16      0.22
   -2   22   14     -0.47      0.00
   -1   22   14     -0.27     -0.45
    0   22   14      1.10     -1.53
    1   22   14      0.09     -0.75
    2   22   14     -0.25     -0.08
   -3   23   14     -0.06     -0.03
   -2   23   14     -0.02     -0.01
   -1   23   14      0.62      0.60
    0   23   14     -0.03      0.70
    1   23   14      0.06      0.53
   -2   24   14     -0.41      0.17
   -1   24   14     -0.15     -0.34
    0   24   14      0.81     -0.47
   -6    0   15     -0.20      0.00
   -6    1   15      0.08     -0.06
   -6    2   15     -0.13      0.00
   -6    3   15      0.08      0.13
    4    3   15      0.60     -0.72
   -6    4   15      0.00      0.16
    4    4   15      1.61      0.15
   -6    5   15      0.04      0.02
    4    5   15      0.35      0.02
   -6    6   15     -0.01      0.38
    4    6   15      1.01      0.21
   -6    7   15      0.38     -0.27
    4    7   15     -0.16      0.33
   -6    8   15     -0.15      0.39
    4    8   15      0.60      0.13
   -6    9   15      0.75     -0.27
    4    9   15     -0.53      0.22
    4   10   15      0.42      0.08
   -5   11   15     -0.75      2.55
    4   11   15     -0.60     -0.01
   -5   12   15      2.33      1.56
    4   12   15      0.25      0.07
   -5   13   15     -1.96      1.49
    3   13   15     -0.47      0.36
   -5   14   15      1.54      1.21
    3   14   15      0.12      0.29
   -5   15   15     -1.48      0.14
    3   15   15     -0.35      0.15
   -5   16   15      0.64      0.35
   -4   16   15     -0.14      0.06
    3   16   15      0.16      0.05
   -4   17   15     -0.14      0.80
    2   17   15     -0.27     -0.41
    3   17   15     -0.09      0.14
   -4   18   15      0.10      0.24
    2   18   15     -0.03      0.32
   -4   19   15     -0.47      0.43
   -3   19   15     -0.67      0.06
    1   19   15      0.06      0.57
    2   19   15     -0.15     -0.47
   -3   20   15      0.07     -0.69
   -2   20   15     -0.34     -0.70
    0   20   15      0.05     -0.41
    1   20   15     -0.07     -0.55
    2   20   15     -0.33      0.16
   -3   21   15     -0.46      0.00
   -2   21   15      0.18     -0.16
   -1   21   15      0.07      0.37
    0   21   15      0.67      1.02
    1   21   15      0.15      0.52
   -2   22   15     -0.22     -0.27
   -1   22   15     -0.41      0.00
    0   22   15     -0.28     -0.55
    1   22   15     -0.03     -0.49
   -2   23   15      0.05     -0.07
   -1   23   15      0.12      0.34
    0   23   15      0.05      0.85
   -6    0   16      0.00      0.00
    4    0   16      1.04      0.00
   -6    1   16     -0.02      0.25
    4    1   16      0.05     -0.02
   -6    2   16     -0.16     -0.08
    4    2   16      0.80      0.25
   -6    3   16     -0.05      0.23
    4    3   16      0.06      0.05
   -6    4   16     -0.30     -0.24
    4    4   16      0.32      0.26
   -6    5   16     -0.02      0.13
    4    5   16     -0.03      0.09
   -6    6   16     -0.09     -0.15
    4    6   16      0.00      0.07
   -5    7   16      1.02     -0.35
    4    7   16     -0.14      0.05
   -5    8   16      0.25      1.36
    4    8   16      0.02     -0.07
   -5    9   16      0.32      0.19
    4    9   16     -0.18     -0.05
   -5   10   16     -0.26      0.39
    3   10   16     -0.07      0.54
   -5   11   16     -0.38      0.49
    3   11   16     -0.62      0.16
   -5   12   16      0.08     -0.60
    3   12   16      0.12      0.29
   -5   13   16     -0.53      0.37
    3   13   16     -0.48      0.00
   -5   14   16      0.64     -0.77
   -4   14   16     -0.90      0.01
    3   14   16      0.26      0.12
   -4   15   16      0.42     -0.54
    2   15   16     -0.66      0.95
    3   15   16     -0.18      0.00
   -4   16   16     -0.73     -0.14
    2   16   16      0.42     -0.65
   -4   17   16     -0.13     -0.06
   -3   17   16     -0.04      0.15
    1   17   16     -0.10      0.75
    2   17   16     -0.63      0.18
   -4   18   16     -0.51     -0.13
   -3   18   16     -0.27     -0.89
    1   18   16     -0.27     -0.50
    2   18   16      0.27     -0.31
   -3   19   16      0.04     -0.02
   -2   19   16      0.48     -0.47
   -1   19   16      0.02      0.16
    0   19   16     -0.03      0.43
    1   19   16     -0.06      0.41
    2   19   16     -0.47     -0.15
   -3   20   16     -0.09     -0.37
   -2   20   16      0.34     -0.09
   -1   20   16     -0.11     -0.09
    0   20   16     -0.37     -0.04
    1   20   16     -0.22     -0.31
   -2   21   16      0.21     -0.32
   -1   21   16      0.01      0.02
    0   21   16     -0.12      0.07
    1   21   16      0.01      0.14
   -1   22   16     -0.16     -0.12
    0   22   16     -0.45     -0.36
   -5    0   17      0.72      0.00
    4    0   17      0.05      0.00
   -5    1   17      0.11      1.03
    4    1   17     -0.01     -0.23
   -5    2   17      0.79      0.15
    4    2   17      0.03      0.08
   -5    3   17      0.27      0.78
    4    3   17     -0.01     -0.24
   -5    4   17      0.86      0.35
    3    4   17      0.79      0.69
    4    4   17     -0.05      0.13
   -5    5   17      0.25      0.39
    3    5   17     -0.48     -0.32
   -5    6   17      0.79      0.43
    3    6   17     -0.08      0.57
   -5    7   17      0.08     -0.07
    3    7   17     -0.65     -0.29
   -5    8   17      0.61      0.24
    3    8   17     -0.43      0.27
   -5    9   17      0.08     -0.46
    3    9   17     -0.60     -0.16
   -5   10   17      0.54     -0.06
    3   10   17     -0.26     -0.02
   -5   11   17      0.33     -0.49
   -4   11   17      0.34     -1.23
    3   11   17     -0.40      0.07
   -5   12   17      0.54     -0.12
   -4   12   17      0.43      0.21
    2   12   17     -0.91     -0.54
    3   12   17      0.09     -0.11
   -4   13   17      0.56     -1.26
    2   13   17      0.48      0.42
    3   13   17     -0.20      0.23
   -4   14   17      0.45      0.32
    2   14   17     -0.42     -0.70
   -4   15   17      0.38     -0.78
   -3   15   17      0.30     -0.12
    1   15   17     -0.01      0.25
    2   15   17      0.29      0.32
   -4   16   17     -0.06      0.17
   -3   16   17     -0.41     -0.63
    1   16   17     -0.43     -0.28
    2   16   17     -0.14     -0.58
   -3   17   17      0.20     -0.22
   -2   17   17      0.37      0.45
   -1   17   17     -0.57     -0.08
    0   17   17     -0.56      0.72
    1   17   17     -0.08      0.13
    2   17   17      0.04      0.20
   -3   18   17     -0.32     -0.09
   -2   18   17      0.75      0.00
   -1   18   17      0.50      0.16
    0   18   17      0.21     -0.03
    1   18   17     -0.40     -0.31
   -3   19   17      0.06     -0.22
   -2   19   17      0.12      0.28
   -1   19   17     -0.10     -0.12
    0   19   17     -0.12      0.03
    1   19   17     -0.19      0.05
   -2   20   17      0.44     -0.14
   -1   20   17      0.20      0.11
    0   20   17     -0.04     -0.35
   -5    0   18     -0.18      0.00
    3    0   18      1.02      0.00
   -5    1   18      0.06      0.24
    3    1   18     -0.15      0.36
   -5    2   18     -0.08     -0.10
    3    2   18      0.78      0.09
   -5    3   18      0.19      0.17
    3    3   18     -0.41      0.09
   -5    4   18      0.02      0.01
    3    4   18      0.31     -0.03
   -5    5   18      0.31      0.08
    2    5   18     -1.52      0.08
    3    5   18     -0.55     -0.28
   -5    6   18     -0.01      0.09
    3    6   18      0.02     -0.22
   -5    7   18      0.35      0.01
    3    7   18     -0.49     -0.47
   -5    8   18      0.07     -0.03
   -4    8   18      0.35     -0.75
    2    8   18     -0.11      0.28
    3    8   18     -0.03     -0.23
   -5    9   18      0.29     -0.04
   -4    9   18      0.06     -0.50
    2    9   18     -0.34     -0.65
    3    9   18     -0.26     -0.34
   -4   10   18      0.84     -0.28
    2   10   18     -0.01      0.17
   -4   11   18      0.14     -0.23
    2   11   18      0.16     -0.45
   -4   12   18      0.91      0.18
   -3   12   18      0.34     -0.77
    2   12   18      0.18      0.10
   -4   13   18      0.01     -0.07
   -3   13   18      0.82      0.14
    1   13   18     -0.25      0.29
    2   13   18      0.33     -0.15
   -4   14   18      0.42      0.28
   -3   14   18     -0.01     -0.50
   -2   14   18      0.23      0.21
    1   14   18      0.17     -0.21
    2   14   18      0.15      0.09
   -3   15   18      0.31     -0.02
   -2   15   18     -0.15      0.91
   -1   15   18     -0.27      0.72
    0   15   18     -0.34      2.00
    1   15   18     -0.22      0.03
   -3   16   18     -0.10     -0.17
   -2   16   18      0.08      0.17
   -1   16   18      0.70     -0.65
    0   16   18      0.23     -0.61
    1   16   18     -0.09     -0.12
   -3   17   18     -0.12     -0.22
   -2   17   18     -0.07      0.53
   -1   17   18     -0.29      0.26
    0   17   18     -0.29      0.76
    1   17   18     -0.14     -0.12
   -2   18   18     -0.08     -0.04
   -1   18   18      0.52     -0.22
    0   18   18      0.25     -0.12
   -1   19   18     -0.08      0.06
   -5    0   19      0.24      0.00
   -4    0   19     -0.74      0.00
    1    0   19      0.38      0.00
    2    0   19     -0.66      0.00
    3    0   19      0.42      0.00
   -5    1   19      0.14     -0.09
   -4    1   19     -0.06      0.27
    2    1   19     -0.06     -0.23
    3    1   19     -0.04      0.20
   -5    2   19      0.27     -0.16
   -4    2   19     -0.48     -0.90
    2    2   19     -0.49     -0.51
    3    2   19      0.29      0.02
   -5    3   19      0.23     -0.02
   -4    3   19     -0.06      0.03
    2    3   19     -0.20     -0.25
    3    3   19     -0.04     -0.01
   -5    4   19      0.22     -0.09
   -4    4   19     -0.01     -1.12
    2    4   19     -0.17     -0.64
   -4    5   19      0.13     -0.15
    2    5   19     -0.34     -0.31
   -4    6   19      0.25     -0.82
    2    6   19      0.09     -0.45
   -4    7   19      0.30     -0.04
    2    7   19     -0.31     -0.30
   -4    8   19      0.31     -0.45
    2    8   19      0.28     -0.21
   -4    9   19      0.23      0.21
   -3    9   19      0.39      1.03
    1    9   19     -0.67     -0.07
    2    9   19     -0.13     -0.11
   -4   10   19      0.30     -0.22
   -3   10   19      0.47     -0.35
    1   10   19      0.22     -0.39
    2   10   19      0.42     -0.01
   -4   11   19     -0.01      0.24
   -3   11   19      0.46      0.55
    1   11   19     -0.17      0.13
    2   11   19      0.01      0.18
   -3   12   19      0.01      0.02
   -2   12   19     -0.48      0.24
   -1   12   19      0.20      0.03
    0   12   19     -1.34      0.27
    1   12   19      0.18     -0.23
   -3   13   19      0.41      0.21
   -2   13   19     -0.25      0.17
   -1   13   19      0.22      0.02
    0   13   19      0.90      0.44
    1   13   19     -0.11      0.31
   -3   14   19     -0.26     -0.03
   -2   14   19     -0.43     -0.19
   -1   14   19      0.03     -0.41
    0   14   19     -1.12     -0.36
    1   14   19      0.11     -0.09
   -3   15   19      0.17      0.07
   -2   15   19     -0.32      0.09
   -1   15   19      0.30      0.12
    0   15   19      0.56      0.72
    1   15   19     -0.17      0.12
   -2   16   19     -0.23     -0.28
   -1   16   19      0.22     -0.44
    0   16   19     -0.40     -0.46
   -1   17   19      0.27      0.12
   -4    0   20      0.41      0.00
   -3    0   20      0.82      0.00
    1    0   20     -0.60      0.00
    2    0   20      0.10      0.00
   -4    1   20     -0.01     -0.20
   -3    1   20     -0.03      0.43
    1    1   20     -0.08      0.29
    2    1   20      0.04     -0.17
   -4    2   20      0.41     -0.23
   -3    2   20      0.57     -0.18
    1    2   20     -0.70     -0.10
    2    2   20      0.10     -0.10
   -4    3   20     -0.03     -0.15
   -3    3   20      0.10      0.37
    1    3   20     -0.30      0.26
    2    3   20      0.07     -0.18
   -4    4   20      0.33     -0.23
   -3    4   20      0.09     -0.44
    1    4   20     -0.66     -0.54
    2    4   20      0.09     -0.15
   -4    5   20     -0.03     -0.09
   -3    5   20      0.46      0.50
    1    5   20     -0.51      0.11
    2    5   20      0.02     -0.17
   -4    6   20      0.11     -0.09
   -3    6   20     -0.18     -0.65
    1    6   20     -0.18     -0.92
    2    6   20      0.09     -0.12
   -4    7   20      0.01      0.01
   -3    7   20      0.59      0.73
   -2    7   20     -0.69      0.08
    0    7   20     -0.74      0.02
    1    7   20     -0.50     -0.04
    2    7   20     -0.04     -0.07
   -4    8   20     -0.08     -0.05
   -3    8   20     -0.13     -0.57
   -2    8   20      0.04      0.05
   -1    8   20      0.96     -0.28
    0    8   20      0.68     -0.59
    1    8   20      0.36     -0.77
   -3    9   20      0.34      0.65
   -2    9   20     -0.62     -0.16
   -1    9   20     -0.83      0.50
    0    9   20     -0.75     -0.15
    1    9   20     -0.29      0.00
   -3   10   20     -0.02     -0.23
   -2   10   20      0.13      0.09
   -1   10   20      0.66     -0.32
    0   10   20      0.64      0.11
    1   10   20      0.42     -0.31
   -3   11   20      0.05      0.18
   -2   11   20     -0.45     -0.37
   -1   11   20     -0.57     -0.16
    0   11   20     -0.41     -0.41
    1   11   20     -0.14      0.19
   -3   12   20     -0.06      0.05
   -2   12   20      0.05     -0.01
   -1   12   20      0.31     -0.27
    0   12   20      0.14      0.44
   -2   13   20     -0.13     -0.40
   -1   13   20     -0.04     -0.41
    0   13   20      0.15     -0.40
   -2   14   20      0.04     -0.22
   -1   14   20      0.19     -0.21
    0   14   20     -0.19      0.25
    0    0    0      0.00      0.00
loop_
  _platon_squeeze_void_nr
  _platon_squeeze_void_average_x
  _platon_squeeze_void_average_y
  _platon_squeeze_void_average_z
  _platon_squeeze_void_volume
  _platon_squeeze_void_count_electrons
  _platon_squeeze_void_content
   1  0.012  0.022  0.146       194        60 ' '
   2 -0.144  0.522 -0.146       194        60 ' '
_platon_squeeze_void_probe_radius                  1.20
_platon_squeeze_details
(replace by semicolon in column 1 when used as .sqf)
TITL 4ca in P 21
CELL    5.8440   24.1900   17.1390     90.00     98.98     90.00
SPGR P21
C101 0.042 0.485 0.005 !      11.71 eA-3
C102 0.851 0.538 0.783 !       9.83 eA-3
C103 0.436 0.985 0.076 !       9.71 eA-3
C104 0.717 0.054 0.276 !       8.67 eA-3
C105 0.092 0.558 0.777 !       7.12 eA-3
C106 0.785 0.522 0.984 !       3.70 eA-3
C107 0.504 0.021 0.119 !       3.25 eA-3
C108 0.217 0.557 0.864 !       2.05 eA-3
C109 0.374 0.499 0.706 !       1.70 eA-3
C110 0.276 0.512 0.964 !       1.05 eA-3
C111 0.875 0.047 0.093 !       0.99 eA-3
C112 0.632 0.522 0.955 !       0.96 eA-3
C113 0.212 0.470 0.972 !       0.94 eA-3
C114 0.082 0.581 0.703 !       0.85 eA-3
C115 0.215 0.513 0.816 !       0.80 eA-3
C116 0.862 0.462 0.989 !       0.80 eA-3
Q117 0.653 0.087 0.219 !       0.79 eA-3
C118 0.593 0.062 0.110 !       0.79 eA-3
C119 0.332 0.507 0.750 !       0.79 eA-3
C120 1.010 0.472 0.941 !       0.76 eA-3
C121 0.584 0.978 0.129 !       0.75 eA-3
C122 0.904 0.508 0.829 !       0.74 eA-3
C123 0.474 0.473 0.839 !       0.73 eA-3
Q124 0.787 0.427 0.985 !       0.72 eA-3
C125 0.512 0.429 0.895 !       0.72 eA-3
C126 0.593 0.009 0.191 !       0.72 eA-3
Q127 0.412 0.544 0.967 !       0.72 eA-3
Q128 0.189 0.615 0.863 !       0.72 eA-3
Q129 0.779 0.012 0.987 !       0.71 eA-3
C130 0.371 0.476 0.957 !       0.69 eA-3
Q131 0.128 0.093 0.203 !       0.68 eA-3
Q132 0.505 0.211 0.513 !       0.68 eA-3
C133 0.781 0.014 0.349 !       0.68 eA-3
C134 0.846 0.552 0.842 !       0.67 eA-3
C135 0.651 0.526 0.738 !       0.67 eA-3
Q136 0.785 0.511 0.722 !       0.66 eA-3
Q137 0.066 0.200 0.205 !       0.66 eA-3
Q138 0.934 0.805 0.782 !       0.65 eA-3
C139 0.362 0.508 0.919 !       0.65 eA-3
Q140 0.599 0.758 0.281 !       0.65 eA-3
Q141 0.663 0.210 0.514 !       0.65 eA-3
Q142 0.525 0.226 0.080 !       0.65 eA-3
C143 0.595 0.087 0.279 !       0.65 eA-3
C144 0.256 0.954 0.078 !       0.64 eA-3
Q145 0.718 0.791 0.329 !       0.64 eA-3
Q146 0.663 0.312 0.739 !       0.64 eA-3
Q147 0.830 0.267 0.002 !       0.63 eA-3
Q148 0.906 0.095 0.091 !       0.63 eA-3
C149 0.816 0.006 0.098 !       0.63 eA-3
Q150 0.375 0.219 0.858 !       0.63 eA-3
Q151 0.085 0.733 0.000 !       0.62 eA-3
Q152 0.186 0.972 0.969 !       0.62 eA-3
Q153 0.947 0.272 0.050 !       0.61 eA-3
Q154 0.193 0.551 0.968 !       0.61 eA-3
Q155 0.475 0.264 0.236 !       0.61 eA-3
C156 0.971 0.437-0.002 !       0.61 eA-3
Q157 0.780 0.266 0.064 !       0.61 eA-3
Q158 0.835 0.258 0.215 !       0.61 eA-3
Q159 0.586 0.264 0.720 !       0.60 eA-3
Q160 0.156 0.589 0.985 !       0.60 eA-3
Q161 0.124 0.427 0.967 !       0.60 eA-3
C162 0.995 0.095 0.204 !       0.60 eA-3
Q163 0.917 0.218 0.219 !       0.60 eA-3
Q164 0.994 0.809 0.923 !       0.59 eA-3
Q165 0.283 0.017 0.954 !       0.59 eA-3
Q166 0.886 0.132 0.200 !       0.59 eA-3
Q167 0.260 0.218 0.575 !       0.59 eA-3
Q168 0.529 0.775 0.341 !       0.59 eA-3
Q169 0.164 0.311 0.484 !       0.59 eA-3
Q170 0.289 0.610 0.739 !       0.58 eA-3
Q171 0.657 0.117 0.108 !       0.58 eA-3
C172 0.447 0.981 0.251 !       0.57 eA-3
Q173 0.065 0.751 0.809 !       0.57 eA-3
Q174 0.036 0.271 0.363 !       0.57 eA-3
C175 0.695 0.501 0.786 !       0.56 eA-3
Q176 0.954 0.631 0.593 !       0.56 eA-3
Q177 0.606 0.431 0.944 !       0.56 eA-3
Q178 0.037 0.258 0.138 !       0.56 eA-3
Q179 0.831 0.464 0.831 !       0.56 eA-3
Q180 0.259 0.720 0.985 !       0.56 eA-3
Q181 0.030 0.112 0.267 !       0.56 eA-3
Q182 0.687 0.227 0.066 !       0.56 eA-3
Q183 0.038 0.186 0.594 !       0.56 eA-3
C184 0.208 0.471 0.748 !       0.56 eA-3
Q185 0.151 0.797 0.809 !       0.55 eA-3
Q186 0.903 0.307 0.215 !       0.55 eA-3
Q187 0.546 0.095 0.126 !       0.55 eA-3
Q188 0.239 0.718 0.423 !       0.55 eA-3
Q189 0.995 0.259 0.002 !       0.55 eA-3
Q190 0.404 0.516 0.013 !       0.55 eA-3
Q191 0.470 0.814 0.138 !       0.55 eA-3
Q192 0.056 0.170 0.157 !       0.55 eA-3
Q193 0.966 0.124 0.155 !       0.54 eA-3
Q194 0.290 0.267 0.642 !       0.54 eA-3
Q195 0.968 0.668 0.641 !       0.54 eA-3
Q196 0.498 0.846 0.451 !       0.54 eA-3
Q197 0.126 0.420 0.764 !       0.54 eA-3
Q198 0.110 0.743 0.157 !       0.54 eA-3
Q199 0.280 0.306 0.138 !       0.54 eA-3
(replace by semicolon in column 1 when used as .sqf)
;
_shelx_fab_checksum              37975
#END Tags that were not found in dictionaries
loop_
_space_group_symop_operation_xyz
'x, y, z'
'-x, y+1/2, -z'
loop_
_atom_site_label
_atom_site_type_symbol
_atom_site_fract_x
_atom_site_fract_y
_atom_site_fract_z
_atom_site_U_iso_or_equiv
_atom_site_adp_type
_atom_site_occupancy
_atom_site_site_symmetry_order
_atom_site_calc_flag
_atom_site_refinement_flags_posn
_atom_site_refinement_flags_adp
S1 S 0.0906(4) 0.71622(10) 0.35225(12) 0.0304(5) Uani 1 1 d . .
S2 S 0.6080(4) 0.81215(9) 0.40132(13) 0.0323(6) Uani 1 1 d . .
O1 O -0.1192(11) 0.6463(3) -0.0721(4) 0.0422(18) Uani 1 1 d . .
O2 O -0.5324(10) 0.7219(3) 0.0667(3) 0.0336(15) Uani 1 1 d . .
O3 O 0.8450(11) 0.7942(3) 0.8379(4) 0.0459(19) Uani 1 1 d . .
O4 O 0.2873(10) 0.8112(3) 0.6913(3) 0.0282(13) Uani 1 1 d . .
N1 N -0.3103(13) 0.6706(4) -0.1023(4) 0.0336(19) Uani 1 1 d . .
N2 N 0.4446(16) 0.5913(4) 0.0834(6) 0.049(2) Uani 1 1 d . .
N3 N 0.1459(16) 0.4752(4) 0.2252(5) 0.046(2) Uani 1 1 d . .
N4 N 0.6862(15) 0.8246(4) 0.8614(4) 0.041(2) Uani 1 1 d . .
N5 N 1.2614(14) 0.9354(4) 0.6608(5) 0.039(2) Uani 1 1 d . .
N6 N 0.8349(14) 1.0524(3) 0.5242(5) 0.038(2) Uani 1 1 d . .
C13 C -0.4523(14) 0.6972(4) -0.0575(5) 0.0263(19) Uani 1 1 d . .
C14 C -0.6633(15) 0.7200(4) -0.0925(5) 0.035(2) Uani 1 1 d . .
H14 H -0.7599 0.7368 -0.0612 0.042 Uiso 1 1 calc R U
C15 C -0.7291(18) 0.7177(5) -0.1740(5) 0.042(2) Uani 1 1 d . .
H15 H -0.8691 0.7326 -0.1983 0.051 Uiso 1 1 calc R U
C16 C -0.5758(16) 0.6921(5) -0.2181(5) 0.042(3) Uani 1 1 d . .
H16 H -0.6125 0.6910 -0.2729 0.050 Uiso 1 1 calc R U
C17 C -0.3758(19) 0.6691(5) -0.1824(5) 0.045(3) Uani 1 1 d . .
H17 H -0.2797 0.6518 -0.2133 0.055 Uiso 1 1 calc R U
C12 C -0.3856(14) 0.7035(3) 0.0301(4) 0.0229(17) Uani 1 1 d . .
C11 C -0.1451(15) 0.6892(4) 0.0719(5) 0.0261(19) Uani 1 1 d . .
H11A H -0.0315 0.7047 0.0425 0.031 Uiso 1 1 calc R U
H11B H -0.1267 0.6494 0.0725 0.031 Uiso 1 1 calc R U
C10 C -0.0967(14) 0.7109(4) 0.1576(4) 0.0252(18) Uani 1 1 d . .
H10 H -0.2245 0.6996 0.1849 0.030 Uiso 1 1 calc R U
C18 C -0.0815(14) 0.7741(4) 0.1592(5) 0.0257(19) Uani 1 1 d . .
C19 C 0.0836(15) 0.8016(4) 0.1263(5) 0.028(2) Uani 1 1 d . .
H19 H 0.1908 0.7817 0.1029 0.034 Uiso 1 1 calc R U
C20 C 0.0939(17) 0.8597(4) 0.1274(5) 0.035(2) Uani 1 1 d . .
H20 H 0.2091 0.8778 0.1055 0.042 Uiso 1 1 calc R U
C21 C -0.0667(17) 0.8903(4) 0.1611(5) 0.036(2) Uani 1 1 d . .
H21 H -0.0623 0.9288 0.1613 0.043 Uiso 1 1 calc R U
C22 C -0.2365(17) 0.8614(4) 0.1948(5) 0.036(2) Uani 1 1 d . .
H22 H -0.3467 0.8808 0.2175 0.043 Uiso 1 1 calc R U
C23 C -0.2395(16) 0.8039(4) 0.1941(5) 0.030(2) Uani 1 1 d . .
H23 H -0.3499 0.7853 0.2177 0.036 Uiso 1 1 calc R U
C9 C 0.1275(15) 0.6824(3) 0.1979(4) 0.0250(19) Uani 1 1 d . .
H9 H 0.2339 0.6801 0.1591 0.030 Uiso 1 1 calc R U
C8 C 0.2557(14) 0.7100(4) 0.2716(5) 0.032(2) Uani 1 1 d . .
H8A H 0.3029 0.7467 0.2576 0.038 Uiso 1 1 calc R U
H8B H 0.3953 0.6890 0.2899 0.038 Uiso 1 1 calc R U
C1 C 0.0736(14) 0.6229(4) 0.2217(5) 0.0248(19) Uani 1 1 d . .
C24 C 0.1667(16) 0.5786(4) 0.1869(5) 0.029(2) Uani 1 1 d . .
C25 C 0.3118(17) 0.5867(4) 0.1283(6) 0.036(2) Uani 1 1 d . .
C26 C 0.1474(17) 0.5219(5) 0.2087(6) 0.037(2) Uani 1 1 d . .
C2 C -0.0802(15) 0.6163(4) 0.2812(5) 0.027(2) Uani 1 1 d . .
C3 C -0.2303(14) 0.5717(4) 0.2794(5) 0.029(2) Uani 1 1 d . .
H3 H -0.2301 0.5449 0.2404 0.035 Uiso 1 1 calc R U
C4 C -0.3799(15) 0.5658(4) 0.3339(5) 0.028(2) Uani 1 1 d . .
H4 H -0.4806 0.5358 0.3309 0.033 Uiso 1 1 calc R U
C5 C -0.3786(16) 0.6056(4) 0.3939(5) 0.034(2) Uani 1 1 d . .
H5 H -0.4772 0.6023 0.4313 0.041 Uiso 1 1 calc R U
C6 C -0.2265(15) 0.6500(4) 0.3961(5) 0.030(2) Uani 1 1 d . .
H6 H -0.2236 0.6760 0.4362 0.036 Uiso 1 1 calc R U
C7 C -0.0787(14) 0.6572(4) 0.3408(5) 0.0237(18) Uani 1 1 d . .
C27 C 0.4953(15) 0.8425(4) 0.8110(5) 0.031(2) Uani 1 1 d . .
C28 C 0.711(2) 0.8391(6) 0.9383(5) 0.058(4) Uani 1 1 d . .
H28 H 0.8447 0.8290 0.9719 0.069 Uiso 1 1 calc R U
C29 C 0.547(2) 0.8678(7) 0.9678(6) 0.073(5) Uani 1 1 d . .
H29 H 0.5677 0.8758 1.0215 0.087 Uiso 1 1 calc R U
C30 C 0.343(2) 0.8861(8) 0.9183(7) 0.079(5) Uani 1 1 d . .
H30 H 0.2296 0.9066 0.9378 0.094 Uiso 1 1 calc R U
C31 C 0.3231(19) 0.8717(5) 0.8395(6) 0.048(3) Uani 1 1 d . .
H31 H 0.1911 0.8820 0.8050 0.058 Uiso 1 1 calc R U
C32 C 0.4722(14) 0.8293(4) 0.7243(4) 0.0239(18) Uani 1 1 d . .
C33 C 0.6704(14) 0.8423(4) 0.6804(5) 0.0259(19) Uani 1 1 d . .
H33A H 0.8118 0.8271 0.7097 0.031 Uiso 1 1 calc R U
H33B H 0.6889 0.8821 0.6785 0.031 Uiso 1 1 calc R U
C34 C 0.6413(15) 0.7563(3) 0.5955(5) 0.0249(19) Uani 1 1 d . .
C35 C 0.8400(15) 0.7276(4) 0.6288(5) 0.030(2) Uani 1 1 d . .
H35 H 0.9731 0.7468 0.6500 0.036 Uiso 1 1 calc R U
C36 C 0.8380(15) 0.6704(4) 0.6302(5) 0.030(2) Uani 1 1 d . .
H36 H 0.9697 0.6513 0.6531 0.036 Uiso 1 1 calc R U
C37 C 0.6433(17) 0.6413(4) 0.5980(5) 0.034(2) Uani 1 1 d . .
H37 H 0.6440 0.6028 0.5994 0.041 Uiso 1 1 calc R U
C38 C 0.4453(17) 0.6695(4) 0.5634(5) 0.032(2) Uani 1 1 d . .
H38 H 0.3132 0.6502 0.5415 0.039 Uiso 1 1 calc R U
C39 C 0.4476(14) 0.7270(4) 0.5620(5) 0.0265(19) Uani 1 1 d . .
H39 H 0.3169 0.7459 0.5380 0.032 Uiso 1 1 calc R U
C40 C 0.8176(14) 0.8472(3) 0.5517(5) 0.0251(19) Uani 1 1 d . .
H40 H 0.9650 0.8482 0.5879 0.030 Uiso 1 1 calc R U
C41 C 0.8593(15) 0.8173(4) 0.4760(4) 0.029(2) Uani 1 1 d . .
H41A H 0.9156 0.7803 0.4898 0.035 Uiso 1 1 calc R U
H41B H 0.9798 0.8367 0.4540 0.035 Uiso 1 1 calc R U
C42 C 0.8846(15) 0.9489(4) 0.5627(5) 0.0268(19) Uani 1 1 d . .
C43 C 1.0893(16) 0.9401(4) 0.6175(5) 0.031(2) Uani 1 1 d . .
C44 C 0.8496(15) 1.0061(4) 0.5407(6) 0.031(2) Uani 1 1 d . .
C45 C 0.7502(14) 0.9060(4) 0.5292(4) 0.0216(18) Uani 1 1 d . .
C46 C 0.5424(15) 0.9150(4) 0.4693(5) 0.0248(19) Uani 1 1 d . .
C47 C 0.4665(16) 0.8751(4) 0.4116(5) 0.029(2) Uani 1 1 d . .
C48 C 0.2709(16) 0.8844(4) 0.3554(6) 0.036(2) Uani 1 1 d . .
H48 H 0.2247 0.8580 0.3167 0.043 Uiso 1 1 calc R U
C49 C 0.1424(16) 0.9337(5) 0.3570(6) 0.037(2) Uani 1 1 d . .
H49 H 0.0153 0.9403 0.3183 0.045 Uiso 1 1 calc R U
C50 C 0.2051(16) 0.9719(4) 0.4158(5) 0.036(2) Uani 1 1 d . .
H50 H 0.1172 1.0038 0.4182 0.043 Uiso 1 1 calc R U
C51 C 0.4016(14) 0.9627(4) 0.4720(5) 0.029(2) Uani 1 1 d . .
H51 H 0.4413 0.9884 0.5122 0.034 Uiso 1 1 calc R U
C52 C 0.6382(14) 0.8192(4) 0.5948(4) 0.0245(19) Uani 1 1 d . .
H52 H 0.4846 0.8308 0.5685 0.029 Uiso 1 1 calc R U
loop_
_atom_site_aniso_label
_atom_site_aniso_U_11
_atom_site_aniso_U_22
_atom_site_aniso_U_33
_atom_site_aniso_U_23
_atom_site_aniso_U_13
_atom_site_aniso_U_12
S1 0.0366(12) 0.0319(13) 0.0234(10) 0.0015(10) 0.0065(9) -0.0050(11)
S2 0.0442(13) 0.0284(12) 0.0236(10) -0.0040(9) 0.0029(9) 0.0034(11)
O1 0.030(4) 0.062(5) 0.034(3) -0.008(3) 0.000(3) 0.011(3)
O2 0.034(3) 0.044(4) 0.024(3) 0.000(3) 0.007(3) 0.003(3)
O3 0.030(4) 0.057(5) 0.049(4) 0.011(4) 0.000(3) 0.006(4)
O4 0.027(3) 0.035(4) 0.023(3) 0.003(3) 0.003(2) -0.002(3)
N1 0.037(4) 0.044(5) 0.018(3) 0.002(3) -0.002(3) -0.001(4)
N2 0.055(6) 0.044(6) 0.053(5) -0.010(4) 0.021(5) -0.001(5)
N3 0.053(6) 0.033(5) 0.053(5) 0.002(4) 0.014(4) -0.004(4)
N4 0.050(5) 0.044(5) 0.025(4) 0.010(4) -0.008(4) -0.012(4)
N5 0.037(5) 0.035(5) 0.044(5) 0.000(4) 0.003(4) -0.003(4)
N6 0.035(5) 0.026(5) 0.052(5) -0.003(4) 0.003(4) -0.003(4)
C13 0.025(4) 0.031(5) 0.024(4) -0.002(4) 0.009(3) -0.003(4)
C14 0.033(5) 0.043(6) 0.028(4) 0.007(4) 0.003(4) -0.005(5)
C15 0.046(6) 0.050(7) 0.028(4) 0.004(5) -0.006(4) -0.014(5)
C16 0.037(5) 0.063(7) 0.023(4) 0.005(5) -0.003(4) 0.000(5)
C17 0.052(6) 0.063(8) 0.024(5) -0.009(5) 0.013(4) -0.007(6)
C12 0.032(4) 0.021(5) 0.018(4) -0.004(3) 0.010(3) -0.002(4)
C11 0.028(4) 0.029(5) 0.021(4) 0.000(4) -0.001(3) 0.001(4)
C10 0.025(4) 0.029(5) 0.021(4) 0.003(4) 0.001(3) -0.001(4)
C18 0.022(4) 0.037(5) 0.018(4) 0.002(4) 0.000(3) -0.004(4)
C19 0.026(4) 0.028(5) 0.032(4) -0.001(4) 0.010(4) 0.006(4)
C20 0.039(5) 0.036(6) 0.029(5) 0.002(4) 0.009(4) -0.009(5)
C21 0.048(6) 0.032(5) 0.024(4) 0.005(4) -0.002(4) 0.003(5)
C22 0.042(6) 0.037(6) 0.027(5) 0.000(4) 0.001(4) 0.009(5)
C23 0.033(5) 0.030(5) 0.027(4) -0.006(4) 0.006(4) 0.003(4)
C9 0.033(5) 0.029(5) 0.014(3) 0.000(3) 0.007(3) 0.004(4)
C8 0.020(4) 0.043(6) 0.032(4) 0.002(4) 0.003(3) -0.003(4)
C1 0.025(4) 0.028(5) 0.020(4) -0.003(4) -0.002(3) 0.000(4)
C24 0.035(5) 0.025(5) 0.027(4) 0.000(4) 0.005(4) -0.004(4)
C25 0.036(5) 0.039(6) 0.034(5) -0.001(4) 0.012(4) 0.003(5)
C26 0.038(6) 0.041(7) 0.036(5) 0.005(5) 0.014(4) 0.004(5)
C2 0.029(5) 0.035(5) 0.017(4) 0.002(4) 0.004(3) 0.002(4)
C3 0.022(4) 0.035(5) 0.029(4) -0.004(4) 0.002(4) -0.001(4)
C4 0.027(5) 0.028(5) 0.028(4) 0.005(4) 0.001(4) -0.001(4)
C5 0.037(5) 0.042(6) 0.023(4) 0.005(4) 0.000(4) 0.000(5)
C6 0.030(5) 0.033(5) 0.024(4) 0.004(4) -0.001(4) 0.000(4)
C7 0.023(4) 0.027(5) 0.020(4) 0.005(3) 0.002(3) 0.003(4)
C27 0.022(4) 0.050(6) 0.021(4) 0.005(4) 0.003(3) -0.002(4)
C28 0.051(7) 0.103(11) 0.015(4) 0.002(5) -0.007(5) -0.022(7)
C29 0.050(7) 0.142(14) 0.025(5) -0.001(7) 0.002(5) -0.024(8)
C30 0.059(8) 0.142(15) 0.034(6) -0.024(8) 0.003(6) 0.001(9)
C31 0.041(6) 0.080(9) 0.026(5) -0.014(5) 0.010(4) -0.006(6)
C32 0.020(4) 0.031(5) 0.022(4) 0.001(4) 0.004(3) -0.002(4)
C33 0.027(4) 0.031(5) 0.020(4) -0.003(4) 0.004(3) -0.002(4)
C34 0.029(5) 0.019(5) 0.026(4) -0.005(3) 0.004(4) -0.004(4)
C35 0.027(5) 0.033(6) 0.027(4) -0.003(4) -0.002(4) -0.001(4)
C36 0.027(5) 0.033(5) 0.030(4) 0.002(4) 0.001(4) 0.006(4)
C37 0.049(6) 0.025(5) 0.028(4) -0.004(4) 0.003(4) 0.002(4)
C38 0.038(5) 0.037(6) 0.023(4) 0.000(4) 0.008(4) 0.000(4)
C39 0.023(4) 0.022(5) 0.035(5) -0.003(4) 0.007(4) -0.007(4)
C40 0.020(4) 0.020(5) 0.035(4) -0.002(4) 0.004(4) -0.001(3)
C41 0.035(5) 0.034(5) 0.018(4) -0.001(4) 0.003(3) -0.003(4)
C42 0.033(5) 0.025(5) 0.024(4) 0.001(4) 0.007(4) 0.004(4)
C43 0.027(5) 0.032(5) 0.035(5) 0.001(4) 0.009(4) 0.004(4)
C44 0.023(5) 0.028(6) 0.040(5) -0.004(4) 0.002(4) 0.009(4)
C45 0.023(4) 0.025(5) 0.018(4) -0.005(3) 0.008(3) -0.002(3)
C46 0.030(5) 0.024(5) 0.021(4) -0.002(3) 0.007(3) -0.004(4)
C47 0.033(5) 0.026(5) 0.030(4) 0.006(4) 0.010(4) -0.004(4)
C48 0.034(5) 0.044(6) 0.030(5) 0.000(4) 0.004(4) -0.006(5)
C49 0.024(5) 0.052(7) 0.035(5) 0.002(5) -0.001(4) 0.002(5)
C50 0.037(5) 0.042(6) 0.028(5) 0.015(4) 0.004(4) 0.002(5)
C51 0.021(4) 0.040(6) 0.027(4) 0.007(4) 0.008(3) -0.001(4)
C52 0.028(4) 0.026(5) 0.016(4) -0.001(3) -0.005(3) 0.000(4)
loop_
_atom_type_symbol
_atom_type_description
_atom_type_scat_dispersion_real
_atom_type_scat_dispersion_imag
_atom_type_scat_source
C C 0.0033 0.0016 'International Tables Vol C Tables 4.2.6.8 and 6.1.1.4'
H H 0.0000 0.0000 'International Tables Vol C Tables 4.2.6.8 and 6.1.1.4'
N N 0.0061 0.0033 'International Tables Vol C Tables 4.2.6.8 and 6.1.1.4'
O O 0.0106 0.0060 'International Tables Vol C Tables 4.2.6.8 and 6.1.1.4'
S S 0.1246 0.1234 'International Tables Vol C Tables 4.2.6.8 and 6.1.1.4'
loop_
_geom_angle_atom_site_label_1
_geom_angle_atom_site_label_2
_geom_angle_atom_site_label_3
_geom_angle
C7 S1 C8 102.0(4)
C47 S2 C41 102.4(4)
O1 N1 C17 118.6(8)
O1 N1 C13 123.1(7)
C17 N1 C13 118.3(8)
O3 N4 C28 118.7(9)
O3 N4 C27 122.3(7)
C28 N4 C27 119.1(10)
N1 C13 C14 120.9(7)
N1 C13 C12 121.5(7)
C14 C13 C12 117.6(7)
C15 C14 C13 120.2(9)
C14 C15 C16 117.3(9)
C17 C16 C15 121.2(8)
C16 C17 N1 122.1(10)
O2 C12 C13 117.2(7)
O2 C12 C11 120.9(7)
C13 C12 C11 121.8(7)
C12 C11 C10 113.0(7)
C18 C10 C11 111.0(7)
C18 C10 C9 113.3(7)
C11 C10 C9 106.8(7)
C19 C18 C23 119.2(9)
C19 C18 C10 121.5(8)
C23 C18 C10 119.2(8)
C18 C19 C20 120.9(9)
C21 C20 C19 120.5(9)
C20 C21 C22 118.0(10)
C23 C22 C21 120.1(9)
C18 C23 C22 121.2(9)
C8 C9 C1 106.6(7)
C8 C9 C10 116.6(7)
C1 C9 C10 110.0(7)
C9 C8 S1 114.8(6)
C24 C1 C2 122.7(8)
C24 C1 C9 120.0(8)
C2 C1 C9 117.2(7)
C1 C24 C25 121.1(8)
C1 C24 C26 125.4(8)
C25 C24 C26 113.3(8)
N2 C25 C24 175.0(11)
N3 C26 C24 175.6(11)
C3 C2 C7 119.4(8)
C3 C2 C1 121.4(8)
C7 C2 C1 119.2(8)
C4 C3 C2 121.9(8)
C3 C4 C5 119.4(9)
C6 C5 C4 118.5(9)
C7 C6 C5 122.8(9)
C6 C7 C2 117.9(8)
C6 C7 S1 115.5(7)
C2 C7 S1 126.5(7)
N4 C27 C31 120.3(8)
N4 C27 C32 119.7(8)
C31 C27 C32 120.0(8)
C29 C28 N4 122.0(10)
C28 C29 C30 121.1(11)
C31 C30 C29 116.0(13)
C30 C31 C27 121.4(11)
O4 C32 C27 118.1(7)
O4 C32 C33 122.4(7)
C27 C32 C33 119.4(7)
C32 C33 C52 114.0(7)
C39 C34 C35 119.2(8)
C39 C34 C52 120.1(8)
C35 C34 C52 120.6(8)
C36 C35 C34 119.7(8)
C37 C36 C35 120.9(9)
C36 C37 C38 119.9(9)
C39 C38 C37 119.2(9)
C34 C39 C38 121.0(9)
C45 C40 C52 111.7(7)
C45 C40 C41 107.2(7)
C52 C40 C41 114.1(7)
C40 C41 S2 114.5(6)
C45 C42 C43 122.1(8)
C45 C42 C44 124.6(8)
C43 C42 C44 112.9(8)
N5 C43 C42 176.3(11)
N6 C44 C42 176.1(10)
C42 C45 C46 122.2(8)
C42 C45 C40 119.7(7)
C46 C45 C40 118.1(7)
C47 C46 C51 117.3(8)
C47 C46 C45 121.5(8)
C51 C46 C45 121.0(7)
C48 C47 C46 120.8(9)
C48 C47 S2 114.8(7)
C46 C47 S2 124.4(7)
C47 C48 C49 120.3(9)
C50 C49 C48 120.1(9)
C49 C50 C51 119.6(10)
C50 C51 C46 121.7(9)
C34 C52 C40 116.0(7)
C34 C52 C33 110.5(7)
C40 C52 C33 107.8(7)
loop_
_geom_bond_atom_site_label_1
_geom_bond_atom_site_label_2
_geom_bond_distance
S1 C7 1.731(9)
S1 C8 1.811(9)
S2 C47 1.755(10)
S2 C41 1.795(8)
O1 N1 1.296(9)
O2 C12 1.222(9)
O3 N4 1.298(11)
O4 C32 1.221(9)
N1 C17 1.367(11)
N1 C13 1.376(11)
N2 C25 1.180(13)
N3 C26 1.164(13)
N4 C28 1.350(13)
N4 C27 1.370(11)
N5 C43 1.158(12)
N6 C44 1.155(12)
C13 C14 1.398(12)
C13 C12 1.499(10)
C14 C15 1.391(12)
C15 C16 1.403(15)
C16 C17 1.352(14)
C12 C11 1.515(11)
C11 C10 1.543(11)
C10 C18 1.531(13)
C10 C9 1.545(11)
C18 C19 1.363(12)
C18 C23 1.380(13)
C19 C20 1.407(13)
C20 C21 1.389(14)
C21 C22 1.409(14)
C22 C23 1.391(14)
C9 C8 1.520(11)
C9 C1 1.540(12)
C1 C24 1.378(13)
C1 C2 1.471(12)
C24 C25 1.425(13)
C24 C26 1.432(14)
C2 C3 1.388(13)
C2 C7 1.420(12)
C3 C4 1.382(12)
C4 C5 1.409(13)
C5 C6 1.391(13)
C6 C7 1.389(12)
C27 C31 1.381(14)
C27 C32 1.504(11)
C28 C29 1.341(19)
C29 C30 1.424(18)
C30 C31 1.382(15)
C32 C33 1.509(11)
C33 C52 1.554(11)
C34 C39 1.384(11)
C34 C35 1.397(12)
C34 C52 1.521(12)
C35 C36 1.384(13)
C36 C37 1.377(13)
C37 C38 1.395(13)
C38 C39 1.390(13)
C40 C45 1.509(12)
C40 C52 1.531(12)
C40 C41 1.539(12)
C42 C45 1.373(12)
C42 C43 1.417(12)
C42 C44 1.440(13)
C45 C46 1.478(11)
C46 C47 1.405(12)
C46 C51 1.421(12)
C47 C48 1.393(13)
C48 C49 1.412(15)
C49 C50 1.375(14)
C50 C51 1.396(12)
